# generated using pymatgen
data_V12Ga2SiAu
_symmetry_space_group_name_H-M   'P 1'
_cell_length_a   4.79164200
_cell_length_b   4.80656000
_cell_length_c   9.55996900
_cell_angle_alpha   90.00000000
_cell_angle_beta   90.00000000
_cell_angle_gamma   90.00000000
_symmetry_Int_Tables_number   1
_chemical_formula_structural   V12Ga2SiAu
_chemical_formula_sum   'V12 Ga2 Si1 Au1'
_cell_volume   220.17865524
_cell_formula_units_Z   1
loop_
 _symmetry_equiv_pos_site_id
 _symmetry_equiv_pos_as_xyz
  1  'x, y, z'
loop_
 _atom_site_type_symbol
 _atom_site_label
 _atom_site_symmetry_multiplicity
 _atom_site_fract_x
 _atom_site_fract_y
 _atom_site_fract_z
 _atom_site_occupancy
  V  V0  1  0.000000  0.500000  0.122711  1
  V  V1  1  0.000000  0.500000  0.627465  1
  V  V2  1  0.500000  0.250833  0.741176  1
  V  V3  1  0.500000  0.250833  0.258824  1
  V  V4  1  0.751691  0.000000  0.000000  1
  V  V5  1  0.738313  0.000000  0.500000  1
  V  V6  1  0.000000  0.500000  0.877289  1
  V  V7  1  0.000000  0.500000  0.372535  1
  V  V8  1  0.500000  0.749167  0.741176  1
  V  V9  1  0.500000  0.749167  0.258824  1
  V  V10  1  0.248309  0.000000  0.000000  1
  V  V11  1  0.261687  0.000000  0.500000  1
  Ga  Ga12  1  0.000000  0.000000  0.748259  1
  Ga  Ga13  1  0.000000  0.000000  0.251741  1
  Si  Si14  1  0.500000  0.500000  0.500000  1
  Au  Au15  1  0.500000  0.500000  0.000000  1
