# generated using pymatgen
data_MgZr8N10
_symmetry_space_group_name_H-M   'P 1'
_cell_length_a   5.62050326
_cell_length_b   5.62050422
_cell_length_c   10.29273695
_cell_angle_alpha   90.19643409
_cell_angle_beta   90.19643486
_cell_angle_gamma   47.54827183
_symmetry_Int_Tables_number   1
_chemical_formula_structural   MgZr8N10
_chemical_formula_sum   'Mg1 Zr8 N10'
_cell_volume   239.90770150
_cell_formula_units_Z   1
loop_
 _symmetry_equiv_pos_site_id
 _symmetry_equiv_pos_as_xyz
  1  'x, y, z'
loop_
 _atom_site_type_symbol
 _atom_site_label
 _atom_site_symmetry_multiplicity
 _atom_site_fract_x
 _atom_site_fract_y
 _atom_site_fract_z
 _atom_site_occupancy
  Mg  Mg0  1  0.500000  0.500000  0.500000  1
  Zr  Zr1  1  0.697615  0.697615  0.092451  1
  Zr  Zr2  1  0.411306  0.411306  0.189407  1
  Zr  Zr3  1  0.588694  0.588694  0.810593  1
  Zr  Zr4  1  0.302385  0.302385  0.907549  1
  Zr  Zr5  1  0.102404  0.102404  0.292117  1
  Zr  Zr6  1  0.802056  0.802056  0.399824  1
  Zr  Zr7  1  0.197944  0.197944  0.600176  1
  Zr  Zr8  1  0.897596  0.897596  0.707883  1
  N  N9  1  0.397207  0.397207  0.699715  1
  N  N10  1  0.300814  0.300814  0.401614  1
  N  N11  1  0.102035  0.102035  0.788567  1
  N  N12  1  0.000000  0.000000  0.500000  1
  N  N13  1  0.699186  0.699186  0.598386  1
  N  N14  1  0.897965  0.897965  0.211433  1
  N  N15  1  0.602793  0.602793  0.300285  1
  N  N16  1  0.789776  0.789776  0.893972  1
  N  N17  1  0.500000  0.500000  0.000000  1
  N  N18  1  0.210224  0.210224  0.106028  1
