# generated using pymatgen
data_ThPa3Co3NiGe4
_symmetry_space_group_name_H-M   'P 1'
_cell_length_a   4.27529900
_cell_length_b   7.23502359
_cell_length_c   7.13279092
_cell_angle_alpha   89.37741479
_cell_angle_beta   90.00000000
_cell_angle_gamma   90.00000000
_symmetry_Int_Tables_number   1
_chemical_formula_structural   ThPa3Co3NiGe4
_chemical_formula_sum   'Th1 Pa3 Co3 Ni1 Ge4'
_cell_volume   220.61767271
_cell_formula_units_Z   1
loop_
 _symmetry_equiv_pos_site_id
 _symmetry_equiv_pos_as_xyz
  1  'x, y, z'
loop_
 _atom_site_type_symbol
 _atom_site_label
 _atom_site_symmetry_multiplicity
 _atom_site_fract_x
 _atom_site_fract_y
 _atom_site_fract_z
 _atom_site_occupancy
  Th  Th0  1  0.750000  0.505282  0.279548  1
  Pa  Pa1  1  0.250000  0.989610  0.787800  1
  Pa  Pa2  1  0.250000  0.473607  0.723665  1
  Pa  Pa3  1  0.750000  0.006240  0.212506  1
  Co  Co4  1  0.250000  0.240592  0.436488  1
  Co  Co5  1  0.250000  0.762444  0.063180  1
  Co  Co6  1  0.750000  0.263537  0.921762  1
  Ni  Ni7  1  0.750000  0.809339  0.579538  1
  Ge  Ge8  1  0.250000  0.786129  0.413662  1
  Ge  Ge9  1  0.250000  0.273965  0.091180  1
  Ge  Ge10  1  0.750000  0.190787  0.587122  1
  Ge  Ge11  1  0.750000  0.698468  0.903549  1
