# generated using pymatgen
data_Mg3ReN4
_symmetry_space_group_name_H-M   'P 1'
_cell_length_a   6.76237200
_cell_length_b   5.86115500
_cell_length_c   5.33923100
_cell_angle_alpha   89.99998736
_cell_angle_beta   90.00000000
_cell_angle_gamma   90.00000000
_symmetry_Int_Tables_number   1
_chemical_formula_structural   Mg3ReN4
_chemical_formula_sum   'Mg6 Re2 N8'
_cell_volume   211.62207830
_cell_formula_units_Z   2
loop_
 _symmetry_equiv_pos_site_id
 _symmetry_equiv_pos_as_xyz
  1  'x, y, z'
loop_
 _atom_site_type_symbol
 _atom_site_label
 _atom_site_symmetry_multiplicity
 _atom_site_fract_x
 _atom_site_fract_y
 _atom_site_fract_z
 _atom_site_occupancy
  Mg  Mg0  1  0.251173  0.166394  0.855591  1
  Mg  Mg1  1  0.748827  0.166394  0.855591  1
  Mg  Mg2  1  0.248805  0.834021  0.356115  1
  Mg  Mg3  1  0.751195  0.834021  0.356115  1
  Mg  Mg4  1  0.000000  0.657511  0.856714  1
  Mg  Mg5  1  0.500000  0.342220  0.356821  1
  Re  Re6  1  0.000000  0.331624  0.350009  1
  Re  Re7  1  0.500000  0.668291  0.849887  1
  N  N8  1  0.000000  0.637296  0.456202  1
  N  N9  1  0.500000  0.362728  0.956064  1
  N  N10  1  0.000000  0.322955  0.998749  1
  N  N11  1  0.500000  0.676790  0.498777  1
  N  N12  1  0.769432  0.179849  0.458111  1
  N  N13  1  0.230568  0.179849  0.458111  1
  N  N14  1  0.730429  0.820028  0.958192  1
  N  N15  1  0.269571  0.820028  0.958192  1
