# generated using pymatgen
data_Dy4Ho8Os3Rh
_symmetry_space_group_name_H-M   'P 1'
_cell_length_a   6.36400300
_cell_length_b   7.35567495
_cell_length_c   9.06275700
_cell_angle_alpha   90.00000000
_cell_angle_beta   90.00000000
_cell_angle_gamma   90.22799286
_symmetry_Int_Tables_number   1
_chemical_formula_structural   Dy4Ho8Os3Rh
_chemical_formula_sum   'Dy4 Ho8 Os3 Rh1'
_cell_volume   424.23822973
_cell_formula_units_Z   1
loop_
 _symmetry_equiv_pos_site_id
 _symmetry_equiv_pos_as_xyz
  1  'x, y, z'
loop_
 _atom_site_type_symbol
 _atom_site_label
 _atom_site_symmetry_multiplicity
 _atom_site_fract_x
 _atom_site_fract_y
 _atom_site_fract_z
 _atom_site_occupancy
  Dy  Dy0  1  0.869496  0.538164  0.250000  1
  Dy  Dy1  1  0.630296  0.040038  0.250000  1
  Dy  Dy2  1  0.129719  0.461656  0.750000  1
  Dy  Dy3  1  0.369212  0.961649  0.750000  1
  Ho  Ho4  1  0.334065  0.673366  0.061689  1
  Ho  Ho5  1  0.169296  0.177770  0.438091  1
  Ho  Ho6  1  0.669372  0.324285  0.563659  1
  Ho  Ho7  1  0.827506  0.823846  0.933603  1
  Ho  Ho8  1  0.669372  0.324285  0.936341  1
  Ho  Ho9  1  0.827506  0.823846  0.566397  1
  Ho  Ho10  1  0.334065  0.673366  0.438311  1
  Ho  Ho11  1  0.169296  0.177770  0.061909  1
  Os  Os12  1  0.459288  0.383693  0.250000  1
  Os  Os13  1  0.960935  0.115340  0.750000  1
  Os  Os14  1  0.539150  0.616451  0.750000  1
  Rh  Rh15  1  0.041427  0.884479  0.250000  1
