# generated using pymatgen
data_TiCu2Rh3S8
_symmetry_space_group_name_H-M   'P 1'
_cell_length_a   6.80467911
_cell_length_b   6.80467905
_cell_length_c   6.80467945
_cell_angle_alpha   63.83720534
_cell_angle_beta   63.83720827
_cell_angle_gamma   63.83720939
_symmetry_Int_Tables_number   1
_chemical_formula_structural   TiCu2Rh3S8
_chemical_formula_sum   'Ti1 Cu2 Rh3 S8'
_cell_volume   241.64988231
_cell_formula_units_Z   1
loop_
 _symmetry_equiv_pos_site_id
 _symmetry_equiv_pos_as_xyz
  1  'x, y, z'
loop_
 _atom_site_type_symbol
 _atom_site_label
 _atom_site_symmetry_multiplicity
 _atom_site_fract_x
 _atom_site_fract_y
 _atom_site_fract_z
 _atom_site_occupancy
  Ti  Ti0  1  0.500000  0.500000  0.500000  1
  Cu  Cu1  1  0.119895  0.119895  0.119895  1
  Cu  Cu2  1  0.880105  0.880105  0.880105  1
  Rh  Rh3  1  0.000000  0.500000  0.500000  1
  Rh  Rh4  1  0.500000  0.500000  0.000000  1
  Rh  Rh5  1  0.500000  0.000000  0.500000  1
  S  S6  1  0.253922  0.730645  0.253922  1
  S  S7  1  0.253922  0.253922  0.730645  1
  S  S8  1  0.730645  0.253922  0.253922  1
  S  S9  1  0.260026  0.260026  0.260026  1
  S  S10  1  0.746078  0.269355  0.746078  1
  S  S11  1  0.746078  0.746078  0.269355  1
  S  S12  1  0.269355  0.746078  0.746078  1
  S  S13  1  0.739974  0.739974  0.739974  1
