# generated using pymatgen
data_Li4Sm3Sn3Bi
_symmetry_space_group_name_H-M   'P 1'
_cell_length_a   8.78208433
_cell_length_b   8.78208420
_cell_length_c   8.78208468
_cell_angle_alpha   149.16704930
_cell_angle_beta   131.31637878
_cell_angle_gamma   58.74273013
_symmetry_Int_Tables_number   1
_chemical_formula_structural   Li4Sm3Sn3Bi
_chemical_formula_sum   'Li4 Sm3 Sn3 Bi1'
_cell_volume   258.69940782
_cell_formula_units_Z   1
loop_
 _symmetry_equiv_pos_site_id
 _symmetry_equiv_pos_as_xyz
  1  'x, y, z'
loop_
 _atom_site_type_symbol
 _atom_site_label
 _atom_site_symmetry_multiplicity
 _atom_site_fract_x
 _atom_site_fract_y
 _atom_site_fract_z
 _atom_site_occupancy
  Li  Li0  1  0.484856  0.671456  0.813402  1
  Li  Li1  1  0.858054  0.671456  0.186598  1
  Li  Li2  1  0.135075  0.327836  0.807240  1
  Li  Li3  1  0.520597  0.327836  0.192760  1
  Sm  Sm4  1  0.502582  0.002582  0.500000  1
  Sm  Sm5  1  0.872697  0.872697  0.000000  1
  Sm  Sm6  1  0.124369  0.124369  0.000000  1
  Sn  Sn7  1  0.715356  0.215356  0.500000  1
  Sn  Sn8  1  0.801063  0.500322  0.300741  1
  Sn  Sn9  1  0.199581  0.500322  0.699259  1
  Bi  Bi10  1  0.285769  0.785769  0.500000  1
