# generated using pymatgen
data_Zr16Ta4Si15Sb
_symmetry_space_group_name_H-M   'P 1'
_cell_length_a   7.12143217
_cell_length_b   7.09670954
_cell_length_c   13.03921184
_cell_angle_alpha   89.96244677
_cell_angle_beta   89.73439196
_cell_angle_gamma   90.12342941
_symmetry_Int_Tables_number   1
_chemical_formula_structural   Zr16Ta4Si15Sb
_chemical_formula_sum   'Zr16 Ta4 Si15 Sb1'
_cell_volume   658.97652454
_cell_formula_units_Z   1
loop_
 _symmetry_equiv_pos_site_id
 _symmetry_equiv_pos_as_xyz
  1  'x, y, z'
loop_
 _atom_site_type_symbol
 _atom_site_label
 _atom_site_symmetry_multiplicity
 _atom_site_fract_x
 _atom_site_fract_y
 _atom_site_fract_z
 _atom_site_occupancy
  Zr  Zr0  1  0.361369  0.497840  0.374684  1
  Zr  Zr1  1  0.845653  0.008333  0.369145  1
  Zr  Zr2  1  0.002926  0.146262  0.124509  1
  Zr  Zr3  1  0.999194  0.856912  0.631016  1
  Zr  Zr4  1  0.646030  0.496991  0.876595  1
  Zr  Zr5  1  0.505700  0.352499  0.625965  1
  Zr  Zr6  1  0.496536  0.645671  0.122953  1
  Zr  Zr7  1  0.145435  0.002911  0.874233  1
  Zr  Zr8  1  0.999359  0.649758  0.033467  1
  Zr  Zr9  1  0.999970  0.336282  0.537486  1
  Zr  Zr10  1  0.651138  0.000517  0.966280  1
  Zr  Zr11  1  0.151160  0.501034  0.782744  1
  Zr  Zr12  1  0.836564  0.489796  0.274787  1
  Zr  Zr13  1  0.499178  0.150593  0.214161  1
  Zr  Zr14  1  0.503431  0.852326  0.719590  1
  Zr  Zr15  1  0.354156  0.005700  0.467834  1
  Ta  Ta16  1  0.664546  0.677366  0.501573  1
  Ta  Ta17  1  0.825568  0.175802  0.750629  1
  Ta  Ta18  1  0.177163  0.827667  0.244589  1
  Ta  Ta19  1  0.324162  0.325174  0.999728  1
  Si  Si20  1  0.951547  0.301368  0.934954  1
  Si  Si21  1  0.702118  0.047193  0.565127  1
  Si  Si22  1  0.198437  0.452097  0.185051  1
  Si  Si23  1  0.800877  0.549534  0.686181  1
  Si  Si24  1  0.451367  0.200194  0.816064  1
  Si  Si25  1  0.546596  0.801738  0.313272  1
  Si  Si26  1  0.301246  0.952357  0.062593  1
  Si  Si27  1  0.852941  0.797261  0.823084  1
  Si  Si28  1  0.149384  0.200085  0.319830  1
  Si  Si29  1  0.796967  0.852295  0.176831  1
  Si  Si30  1  0.307296  0.647763  0.580253  1
  Si  Si31  1  0.702563  0.353442  0.070855  1
  Si  Si32  1  0.649211  0.301397  0.431754  1
  Si  Si33  1  0.352365  0.701822  0.928028  1
  Si  Si34  1  0.206290  0.146880  0.681047  1
  Sb  Sb35  1  0.041556  0.695138  0.433109  1
