# generated using pymatgen
data_SmY2Lu(MoN3)4
_symmetry_space_group_name_H-M   'P 1'
_cell_length_a   7.31430136
_cell_length_b   7.31430062
_cell_length_c   6.26145757
_cell_angle_alpha   73.99305659
_cell_angle_beta   73.99305124
_cell_angle_gamma   81.91802595
_symmetry_Int_Tables_number   1
_chemical_formula_structural   SmY2Lu(MoN3)4
_chemical_formula_sum   'Sm1 Y2 Lu1 Mo4 N12'
_cell_volume   308.75340098
_cell_formula_units_Z   1
loop_
 _symmetry_equiv_pos_site_id
 _symmetry_equiv_pos_as_xyz
  1  'x, y, z'
loop_
 _atom_site_type_symbol
 _atom_site_label
 _atom_site_symmetry_multiplicity
 _atom_site_fract_x
 _atom_site_fract_y
 _atom_site_fract_z
 _atom_site_occupancy
  Sm  Sm0  1  0.704140  0.295860  0.250000  1
  Y  Y1  1  0.087393  0.912607  0.250000  1
  Y  Y2  1  0.294848  0.705152  0.750000  1
  Lu  Lu3  1  0.913842  0.086158  0.750000  1
  Mo  Mo4  1  0.801438  0.619615  0.765358  1
  Mo  Mo5  1  0.198737  0.380059  0.234800  1
  Mo  Mo6  1  0.619941  0.801263  0.265200  1
  Mo  Mo7  1  0.380385  0.198562  0.734642  1
  N  N8  1  0.215823  0.000811  0.845077  1
  N  N9  1  0.362541  0.350688  0.442549  1
  N  N10  1  0.636775  0.651361  0.558451  1
  N  N11  1  0.624267  0.110453  0.671208  1
  N  N12  1  0.999189  0.784177  0.654923  1
  N  N13  1  0.785117  0.998124  0.143604  1
  N  N14  1  0.108736  0.622545  0.162804  1
  N  N15  1  0.889547  0.375733  0.828792  1
  N  N16  1  0.001876  0.214883  0.356396  1
  N  N17  1  0.348639  0.363225  0.941549  1
  N  N18  1  0.649312  0.637459  0.057451  1
  N  N19  1  0.377455  0.891264  0.337196  1
