# generated using pymatgen
data_Nd3ThAl4(IrRh)2
_symmetry_space_group_name_H-M   'P 1'
_cell_length_a   4.31851200
_cell_length_b   7.04330314
_cell_length_c   8.13502205
_cell_angle_alpha   90.38138945
_cell_angle_beta   90.00000000
_cell_angle_gamma   90.00000000
_symmetry_Int_Tables_number   1
_chemical_formula_structural   Nd3ThAl4(IrRh)2
_chemical_formula_sum   'Nd3 Th1 Al4 Ir2 Rh2'
_cell_volume   247.43414120
_cell_formula_units_Z   1
loop_
 _symmetry_equiv_pos_site_id
 _symmetry_equiv_pos_as_xyz
  1  'x, y, z'
loop_
 _atom_site_type_symbol
 _atom_site_label
 _atom_site_symmetry_multiplicity
 _atom_site_fract_x
 _atom_site_fract_y
 _atom_site_fract_z
 _atom_site_occupancy
  Nd  Nd0  1  0.750000  0.461230  0.814785  1
  Nd  Nd1  1  0.750000  0.959760  0.680305  1
  Nd  Nd2  1  0.250000  0.038054  0.320391  1
  Th  Th3  1  0.250000  0.537642  0.178333  1
  Al  Al4  1  0.250000  0.631887  0.560363  1
  Al  Al5  1  0.750000  0.363070  0.439239  1
  Al  Al6  1  0.750000  0.874253  0.062076  1
  Al  Al7  1  0.250000  0.134544  0.939085  1
  Ir  Ir8  1  0.750000  0.241642  0.121553  1
  Ir  Ir9  1  0.750000  0.724201  0.374705  1
  Rh  Rh10  1  0.250000  0.766549  0.891896  1
  Rh  Rh11  1  0.250000  0.267168  0.617268  1
