# generated using pymatgen
data_TbCeSi2(Os2C)2
_symmetry_space_group_name_H-M   'P 1'
_cell_length_a   5.90243715
_cell_length_b   5.90243744
_cell_length_c   7.13975400
_cell_angle_alpha   90.00000000
_cell_angle_beta   90.00000000
_cell_angle_gamma   141.18605884
_symmetry_Int_Tables_number   1
_chemical_formula_structural   TbCeSi2(Os2C)2
_chemical_formula_sum   'Tb1 Ce1 Si2 Os4 C2'
_cell_volume   155.90873264
_cell_formula_units_Z   1
loop_
 _symmetry_equiv_pos_site_id
 _symmetry_equiv_pos_as_xyz
  1  'x, y, z'
loop_
 _atom_site_type_symbol
 _atom_site_label
 _atom_site_symmetry_multiplicity
 _atom_site_fract_x
 _atom_site_fract_y
 _atom_site_fract_z
 _atom_site_occupancy
  Tb  Tb0  1  0.549449  0.450551  0.250000  1
  Ce  Ce1  1  0.448412  0.551588  0.750000  1
  Si  Si2  1  0.269699  0.730301  0.250000  1
  Si  Si3  1  0.728187  0.271813  0.750000  1
  Os  Os4  1  0.834681  0.165319  0.058477  1
  Os  Os5  1  0.166220  0.833780  0.943299  1
  Os  Os6  1  0.166220  0.833780  0.556701  1
  Os  Os7  1  0.834681  0.165319  0.441523  1
  C  C8  1  0.001224  0.998776  0.004150  1
  C  C9  1  0.001224  0.998776  0.495850  1
