# generated using pymatgen
data_LaYbPt10
_symmetry_space_group_name_H-M   'P 1'
_cell_length_a   4.42350000
_cell_length_b   5.43074300
_cell_length_c   9.37549600
_cell_angle_alpha   89.99998945
_cell_angle_beta   90.00000000
_cell_angle_gamma   90.00000000
_symmetry_Int_Tables_number   1
_chemical_formula_structural   LaYbPt10
_chemical_formula_sum   'La1 Yb1 Pt10'
_cell_volume   225.22652467
_cell_formula_units_Z   1
loop_
 _symmetry_equiv_pos_site_id
 _symmetry_equiv_pos_as_xyz
  1  'x, y, z'
loop_
 _atom_site_type_symbol
 _atom_site_label
 _atom_site_symmetry_multiplicity
 _atom_site_fract_x
 _atom_site_fract_y
 _atom_site_fract_z
 _atom_site_occupancy
  La  La0  1  0.000000  0.999983  0.000000  1
  Yb  Yb1  1  0.000000  0.499977  0.500000  1
  Pt  Pt2  1  0.000000  0.999977  0.336143  1
  Pt  Pt3  1  0.000000  0.499975  0.829483  1
  Pt  Pt4  1  0.000000  0.499975  0.170517  1
  Pt  Pt5  1  0.000000  0.999977  0.663857  1
  Pt  Pt6  1  0.500000  0.999993  0.500000  1
  Pt  Pt7  1  0.500000  0.499994  0.000000  1
  Pt  Pt8  1  0.500000  0.250173  0.251353  1
  Pt  Pt9  1  0.500000  0.749801  0.748650  1
  Pt  Pt10  1  0.500000  0.749801  0.251350  1
  Pt  Pt11  1  0.500000  0.250173  0.748647  1
