# generated using pymatgen
data_Tb20Fe2Co2Bi7Sb
_symmetry_space_group_name_H-M   'P 1'
_cell_length_a   8.02589594
_cell_length_b   8.91372580
_cell_length_c   12.44226101
_cell_angle_alpha   90.00882590
_cell_angle_beta   90.10274070
_cell_angle_gamma   89.95223579
_symmetry_Int_Tables_number   1
_chemical_formula_structural   Tb20Fe2Co2Bi7Sb
_chemical_formula_sum   'Tb20 Fe2 Co2 Bi7 Sb1'
_cell_volume   890.12551169
_cell_formula_units_Z   1
loop_
 _symmetry_equiv_pos_site_id
 _symmetry_equiv_pos_as_xyz
  1  'x, y, z'
loop_
 _atom_site_type_symbol
 _atom_site_label
 _atom_site_symmetry_multiplicity
 _atom_site_fract_x
 _atom_site_fract_y
 _atom_site_fract_z
 _atom_site_occupancy
  Tb  Tb0  1  0.155634  0.746475  0.201251  1
  Tb  Tb1  1  0.651048  0.252844  0.297059  1
  Tb  Tb2  1  0.849140  0.250099  0.803459  1
  Tb  Tb3  1  0.348994  0.750136  0.698256  1
  Tb  Tb4  1  0.447789  0.747400  0.997517  1
  Tb  Tb5  1  0.945240  0.249711  0.503955  1
  Tb  Tb6  1  0.548014  0.252311  0.004942  1
  Tb  Tb7  1  0.049946  0.750288  0.496433  1
  Tb  Tb8  1  0.615440  0.746974  0.307607  1
  Tb  Tb9  1  0.120797  0.252669  0.190275  1
  Tb  Tb10  1  0.383026  0.250064  0.689645  1
  Tb  Tb11  1  0.883028  0.750078  0.810288  1
  Tb  Tb12  1  0.825658  0.967812  0.062659  1
  Tb  Tb13  1  0.326325  0.030935  0.437642  1
  Tb  Tb14  1  0.177723  0.460017  0.938635  1
  Tb  Tb15  1  0.677871  0.541384  0.562991  1
  Tb  Tb16  1  0.178028  0.039037  0.937579  1
  Tb  Tb17  1  0.677979  0.959092  0.562743  1
  Tb  Tb18  1  0.823650  0.533547  0.062870  1
  Tb  Tb19  1  0.327158  0.468652  0.435587  1
  Fe  Fe20  1  0.427902  0.749799  0.487452  1
  Fe  Fe21  1  0.929731  0.250551  0.012358  1
  Co  Co22  1  0.565248  0.250065  0.507174  1
  Co  Co23  1  0.066031  0.749836  0.992287  1
  Bi  Bi24  1  0.927353  0.992520  0.325445  1
  Bi  Bi25  1  0.427231  0.007625  0.173339  1
  Bi  Bi26  1  0.072367  0.491233  0.674032  1
  Bi  Bi27  1  0.571906  0.508187  0.826027  1
  Bi  Bi28  1  0.072121  0.008755  0.674079  1
  Bi  Bi29  1  0.571732  0.991873  0.827362  1
  Bi  Bi30  1  0.927652  0.507711  0.326817  1
  Sb  Sb31  1  0.428239  0.492318  0.172235  1
