# generated using pymatgen
data_Th2Sc3(In2Rh)2
_symmetry_space_group_name_H-M   'P 1'
_cell_length_a   3.74281300
_cell_length_b   7.82127800
_cell_length_c   17.46763200
_cell_angle_alpha   90.00000000
_cell_angle_beta   90.00000000
_cell_angle_gamma   90.00000000
_symmetry_Int_Tables_number   1
_chemical_formula_structural   Th2Sc3(In2Rh)2
_chemical_formula_sum   'Th4 Sc6 In8 Rh4'
_cell_volume   511.34013979
_cell_formula_units_Z   2
loop_
 _symmetry_equiv_pos_site_id
 _symmetry_equiv_pos_as_xyz
  1  'x, y, z'
loop_
 _atom_site_type_symbol
 _atom_site_label
 _atom_site_symmetry_multiplicity
 _atom_site_fract_x
 _atom_site_fract_y
 _atom_site_fract_z
 _atom_site_occupancy
  Th  Th0  1  0.000000  0.763975  0.783163  1
  Th  Th1  1  0.000000  0.236025  0.216837  1
  Th  Th2  1  0.000000  0.263975  0.716837  1
  Th  Th3  1  0.000000  0.736025  0.283163  1
  Sc  Sc4  1  0.000000  0.000000  0.000000  1
  Sc  Sc5  1  0.000000  0.500000  0.500000  1
  Sc  Sc6  1  0.000000  0.894236  0.585616  1
  Sc  Sc7  1  0.000000  0.105764  0.414384  1
  Sc  Sc8  1  0.000000  0.394236  0.914384  1
  Sc  Sc9  1  0.000000  0.605764  0.085616  1
  In  In10  1  0.500000  0.797945  0.446448  1
  In  In11  1  0.500000  0.202055  0.553552  1
  In  In12  1  0.500000  0.297945  0.053552  1
  In  In13  1  0.500000  0.702055  0.946448  1
  In  In14  1  0.500000  0.906670  0.139242  1
  In  In15  1  0.500000  0.093330  0.860758  1
  In  In16  1  0.500000  0.406670  0.360758  1
  In  In17  1  0.500000  0.593330  0.639242  1
  Rh  Rh18  1  0.500000  0.978648  0.695615  1
  Rh  Rh19  1  0.500000  0.021352  0.304385  1
  Rh  Rh20  1  0.500000  0.478648  0.804385  1
  Rh  Rh21  1  0.500000  0.521352  0.195615  1
