# generated using pymatgen
data_Rb4Mn3Zn3Te8
_symmetry_space_group_name_H-M   'P 1'
_cell_length_a   10.41519541
_cell_length_b   10.41266668
_cell_length_c   10.41519520
_cell_angle_alpha   143.81434149
_cell_angle_beta   105.00488396
_cell_angle_gamma   86.22551406
_symmetry_Int_Tables_number   1
_chemical_formula_structural   Rb4Mn3Zn3Te8
_chemical_formula_sum   'Rb4 Mn3 Zn3 Te8'
_cell_volume   623.52035457
_cell_formula_units_Z   1
loop_
 _symmetry_equiv_pos_site_id
 _symmetry_equiv_pos_as_xyz
  1  'x, y, z'
loop_
 _atom_site_type_symbol
 _atom_site_label
 _atom_site_symmetry_multiplicity
 _atom_site_fract_x
 _atom_site_fract_y
 _atom_site_fract_z
 _atom_site_occupancy
  Rb  Rb0  1  0.123244  0.265013  0.387829  1
  Rb  Rb1  1  0.876604  0.734816  0.611701  1
  Rb  Rb2  1  0.622816  0.234987  0.858230  1
  Rb  Rb3  1  0.376886  0.765184  0.141789  1
  Mn  Mn4  1  0.485001  0.750000  0.735001  1
  Mn  Mn5  1  0.984371  0.250000  0.734371  1
  Mn  Mn6  1  0.014827  0.750000  0.264827  1
  Zn  Zn7  1  0.249138  0.250000  0.999138  1
  Zn  Zn8  1  0.749101  0.750000  0.999101  1
  Zn  Zn9  1  0.517312  0.250000  0.267312  1
  Te  Te10  1  0.483310  0.576925  0.353443  1
  Te  Te11  1  0.518074  0.415229  0.639871  1
  Te  Te12  1  0.226969  0.128704  0.644919  1
  Te  Te13  1  0.276518  0.923075  0.906385  1
  Te  Te14  1  0.772315  0.870783  0.353441  1
  Te  Te15  1  0.724642  0.084771  0.102845  1
  Te  Te16  1  0.016215  0.371296  0.098265  1
  Te  Te17  1  0.982659  0.629217  0.901533  1
