# generated using pymatgen
data_CuBrO4
_symmetry_space_group_name_H-M   'P 1'
_cell_length_a   5.72247800
_cell_length_b   6.29065000
_cell_length_c   10.18636500
_cell_angle_alpha   90.00000000
_cell_angle_beta   90.00000000
_cell_angle_gamma   90.00000000
_symmetry_Int_Tables_number   1
_chemical_formula_structural   CuBrO4
_chemical_formula_sum   'Cu4 Br4 O16'
_cell_volume   366.68984937
_cell_formula_units_Z   4
loop_
 _symmetry_equiv_pos_site_id
 _symmetry_equiv_pos_as_xyz
  1  'x, y, z'
loop_
 _atom_site_type_symbol
 _atom_site_label
 _atom_site_symmetry_multiplicity
 _atom_site_fract_x
 _atom_site_fract_y
 _atom_site_fract_z
 _atom_site_occupancy
  Cu  Cu0  1  0.000000  0.500000  0.000000  1
  Cu  Cu1  1  0.500000  0.000000  0.500000  1
  Cu  Cu2  1  0.000000  0.000000  0.000000  1
  Cu  Cu3  1  0.500000  0.500000  0.500000  1
  Br  Br4  1  0.984761  0.750000  0.245216  1
  Br  Br5  1  0.515239  0.750000  0.745216  1
  Br  Br6  1  0.015239  0.250000  0.754784  1
  Br  Br7  1  0.484761  0.250000  0.254784  1
  O  O8  1  0.152191  0.750000  0.036510  1
  O  O9  1  0.347809  0.750000  0.536510  1
  O  O10  1  0.847809  0.250000  0.963490  1
  O  O11  1  0.652191  0.250000  0.463490  1
  O  O12  1  0.821713  0.750000  0.378967  1
  O  O13  1  0.678287  0.750000  0.878967  1
  O  O14  1  0.178287  0.250000  0.621033  1
  O  O15  1  0.321713  0.250000  0.121033  1
  O  O16  1  0.856671  0.528536  0.163393  1
  O  O17  1  0.643329  0.971464  0.663393  1
  O  O18  1  0.143329  0.028536  0.836607  1
  O  O19  1  0.356671  0.471464  0.336607  1
  O  O20  1  0.143329  0.471464  0.836607  1
  O  O21  1  0.356671  0.028536  0.336607  1
  O  O22  1  0.856671  0.971464  0.163393  1
  O  O23  1  0.643329  0.528536  0.663393  1
