# generated using pymatgen
data_Yb2USb7
_symmetry_space_group_name_H-M   'P 1'
_cell_length_a   14.14884507
_cell_length_b   14.14884555
_cell_length_c   4.14181100
_cell_angle_alpha   90.00000000
_cell_angle_beta   90.00000000
_cell_angle_gamma   160.61831442
_symmetry_Int_Tables_number   1
_chemical_formula_structural   Yb2USb7
_chemical_formula_sum   'Yb2 U1 Sb7'
_cell_volume   275.16087469
_cell_formula_units_Z   1
loop_
 _symmetry_equiv_pos_site_id
 _symmetry_equiv_pos_as_xyz
  1  'x, y, z'
loop_
 _atom_site_type_symbol
 _atom_site_label
 _atom_site_symmetry_multiplicity
 _atom_site_fract_x
 _atom_site_fract_y
 _atom_site_fract_z
 _atom_site_occupancy
  Yb  Yb0  1  0.685035  0.314967  0.000000  1
  Yb  Yb1  1  0.314967  0.685035  0.000000  1
  U  U2  1  0.000000  0.000000  0.499999  1
  Sb  Sb3  1  0.906356  0.093646  0.000000  1
  Sb  Sb4  1  0.500001  0.500001  0.000000  1
  Sb  Sb5  1  0.093646  0.906356  0.000000  1
  Sb  Sb6  1  0.777523  0.222479  0.499999  1
  Sb  Sb7  1  0.593511  0.406491  0.499999  1
  Sb  Sb8  1  0.406491  0.593511  0.499999  1
  Sb  Sb9  1  0.222479  0.777523  0.499999  1
