# generated using pymatgen
data_Nb4FeCo5Os2
_symmetry_space_group_name_H-M   'P 1'
_cell_length_a   4.86295800
_cell_length_b   4.84515809
_cell_length_c   8.08890200
_cell_angle_alpha   90.00001795
_cell_angle_beta   90.00000000
_cell_angle_gamma   120.12160133
_symmetry_Int_Tables_number   1
_chemical_formula_structural   Nb4FeCo5Os2
_chemical_formula_sum   'Nb4 Fe1 Co5 Os2'
_cell_volume   164.85237734
_cell_formula_units_Z   1
loop_
 _symmetry_equiv_pos_site_id
 _symmetry_equiv_pos_as_xyz
  1  'x, y, z'
loop_
 _atom_site_type_symbol
 _atom_site_label
 _atom_site_symmetry_multiplicity
 _atom_site_fract_x
 _atom_site_fract_y
 _atom_site_fract_z
 _atom_site_occupancy
  Nb  Nb0  1  0.666274  0.332549  0.072070  1
  Nb  Nb1  1  0.666275  0.332551  0.427904  1
  Nb  Nb2  1  0.332392  0.664785  0.569803  1
  Nb  Nb3  1  0.332390  0.664781  0.930216  1
  Fe  Fe4  1  0.829457  0.658915  0.749996  1
  Co  Co5  1  0.170538  0.341076  0.250016  1
  Co  Co6  1  0.170445  0.828538  0.250010  1
  Co  Co7  1  0.658093  0.828538  0.250010  1
  Co  Co8  1  0.344924  0.175873  0.749987  1
  Co  Co9  1  0.830948  0.175873  0.749987  1
  Os  Os10  1  0.999134  0.998268  0.999903  1
  Os  Os11  1  0.999127  0.998254  0.500096  1
