# generated using pymatgen
data_Nd6Tl7InHgGe
_symmetry_space_group_name_H-M   'P 1'
_cell_length_a   8.64781281
_cell_length_b   8.63625389
_cell_length_c   8.65992840
_cell_angle_alpha   120.33472406
_cell_angle_beta   120.36350204
_cell_angle_gamma   89.32740182
_symmetry_Int_Tables_number   1
_chemical_formula_structural   Nd6Tl7InHgGe
_chemical_formula_sum   'Nd6 Tl7 In1 Hg1 Ge1'
_cell_volume   455.16088494
_cell_formula_units_Z   1
loop_
 _symmetry_equiv_pos_site_id
 _symmetry_equiv_pos_as_xyz
  1  'x, y, z'
loop_
 _atom_site_type_symbol
 _atom_site_label
 _atom_site_symmetry_multiplicity
 _atom_site_fract_x
 _atom_site_fract_y
 _atom_site_fract_z
 _atom_site_occupancy
  Nd  Nd0  1  0.764086  0.764552  0.000451  1
  Nd  Nd1  1  0.235573  0.236375  0.000298  1
  Nd  Nd2  1  0.675778  0.145094  0.821540  1
  Nd  Nd3  1  0.323519  0.855620  0.179394  1
  Nd  Nd4  1  0.147166  0.323020  0.468710  1
  Nd  Nd5  1  0.854214  0.676761  0.532121  1
  Tl  Tl6  1  0.327917  0.807003  0.789216  1
  Tl  Tl7  1  0.670465  0.193160  0.211242  1
  Tl  Tl8  1  0.018350  0.538955  0.211433  1
  Tl  Tl9  1  0.805991  0.018344  0.479040  1
  Tl  Tl10  1  0.460752  0.668543  0.480025  1
  Tl  Tl11  1  0.978938  0.461296  0.788929  1
  Tl  Tl12  1  0.192871  0.981701  0.521309  1
  In  In13  1  0.543917  0.330223  0.517918  1
  Hg  Hg14  1  0.500025  0.499171  0.997939  1
  Ge  Ge15  1  0.000438  0.000180  0.000436  1
