# generated using pymatgen
data_NpF17
_symmetry_space_group_name_H-M   'P 1'
_cell_length_a   9.04640566
_cell_length_b   8.69893193
_cell_length_c   10.37408266
_cell_angle_alpha   84.36397230
_cell_angle_beta   88.34980533
_cell_angle_gamma   68.57690884
_symmetry_Int_Tables_number   1
_chemical_formula_structural   NpF17
_chemical_formula_sum   'Np2 F34'
_cell_volume   756.27819709
_cell_formula_units_Z   2
loop_
 _symmetry_equiv_pos_site_id
 _symmetry_equiv_pos_as_xyz
  1  'x, y, z'
loop_
 _atom_site_type_symbol
 _atom_site_label
 _atom_site_symmetry_multiplicity
 _atom_site_fract_x
 _atom_site_fract_y
 _atom_site_fract_z
 _atom_site_occupancy
  Np  Np0  1  0.863924  0.251284  0.760743  1
  Np  Np1  1  0.136076  0.748716  0.239257  1
  F  F2  1  0.594563  0.203010  0.485418  1
  F  F3  1  0.405437  0.796990  0.514582  1
  F  F4  1  0.816115  0.699614  0.723393  1
  F  F5  1  0.183885  0.300386  0.276607  1
  F  F6  1  0.078516  0.773331  0.855621  1
  F  F7  1  0.921484  0.226669  0.144379  1
  F  F8  1  0.555959  0.138105  0.375041  1
  F  F9  1  0.444041  0.861895  0.624959  1
  F  F10  1  0.638792  0.320093  0.697157  1
  F  F11  1  0.361208  0.679907  0.302843  1
  F  F12  1  0.935391  0.063116  0.648192  1
  F  F13  1  0.064609  0.936884  0.351808  1
  F  F14  1  0.910224  0.391618  0.612201  1
  F  F15  1  0.089776  0.608382  0.387799  1
  F  F16  1  0.849191  0.800453  0.618388  1
  F  F17  1  0.150809  0.199547  0.381612  1
  F  F18  1  0.797930  0.443908  0.869894  1
  F  F19  1  0.202070  0.556092  0.130106  1
  F  F20  1  0.208806  0.689744  0.776443  1
  F  F21  1  0.791194  0.310256  0.223557  1
  F  F22  1  0.914832  0.816378  0.169170  1
  F  F23  1  0.085168  0.183622  0.830830  1
  F  F24  1  0.816736  0.105298  0.905505  1
  F  F25  1  0.183264  0.894702  0.094495  1
  F  F26  1  0.479690  0.586166  0.980711  1
  F  F27  1  0.520310  0.413834  0.019289  1
  F  F28  1  0.461114  0.076693  0.869524  1
  F  F29  1  0.538886  0.923307  0.130476  1
  F  F30  1  0.293049  0.231997  0.616897  1
  F  F31  1  0.706951  0.768003  0.383103  1
  F  F32  1  0.258169  0.384821  0.672640  1
  F  F33  1  0.741831  0.615179  0.327360  1
  F  F34  1  0.561576  0.915886  0.838139  1
  F  F35  1  0.438424  0.084114  0.161861  1
