# generated using pymatgen
data_Er5In4HgRh
_symmetry_space_group_name_H-M   'P 1'
_cell_length_a   3.61366700
_cell_length_b   8.22755802
_cell_length_c   18.40576014
_cell_angle_alpha   89.73392061
_cell_angle_beta   90.00000000
_cell_angle_gamma   90.00000000
_symmetry_Int_Tables_number   1
_chemical_formula_structural   Er5In4HgRh
_chemical_formula_sum   'Er10 In8 Hg2 Rh2'
_cell_volume   547.22780777
_cell_formula_units_Z   2
loop_
 _symmetry_equiv_pos_site_id
 _symmetry_equiv_pos_as_xyz
  1  'x, y, z'
loop_
 _atom_site_type_symbol
 _atom_site_label
 _atom_site_symmetry_multiplicity
 _atom_site_fract_x
 _atom_site_fract_y
 _atom_site_fract_z
 _atom_site_occupancy
  Er  Er0  1  0.000000  0.122264  0.422995  1
  Er  Er1  1  0.000000  0.877736  0.577005  1
  Er  Er2  1  0.000000  0.384960  0.915159  1
  Er  Er3  1  0.000000  0.615040  0.084841  1
  Er  Er4  1  0.000000  0.266622  0.212821  1
  Er  Er5  1  0.000000  0.733378  0.787179  1
  Er  Er6  1  0.000000  0.286456  0.723827  1
  Er  Er7  1  0.000000  0.713544  0.276173  1
  Er  Er8  1  0.000000  0.000000  0.000000  1
  Er  Er9  1  0.000000  0.500000  0.500000  1
  In  In10  1  0.500000  0.419930  0.351359  1
  In  In11  1  0.500000  0.580070  0.648641  1
  In  In12  1  0.500000  0.083662  0.854276  1
  In  In13  1  0.500000  0.916338  0.145724  1
  In  In14  1  0.500000  0.295594  0.064944  1
  In  In15  1  0.500000  0.704406  0.935056  1
  In  In16  1  0.500000  0.212879  0.568342  1
  In  In17  1  0.500000  0.787121  0.431658  1
  Hg  Hg18  1  0.500000  0.026014  0.299908  1
  Hg  Hg19  1  0.500000  0.973986  0.700092  1
  Rh  Rh20  1  0.500000  0.475454  0.805782  1
  Rh  Rh21  1  0.500000  0.524546  0.194218  1
