# generated using pymatgen
data_LaPr3(Sn5Rh3)2
_symmetry_space_group_name_H-M   'P 1'
_cell_length_a   13.66717361
_cell_length_b   13.66717519
_cell_length_c   7.30278790
_cell_angle_alpha   90.19217306
_cell_angle_beta   89.80782696
_cell_angle_gamma   160.80020519
_symmetry_Int_Tables_number   1
_chemical_formula_structural   LaPr3(Sn5Rh3)2
_chemical_formula_sum   'La1 Pr3 Sn10 Rh6'
_cell_volume   448.59973343
_cell_formula_units_Z   1
loop_
 _symmetry_equiv_pos_site_id
 _symmetry_equiv_pos_as_xyz
  1  'x, y, z'
loop_
 _atom_site_type_symbol
 _atom_site_label
 _atom_site_symmetry_multiplicity
 _atom_site_fract_x
 _atom_site_fract_y
 _atom_site_fract_z
 _atom_site_occupancy
  La  La0  1  0.524720  0.475280  0.237120  1
  Pr  Pr1  1  0.172627  0.827373  0.753977  1
  Pr  Pr2  1  0.827459  0.172541  0.253288  1
  Pr  Pr3  1  0.475719  0.524281  0.738257  1
  Sn  Sn4  1  0.878306  0.121694  0.733402  1
  Sn  Sn5  1  0.122303  0.877697  0.233346  1
  Sn  Sn6  1  0.704202  0.295798  0.049262  1
  Sn  Sn7  1  0.295605  0.704395  0.549084  1
  Sn  Sn8  1  0.596687  0.403313  0.611996  1
  Sn  Sn9  1  0.403247  0.596753  0.111558  1
  Sn  Sn10  1  0.951078  0.048922  0.401837  1
  Sn  Sn11  1  0.048495  0.951505  0.898765  1
  Sn  Sn12  1  0.289867  0.710133  0.974263  1
  Sn  Sn13  1  0.710311  0.289689  0.474111  1
  Rh  Rh14  1  0.052072  0.947928  0.519521  1
  Rh  Rh15  1  0.948226  0.051774  0.020025  1
  Rh  Rh16  1  0.776918  0.223082  0.763899  1
  Rh  Rh17  1  0.223097  0.776903  0.264035  1
  Rh  Rh18  1  0.394302  0.605698  0.483756  1
  Rh  Rh19  1  0.604757  0.395243  0.984497  1
