# generated using pymatgen
data_Y6Sc4Si5Ge
_symmetry_space_group_name_H-M   'P 1'
_cell_length_a   8.30594400
_cell_length_b   8.30884701
_cell_length_c   6.06499600
_cell_angle_alpha   90.00000000
_cell_angle_beta   90.00000000
_cell_angle_gamma   119.98843504
_symmetry_Int_Tables_number   1
_chemical_formula_structural   Y6Sc4Si5Ge
_chemical_formula_sum   'Y6 Sc4 Si5 Ge1'
_cell_volume   362.52796320
_cell_formula_units_Z   1
loop_
 _symmetry_equiv_pos_site_id
 _symmetry_equiv_pos_as_xyz
  1  'x, y, z'
loop_
 _atom_site_type_symbol
 _atom_site_label
 _atom_site_symmetry_multiplicity
 _atom_site_fract_x
 _atom_site_fract_y
 _atom_site_fract_z
 _atom_site_occupancy
  Y  Y0  1  0.998336  0.751420  0.750000  1
  Y  Y1  1  0.999890  0.247084  0.250000  1
  Y  Y2  1  0.752806  0.752916  0.250000  1
  Y  Y3  1  0.754162  0.000000  0.750000  1
  Y  Y4  1  0.246916  0.248580  0.750000  1
  Y  Y5  1  0.246625  0.000000  0.250000  1
  Sc  Sc6  1  0.333198  0.665290  0.499056  1
  Sc  Sc7  1  0.667909  0.334710  0.000944  1
  Sc  Sc8  1  0.667909  0.334710  0.499056  1
  Sc  Sc9  1  0.333198  0.665290  0.000944  1
  Si  Si10  1  0.398749  0.398575  0.250000  1
  Si  Si11  1  0.000174  0.601425  0.250000  1
  Si  Si12  1  0.999876  0.398718  0.750000  1
  Si  Si13  1  0.601158  0.601282  0.750000  1
  Si  Si14  1  0.601664  0.000000  0.250000  1
  Ge  Ge15  1  0.397429  0.000000  0.750000  1
