# generated using pymatgen
data_Tb3Al12RuRh3
_symmetry_space_group_name_H-M   'P 1'
_cell_length_a   8.83636300
_cell_length_b   8.83636339
_cell_length_c   9.50189100
_cell_angle_alpha   90.00000000
_cell_angle_beta   90.00000000
_cell_angle_gamma   120.00000227
_symmetry_Int_Tables_number   1
_chemical_formula_structural   Tb3Al12RuRh3
_chemical_formula_sum   'Tb6 Al24 Ru2 Rh6'
_cell_volume   642.52167401
_cell_formula_units_Z   2
loop_
 _symmetry_equiv_pos_site_id
 _symmetry_equiv_pos_as_xyz
  1  'x, y, z'
loop_
 _atom_site_type_symbol
 _atom_site_label
 _atom_site_symmetry_multiplicity
 _atom_site_fract_x
 _atom_site_fract_y
 _atom_site_fract_z
 _atom_site_occupancy
  Tb  Tb0  1  0.382561  0.191280  0.250000  1
  Tb  Tb1  1  0.808720  0.191280  0.250000  1
  Tb  Tb2  1  0.808720  0.617439  0.250000  1
  Tb  Tb3  1  0.617439  0.808720  0.750000  1
  Tb  Tb4  1  0.191280  0.808720  0.750000  1
  Tb  Tb5  1  0.191280  0.382561  0.750000  1
  Al  Al6  1  0.438105  0.876210  0.250000  1
  Al  Al7  1  0.123790  0.561895  0.250000  1
  Al  Al8  1  0.438105  0.561895  0.250000  1
  Al  Al9  1  0.561895  0.123790  0.750000  1
  Al  Al10  1  0.876210  0.438105  0.750000  1
  Al  Al11  1  0.561895  0.438105  0.750000  1
  Al  Al12  1  0.163151  0.836849  0.424034  1
  Al  Al13  1  0.163151  0.326304  0.424034  1
  Al  Al14  1  0.673696  0.836849  0.424034  1
  Al  Al15  1  0.836849  0.163151  0.575966  1
  Al  Al16  1  0.836849  0.673696  0.575966  1
  Al  Al17  1  0.326304  0.163151  0.575966  1
  Al  Al18  1  0.836849  0.163151  0.924034  1
  Al  Al19  1  0.836849  0.673696  0.924034  1
  Al  Al20  1  0.326304  0.163151  0.924034  1
  Al  Al21  1  0.163151  0.836849  0.075966  1
  Al  Al22  1  0.163151  0.326304  0.075966  1
  Al  Al23  1  0.673696  0.836849  0.075966  1
  Al  Al24  1  0.333333  0.666667  0.529849  1
  Al  Al25  1  0.666667  0.333333  0.470151  1
  Al  Al26  1  0.666667  0.333333  0.029849  1
  Al  Al27  1  0.333333  0.666667  0.970151  1
  Al  Al28  1  0.000000  0.000000  0.250000  1
  Al  Al29  1  0.000000  0.000000  0.750000  1
  Ru  Ru30  1  0.000000  0.000000  0.500000  1
  Ru  Ru31  1  0.000000  0.000000  0.000000  1
  Rh  Rh32  1  0.500000  0.000000  0.500000  1
  Rh  Rh33  1  0.000000  0.500000  0.500000  1
  Rh  Rh34  1  0.500000  0.500000  0.500000  1
  Rh  Rh35  1  0.500000  0.000000  0.000000  1
  Rh  Rh36  1  0.000000  0.500000  0.000000  1
  Rh  Rh37  1  0.500000  0.500000  0.000000  1
