# generated using pymatgen
data_Lu4Si4Ru3Rh
_symmetry_space_group_name_H-M   'P 1'
_cell_length_a   4.23309400
_cell_length_b   6.85027568
_cell_length_c   7.17898868
_cell_angle_alpha   90.05041299
_cell_angle_beta   90.00000000
_cell_angle_gamma   90.00000000
_symmetry_Int_Tables_number   1
_chemical_formula_structural   Lu4Si4Ru3Rh
_chemical_formula_sum   'Lu4 Si4 Ru3 Rh1'
_cell_volume   208.17523433
_cell_formula_units_Z   1
loop_
 _symmetry_equiv_pos_site_id
 _symmetry_equiv_pos_as_xyz
  1  'x, y, z'
loop_
 _atom_site_type_symbol
 _atom_site_label
 _atom_site_symmetry_multiplicity
 _atom_site_fract_x
 _atom_site_fract_y
 _atom_site_fract_z
 _atom_site_occupancy
  Lu  Lu0  1  0.750000  0.008147  0.812314  1
  Lu  Lu1  1  0.250000  0.496602  0.311933  1
  Lu  Lu2  1  0.750000  0.506071  0.687907  1
  Lu  Lu3  1  0.250000  0.990052  0.188903  1
  Si  Si4  1  0.750000  0.201209  0.385125  1
  Si  Si5  1  0.250000  0.298624  0.897085  1
  Si  Si6  1  0.750000  0.700482  0.106766  1
  Si  Si7  1  0.250000  0.796990  0.609120  1
  Ru  Ru8  1  0.750000  0.343698  0.064054  1
  Ru  Ru9  1  0.250000  0.655887  0.935483  1
  Ru  Ru10  1  0.750000  0.845615  0.437291  1
  Rh  Rh11  1  0.250000  0.156622  0.564020  1
