# generated using pymatgen
data_SmLu(CuP)3
_symmetry_space_group_name_H-M   'P 1'
_cell_length_a   3.87453600
_cell_length_b   10.67501800
_cell_length_c   12.83619300
_cell_angle_alpha   90.00000000
_cell_angle_beta   90.00000000
_cell_angle_gamma   90.00000000
_symmetry_Int_Tables_number   1
_chemical_formula_structural   SmLu(CuP)3
_chemical_formula_sum   'Sm4 Lu4 Cu12 P12'
_cell_volume   530.91446105
_cell_formula_units_Z   4
loop_
 _symmetry_equiv_pos_site_id
 _symmetry_equiv_pos_as_xyz
  1  'x, y, z'
loop_
 _atom_site_type_symbol
 _atom_site_label
 _atom_site_symmetry_multiplicity
 _atom_site_fract_x
 _atom_site_fract_y
 _atom_site_fract_z
 _atom_site_occupancy
  Sm  Sm0  1  0.250000  0.930438  0.793295  1
  Sm  Sm1  1  0.750000  0.430438  0.706705  1
  Sm  Sm2  1  0.250000  0.569562  0.293295  1
  Sm  Sm3  1  0.750000  0.069562  0.206705  1
  Lu  Lu4  1  0.250000  0.842830  0.502859  1
  Lu  Lu5  1  0.750000  0.342830  0.997141  1
  Lu  Lu6  1  0.250000  0.657170  0.002859  1
  Lu  Lu7  1  0.750000  0.157170  0.497141  1
  Cu  Cu8  1  0.250000  0.400405  0.512643  1
  Cu  Cu9  1  0.750000  0.900405  0.987357  1
  Cu  Cu10  1  0.250000  0.099595  0.012643  1
  Cu  Cu11  1  0.750000  0.599595  0.487357  1
  Cu  Cu12  1  0.250000  0.270796  0.332362  1
  Cu  Cu13  1  0.750000  0.770796  0.167638  1
  Cu  Cu14  1  0.250000  0.229204  0.832362  1
  Cu  Cu15  1  0.750000  0.729204  0.667638  1
  Cu  Cu16  1  0.250000  0.861409  0.281818  1
  Cu  Cu17  1  0.750000  0.361409  0.218182  1
  Cu  Cu18  1  0.250000  0.638591  0.781818  1
  Cu  Cu19  1  0.750000  0.138591  0.718182  1
  P  P20  1  0.250000  0.236625  0.641087  1
  P  P21  1  0.750000  0.736625  0.858913  1
  P  P22  1  0.250000  0.263375  0.141087  1
  P  P23  1  0.750000  0.763375  0.358913  1
  P  P24  1  0.250000  0.607437  0.599115  1
  P  P25  1  0.750000  0.107437  0.900885  1
  P  P26  1  0.250000  0.892563  0.099115  1
  P  P27  1  0.750000  0.392563  0.400885  1
  P  P28  1  0.250000  0.057234  0.374081  1
  P  P29  1  0.750000  0.557234  0.125919  1
  P  P30  1  0.250000  0.442766  0.874081  1
  P  P31  1  0.750000  0.942766  0.625919  1
