# generated using pymatgen
data_Gd(NbCl3)6
_symmetry_space_group_name_H-M   'P 1'
_cell_length_a   10.19439907
_cell_length_b   10.19439938
_cell_length_c   10.19440000
_cell_angle_alpha   55.95192629
_cell_angle_beta   55.95191831
_cell_angle_gamma   55.95192015
_symmetry_Int_Tables_number   1
_chemical_formula_structural   Gd(NbCl3)6
_chemical_formula_sum   'Gd1 Nb6 Cl18'
_cell_volume   678.87973872
_cell_formula_units_Z   1
loop_
 _symmetry_equiv_pos_site_id
 _symmetry_equiv_pos_as_xyz
  1  'x, y, z'
loop_
 _atom_site_type_symbol
 _atom_site_label
 _atom_site_symmetry_multiplicity
 _atom_site_fract_x
 _atom_site_fract_y
 _atom_site_fract_z
 _atom_site_occupancy
  Gd  Gd0  1  0.000000  0.000000  0.000000  1
  Nb  Nb1  1  0.408473  0.299404  0.650161  1
  Nb  Nb2  1  0.349839  0.591527  0.700596  1
  Nb  Nb3  1  0.700596  0.349839  0.591527  1
  Nb  Nb4  1  0.299404  0.650161  0.408473  1
  Nb  Nb5  1  0.650161  0.408473  0.299404  1
  Nb  Nb6  1  0.591527  0.700596  0.349839  1
  Cl  Cl7  1  0.568676  0.162144  0.441406  1
  Cl  Cl8  1  0.223929  0.370688  0.907568  1
  Cl  Cl9  1  0.907568  0.223929  0.370688  1
  Cl  Cl10  1  0.370688  0.907568  0.223929  1
  Cl  Cl11  1  0.776071  0.629312  0.092432  1
  Cl  Cl12  1  0.092432  0.776071  0.629312  1
  Cl  Cl13  1  0.701802  0.956651  0.161546  1
  Cl  Cl14  1  0.956651  0.161546  0.701802  1
  Cl  Cl15  1  0.161546  0.701802  0.956651  1
  Cl  Cl16  1  0.298198  0.043349  0.838454  1
  Cl  Cl17  1  0.043349  0.838454  0.298198  1
  Cl  Cl18  1  0.838454  0.298198  0.043349  1
  Cl  Cl19  1  0.558594  0.431324  0.837856  1
  Cl  Cl20  1  0.162144  0.441406  0.568676  1
  Cl  Cl21  1  0.441406  0.568676  0.162144  1
  Cl  Cl22  1  0.431324  0.837856  0.558594  1
  Cl  Cl23  1  0.837856  0.558594  0.431324  1
  Cl  Cl24  1  0.629312  0.092432  0.776071  1
