# generated using pymatgen
data_Dy3(H6Os)2
_symmetry_space_group_name_H-M   'P 1'
_cell_length_a   4.74731800
_cell_length_b   4.74731801
_cell_length_c   8.22775300
_cell_angle_alpha   90.00000000
_cell_angle_beta   90.00000000
_cell_angle_gamma   119.99999993
_symmetry_Int_Tables_number   1
_chemical_formula_structural   Dy3(H6Os)2
_chemical_formula_sum   'Dy3 H12 Os2'
_cell_volume   160.58631282
_cell_formula_units_Z   1
loop_
 _symmetry_equiv_pos_site_id
 _symmetry_equiv_pos_as_xyz
  1  'x, y, z'
loop_
 _atom_site_type_symbol
 _atom_site_label
 _atom_site_symmetry_multiplicity
 _atom_site_fract_x
 _atom_site_fract_y
 _atom_site_fract_z
 _atom_site_occupancy
  Dy  Dy0  1  0.000000  0.000000  0.000000  1
  Dy  Dy1  1  0.666667  0.333333  0.363312  1
  Dy  Dy2  1  0.333333  0.666667  0.636688  1
  H  H3  1  0.165540  0.834460  0.370924  1
  H  H4  1  0.668920  0.834460  0.370924  1
  H  H5  1  0.165540  0.331080  0.370924  1
  H  H6  1  0.834460  0.165540  0.629076  1
  H  H7  1  0.331080  0.165540  0.629076  1
  H  H8  1  0.834460  0.668920  0.629076  1
  H  H9  1  0.498016  0.996031  0.878970  1
  H  H10  1  0.498016  0.501984  0.878970  1
  H  H11  1  0.003969  0.501984  0.878970  1
  H  H12  1  0.501984  0.003969  0.121030  1
  H  H13  1  0.501984  0.498016  0.121030  1
  H  H14  1  0.996031  0.498016  0.121030  1
  Os  Os15  1  0.666667  0.333333  0.757100  1
  Os  Os16  1  0.333333  0.666667  0.242900  1
