# generated using pymatgen
data_NdYTc2F14
_symmetry_space_group_name_H-M   'P 1'
_cell_length_a   5.68410692
_cell_length_b   9.06032520
_cell_length_c   12.19137678
_cell_angle_alpha   62.36659213
_cell_angle_beta   89.83140216
_cell_angle_gamma   90.02176898
_symmetry_Int_Tables_number   1
_chemical_formula_structural   NdYTc2F14
_chemical_formula_sum   'Nd2 Y2 Tc4 F28'
_cell_volume   556.23341825
_cell_formula_units_Z   2
loop_
 _symmetry_equiv_pos_site_id
 _symmetry_equiv_pos_as_xyz
  1  'x, y, z'
loop_
 _atom_site_type_symbol
 _atom_site_label
 _atom_site_symmetry_multiplicity
 _atom_site_fract_x
 _atom_site_fract_y
 _atom_site_fract_z
 _atom_site_occupancy
  Nd  Nd0  1  0.258353  0.814220  0.265157  1
  Nd  Nd1  1  0.741647  0.185780  0.734843  1
  Y  Y2  1  0.759902  0.190109  0.234880  1
  Y  Y3  1  0.240098  0.809891  0.765120  1
  Tc  Tc4  1  0.757497  0.723398  0.041833  1
  Tc  Tc5  1  0.242503  0.276602  0.958167  1
  Tc  Tc6  1  0.257746  0.270480  0.454720  1
  Tc  Tc7  1  0.742254  0.729520  0.545280  1
  F  F8  1  0.942385  0.708129  0.422299  1
  F  F9  1  0.057615  0.291871  0.577701  1
  F  F10  1  0.445371  0.293586  0.081534  1
  F  F11  1  0.554629  0.706414  0.918466  1
  F  F12  1  0.480458  0.727297  0.136499  1
  F  F13  1  0.519542  0.272703  0.863501  1
  F  F14  1  0.978986  0.268697  0.359784  1
  F  F15  1  0.021014  0.731303  0.640216  1
  F  F16  1  0.951835  0.741425  0.168820  1
  F  F17  1  0.048165  0.258575  0.831180  1
  F  F18  1  0.457663  0.252279  0.328610  1
  F  F19  1  0.542337  0.747721  0.671390  1
  F  F20  1  0.770923  0.479071  0.139393  1
  F  F21  1  0.229077  0.520929  0.860607  1
  F  F22  1  0.270421  0.514445  0.358960  1
  F  F23  1  0.729579  0.485555  0.641040  1
  F  F24  1  0.953016  0.280791  0.047130  1
  F  F25  1  0.046984  0.719209  0.952870  1
  F  F26  1  0.456440  0.719778  0.457905  1
  F  F27  1  0.543560  0.280222  0.542095  1
  F  F28  1  0.741792  0.972385  0.448092  1
  F  F29  1  0.258208  0.027615  0.551908  1
  F  F30  1  0.242804  0.033097  0.050846  1
  F  F31  1  0.757196  0.966903  0.949154  1
  F  F32  1  0.589842  0.977209  0.230951  1
  F  F33  1  0.410158  0.022791  0.769049  1
  F  F34  1  0.077330  0.036573  0.268228  1
  F  F35  1  0.922670  0.963427  0.731772  1
