# generated using pymatgen
data_Sr2CaPrAs7Ir8
_symmetry_space_group_name_H-M   'P 1'
_cell_length_a   4.13571200
_cell_length_b   13.28464260
_cell_length_c   13.78438567
_cell_angle_alpha   81.60843746
_cell_angle_beta   90.00000000
_cell_angle_gamma   90.00000000
_symmetry_Int_Tables_number   1
_chemical_formula_structural   Sr2CaPrAs7Ir8
_chemical_formula_sum   'Sr4 Ca2 Pr2 As14 Ir16'
_cell_volume   749.22607110
_cell_formula_units_Z   2
loop_
 _symmetry_equiv_pos_site_id
 _symmetry_equiv_pos_as_xyz
  1  'x, y, z'
loop_
 _atom_site_type_symbol
 _atom_site_label
 _atom_site_symmetry_multiplicity
 _atom_site_fract_x
 _atom_site_fract_y
 _atom_site_fract_z
 _atom_site_occupancy
  Sr  Sr0  1  0.250000  0.102666  0.792711  1
  Sr  Sr1  1  0.750000  0.897334  0.207289  1
  Sr  Sr2  1  0.250000  0.285125  0.104163  1
  Sr  Sr3  1  0.750000  0.714875  0.895837  1
  Ca  Ca4  1  0.250000  0.212238  0.436136  1
  Ca  Ca5  1  0.750000  0.787762  0.563864  1
  Pr  Pr6  1  0.250000  0.515220  0.291783  1
  Pr  Pr7  1  0.750000  0.484780  0.708217  1
  As  As8  1  0.250000  0.057748  0.101134  1
  As  As9  1  0.750000  0.942252  0.898866  1
  As  As10  1  0.250000  0.311851  0.686424  1
  As  As11  1  0.750000  0.688149  0.313576  1
  As  As12  1  0.250000  0.610011  0.563412  1
  As  As13  1  0.750000  0.389989  0.436588  1
  As  As14  1  0.250000  0.845480  0.719198  1
  As  As15  1  0.750000  0.154520  0.280802  1
  As  As16  1  0.750000  0.255834  0.916151  1
  As  As17  1  0.250000  0.744166  0.083849  1
  As  As18  1  0.750000  0.094577  0.584917  1
  As  As19  1  0.250000  0.905423  0.415083  1
  As  As20  1  0.750000  0.469385  0.126913  1
  As  As21  1  0.250000  0.530615  0.873087  1
  Ir  Ir22  1  0.250000  0.983367  0.572091  1
  Ir  Ir23  1  0.750000  0.016633  0.427909  1
  Ir  Ir24  1  0.250000  0.661846  0.727479  1
  Ir  Ir25  1  0.750000  0.338154  0.272521  1
  Ir  Ir26  1  0.250000  0.552157  0.050205  1
  Ir  Ir27  1  0.750000  0.447843  0.949795  1
  Ir  Ir28  1  0.250000  0.058300  0.281991  1
  Ir  Ir29  1  0.750000  0.941700  0.718009  1
  Ir  Ir30  1  0.250000  0.425857  0.526986  1
  Ir  Ir31  1  0.750000  0.574143  0.473014  1
  Ir  Ir32  1  0.250000  0.920556  0.998627  1
  Ir  Ir33  1  0.750000  0.079444  0.001373  1
  Ir  Ir34  1  0.250000  0.722612  0.401403  1
  Ir  Ir35  1  0.750000  0.277388  0.598597  1
  Ir  Ir36  1  0.250000  0.346051  0.857773  1
  Ir  Ir37  1  0.750000  0.653949  0.142227  1
