# generated using pymatgen
data_Dy3LuAl18CuRh5
_symmetry_space_group_name_H-M   'P 1'
_cell_length_a   7.56134555
_cell_length_b   7.56136534
_cell_length_c   9.43361800
_cell_angle_alpha   90.04189566
_cell_angle_beta   90.04706360
_cell_angle_gamma   119.55402522
_symmetry_Int_Tables_number   1
_chemical_formula_structural   Dy3LuAl18CuRh5
_chemical_formula_sum   'Dy3 Lu1 Al18 Cu1 Rh5'
_cell_volume   469.18261514
_cell_formula_units_Z   1
loop_
 _symmetry_equiv_pos_site_id
 _symmetry_equiv_pos_as_xyz
  1  'x, y, z'
loop_
 _atom_site_type_symbol
 _atom_site_label
 _atom_site_symmetry_multiplicity
 _atom_site_fract_x
 _atom_site_fract_y
 _atom_site_fract_z
 _atom_site_occupancy
  Dy  Dy0  1  0.005249  0.327582  0.250408  1
  Dy  Dy1  1  0.672638  0.994690  0.749639  1
  Dy  Dy2  1  0.327395  0.005128  0.250421  1
  Lu  Lu3  1  0.994795  0.672573  0.749742  1
  Al  Al4  1  0.129067  0.128571  0.751231  1
  Al  Al5  1  0.870679  0.870453  0.248707  1
  Al  Al6  1  0.000727  0.339378  0.578066  1
  Al  Al7  1  0.999303  0.661639  0.423409  1
  Al  Al8  1  0.000263  0.664990  0.073846  1
  Al  Al9  1  0.334136  0.998918  0.924820  1
  Al  Al10  1  0.999794  0.335767  0.924832  1
  Al  Al11  1  0.665019  0.000208  0.074584  1
  Al  Al12  1  0.661459  0.999236  0.422642  1
  Al  Al13  1  0.337534  0.999881  0.577914  1
  Al  Al14  1  0.332922  0.332837  0.050299  1
  Al  Al15  1  0.667757  0.667066  0.948947  1
  Al  Al16  1  0.664917  0.664171  0.552816  1
  Al  Al17  1  0.335864  0.335808  0.447993  1
  Al  Al18  1  0.338913  0.550193  0.750445  1
  Al  Al19  1  0.660696  0.450079  0.249594  1
  Al  Al20  1  0.550960  0.340121  0.750465  1
  Al  Al21  1  0.450047  0.660564  0.249571  1
  Cu  Cu22  1  0.000008  0.000201  0.499884  1
  Rh  Rh23  1  0.672365  0.328169  0.500335  1
  Rh  Rh24  1  0.327574  0.672014  0.500262  1
  Rh  Rh25  1  0.327775  0.671990  0.999746  1
  Rh  Rh26  1  0.672294  0.328248  0.999705  1
  Rh  Rh27  1  0.999845  0.999525  0.999674  1
