# generated using pymatgen
data_Ho4Nb2NiOs5
_symmetry_space_group_name_H-M   'P 1'
_cell_length_a   5.53908200
_cell_length_b   5.53908227
_cell_length_c   8.43836500
_cell_angle_alpha   90.00000000
_cell_angle_beta   90.00000000
_cell_angle_gamma   120.60637807
_symmetry_Int_Tables_number   1
_chemical_formula_structural   Ho4Nb2NiOs5
_chemical_formula_sum   'Ho4 Nb2 Ni1 Os5'
_cell_volume   222.83239651
_cell_formula_units_Z   1
loop_
 _symmetry_equiv_pos_site_id
 _symmetry_equiv_pos_as_xyz
  1  'x, y, z'
loop_
 _atom_site_type_symbol
 _atom_site_label
 _atom_site_symmetry_multiplicity
 _atom_site_fract_x
 _atom_site_fract_y
 _atom_site_fract_z
 _atom_site_occupancy
  Ho  Ho0  1  0.333437  0.666563  0.433907  1
  Ho  Ho1  1  0.666314  0.333686  0.561960  1
  Ho  Ho2  1  0.666314  0.333686  0.938040  1
  Ho  Ho3  1  0.333437  0.666563  0.066093  1
  Nb  Nb4  1  0.001440  0.998560  0.499223  1
  Nb  Nb5  1  0.001440  0.998560  0.000777  1
  Ni  Ni6  1  0.831285  0.168715  0.250000  1
  Os  Os7  1  0.823161  0.650121  0.250000  1
  Os  Os8  1  0.349879  0.176839  0.250000  1
  Os  Os9  1  0.171801  0.828199  0.750000  1
  Os  Os10  1  0.172626  0.351136  0.750000  1
  Os  Os11  1  0.648864  0.827374  0.750000  1
