# generated using pymatgen
data_DyEr7(OsBr4)2
_symmetry_space_group_name_H-M   'P 1'
_cell_length_a   8.92923318
_cell_length_b   8.91292521
_cell_length_c   6.51977569
_cell_angle_alpha   89.57937939
_cell_angle_beta   89.44098440
_cell_angle_gamma   89.36014677
_symmetry_Int_Tables_number   1
_chemical_formula_structural   DyEr7(OsBr4)2
_chemical_formula_sum   'Dy1 Er7 Os2 Br8'
_cell_volume   518.80955684
_cell_formula_units_Z   1
loop_
 _symmetry_equiv_pos_site_id
 _symmetry_equiv_pos_as_xyz
  1  'x, y, z'
loop_
 _atom_site_type_symbol
 _atom_site_label
 _atom_site_symmetry_multiplicity
 _atom_site_fract_x
 _atom_site_fract_y
 _atom_site_fract_z
 _atom_site_occupancy
  Dy  Dy0  1  0.250344  0.900789  0.009289  1
  Er  Er1  1  0.752162  0.098348  0.989851  1
  Er  Er2  1  0.097668  0.752259  0.489299  1
  Er  Er3  1  0.901573  0.248010  0.510549  1
  Er  Er4  1  0.753198  0.903484  0.508325  1
  Er  Er5  1  0.246267  0.097029  0.491248  1
  Er  Er6  1  0.096286  0.247169  0.991413  1
  Er  Er7  1  0.902981  0.753183  0.008237  1
  Os  Os8  1  0.994908  0.005079  0.249761  1
  Os  Os9  1  0.004529  0.995212  0.749662  1
  Br  Br10  1  0.418647  0.817403  0.410214  1
  Br  Br11  1  0.581217  0.182367  0.591981  1
  Br  Br12  1  0.181536  0.580331  0.092019  1
  Br  Br13  1  0.817555  0.418918  0.908146  1
  Br  Br14  1  0.413848  0.190748  0.093930  1
  Br  Br15  1  0.587210  0.809651  0.906047  1
  Br  Br16  1  0.810356  0.585888  0.406107  1
  Br  Br17  1  0.189719  0.414133  0.593922  1
