# generated using pymatgen
data_Ce6Al23Si(Os3Rh)2
_symmetry_space_group_name_H-M   'P 1'
_cell_length_a   8.88366500
_cell_length_b   8.88366562
_cell_length_c   9.54737600
_cell_angle_alpha   90.00000000
_cell_angle_beta   90.00000000
_cell_angle_gamma   120.00000140
_symmetry_Int_Tables_number   1
_chemical_formula_structural   Ce6Al23Si(Os3Rh)2
_chemical_formula_sum   'Ce6 Al23 Si1 Os6 Rh2'
_cell_volume   652.52781480
_cell_formula_units_Z   1
loop_
 _symmetry_equiv_pos_site_id
 _symmetry_equiv_pos_as_xyz
  1  'x, y, z'
loop_
 _atom_site_type_symbol
 _atom_site_label
 _atom_site_symmetry_multiplicity
 _atom_site_fract_x
 _atom_site_fract_y
 _atom_site_fract_z
 _atom_site_occupancy
  Ce  Ce0  1  0.194949  0.389899  0.249493  1
  Ce  Ce1  1  0.804980  0.609961  0.750506  1
  Ce  Ce2  1  0.610101  0.805051  0.249493  1
  Ce  Ce3  1  0.390039  0.195020  0.750506  1
  Ce  Ce4  1  0.194949  0.805051  0.249493  1
  Ce  Ce5  1  0.804980  0.195020  0.750506  1
  Al  Al6  1  0.666667  0.333333  0.981768  1
  Al  Al7  1  0.666667  0.333333  0.518564  1
  Al  Al8  1  0.333333  0.666667  0.482849  1
  Al  Al9  1  0.163353  0.326705  0.576723  1
  Al  Al10  1  0.836395  0.672791  0.422210  1
  Al  Al11  1  0.673295  0.836647  0.576723  1
  Al  Al12  1  0.836580  0.673159  0.077239  1
  Al  Al13  1  0.327209  0.163605  0.422210  1
  Al  Al14  1  0.164183  0.328366  0.921243  1
  Al  Al15  1  0.163353  0.836647  0.576723  1
  Al  Al16  1  0.326841  0.163420  0.077239  1
  Al  Al17  1  0.836395  0.163605  0.422210  1
  Al  Al18  1  0.671634  0.835817  0.921243  1
  Al  Al19  1  0.836580  0.163420  0.077239  1
  Al  Al20  1  0.164183  0.835817  0.921243  1
  Al  Al21  1  0.562292  0.124583  0.248956  1
  Al  Al22  1  0.437171  0.874343  0.748549  1
  Al  Al23  1  0.875417  0.437708  0.248956  1
  Al  Al24  1  0.125657  0.562829  0.748549  1
  Al  Al25  1  0.562292  0.437708  0.248956  1
  Al  Al26  1  0.437171  0.562829  0.748549  1
  Al  Al27  1  0.000000  0.000000  0.249549  1
  Al  Al28  1  0.000000  0.000000  0.749742  1
  Si  Si29  1  0.333333  0.666667  0.035614  1
  Os  Os30  1  0.496333  0.992666  0.000713  1
  Os  Os31  1  0.007334  0.503667  0.000713  1
  Os  Os32  1  0.500105  0.000210  0.498679  1
  Os  Os33  1  0.496333  0.503667  0.000713  1
  Os  Os34  1  0.999790  0.499895  0.498679  1
  Os  Os35  1  0.500105  0.499895  0.498679  1
  Rh  Rh36  1  0.000000  0.000000  0.999573  1
  Rh  Rh37  1  0.000000  0.000000  0.499411  1
