# generated using pymatgen
data_Dy6TiCo17P12
_symmetry_space_group_name_H-M   'P 1'
_cell_length_a   3.68360000
_cell_length_b   10.53743000
_cell_length_c   12.22100700
_cell_angle_alpha   90.00000000
_cell_angle_beta   90.00000000
_cell_angle_gamma   90.00000000
_symmetry_Int_Tables_number   1
_chemical_formula_structural   Dy6TiCo17P12
_chemical_formula_sum   'Dy6 Ti1 Co17 P12'
_cell_volume   474.36666214
_cell_formula_units_Z   1
loop_
 _symmetry_equiv_pos_site_id
 _symmetry_equiv_pos_as_xyz
  1  'x, y, z'
loop_
 _atom_site_type_symbol
 _atom_site_label
 _atom_site_symmetry_multiplicity
 _atom_site_fract_x
 _atom_site_fract_y
 _atom_site_fract_z
 _atom_site_occupancy
  Dy  Dy0  1  0.000000  0.500000  0.525227  1
  Dy  Dy1  1  0.500000  0.000000  0.477794  1
  Dy  Dy2  1  0.500000  0.819684  0.206767  1
  Dy  Dy3  1  0.500000  0.180316  0.206767  1
  Dy  Dy4  1  0.000000  0.681978  0.796196  1
  Dy  Dy5  1  0.000000  0.318022  0.796196  1
  Ti  Ti6  1  0.500000  0.500000  0.151869  1
  Co  Co7  1  0.000000  0.000000  0.838850  1
  Co  Co8  1  0.500000  0.500000  0.703075  1
  Co  Co9  1  0.000000  0.000000  0.296528  1
  Co  Co10  1  0.000000  0.500000  0.986497  1
  Co  Co11  1  0.500000  0.000000  0.013293  1
  Co  Co12  1  0.500000  0.329967  0.992150  1
  Co  Co13  1  0.500000  0.670033  0.992150  1
  Co  Co14  1  0.000000  0.164469  0.003494  1
  Co  Co15  1  0.000000  0.835531  0.003494  1
  Co  Co16  1  0.500000  0.295795  0.432505  1
  Co  Co17  1  0.500000  0.704205  0.432505  1
  Co  Co18  1  0.000000  0.202346  0.570045  1
  Co  Co19  1  0.000000  0.797654  0.570045  1
  Co  Co20  1  0.500000  0.879834  0.708301  1
  Co  Co21  1  0.500000  0.120166  0.708301  1
  Co  Co22  1  0.000000  0.621606  0.292675  1
  Co  Co23  1  0.000000  0.378394  0.292675  1
  P  P24  1  0.500000  0.500000  0.882811  1
  P  P25  1  0.000000  0.000000  0.116415  1
  P  P26  1  0.500000  0.500000  0.352835  1
  P  P27  1  0.000000  0.000000  0.655617  1
  P  P28  1  0.500000  0.309958  0.616983  1
  P  P29  1  0.500000  0.690042  0.616983  1
  P  P30  1  0.000000  0.188995  0.385588  1
  P  P31  1  0.000000  0.811005  0.385588  1
  P  P32  1  0.500000  0.850172  0.890232  1
  P  P33  1  0.500000  0.149828  0.890232  1
  P  P34  1  0.000000  0.659055  0.104659  1
  P  P35  1  0.000000  0.340945  0.104659  1
