# generated using pymatgen
data_Tb2Co4B4Ir
_symmetry_space_group_name_H-M   'P 1'
_cell_length_a   7.15659206
_cell_length_b   6.03107146
_cell_length_c   5.33811983
_cell_angle_alpha   77.75820229
_cell_angle_beta   55.44297178
_cell_angle_gamma   46.31987945
_symmetry_Int_Tables_number   1
_chemical_formula_structural   Tb2Co4B4Ir
_chemical_formula_sum   'Tb2 Co4 B4 Ir1'
_cell_volume   130.83422465
_cell_formula_units_Z   1
loop_
 _symmetry_equiv_pos_site_id
 _symmetry_equiv_pos_as_xyz
  1  'x, y, z'
loop_
 _atom_site_type_symbol
 _atom_site_label
 _atom_site_symmetry_multiplicity
 _atom_site_fract_x
 _atom_site_fract_y
 _atom_site_fract_z
 _atom_site_occupancy
  Tb  Tb0  1  0.855896  0.855913  0.144094  1
  Tb  Tb1  1  0.144089  0.144070  0.855922  1
  Co  Co2  1  0.249947  0.249938  0.250055  1
  Co  Co3  1  0.000005  0.000002  0.499996  1
  Co  Co4  1  0.500005  0.500005  0.499995  1
  Co  Co5  1  0.750063  0.750070  0.749936  1
  B  B6  1  0.472636  0.796906  0.218931  1
  B  B7  1  0.203131  0.527331  0.488420  1
  B  B8  1  0.796926  0.472614  0.511555  1
  B  B9  1  0.527311  0.203148  0.781092  1
  Ir  Ir10  1  0.499998  0.499999  0.000002  1
