# generated using pymatgen
data_Ba2DyUSe6
_symmetry_space_group_name_H-M   'P 1'
_cell_length_a   7.47310971
_cell_length_b   7.82459718
_cell_length_c   13.14126372
_cell_angle_alpha   89.98182914
_cell_angle_beta   124.65765146
_cell_angle_gamma   90.00701394
_symmetry_Int_Tables_number   1
_chemical_formula_structural   Ba2DyUSe6
_chemical_formula_sum   'Ba4 Dy2 U2 Se12'
_cell_volume   632.07768847
_cell_formula_units_Z   2
loop_
 _symmetry_equiv_pos_site_id
 _symmetry_equiv_pos_as_xyz
  1  'x, y, z'
loop_
 _atom_site_type_symbol
 _atom_site_label
 _atom_site_symmetry_multiplicity
 _atom_site_fract_x
 _atom_site_fract_y
 _atom_site_fract_z
 _atom_site_occupancy
  Ba  Ba0  1  0.768148  0.930305  0.249369  1
  Ba  Ba1  1  0.231663  0.430254  0.250464  1
  Ba  Ba2  1  0.768337  0.569747  0.749536  1
  Ba  Ba3  1  0.231852  0.069695  0.750631  1
  Dy  Dy4  1  0.500000  0.500001  0.000000  1
  Dy  Dy5  1  0.500000  0.000000  0.500000  1
  U  U6  1  0.000000  0.000000  0.000000  1
  U  U7  1  0.000000  0.500001  0.500000  1
  Se  Se8  1  0.852407  0.704885  0.045611  1
  Se  Se9  1  0.747136  0.196911  0.044804  1
  Se  Se10  1  0.332586  0.017880  0.245971  1
  Se  Se11  1  0.667586  0.517910  0.254250  1
  Se  Se12  1  0.252731  0.696689  0.455273  1
  Se  Se13  1  0.147360  0.205046  0.454388  1
  Se  Se14  1  0.852641  0.794953  0.545612  1
  Se  Se15  1  0.747269  0.303311  0.544728  1
  Se  Se16  1  0.332414  0.482090  0.745750  1
  Se  Se17  1  0.667414  0.982120  0.754028  1
  Se  Se18  1  0.252863  0.803089  0.955196  1
  Se  Se19  1  0.147592  0.295116  0.954389  1
