# generated using pymatgen
data_Sr3La(SbPt)4
_symmetry_space_group_name_H-M   'P 1'
_cell_length_a   4.75189000
_cell_length_b   7.78080014
_cell_length_c   8.06104202
_cell_angle_alpha   90.14329593
_cell_angle_beta   90.00000000
_cell_angle_gamma   90.00000000
_symmetry_Int_Tables_number   1
_chemical_formula_structural   Sr3La(SbPt)4
_chemical_formula_sum   'Sr3 La1 Sb4 Pt4'
_cell_volume   298.04405641
_cell_formula_units_Z   1
loop_
 _symmetry_equiv_pos_site_id
 _symmetry_equiv_pos_as_xyz
  1  'x, y, z'
loop_
 _atom_site_type_symbol
 _atom_site_label
 _atom_site_symmetry_multiplicity
 _atom_site_fract_x
 _atom_site_fract_y
 _atom_site_fract_z
 _atom_site_occupancy
  Sr  Sr0  1  0.250000  0.007220  0.303166  1
  Sr  Sr1  1  0.750000  0.491065  0.802855  1
  Sr  Sr2  1  0.250000  0.508712  0.198759  1
  La  La3  1  0.750000  0.990434  0.696611  1
  Sb  Sb4  1  0.750000  0.311914  0.409924  1
  Sb  Sb5  1  0.250000  0.182918  0.910801  1
  Sb  Sb6  1  0.250000  0.681600  0.590431  1
  Sb  Sb7  1  0.750000  0.815427  0.088949  1
  Pt  Pt8  1  0.250000  0.815562  0.909282  1
  Pt  Pt9  1  0.250000  0.298434  0.586298  1
  Pt  Pt10  1  0.750000  0.706511  0.421892  1
  Pt  Pt11  1  0.750000  0.190203  0.081033  1
