# generated using pymatgen
data_Dy3YReOs7
_symmetry_space_group_name_H-M   'P 1'
_cell_length_a   5.29639047
_cell_length_b   5.29639166
_cell_length_c   8.85264096
_cell_angle_alpha   90.04596633
_cell_angle_beta   89.95403367
_cell_angle_gamma   118.25435870
_symmetry_Int_Tables_number   1
_chemical_formula_structural   Dy3YReOs7
_chemical_formula_sum   'Dy3 Y1 Re1 Os7'
_cell_volume   218.74444835
_cell_formula_units_Z   1
loop_
 _symmetry_equiv_pos_site_id
 _symmetry_equiv_pos_as_xyz
  1  'x, y, z'
loop_
 _atom_site_type_symbol
 _atom_site_label
 _atom_site_symmetry_multiplicity
 _atom_site_fract_x
 _atom_site_fract_y
 _atom_site_fract_z
 _atom_site_occupancy
  Dy  Dy0  1  0.666293  0.333707  0.566172  1
  Dy  Dy1  1  0.666135  0.333865  0.934044  1
  Dy  Dy2  1  0.330707  0.669293  0.063939  1
  Y  Y3  1  0.330854  0.669146  0.435673  1
  Re  Re4  1  0.833877  0.166123  0.249874  1
  Os  Os5  1  0.993257  0.006743  0.499906  1
  Os  Os6  1  0.993135  0.006865  0.000278  1
  Os  Os7  1  0.827995  0.650018  0.249871  1
  Os  Os8  1  0.349982  0.172005  0.249871  1
  Os  Os9  1  0.175787  0.824213  0.750146  1
  Os  Os10  1  0.171806  0.339828  0.750113  1
  Os  Os11  1  0.660172  0.828194  0.750113  1
