# generated using pymatgen
data_MnSi2Rh3
_symmetry_space_group_name_H-M   'P 1'
_cell_length_a   3.95422100
_cell_length_b   5.57751499
_cell_length_c   7.41903442
_cell_angle_alpha   90.60746905
_cell_angle_beta   90.00000000
_cell_angle_gamma   90.00000000
_symmetry_Int_Tables_number   1
_chemical_formula_structural   MnSi2Rh3
_chemical_formula_sum   'Mn2 Si4 Rh6'
_cell_volume   163.61558172
_cell_formula_units_Z   2
loop_
 _symmetry_equiv_pos_site_id
 _symmetry_equiv_pos_as_xyz
  1  'x, y, z'
loop_
 _atom_site_type_symbol
 _atom_site_label
 _atom_site_symmetry_multiplicity
 _atom_site_fract_x
 _atom_site_fract_y
 _atom_site_fract_z
 _atom_site_occupancy
  Mn  Mn0  1  0.750000  0.534378  0.794170  1
  Mn  Mn1  1  0.250000  0.465622  0.205830  1
  Si  Si2  1  0.250000  0.236623  0.883902  1
  Si  Si3  1  0.750000  0.763377  0.116098  1
  Si  Si4  1  0.250000  0.780150  0.601161  1
  Si  Si5  1  0.750000  0.219850  0.398839  1
  Rh  Rh6  1  0.750000  0.025094  0.696879  1
  Rh  Rh7  1  0.250000  0.974906  0.303121  1
  Rh  Rh8  1  0.250000  0.809522  0.932978  1
  Rh  Rh9  1  0.750000  0.190478  0.067022  1
  Rh  Rh10  1  0.250000  0.348600  0.575714  1
  Rh  Rh11  1  0.750000  0.651400  0.424286  1
