# generated using pymatgen
data_Ba13Sr3Nb4(FeO8)4
_symmetry_space_group_name_H-M   'P 1'
_cell_length_a   6.09481539
_cell_length_b   7.50834356
_cell_length_c   21.11052567
_cell_angle_alpha   82.44902251
_cell_angle_beta   90.08744378
_cell_angle_gamma   89.96072880
_symmetry_Int_Tables_number   1
_chemical_formula_structural   Ba13Sr3Nb4(FeO8)4
_chemical_formula_sum   'Ba13 Sr3 Nb4 Fe4 O32'
_cell_volume   957.68035920
_cell_formula_units_Z   1
loop_
 _symmetry_equiv_pos_site_id
 _symmetry_equiv_pos_as_xyz
  1  'x, y, z'
loop_
 _atom_site_type_symbol
 _atom_site_label
 _atom_site_symmetry_multiplicity
 _atom_site_fract_x
 _atom_site_fract_y
 _atom_site_fract_z
 _atom_site_occupancy
  Ba  Ba0  1  0.740067  0.033767  0.599771  1
  Ba  Ba1  1  0.756485  0.517546  0.136192  1
  Ba  Ba2  1  0.257769  0.481872  0.362006  1
  Ba  Ba3  1  0.242578  0.482726  0.864659  1
  Ba  Ba4  1  0.744026  0.513393  0.639739  1
  Ba  Ba5  1  0.271053  0.279065  0.045959  1
  Ba  Ba6  1  0.772524  0.711440  0.451897  1
  Ba  Ba7  1  0.728412  0.721305  0.954905  1
  Ba  Ba8  1  0.227867  0.291070  0.544806  1
  Ba  Ba9  1  0.271736  0.849308  0.211092  1
  Ba  Ba10  1  0.773383  0.150326  0.287751  1
  Ba  Ba11  1  0.726093  0.149663  0.789772  1
  Ba  Ba12  1  0.224004  0.848713  0.712782  1
  Sr  Sr13  1  0.747749  0.034852  0.106152  1
  Sr  Sr14  1  0.248248  0.965416  0.394226  1
  Sr  Sr15  1  0.251291  0.965467  0.894519  1
  Nb  Nb16  1  0.259860  0.340850  0.209958  1
  Nb  Nb17  1  0.759631  0.659936  0.288374  1
  Nb  Nb18  1  0.738394  0.658838  0.791400  1
  Nb  Nb19  1  0.237989  0.341915  0.712307  1
  Fe  Fe20  1  0.219352  0.742292  0.057538  1
  Fe  Fe21  1  0.721593  0.259722  0.439893  1
  Fe  Fe22  1  0.779886  0.257379  0.943401  1
  Fe  Fe23  1  0.280806  0.738327  0.557296  1
  O  O24  1  0.492069  0.504618  0.249982  1
  O  O25  1  0.993498  0.498054  0.247643  1
  O  O26  1  0.503586  0.499068  0.750742  1
  O  O27  1  0.005503  0.502754  0.753640  1
  O  O28  1  0.496615  0.212481  0.175883  1
  O  O29  1  0.996230  0.786362  0.323610  1
  O  O30  1  0.502413  0.788808  0.825278  1
  O  O31  1  0.003903  0.212616  0.678015  1
  O  O32  1  0.241680  0.182704  0.290784  1
  O  O33  1  0.741025  0.819764  0.208452  1
  O  O34  1  0.759685  0.814766  0.710581  1
  O  O35  1  0.259087  0.181067  0.792151  1
  O  O36  1  0.029776  0.212997  0.167465  1
  O  O37  1  0.529391  0.785442  0.331607  1
  O  O38  1  0.968166  0.786919  0.834188  1
  O  O39  1  0.469950  0.221735  0.669281  1
  O  O40  1  0.261691  0.544120  0.128409  1
  O  O41  1  0.760778  0.451655  0.367769  1
  O  O42  1  0.736063  0.454850  0.872426  1
  O  O43  1  0.226718  0.548433  0.630235  1
  O  O44  1  0.374524  0.935031  0.084355  1
  O  O45  1  0.875152  0.062658  0.416322  1
  O  O46  1  0.624551  0.064625  0.916851  1
  O  O47  1  0.155944  0.943949  0.584281  1
  O  O48  1  0.288327  0.671650  0.975883  1
  O  O49  1  0.799850  0.344415  0.518510  1
  O  O50  1  0.711316  0.328335  0.025145  1
  O  O51  1  0.207039  0.672238  0.475064  1
  O  O52  1  0.914451  0.789473  0.059341  1
  O  O53  1  0.416201  0.211821  0.441750  1
  O  O54  1  0.084852  0.210731  0.941664  1
  O  O55  1  0.589170  0.760671  0.556297  1
