# generated using pymatgen
data_Pr3Dy3Cr2(Co4P3)4
_symmetry_space_group_name_H-M   'P 1'
_cell_length_a   3.74135700
_cell_length_b   10.64554038
_cell_length_c   12.34087761
_cell_angle_alpha   89.94161633
_cell_angle_beta   90.00000000
_cell_angle_gamma   90.00000000
_symmetry_Int_Tables_number   1
_chemical_formula_structural   Pr3Dy3Cr2(Co4P3)4
_chemical_formula_sum   'Pr3 Dy3 Cr2 Co16 P12'
_cell_volume   491.52168371
_cell_formula_units_Z   1
loop_
 _symmetry_equiv_pos_site_id
 _symmetry_equiv_pos_as_xyz
  1  'x, y, z'
loop_
 _atom_site_type_symbol
 _atom_site_label
 _atom_site_symmetry_multiplicity
 _atom_site_fract_x
 _atom_site_fract_y
 _atom_site_fract_z
 _atom_site_occupancy
  Pr  Pr0  1  0.000000  0.500513  0.521574  1
  Pr  Pr1  1  0.500000  0.999935  0.477390  1
  Pr  Pr2  1  0.000000  0.318544  0.795239  1
  Dy  Dy3  1  0.500000  0.817703  0.204619  1
  Dy  Dy4  1  0.500000  0.181875  0.202635  1
  Dy  Dy5  1  0.000000  0.683637  0.796862  1
  Cr  Cr6  1  0.500000  0.500814  0.152738  1
  Cr  Cr7  1  0.000000  0.998545  0.848027  1
  Co  Co8  1  0.500000  0.504010  0.705156  1
  Co  Co9  1  0.000000  0.999177  0.294328  1
  Co  Co10  1  0.000000  0.502417  0.988950  1
  Co  Co11  1  0.500000  0.998061  0.014473  1
  Co  Co12  1  0.500000  0.333009  0.995028  1
  Co  Co13  1  0.500000  0.669384  0.993978  1
  Co  Co14  1  0.000000  0.165772  0.008954  1
  Co  Co15  1  0.000000  0.832194  0.008676  1
  Co  Co16  1  0.500000  0.295261  0.426224  1
  Co  Co17  1  0.500000  0.704965  0.429093  1
  Co  Co18  1  0.000000  0.203995  0.567297  1
  Co  Co19  1  0.000000  0.795587  0.571084  1
  Co  Co20  1  0.500000  0.879361  0.712648  1
  Co  Co21  1  0.500000  0.117375  0.710456  1
  Co  Co22  1  0.000000  0.619830  0.288435  1
  Co  Co23  1  0.000000  0.379805  0.286457  1
  P  P24  1  0.500000  0.503855  0.885807  1
  P  P25  1  0.000000  0.998923  0.117518  1
  P  P26  1  0.500000  0.499486  0.337714  1
  P  P27  1  0.000000  0.999602  0.662007  1
  P  P28  1  0.500000  0.306253  0.612313  1
  P  P29  1  0.500000  0.693397  0.617839  1
  P  P30  1  0.000000  0.191805  0.380113  1
  P  P31  1  0.000000  0.807334  0.382636  1
  P  P32  1  0.500000  0.847867  0.894101  1
  P  P33  1  0.500000  0.148963  0.895941  1
  P  P34  1  0.000000  0.653209  0.107903  1
  P  P35  1  0.000000  0.347536  0.105788  1
