# generated using pymatgen
data_Ba(AcB8)3
_symmetry_space_group_name_H-M   'P 1'
_cell_length_a   7.30812284
_cell_length_b   7.30812216
_cell_length_c   5.96620900
_cell_angle_alpha   90.00000000
_cell_angle_beta   90.00000000
_cell_angle_gamma   109.46837675
_symmetry_Int_Tables_number   1
_chemical_formula_structural   Ba(AcB8)3
_chemical_formula_sum   'Ba1 Ac3 B24'
_cell_volume   300.42872847
_cell_formula_units_Z   1
loop_
 _symmetry_equiv_pos_site_id
 _symmetry_equiv_pos_as_xyz
  1  'x, y, z'
loop_
 _atom_site_type_symbol
 _atom_site_label
 _atom_site_symmetry_multiplicity
 _atom_site_fract_x
 _atom_site_fract_y
 _atom_site_fract_z
 _atom_site_occupancy
  Ba  Ba0  1  0.000000  0.000000  0.000000  1
  Ac  Ac1  1  0.750945  0.249055  0.500000  1
  Ac  Ac2  1  0.500000  0.500000  0.000000  1
  Ac  Ac3  1  0.249055  0.750945  0.500000  1
  B  B4  1  0.176118  0.325607  0.648973  1
  B  B5  1  0.924998  0.573967  0.149657  1
  B  B6  1  0.674393  0.823882  0.648973  1
  B  B7  1  0.426033  0.075002  0.149657  1
  B  B8  1  0.176118  0.325607  0.351027  1
  B  B9  1  0.924998  0.573967  0.850343  1
  B  B10  1  0.674393  0.823882  0.351027  1
  B  B11  1  0.426033  0.075002  0.850343  1
  B  B12  1  0.399626  0.399626  0.500000  1
  B  B13  1  0.149150  0.648892  0.000000  1
  B  B14  1  0.898500  0.898500  0.500000  1
  B  B15  1  0.648892  0.149150  0.000000  1
  B  B16  1  0.325607  0.176118  0.648973  1
  B  B17  1  0.075002  0.426033  0.149657  1
  B  B18  1  0.823882  0.674393  0.648973  1
  B  B19  1  0.573967  0.924998  0.149657  1
  B  B20  1  0.101500  0.101500  0.500000  1
  B  B21  1  0.850850  0.351108  0.000000  1
  B  B22  1  0.600374  0.600374  0.500000  1
  B  B23  1  0.351108  0.850850  0.000000  1
  B  B24  1  0.325607  0.176118  0.351027  1
  B  B25  1  0.075002  0.426033  0.850343  1
  B  B26  1  0.823882  0.674393  0.351027  1
  B  B27  1  0.573967  0.924998  0.850343  1
