# generated using pymatgen
data_Pr8Dy9Er3Si16
_symmetry_space_group_name_H-M   'P 1'
_cell_length_a   7.53072802
_cell_length_b   7.80505402
_cell_length_c   14.84418400
_cell_angle_alpha   90.00000000
_cell_angle_beta   90.00000000
_cell_angle_gamma   89.99190759
_symmetry_Int_Tables_number   1
_chemical_formula_structural   Pr8Dy9Er3Si16
_chemical_formula_sum   'Pr8 Dy9 Er3 Si16'
_cell_volume   872.50756401
_cell_formula_units_Z   1
loop_
 _symmetry_equiv_pos_site_id
 _symmetry_equiv_pos_as_xyz
  1  'x, y, z'
loop_
 _atom_site_type_symbol
 _atom_site_label
 _atom_site_symmetry_multiplicity
 _atom_site_fract_x
 _atom_site_fract_y
 _atom_site_fract_z
 _atom_site_occupancy
  Pr  Pr0  1  0.974635  0.819971  0.098156  1
  Pr  Pr1  1  0.474627  0.680045  0.401843  1
  Pr  Pr2  1  0.525415  0.319957  0.901873  1
  Pr  Pr3  1  0.025309  0.180102  0.598121  1
  Pr  Pr4  1  0.025309  0.180102  0.901879  1
  Pr  Pr5  1  0.525415  0.319957  0.598127  1
  Pr  Pr6  1  0.474627  0.680045  0.098157  1
  Pr  Pr7  1  0.974635  0.819971  0.401844  1
  Dy  Dy8  1  0.350990  0.010578  0.750000  1
  Dy  Dy9  1  0.681383  0.821294  0.876820  1
  Dy  Dy10  1  0.181270  0.678621  0.623176  1
  Dy  Dy11  1  0.818682  0.321332  0.123175  1
  Dy  Dy12  1  0.318667  0.178663  0.376819  1
  Dy  Dy13  1  0.318667  0.178663  0.123181  1
  Dy  Dy14  1  0.818682  0.321332  0.376825  1
  Dy  Dy15  1  0.181270  0.678621  0.876824  1
  Dy  Dy16  1  0.681383  0.821294  0.623180  1
  Er  Er17  1  0.649100  0.989340  0.250000  1
  Er  Er18  1  0.149070  0.510631  0.250000  1
  Er  Er19  1  0.850912  0.489286  0.750000  1
  Si  Si20  1  0.767566  0.620427  0.250000  1
  Si  Si21  1  0.267522  0.879585  0.250000  1
  Si  Si22  1  0.732775  0.120443  0.750000  1
  Si  Si23  1  0.232411  0.379908  0.750000  1
  Si  Si24  1  0.023593  0.110838  0.250000  1
  Si  Si25  1  0.523575  0.389129  0.250000  1
  Si  Si26  1  0.476401  0.610796  0.750000  1
  Si  Si27  1  0.976078  0.889089  0.750000  1
  Si  Si28  1  0.857105  0.530764  0.959945  1
  Si  Si29  1  0.357121  0.969218  0.539949  1
  Si  Si30  1  0.642889  0.030752  0.040072  1
  Si  Si31  1  0.142901  0.469256  0.459938  1
  Si  Si32  1  0.142901  0.469256  0.040062  1
  Si  Si33  1  0.642889  0.030752  0.459928  1
  Si  Si34  1  0.357121  0.969218  0.960051  1
  Si  Si35  1  0.857105  0.530764  0.540055  1
