# generated using pymatgen
data_PaGa2Cu2Ni
_symmetry_space_group_name_H-M   'P 1'
_cell_length_a   5.03271910
_cell_length_b   5.03271935
_cell_length_c   4.16706000
_cell_angle_alpha   90.00000000
_cell_angle_beta   90.00000000
_cell_angle_gamma   118.31334067
_symmetry_Int_Tables_number   1
_chemical_formula_structural   PaGa2Cu2Ni
_chemical_formula_sum   'Pa1 Ga2 Cu2 Ni1'
_cell_volume   92.91779266
_cell_formula_units_Z   1
loop_
 _symmetry_equiv_pos_site_id
 _symmetry_equiv_pos_as_xyz
  1  'x, y, z'
loop_
 _atom_site_type_symbol
 _atom_site_label
 _atom_site_symmetry_multiplicity
 _atom_site_fract_x
 _atom_site_fract_y
 _atom_site_fract_z
 _atom_site_occupancy
  Pa  Pa0  1  0.501732  0.498268  0.000000  1
  Ga  Ga1  1  0.001273  0.496024  0.500000  1
  Ga  Ga2  1  0.503976  0.998727  0.500000  1
  Cu  Cu3  1  0.161436  0.838564  0.000000  1
  Cu  Cu4  1  0.000944  0.999056  0.500000  1
  Ni  Ni5  1  0.830640  0.169360  0.000000  1
