# generated using pymatgen
data_CaDySc2(ReB6)2
_symmetry_space_group_name_H-M   'P 1'
_cell_length_a   3.57589500
_cell_length_b   9.04595047
_cell_length_c   11.40700560
_cell_angle_alpha   90.03708360
_cell_angle_beta   90.00000000
_cell_angle_gamma   90.00000000
_symmetry_Int_Tables_number   1
_chemical_formula_structural   CaDySc2(ReB6)2
_chemical_formula_sum   'Ca2 Dy2 Sc4 Re4 B24'
_cell_volume   368.98654274
_cell_formula_units_Z   2
loop_
 _symmetry_equiv_pos_site_id
 _symmetry_equiv_pos_as_xyz
  1  'x, y, z'
loop_
 _atom_site_type_symbol
 _atom_site_label
 _atom_site_symmetry_multiplicity
 _atom_site_fract_x
 _atom_site_fract_y
 _atom_site_fract_z
 _atom_site_occupancy
  Ca  Ca0  1  0.000000  0.322968  0.414618  1
  Ca  Ca1  1  0.000000  0.677032  0.585382  1
  Dy  Dy2  1  0.000000  0.822281  0.085610  1
  Dy  Dy3  1  0.000000  0.177719  0.914390  1
  Sc  Sc4  1  0.000000  0.943425  0.367699  1
  Sc  Sc5  1  0.000000  0.056575  0.632301  1
  Sc  Sc6  1  0.000000  0.444277  0.130828  1
  Sc  Sc7  1  0.000000  0.555723  0.869172  1
  Re  Re8  1  0.000000  0.644331  0.316953  1
  Re  Re9  1  0.000000  0.355669  0.683047  1
  Re  Re10  1  0.000000  0.140802  0.181789  1
  Re  Re11  1  0.000000  0.859198  0.818211  1
  B  B12  1  0.500000  0.554211  0.432148  1
  B  B13  1  0.500000  0.445789  0.567852  1
  B  B14  1  0.500000  0.054476  0.067312  1
  B  B15  1  0.500000  0.945524  0.932688  1
  B  B16  1  0.500000  0.754709  0.418576  1
  B  B17  1  0.500000  0.245291  0.581424  1
  B  B18  1  0.500000  0.254323  0.081599  1
  B  B19  1  0.500000  0.745677  0.918401  1
  B  B20  1  0.500000  0.796097  0.264039  1
  B  B21  1  0.500000  0.203903  0.735961  1
  B  B22  1  0.500000  0.295794  0.235178  1
  B  B23  1  0.500000  0.704206  0.764822  1
  B  B24  1  0.500000  0.629331  0.182585  1
  B  B25  1  0.500000  0.370669  0.817415  1
  B  B26  1  0.500000  0.129326  0.317116  1
  B  B27  1  0.500000  0.870674  0.682884  1
  B  B28  1  0.500000  0.981787  0.213387  1
  B  B29  1  0.500000  0.018213  0.786613  1
  B  B30  1  0.500000  0.481833  0.286293  1
  B  B31  1  0.500000  0.518167  0.713707  1
  B  B32  1  0.500000  0.594471  0.025704  1
  B  B33  1  0.500000  0.405529  0.974296  1
  B  B34  1  0.500000  0.091956  0.474909  1
  B  B35  1  0.500000  0.908044  0.525091  1
