# generated using pymatgen
data_YTm6Lu9(In3Ru)2
_symmetry_space_group_name_H-M   'P 1'
_cell_length_a   10.21664600
_cell_length_b   10.21664652
_cell_length_c   7.00287900
_cell_angle_alpha   90.00000000
_cell_angle_beta   90.00000000
_cell_angle_gamma   120.00000479
_symmetry_Int_Tables_number   1
_chemical_formula_structural   YTm6Lu9(In3Ru)2
_chemical_formula_sum   'Y1 Tm6 Lu9 In6 Ru2'
_cell_volume   633.02949604
_cell_formula_units_Z   1
loop_
 _symmetry_equiv_pos_site_id
 _symmetry_equiv_pos_as_xyz
  1  'x, y, z'
loop_
 _atom_site_type_symbol
 _atom_site_label
 _atom_site_symmetry_multiplicity
 _atom_site_fract_x
 _atom_site_fract_y
 _atom_site_fract_z
 _atom_site_occupancy
  Y  Y0  1  0.000000  0.000000  0.995927  1
  Tm  Tm1  1  0.466683  0.533317  0.479862  1
  Tm  Tm2  1  0.066634  0.533317  0.479862  1
  Tm  Tm3  1  0.466683  0.933366  0.479862  1
  Tm  Tm4  1  0.533422  0.466578  0.980105  1
  Tm  Tm5  1  0.933155  0.466578  0.980105  1
  Tm  Tm6  1  0.533422  0.066845  0.980105  1
  Lu  Lu7  1  0.821896  0.178104  0.279532  1
  Lu  Lu8  1  0.356209  0.178104  0.279532  1
  Lu  Lu9  1  0.821896  0.643791  0.279532  1
  Lu  Lu10  1  0.178433  0.821567  0.777229  1
  Lu  Lu11  1  0.643132  0.821567  0.777229  1
  Lu  Lu12  1  0.178433  0.356868  0.777229  1
  Lu  Lu13  1  0.333333  0.666667  0.097793  1
  Lu  Lu14  1  0.666667  0.333333  0.597277  1
  Lu  Lu15  1  0.000000  0.000000  0.496752  1
  In  In16  1  0.163145  0.836855  0.233454  1
  In  In17  1  0.673709  0.836855  0.233454  1
  In  In18  1  0.163145  0.326291  0.233454  1
  In  In19  1  0.836911  0.163089  0.731823  1
  In  In20  1  0.326177  0.163089  0.731823  1
  In  In21  1  0.836911  0.673823  0.731823  1
  Ru  Ru22  1  0.333333  0.666667  0.705418  1
  Ru  Ru23  1  0.666667  0.333333  0.205363  1
