# generated using pymatgen
data_Er5AlCo5
_symmetry_space_group_name_H-M   'P 1'
_cell_length_a   5.43918458
_cell_length_b   5.43918462
_cell_length_c   20.52873500
_cell_angle_alpha   90.00000000
_cell_angle_beta   90.00000000
_cell_angle_gamma   136.85484985
_symmetry_Int_Tables_number   1
_chemical_formula_structural   Er5AlCo5
_chemical_formula_sum   'Er10 Al2 Co10'
_cell_volume   415.32680950
_cell_formula_units_Z   2
loop_
 _symmetry_equiv_pos_site_id
 _symmetry_equiv_pos_as_xyz
  1  'x, y, z'
loop_
 _atom_site_type_symbol
 _atom_site_label
 _atom_site_symmetry_multiplicity
 _atom_site_fract_x
 _atom_site_fract_y
 _atom_site_fract_z
 _atom_site_occupancy
  Er  Er0  1  0.287792  0.712208  0.250000  1
  Er  Er1  1  0.290916  0.709084  0.066110  1
  Er  Er2  1  0.998675  0.001325  0.842495  1
  Er  Er3  1  0.712208  0.287792  0.750000  1
  Er  Er4  1  0.709084  0.290916  0.566110  1
  Er  Er5  1  0.001325  0.998675  0.342495  1
  Er  Er6  1  0.998675  0.001325  0.657505  1
  Er  Er7  1  0.709084  0.290916  0.933890  1
  Er  Er8  1  0.001325  0.998675  0.157505  1
  Er  Er9  1  0.290916  0.709084  0.433890  1
  Al  Al10  1  0.000000  0.000000  0.500000  1
  Al  Al11  1  0.000000  0.000000  0.000000  1
  Co  Co12  1  0.295669  0.704331  0.654372  1
  Co  Co13  1  0.581166  0.418834  0.441583  1
  Co  Co14  1  0.414265  0.585735  0.750000  1
  Co  Co15  1  0.418834  0.581166  0.941583  1
  Co  Co16  1  0.585735  0.414265  0.250000  1
  Co  Co17  1  0.418834  0.581166  0.558417  1
  Co  Co18  1  0.704331  0.295669  0.345628  1
  Co  Co19  1  0.704331  0.295669  0.154372  1
  Co  Co20  1  0.581166  0.418834  0.058417  1
  Co  Co21  1  0.295669  0.704331  0.845628  1
