# generated using pymatgen
data_Y6Al24Os3Ru4Pt
_symmetry_space_group_name_H-M   'P 1'
_cell_length_a   8.82469826
_cell_length_b   8.83058511
_cell_length_c   9.57036825
_cell_angle_alpha   90.02574572
_cell_angle_beta   89.88618507
_cell_angle_gamma   119.80754715
_symmetry_Int_Tables_number   1
_chemical_formula_structural   Y6Al24Os3Ru4Pt
_chemical_formula_sum   'Y6 Al24 Os3 Ru4 Pt1'
_cell_volume   647.12271222
_cell_formula_units_Z   1
loop_
 _symmetry_equiv_pos_site_id
 _symmetry_equiv_pos_as_xyz
  1  'x, y, z'
loop_
 _atom_site_type_symbol
 _atom_site_label
 _atom_site_symmetry_multiplicity
 _atom_site_fract_x
 _atom_site_fract_y
 _atom_site_fract_z
 _atom_site_occupancy
  Y  Y0  1  0.192249  0.383197  0.251559  1
  Y  Y1  1  0.807751  0.616803  0.748441  1
  Y  Y2  1  0.613607  0.806331  0.252307  1
  Y  Y3  1  0.386393  0.193669  0.747693  1
  Y  Y4  1  0.194456  0.810545  0.250896  1
  Y  Y5  1  0.805544  0.189455  0.749104  1
  Al  Al6  1  0.337186  0.670140  0.018072  1
  Al  Al7  1  0.662814  0.329860  0.981928  1
  Al  Al8  1  0.668326  0.333018  0.518166  1
  Al  Al9  1  0.331674  0.666982  0.481834  1
  Al  Al10  1  0.163397  0.326372  0.576339  1
  Al  Al11  1  0.836603  0.673628  0.423661  1
  Al  Al12  1  0.672614  0.835857  0.576000  1
  Al  Al13  1  0.832369  0.675249  0.078247  1
  Al  Al14  1  0.327386  0.164143  0.424000  1
  Al  Al15  1  0.167631  0.324751  0.921753  1
  Al  Al16  1  0.162979  0.836522  0.576089  1
  Al  Al17  1  0.325679  0.163951  0.077848  1
  Al  Al18  1  0.837021  0.163478  0.423911  1
  Al  Al19  1  0.674321  0.836049  0.922152  1
  Al  Al20  1  0.833091  0.158148  0.077602  1
  Al  Al21  1  0.166909  0.841852  0.922398  1
  Al  Al22  1  0.561832  0.122252  0.249249  1
  Al  Al23  1  0.438168  0.877748  0.750751  1
  Al  Al24  1  0.877523  0.437945  0.253184  1
  Al  Al25  1  0.122477  0.562055  0.746816  1
  Al  Al26  1  0.562069  0.437812  0.249743  1
  Al  Al27  1  0.437931  0.562188  0.750257  1
  Al  Al28  1  0.000307  0.000747  0.250116  1
  Al  Al29  1  0.999693  0.999253  0.749884  1
  Os  Os30  1  0.500000  0.000000  0.500000  1
  Os  Os31  1  0.500000  0.500000  0.000000  1
  Os  Os32  1  0.500000  0.500000  0.500000  1
  Ru  Ru33  1  0.500000  0.000000  0.000000  1
  Ru  Ru34  1  0.000000  0.500000  0.500000  1
  Ru  Ru35  1  0.000000  0.000000  0.000000  1
  Ru  Ru36  1  0.000000  0.000000  0.500000  1
  Pt  Pt37  1  0.000000  0.500000  0.000000  1
