# generated using pymatgen
data_Dy10AgSn6As
_symmetry_space_group_name_H-M   'P 1'
_cell_length_a   9.16448500
_cell_length_b   9.16448504
_cell_length_c   6.70484500
_cell_angle_alpha   90.00000000
_cell_angle_beta   90.00000000
_cell_angle_gamma   120.00001069
_symmetry_Int_Tables_number   1
_chemical_formula_structural   Dy10AgSn6As
_chemical_formula_sum   'Dy10 Ag1 Sn6 As1'
_cell_volume   487.68057635
_cell_formula_units_Z   1
loop_
 _symmetry_equiv_pos_site_id
 _symmetry_equiv_pos_as_xyz
  1  'x, y, z'
loop_
 _atom_site_type_symbol
 _atom_site_label
 _atom_site_symmetry_multiplicity
 _atom_site_fract_x
 _atom_site_fract_y
 _atom_site_fract_z
 _atom_site_occupancy
  Dy  Dy0  1  0.257936  0.000000  0.735096  1
  Dy  Dy1  1  0.742064  0.000000  0.264904  1
  Dy  Dy2  1  0.000000  0.257936  0.735096  1
  Dy  Dy3  1  0.000000  0.742064  0.264904  1
  Dy  Dy4  1  0.742064  0.742064  0.735096  1
  Dy  Dy5  1  0.257936  0.257936  0.264904  1
  Dy  Dy6  1  0.333333  0.666667  0.500000  1
  Dy  Dy7  1  0.666667  0.333333  0.500000  1
  Dy  Dy8  1  0.666667  0.333333  0.000000  1
  Dy  Dy9  1  0.333333  0.666667  0.000000  1
  Ag  Ag10  1  0.000000  0.000000  0.000000  1
  Sn  Sn11  1  0.608949  0.000000  0.751306  1
  Sn  Sn12  1  0.391051  0.000000  0.248694  1
  Sn  Sn13  1  0.000000  0.608949  0.751306  1
  Sn  Sn14  1  0.000000  0.391051  0.248694  1
  Sn  Sn15  1  0.391051  0.391051  0.751306  1
  Sn  Sn16  1  0.608949  0.608949  0.248694  1
  As  As17  1  0.000000  0.000000  0.500000  1
