# generated using pymatgen
data_Dy16ZnIn2AgIr4
_symmetry_space_group_name_H-M   'P 1'
_cell_length_a   9.58470655
_cell_length_b   9.58470522
_cell_length_c   9.58487420
_cell_angle_alpha   60.00437759
_cell_angle_beta   60.00437919
_cell_angle_gamma   60.05686607
_symmetry_Int_Tables_number   1
_chemical_formula_structural   Dy16ZnIn2AgIr4
_chemical_formula_sum   'Dy16 Zn1 In2 Ag1 Ir4'
_cell_volume   622.93690559
_cell_formula_units_Z   1
loop_
 _symmetry_equiv_pos_site_id
 _symmetry_equiv_pos_as_xyz
  1  'x, y, z'
loop_
 _atom_site_type_symbol
 _atom_site_label
 _atom_site_symmetry_multiplicity
 _atom_site_fract_x
 _atom_site_fract_y
 _atom_site_fract_z
 _atom_site_occupancy
  Dy  Dy0  1  0.599099  0.599099  0.599818  1
  Dy  Dy1  1  0.601764  0.601764  0.196933  1
  Dy  Dy2  1  0.602266  0.197516  0.601838  1
  Dy  Dy3  1  0.197516  0.602266  0.601838  1
  Dy  Dy4  1  0.058645  0.440632  0.441497  1
  Dy  Dy5  1  0.439857  0.058535  0.058071  1
  Dy  Dy6  1  0.440632  0.058645  0.441497  1
  Dy  Dy7  1  0.058535  0.439857  0.058071  1
  Dy  Dy8  1  0.442126  0.442126  0.057128  1
  Dy  Dy9  1  0.059158  0.059158  0.438765  1
  Dy  Dy10  1  0.183909  0.812233  0.813381  1
  Dy  Dy11  1  0.809602  0.185055  0.192995  1
  Dy  Dy12  1  0.812233  0.183909  0.813381  1
  Dy  Dy13  1  0.185055  0.809602  0.192995  1
  Dy  Dy14  1  0.811262  0.811262  0.188575  1
  Dy  Dy15  1  0.188668  0.188668  0.811273  1
  Zn  Zn16  1  0.832793  0.832793  0.830824  1
  In  In17  1  0.832983  0.508254  0.828798  1
  In  In18  1  0.508254  0.832983  0.828798  1
  Ag  Ag19  1  0.833953  0.833953  0.502724  1
  Ir  Ir20  1  0.392800  0.392800  0.391679  1
  Ir  Ir21  1  0.391719  0.391719  0.825283  1
  Ir  Ir22  1  0.392272  0.824898  0.391922  1
  Ir  Ir23  1  0.824898  0.392272  0.391922  1
