# generated using pymatgen
data_Er2Lu6Co3Si12Rh
_symmetry_space_group_name_H-M   'P 1'
_cell_length_a   7.97568100
_cell_length_b   7.97568181
_cell_length_c   7.73399200
_cell_angle_alpha   90.00000000
_cell_angle_beta   90.00000000
_cell_angle_gamma   120.00000081
_symmetry_Int_Tables_number   1
_chemical_formula_structural   Er2Lu6Co3Si12Rh
_chemical_formula_sum   'Er2 Lu6 Co3 Si12 Rh1'
_cell_volume   426.05919380
_cell_formula_units_Z   1
loop_
 _symmetry_equiv_pos_site_id
 _symmetry_equiv_pos_as_xyz
  1  'x, y, z'
loop_
 _atom_site_type_symbol
 _atom_site_label
 _atom_site_symmetry_multiplicity
 _atom_site_fract_x
 _atom_site_fract_y
 _atom_site_fract_z
 _atom_site_occupancy
  Er  Er0  1  0.000000  0.000000  0.751426  1
  Er  Er1  1  0.000000  0.000000  0.248819  1
  Lu  Lu2  1  0.982880  0.491441  0.248314  1
  Lu  Lu3  1  0.508559  0.491441  0.248314  1
  Lu  Lu4  1  0.494560  0.989119  0.750008  1
  Lu  Lu5  1  0.010881  0.505440  0.750008  1
  Lu  Lu6  1  0.494560  0.505440  0.750008  1
  Lu  Lu7  1  0.508559  0.017120  0.248314  1
  Co  Co8  1  0.333333  0.666667  0.036361  1
  Co  Co9  1  0.666667  0.333333  0.965771  1
  Co  Co10  1  0.666667  0.333333  0.535450  1
  Si  Si11  1  0.166570  0.833430  0.501432  1
  Si  Si12  1  0.166570  0.333140  0.501432  1
  Si  Si13  1  0.666860  0.833430  0.501432  1
  Si  Si14  1  0.342984  0.171492  0.998565  1
  Si  Si15  1  0.827642  0.655284  0.500632  1
  Si  Si16  1  0.828508  0.171492  0.998565  1
  Si  Si17  1  0.828508  0.657016  0.998565  1
  Si  Si18  1  0.172375  0.344749  0.000499  1
  Si  Si19  1  0.655251  0.827625  0.000499  1
  Si  Si20  1  0.344716  0.172358  0.500632  1
  Si  Si21  1  0.827642  0.172358  0.500632  1
  Si  Si22  1  0.172375  0.827625  0.000499  1
  Rh  Rh23  1  0.333333  0.666667  0.463818  1
