# generated using pymatgen
data_Er10Cd6InHgPd4
_symmetry_space_group_name_H-M   'P 1'
_cell_length_a   3.61198600
_cell_length_b   7.93581329
_cell_length_c   18.30338437
_cell_angle_alpha   89.83293104
_cell_angle_beta   90.00000000
_cell_angle_gamma   90.00000000
_symmetry_Int_Tables_number   1
_chemical_formula_structural   Er10Cd6InHgPd4
_chemical_formula_sum   'Er10 Cd6 In1 Hg1 Pd4'
_cell_volume   524.64683006
_cell_formula_units_Z   1
loop_
 _symmetry_equiv_pos_site_id
 _symmetry_equiv_pos_as_xyz
  1  'x, y, z'
loop_
 _atom_site_type_symbol
 _atom_site_label
 _atom_site_symmetry_multiplicity
 _atom_site_fract_x
 _atom_site_fract_y
 _atom_site_fract_z
 _atom_site_occupancy
  Er  Er0  1  0.000000  0.497141  0.500558  1
  Er  Er1  1  0.000000  0.998824  0.997596  1
  Er  Er2  1  0.000000  0.742146  0.280635  1
  Er  Er3  1  0.000000  0.257938  0.717800  1
  Er  Er4  1  0.000000  0.756508  0.783440  1
  Er  Er5  1  0.000000  0.244727  0.219357  1
  Er  Er6  1  0.000000  0.614843  0.083488  1
  Er  Er7  1  0.000000  0.390119  0.916463  1
  Er  Er8  1  0.000000  0.883506  0.583904  1
  Er  Er9  1  0.000000  0.114317  0.415971  1
  Cd  Cd10  1  0.500000  0.285233  0.067806  1
  Cd  Cd11  1  0.500000  0.785039  0.432627  1
  Cd  Cd12  1  0.500000  0.210658  0.567694  1
  Cd  Cd13  1  0.500000  0.575340  0.648427  1
  Cd  Cd14  1  0.500000  0.427039  0.352106  1
  Cd  Cd15  1  0.500000  0.928171  0.147516  1
  In  In16  1  0.500000  0.078688  0.850393  1
  Hg  Hg17  1  0.500000  0.712880  0.934557  1
  Pd  Pd18  1  0.500000  0.528698  0.195196  1
  Pd  Pd19  1  0.500000  0.469751  0.803569  1
  Pd  Pd20  1  0.500000  0.970440  0.696553  1
  Pd  Pd21  1  0.500000  0.027998  0.304347  1
