# generated using pymatgen
data_TbNd2Dy3Ta2O14
_symmetry_space_group_name_H-M   'P 1'
_cell_length_a   6.51127536
_cell_length_b   6.51151693
_cell_length_c   7.62067100
_cell_angle_alpha   90.00000000
_cell_angle_beta   90.00000000
_cell_angle_gamma   109.34621070
_symmetry_Int_Tables_number   1
_chemical_formula_structural   TbNd2Dy3Ta2O14
_chemical_formula_sum   'Tb1 Nd2 Dy3 Ta2 O14'
_cell_volume   304.85901178
_cell_formula_units_Z   1
loop_
 _symmetry_equiv_pos_site_id
 _symmetry_equiv_pos_as_xyz
  1  'x, y, z'
loop_
 _atom_site_type_symbol
 _atom_site_label
 _atom_site_symmetry_multiplicity
 _atom_site_fract_x
 _atom_site_fract_y
 _atom_site_fract_z
 _atom_site_occupancy
  Tb  Tb0  1  0.465481  0.999610  0.250000  1
  Nd  Nd1  1  0.500071  0.500153  0.500139  1
  Nd  Nd2  1  0.500071  0.500153  0.999861  1
  Dy  Dy3  1  0.000660  0.533911  0.250000  1
  Dy  Dy4  1  0.999283  0.466026  0.750000  1
  Dy  Dy5  1  0.534089  0.000683  0.750000  1
  Ta  Ta6  1  0.000012  0.000002  0.500187  1
  Ta  Ta7  1  0.000012  0.000002  0.999813  1
  O  O8  1  0.936787  0.063391  0.750000  1
  O  O9  1  0.062896  0.936707  0.250000  1
  O  O10  1  0.357669  0.640784  0.250000  1
  O  O11  1  0.642208  0.357789  0.750000  1
  O  O12  1  0.364136  0.635899  0.750000  1
  O  O13  1  0.636514  0.365594  0.250000  1
  O  O14  1  0.319924  0.069023  0.967791  1
  O  O15  1  0.680084  0.930731  0.469035  1
  O  O16  1  0.319924  0.069023  0.532209  1
  O  O17  1  0.680084  0.930731  0.030965  1
  O  O18  1  0.068769  0.319944  0.468338  1
  O  O19  1  0.931278  0.679951  0.968321  1
  O  O20  1  0.931278  0.679951  0.531679  1
  O  O21  1  0.068769  0.319944  0.031662  1
