# generated using pymatgen
data_Eu4Ga10PdRh5
_symmetry_space_group_name_H-M   'P 1'
_cell_length_a   8.75449451
_cell_length_b   8.76040277
_cell_length_c   8.76040100
_cell_angle_alpha   141.03288749
_cell_angle_beta   107.66672672
_cell_angle_gamma   85.36333290
_symmetry_Int_Tables_number   1
_chemical_formula_structural   Eu4Ga10PdRh5
_chemical_formula_sum   'Eu4 Ga10 Pd1 Rh5'
_cell_volume   388.86527638
_cell_formula_units_Z   1
loop_
 _symmetry_equiv_pos_site_id
 _symmetry_equiv_pos_as_xyz
  1  'x, y, z'
loop_
 _atom_site_type_symbol
 _atom_site_label
 _atom_site_symmetry_multiplicity
 _atom_site_fract_x
 _atom_site_fract_y
 _atom_site_fract_z
 _atom_site_occupancy
  Eu  Eu0  1  0.364796  0.137995  0.226802  1
  Eu  Eu1  1  0.633699  0.862115  0.771584  1
  Eu  Eu2  1  0.090644  0.362048  0.728595  1
  Eu  Eu3  1  0.908888  0.637047  0.271842  1
  Ga  Ga4  1  0.998669  0.254923  0.250289  1
  Ga  Ga5  1  0.998669  0.748381  0.743746  1
  Ga  Ga6  1  0.704495  0.959854  0.250264  1
  Ga  Ga7  1  0.291197  0.540624  0.250151  1
  Ga  Ga8  1  0.291197  0.041045  0.750573  1
  Ga  Ga9  1  0.704495  0.454232  0.744640  1
  Ga  Ga10  1  0.577491  0.407296  0.170195  1
  Ga  Ga11  1  0.244656  0.908994  0.335660  1
  Ga  Ga12  1  0.763096  0.092420  0.670676  1
  Ga  Ga13  1  0.421861  0.592269  0.829592  1
  Pd  Pd14  1  0.950586  0.855546  0.095040  1
  Rh  Rh15  1  0.501790  0.749850  0.250417  1
  Rh  Rh16  1  0.763517  0.355808  0.407709  1
  Rh  Rh17  1  0.237427  0.644206  0.593221  1
  Rh  Rh18  1  0.051039  0.143976  0.907064  1
  Rh  Rh19  1  0.501790  0.251371  0.751939  1
