# generated using pymatgen
data_Dy4TcMoOs6
_symmetry_space_group_name_H-M   'P 1'
_cell_length_a   5.24943794
_cell_length_b   5.24943951
_cell_length_c   8.96561300
_cell_angle_alpha   90.00000000
_cell_angle_beta   90.00000000
_cell_angle_gamma   116.64062094
_symmetry_Int_Tables_number   1
_chemical_formula_structural   Dy4TcMoOs6
_chemical_formula_sum   'Dy4 Tc1 Mo1 Os6'
_cell_volume   220.83293625
_cell_formula_units_Z   1
loop_
 _symmetry_equiv_pos_site_id
 _symmetry_equiv_pos_as_xyz
  1  'x, y, z'
loop_
 _atom_site_type_symbol
 _atom_site_label
 _atom_site_symmetry_multiplicity
 _atom_site_fract_x
 _atom_site_fract_y
 _atom_site_fract_z
 _atom_site_occupancy
  Dy  Dy0  1  0.329285  0.670715  0.437340  1
  Dy  Dy1  1  0.667326  0.332674  0.564659  1
  Dy  Dy2  1  0.667326  0.332674  0.935341  1
  Dy  Dy3  1  0.329285  0.670715  0.062660  1
  Tc  Tc4  1  0.176578  0.823422  0.750000  1
  Mo  Mo5  1  0.832617  0.167383  0.250000  1
  Os  Os6  1  0.996080  0.003920  0.501975  1
  Os  Os7  1  0.996080  0.003920  0.998025  1
  Os  Os8  1  0.826034  0.653922  0.250000  1
  Os  Os9  1  0.346078  0.173966  0.250000  1
  Os  Os10  1  0.172756  0.339446  0.750000  1
  Os  Os11  1  0.660554  0.827244  0.750000  1
