# generated using pymatgen
data_Tb3DyU2O12
_symmetry_space_group_name_H-M   'P 1'
_cell_length_a   6.52482203
_cell_length_b   6.52482219
_cell_length_c   6.67070022
_cell_angle_alpha   80.62874921
_cell_angle_beta   80.62876577
_cell_angle_gamma   120.61487055
_symmetry_Int_Tables_number   1
_chemical_formula_structural   Tb3DyU2O12
_chemical_formula_sum   'Tb3 Dy1 U2 O12'
_cell_volume   230.82534003
_cell_formula_units_Z   1
loop_
 _symmetry_equiv_pos_site_id
 _symmetry_equiv_pos_as_xyz
  1  'x, y, z'
loop_
 _atom_site_type_symbol
 _atom_site_label
 _atom_site_symmetry_multiplicity
 _atom_site_fract_x
 _atom_site_fract_y
 _atom_site_fract_z
 _atom_site_occupancy
  Tb  Tb0  1  0.915109  0.084891  0.750000  1
  Tb  Tb1  1  0.249936  0.750064  0.750000  1
  Tb  Tb2  1  0.084828  0.915172  0.250000  1
  Dy  Dy3  1  0.749922  0.250078  0.250000  1
  U  U4  1  0.585852  0.414148  0.750000  1
  U  U5  1  0.414209  0.585791  0.250000  1
  O  O6  1  0.932466  0.769279  0.628713  1
  O  O7  1  0.627520  0.143175  0.624992  1
  O  O8  1  0.688980  0.534351  0.379751  1
  O  O9  1  0.465649  0.311020  0.120249  1
  O  O10  1  0.311204  0.465116  0.619838  1
  O  O11  1  0.141999  0.626327  0.126116  1
  O  O12  1  0.373673  0.858001  0.373884  1
  O  O13  1  0.230721  0.067534  0.871287  1
  O  O14  1  0.066946  0.230724  0.371006  1
  O  O15  1  0.769276  0.933054  0.128994  1
  O  O16  1  0.856825  0.372480  0.875008  1
  O  O17  1  0.534884  0.688796  0.880162  1
