# generated using pymatgen
data_Sr8Cd4SnPb3
_symmetry_space_group_name_H-M   'P 1'
_cell_length_a   8.12049922
_cell_length_b   5.81772300
_cell_length_c   11.63320881
_cell_angle_alpha   90.00000000
_cell_angle_beta   89.93665243
_cell_angle_gamma   90.00000000
_symmetry_Int_Tables_number   1
_chemical_formula_structural   Sr8Cd4SnPb3
_chemical_formula_sum   'Sr8 Cd4 Sn1 Pb3'
_cell_volume   549.58519662
_cell_formula_units_Z   1
loop_
 _symmetry_equiv_pos_site_id
 _symmetry_equiv_pos_as_xyz
  1  'x, y, z'
loop_
 _atom_site_type_symbol
 _atom_site_label
 _atom_site_symmetry_multiplicity
 _atom_site_fract_x
 _atom_site_fract_y
 _atom_site_fract_z
 _atom_site_occupancy
  Sr  Sr0  1  0.998865  0.749999  0.123993  1
  Sr  Sr1  1  0.500757  0.749999  0.124026  1
  Sr  Sr2  1  0.999971  0.250000  0.374805  1
  Sr  Sr3  1  0.499954  0.250000  0.374236  1
  Sr  Sr4  1  0.501580  0.749999  0.626988  1
  Sr  Sr5  1  0.999059  0.749999  0.627451  1
  Sr  Sr6  1  0.502696  0.250000  0.874440  1
  Sr  Sr7  1  0.996678  0.250000  0.874327  1
  Cd  Cd8  1  0.749564  0.250000  0.124743  1
  Cd  Cd9  1  0.250220  0.749999  0.376229  1
  Cd  Cd10  1  0.749952  0.250000  0.623466  1
  Cd  Cd11  1  0.250072  0.749999  0.876171  1
  Sn  Sn12  1  0.751039  0.749999  0.875277  1
  Pb  Pb13  1  0.249540  0.250000  0.123636  1
  Pb  Pb14  1  0.749887  0.749999  0.375905  1
  Pb  Pb15  1  0.250166  0.250000  0.624308  1
