# generated using pymatgen
data_Mn3BeB2W3
_symmetry_space_group_name_H-M   'P 1'
_cell_length_a   6.06385300
_cell_length_b   6.06385261
_cell_length_c   3.04495500
_cell_angle_alpha   90.00000000
_cell_angle_beta   90.00000000
_cell_angle_gamma   120.00000760
_symmetry_Int_Tables_number   1
_chemical_formula_structural   Mn3BeB2W3
_chemical_formula_sum   'Mn3 Be1 B2 W3'
_cell_volume   96.96361047
_cell_formula_units_Z   1
loop_
 _symmetry_equiv_pos_site_id
 _symmetry_equiv_pos_as_xyz
  1  'x, y, z'
loop_
 _atom_site_type_symbol
 _atom_site_label
 _atom_site_symmetry_multiplicity
 _atom_site_fract_x
 _atom_site_fract_y
 _atom_site_fract_z
 _atom_site_occupancy
  Mn  Mn0  1  0.748165  0.000000  0.000000  1
  Mn  Mn1  1  0.000000  0.748165  0.000000  1
  Mn  Mn2  1  0.251835  0.251835  0.000000  1
  Be  Be3  1  0.000000  0.000000  0.500000  1
  B  B4  1  0.333333  0.666667  0.000000  1
  B  B5  1  0.666667  0.333333  0.000000  1
  W  W6  1  0.412727  0.000000  0.500000  1
  W  W7  1  0.000000  0.412727  0.500000  1
  W  W8  1  0.587273  0.587273  0.500000  1
