# generated using pymatgen
data_LaPr3(Pb2O7)2
_symmetry_space_group_name_H-M   'P 1'
_cell_length_a   7.82430946
_cell_length_b   7.82431103
_cell_length_c   7.82430927
_cell_angle_alpha   60.11279303
_cell_angle_beta   60.11278830
_cell_angle_gamma   60.11279136
_symmetry_Int_Tables_number   1
_chemical_formula_structural   LaPr3(Pb2O7)2
_chemical_formula_sum   'La1 Pr3 Pb4 O14'
_cell_volume   339.57173053
_cell_formula_units_Z   1
loop_
 _symmetry_equiv_pos_site_id
 _symmetry_equiv_pos_as_xyz
  1  'x, y, z'
loop_
 _atom_site_type_symbol
 _atom_site_label
 _atom_site_symmetry_multiplicity
 _atom_site_fract_x
 _atom_site_fract_y
 _atom_site_fract_z
 _atom_site_occupancy
  La  La0  1  0.125000  0.125000  0.125000  1
  Pr  Pr1  1  0.625000  0.125000  0.125000  1
  Pr  Pr2  1  0.125000  0.625000  0.125000  1
  Pr  Pr3  1  0.125000  0.125000  0.625000  1
  Pb  Pb4  1  0.625000  0.625000  0.125000  1
  Pb  Pb5  1  0.625000  0.625000  0.625000  1
  Pb  Pb6  1  0.625000  0.125000  0.625000  1
  Pb  Pb7  1  0.125000  0.625000  0.625000  1
  O  O8  1  0.715072  0.282956  0.282956  1
  O  O9  1  0.717647  0.717647  0.282644  1
  O  O10  1  0.282956  0.715072  0.282956  1
  O  O11  1  0.999973  0.999973  0.999973  1
  O  O12  1  0.717647  0.282644  0.717647  1
  O  O13  1  0.967356  0.532353  0.532353  1
  O  O14  1  0.282644  0.717647  0.717647  1
  O  O15  1  0.532353  0.967356  0.532353  1
  O  O16  1  0.250027  0.250027  0.250027  1
  O  O17  1  0.967044  0.534928  0.967044  1
  O  O18  1  0.532353  0.532353  0.967356  1
  O  O19  1  0.967044  0.967044  0.534928  1
  O  O20  1  0.534928  0.967044  0.967044  1
  O  O21  1  0.282956  0.282956  0.715072  1
