# generated using pymatgen
data_Dy2ErZnAg3Ge2
_symmetry_space_group_name_H-M   'P 1'
_cell_length_a   7.21448903
_cell_length_b   7.21559835
_cell_length_c   4.14536000
_cell_angle_alpha   90.00000000
_cell_angle_beta   90.00000000
_cell_angle_gamma   120.00508235
_symmetry_Int_Tables_number   1
_chemical_formula_structural   Dy2ErZnAg3Ge2
_chemical_formula_sum   'Dy2 Er1 Zn1 Ag3 Ge2'
_cell_volume   186.87386513
_cell_formula_units_Z   1
loop_
 _symmetry_equiv_pos_site_id
 _symmetry_equiv_pos_as_xyz
  1  'x, y, z'
loop_
 _atom_site_type_symbol
 _atom_site_label
 _atom_site_symmetry_multiplicity
 _atom_site_fract_x
 _atom_site_fract_y
 _atom_site_fract_z
 _atom_site_occupancy
  Dy  Dy0  1  0.581391  0.000012  0.000000  1
  Dy  Dy1  1  0.418609  0.418621  0.000000  1
  Er  Er2  1  0.000000  0.581143  0.000000  1
  Zn  Zn3  1  0.000000  0.999480  0.000000  1
  Ag  Ag4  1  0.752449  0.752219  0.500000  1
  Ag  Ag5  1  0.247551  0.999771  0.500000  1
  Ag  Ag6  1  0.000000  0.248171  0.500000  1
  Ge  Ge7  1  0.668606  0.334594  0.500000  1
  Ge  Ge8  1  0.331394  0.665989  0.500000  1
