# generated using pymatgen
data_Pr2Ga5Pt3
_symmetry_space_group_name_H-M   'P 1'
_cell_length_a   8.64400711
_cell_length_b   8.64400715
_cell_length_c   8.64400644
_cell_angle_alpha   138.46181371
_cell_angle_beta   106.65114091
_cell_angle_gamma   87.99093613
_symmetry_Int_Tables_number   1
_chemical_formula_structural   Pr2Ga5Pt3
_chemical_formula_sum   'Pr4 Ga10 Pt6'
_cell_volume   393.62551714
_cell_formula_units_Z   2
loop_
 _symmetry_equiv_pos_site_id
 _symmetry_equiv_pos_as_xyz
  1  'x, y, z'
loop_
 _atom_site_type_symbol
 _atom_site_label
 _atom_site_symmetry_multiplicity
 _atom_site_fract_x
 _atom_site_fract_y
 _atom_site_fract_z
 _atom_site_occupancy
  Pr  Pr0  1  0.863854  0.630460  0.233393  1
  Pr  Pr1  1  0.136146  0.369540  0.766607  1
  Pr  Pr2  1  0.397067  0.130460  0.266607  1
  Pr  Pr3  1  0.602933  0.869540  0.733393  1
  Ga  Ga4  1  0.500000  0.750000  0.250000  1
  Ga  Ga5  1  0.500000  0.250000  0.750000  1
  Ga  Ga6  1  0.226038  0.976038  0.750000  1
  Ga  Ga7  1  0.773962  0.523962  0.750000  1
  Ga  Ga8  1  0.773962  0.023962  0.250000  1
  Ga  Ga9  1  0.226038  0.476038  0.250000  1
  Ga  Ga10  1  0.045333  0.894536  0.150797  1
  Ga  Ga11  1  0.954667  0.105464  0.849203  1
  Ga  Ga12  1  0.743738  0.394536  0.349203  1
  Ga  Ga13  1  0.256262  0.605464  0.650797  1
  Pt  Pt14  1  0.000000  0.750000  0.750000  1
  Pt  Pt15  1  0.000000  0.250000  0.250000  1
  Pt  Pt16  1  0.249851  0.861879  0.387974  1
  Pt  Pt17  1  0.750149  0.138121  0.612026  1
  Pt  Pt18  1  0.473905  0.361879  0.112026  1
  Pt  Pt19  1  0.526095  0.638121  0.887974  1
