# generated using pymatgen
data_Sr10P6HClO24
_symmetry_space_group_name_H-M   'P 1'
_cell_length_a   9.98764900
_cell_length_b   9.98765083
_cell_length_c   7.24530800
_cell_angle_alpha   90.00000000
_cell_angle_beta   90.00000000
_cell_angle_gamma   120.00000389
_symmetry_Int_Tables_number   1
_chemical_formula_structural   Sr10P6HClO24
_chemical_formula_sum   'Sr10 P6 H1 Cl1 O24'
_cell_volume   625.91316884
_cell_formula_units_Z   1
loop_
 _symmetry_equiv_pos_site_id
 _symmetry_equiv_pos_as_xyz
  1  'x, y, z'
loop_
 _atom_site_type_symbol
 _atom_site_label
 _atom_site_symmetry_multiplicity
 _atom_site_fract_x
 _atom_site_fract_y
 _atom_site_fract_z
 _atom_site_occupancy
  Sr  Sr0  1  0.333333  0.666667  0.498557  1
  Sr  Sr1  1  0.666667  0.333333  0.000167  1
  Sr  Sr2  1  0.666667  0.333333  0.501443  1
  Sr  Sr3  1  0.333333  0.666667  0.999833  1
  Sr  Sr4  1  0.247000  0.996319  0.255111  1
  Sr  Sr5  1  0.749318  0.753000  0.255111  1
  Sr  Sr6  1  0.003681  0.250682  0.255111  1
  Sr  Sr7  1  0.753000  0.003681  0.744889  1
  Sr  Sr8  1  0.250682  0.247000  0.744889  1
  Sr  Sr9  1  0.996319  0.749318  0.744889  1
  P  P10  1  0.967731  0.595350  0.248453  1
  P  P11  1  0.627620  0.032269  0.248453  1
  P  P12  1  0.404650  0.372380  0.248453  1
  P  P13  1  0.032269  0.404650  0.751547  1
  P  P14  1  0.372380  0.967731  0.751547  1
  P  P15  1  0.595350  0.627620  0.751547  1
  H  H16  1  0.000000  0.000000  0.500000  1
  Cl  Cl17  1  0.000000  0.000000  0.000000  1
  O  O18  1  0.914799  0.651207  0.420177  1
  O  O19  1  0.736408  0.085201  0.420177  1
  O  O20  1  0.348793  0.263592  0.420177  1
  O  O21  1  0.086969  0.355659  0.926768  1
  O  O22  1  0.268689  0.913031  0.926768  1
  O  O23  1  0.644341  0.731311  0.926768  1
  O  O24  1  0.085201  0.348793  0.579823  1
  O  O25  1  0.263592  0.914799  0.579823  1
  O  O26  1  0.651207  0.736408  0.579823  1
  O  O27  1  0.913031  0.644341  0.073232  1
  O  O28  1  0.731311  0.086969  0.073232  1
  O  O29  1  0.355659  0.268689  0.073232  1
  O  O30  1  0.146015  0.664752  0.250070  1
  O  O31  1  0.518737  0.853985  0.250070  1
  O  O32  1  0.335248  0.481263  0.250070  1
  O  O33  1  0.853985  0.335248  0.749930  1
  O  O34  1  0.481263  0.146015  0.749930  1
  O  O35  1  0.664752  0.518737  0.749930  1
  O  O36  1  0.881304  0.414609  0.253459  1
  O  O37  1  0.533305  0.118696  0.253459  1
  O  O38  1  0.585391  0.466695  0.253459  1
  O  O39  1  0.118696  0.585391  0.746541  1
  O  O40  1  0.466695  0.881304  0.746541  1
  O  O41  1  0.414609  0.533305  0.746541  1
