# generated using pymatgen
data_DyY3(ZnPb)4
_symmetry_space_group_name_H-M   'P 1'
_cell_length_a   4.61574600
_cell_length_b   4.61574661
_cell_length_c   15.95916100
_cell_angle_alpha   90.00000000
_cell_angle_beta   90.00000000
_cell_angle_gamma   119.99999561
_symmetry_Int_Tables_number   1
_chemical_formula_structural   DyY3(ZnPb)4
_chemical_formula_sum   'Dy1 Y3 Zn4 Pb4'
_cell_volume   294.45882075
_cell_formula_units_Z   1
loop_
 _symmetry_equiv_pos_site_id
 _symmetry_equiv_pos_as_xyz
  1  'x, y, z'
loop_
 _atom_site_type_symbol
 _atom_site_label
 _atom_site_symmetry_multiplicity
 _atom_site_fract_x
 _atom_site_fract_y
 _atom_site_fract_z
 _atom_site_occupancy
  Dy  Dy0  1  0.000000  0.000000  0.750000  1
  Y  Y1  1  0.000000  0.000000  0.999993  1
  Y  Y2  1  0.000000  0.000000  0.250000  1
  Y  Y3  1  0.000000  0.000000  0.500007  1
  Zn  Zn4  1  0.666666  0.333334  0.165047  1
  Zn  Zn5  1  0.666666  0.333334  0.334953  1
  Zn  Zn6  1  0.333334  0.666668  0.665373  1
  Zn  Zn7  1  0.333334  0.666668  0.834627  1
  Pb  Pb8  1  0.333334  0.666668  0.110449  1
  Pb  Pb9  1  0.333334  0.666668  0.389551  1
  Pb  Pb10  1  0.666666  0.333334  0.610513  1
  Pb  Pb11  1  0.666666  0.333334  0.889487  1
