# generated using pymatgen
data_SrLu7(Si3Pd)4
_symmetry_space_group_name_H-M   'P 1'
_cell_length_a   8.05305400
_cell_length_b   8.05305370
_cell_length_c   8.16089400
_cell_angle_alpha   90.00000000
_cell_angle_beta   90.00000000
_cell_angle_gamma   120.00000122
_symmetry_Int_Tables_number   1
_chemical_formula_structural   SrLu7(Si3Pd)4
_chemical_formula_sum   'Sr1 Lu7 Si12 Pd4'
_cell_volume   458.34190967
_cell_formula_units_Z   1
loop_
 _symmetry_equiv_pos_site_id
 _symmetry_equiv_pos_as_xyz
  1  'x, y, z'
loop_
 _atom_site_type_symbol
 _atom_site_label
 _atom_site_symmetry_multiplicity
 _atom_site_fract_x
 _atom_site_fract_y
 _atom_site_fract_z
 _atom_site_occupancy
  Sr  Sr0  1  0.000000  0.000000  0.750000  1
  Lu  Lu1  1  0.500947  0.001894  0.250000  1
  Lu  Lu2  1  0.498992  0.997984  0.750000  1
  Lu  Lu3  1  0.998106  0.499053  0.250000  1
  Lu  Lu4  1  0.002016  0.501008  0.750000  1
  Lu  Lu5  1  0.500947  0.499053  0.250000  1
  Lu  Lu6  1  0.498992  0.501008  0.750000  1
  Lu  Lu7  1  0.000000  0.000000  0.250000  1
  Si  Si8  1  0.166439  0.332878  0.007708  1
  Si  Si9  1  0.833522  0.667044  0.008397  1
  Si  Si10  1  0.667122  0.833561  0.007708  1
  Si  Si11  1  0.833522  0.667044  0.491603  1
  Si  Si12  1  0.332956  0.166478  0.008397  1
  Si  Si13  1  0.166439  0.332878  0.492292  1
  Si  Si14  1  0.166439  0.833561  0.007708  1
  Si  Si15  1  0.332956  0.166478  0.491603  1
  Si  Si16  1  0.833522  0.166478  0.008397  1
  Si  Si17  1  0.667122  0.833561  0.492292  1
  Si  Si18  1  0.833522  0.166478  0.491603  1
  Si  Si19  1  0.166439  0.833561  0.492292  1
  Pd  Pd20  1  0.333333  0.666667  0.002258  1
  Pd  Pd21  1  0.666667  0.333333  0.996900  1
  Pd  Pd22  1  0.666667  0.333333  0.503100  1
  Pd  Pd23  1  0.333333  0.666667  0.497742  1
