# generated using pymatgen
data_Na2LiGa4AgBr16
_symmetry_space_group_name_H-M   'P 1'
_cell_length_a   7.55933788
_cell_length_b   7.71413861
_cell_length_c   14.57865097
_cell_angle_alpha   86.71917572
_cell_angle_beta   89.78606547
_cell_angle_gamma   90.11389519
_symmetry_Int_Tables_number   1
_chemical_formula_structural   Na2LiGa4AgBr16
_chemical_formula_sum   'Na2 Li1 Ga4 Ag1 Br16'
_cell_volume   848.73491774
_cell_formula_units_Z   1
loop_
 _symmetry_equiv_pos_site_id
 _symmetry_equiv_pos_as_xyz
  1  'x, y, z'
loop_
 _atom_site_type_symbol
 _atom_site_label
 _atom_site_symmetry_multiplicity
 _atom_site_fract_x
 _atom_site_fract_y
 _atom_site_fract_z
 _atom_site_occupancy
  Na  Na0  1  0.510774  0.843650  0.871041  1
  Na  Na1  1  0.490684  0.153370  0.131021  1
  Li  Li2  1  0.992069  0.846882  0.384559  1
  Ga  Ga3  1  0.681144  0.705908  0.106478  1
  Ga  Ga4  1  0.830101  0.707795  0.598893  1
  Ga  Ga5  1  0.166427  0.292948  0.396099  1
  Ga  Ga6  1  0.320088  0.294385  0.894738  1
  Ag  Ag7  1  0.015160  0.158410  0.632281  1
  Br  Br8  1  0.306057  0.308432  0.540605  1
  Br  Br9  1  0.125572  0.804887  0.567133  1
  Br  Br10  1  0.383745  0.798690  0.076150  1
  Br  Br11  1  0.875332  0.182571  0.424642  1
  Br  Br12  1  0.617338  0.201220  0.923215  1
  Br  Br13  1  0.702068  0.936076  0.681676  1
  Br  Br14  1  0.811709  0.928893  0.191138  1
  Br  Br15  1  0.300585  0.066046  0.315342  1
  Br  Br16  1  0.307406  0.554274  0.802724  1
  Br  Br17  1  0.811317  0.444399  0.688289  1
  Br  Br18  1  0.691528  0.444191  0.197024  1
  Br  Br19  1  0.172861  0.562463  0.312198  1
  Br  Br20  1  0.822421  0.690323  0.962814  1
  Br  Br21  1  0.699681  0.695505  0.452802  1
  Br  Br22  1  0.179129  0.309827  0.038032  1
  Br  Br23  1  0.186807  0.068857  0.811104  1
