# generated using pymatgen
data_Rb2LiRhBr6
_symmetry_space_group_name_H-M   'P 1'
_cell_length_a   7.48337700
_cell_length_b   7.48337624
_cell_length_c   6.58857200
_cell_angle_alpha   90.00000000
_cell_angle_beta   90.00000000
_cell_angle_gamma   119.99999894
_symmetry_Int_Tables_number   1
_chemical_formula_structural   Rb2LiRhBr6
_chemical_formula_sum   'Rb2 Li1 Rh1 Br6'
_cell_volume   319.53404571
_cell_formula_units_Z   1
loop_
 _symmetry_equiv_pos_site_id
 _symmetry_equiv_pos_as_xyz
  1  'x, y, z'
loop_
 _atom_site_type_symbol
 _atom_site_label
 _atom_site_symmetry_multiplicity
 _atom_site_fract_x
 _atom_site_fract_y
 _atom_site_fract_z
 _atom_site_occupancy
  Rb  Rb0  1  0.333333  0.666667  0.284385  1
  Rb  Rb1  1  0.666667  0.333333  0.715615  1
  Li  Li2  1  0.000000  0.000000  0.000000  1
  Rh  Rh3  1  0.000000  0.000000  0.500000  1
  Br  Br4  1  0.842431  0.157569  0.273175  1
  Br  Br5  1  0.157569  0.842431  0.726825  1
  Br  Br6  1  0.842431  0.684861  0.273175  1
  Br  Br7  1  0.157569  0.315139  0.726825  1
  Br  Br8  1  0.315139  0.157569  0.273175  1
  Br  Br9  1  0.684861  0.842431  0.726825  1
