# generated using pymatgen
data_Tb11CeTc3Pt
_symmetry_space_group_name_H-M   'P 1'
_cell_length_a   6.38680703
_cell_length_b   7.34765311
_cell_length_c   9.37903600
_cell_angle_alpha   90.00000000
_cell_angle_beta   90.00000000
_cell_angle_gamma   88.64854929
_symmetry_Int_Tables_number   1
_chemical_formula_structural   Tb11CeTc3Pt
_chemical_formula_sum   'Tb11 Ce1 Tc3 Pt1'
_cell_volume   440.01736847
_cell_formula_units_Z   1
loop_
 _symmetry_equiv_pos_site_id
 _symmetry_equiv_pos_as_xyz
  1  'x, y, z'
loop_
 _atom_site_type_symbol
 _atom_site_label
 _atom_site_symmetry_multiplicity
 _atom_site_fract_x
 _atom_site_fract_y
 _atom_site_fract_z
 _atom_site_occupancy
  Tb  Tb0  1  0.634559  0.043588  0.250000  1
  Tb  Tb1  1  0.125449  0.460011  0.750000  1
  Tb  Tb2  1  0.867358  0.533883  0.250000  1
  Tb  Tb3  1  0.172718  0.182129  0.061360  1
  Tb  Tb4  1  0.826769  0.825278  0.932787  1
  Tb  Tb5  1  0.665989  0.319831  0.935603  1
  Tb  Tb6  1  0.826769  0.825278  0.567213  1
  Tb  Tb7  1  0.333350  0.673227  0.064254  1
  Tb  Tb8  1  0.172718  0.182129  0.438640  1
  Tb  Tb9  1  0.333350  0.673227  0.435746  1
  Tb  Tb10  1  0.665989  0.319831  0.564397  1
  Ce  Ce11  1  0.354660  0.939378  0.750000  1
  Tc  Tc12  1  0.456928  0.388572  0.250000  1
  Tc  Tc13  1  0.516065  0.639619  0.750000  1
  Tc  Tc14  1  0.999129  0.106426  0.750000  1
  Pt  Pt15  1  0.048198  0.887590  0.250000  1
