# generated using pymatgen
data_Hf3BePd2N
_symmetry_space_group_name_H-M   'P 1'
_cell_length_a   8.41387346
_cell_length_b   8.41387365
_cell_length_c   8.41387300
_cell_angle_alpha   59.99999863
_cell_angle_beta   59.99999786
_cell_angle_gamma   59.99999934
_symmetry_Int_Tables_number   1
_chemical_formula_structural   Hf3BePd2N
_chemical_formula_sum   'Hf12 Be4 Pd8 N4'
_cell_volume   421.18500681
_cell_formula_units_Z   4
loop_
 _symmetry_equiv_pos_site_id
 _symmetry_equiv_pos_as_xyz
  1  'x, y, z'
loop_
 _atom_site_type_symbol
 _atom_site_label
 _atom_site_symmetry_multiplicity
 _atom_site_fract_x
 _atom_site_fract_y
 _atom_site_fract_z
 _atom_site_occupancy
  Hf  Hf0  1  0.808641  0.191359  0.191359  1
  Hf  Hf1  1  0.191359  0.808641  0.191359  1
  Hf  Hf2  1  0.808641  0.808641  0.191359  1
  Hf  Hf3  1  0.191359  0.808641  0.808641  1
  Hf  Hf4  1  0.808641  0.191359  0.808641  1
  Hf  Hf5  1  0.191359  0.191359  0.808641  1
  Hf  Hf6  1  0.441359  0.058641  0.058641  1
  Hf  Hf7  1  0.058641  0.441359  0.058641  1
  Hf  Hf8  1  0.441359  0.441359  0.058641  1
  Hf  Hf9  1  0.058641  0.441359  0.441359  1
  Hf  Hf10  1  0.441359  0.058641  0.441359  1
  Hf  Hf11  1  0.058641  0.058641  0.441359  1
  Be  Be12  1  0.625000  0.625000  0.125000  1
  Be  Be13  1  0.625000  0.625000  0.625000  1
  Be  Be14  1  0.125000  0.625000  0.625000  1
  Be  Be15  1  0.625000  0.125000  0.625000  1
  Pd  Pd16  1  0.415005  0.415005  0.754985  1
  Pd  Pd17  1  0.415005  0.415005  0.415005  1
  Pd  Pd18  1  0.754985  0.415005  0.415005  1
  Pd  Pd19  1  0.415005  0.754985  0.415005  1
  Pd  Pd20  1  0.834995  0.834995  0.495015  1
  Pd  Pd21  1  0.834995  0.834995  0.834995  1
  Pd  Pd22  1  0.495015  0.834995  0.834995  1
  Pd  Pd23  1  0.834995  0.495015  0.834995  1
  N  N24  1  0.125000  0.125000  0.625000  1
  N  N25  1  0.125000  0.125000  0.125000  1
  N  N26  1  0.625000  0.125000  0.125000  1
  N  N27  1  0.125000  0.625000  0.125000  1
