# generated using pymatgen
data_Pa2AgPt2
_symmetry_space_group_name_H-M   'P 1'
_cell_length_a   7.77360900
_cell_length_b   7.77360900
_cell_length_c   3.64831800
_cell_angle_alpha   90.00000000
_cell_angle_beta   90.00000000
_cell_angle_gamma   90.00000000
_symmetry_Int_Tables_number   1
_chemical_formula_structural   Pa2AgPt2
_chemical_formula_sum   'Pa4 Ag2 Pt4'
_cell_volume   220.46419706
_cell_formula_units_Z   2
loop_
 _symmetry_equiv_pos_site_id
 _symmetry_equiv_pos_as_xyz
  1  'x, y, z'
loop_
 _atom_site_type_symbol
 _atom_site_label
 _atom_site_symmetry_multiplicity
 _atom_site_fract_x
 _atom_site_fract_y
 _atom_site_fract_z
 _atom_site_occupancy
  Pa  Pa0  1  0.671796  0.171796  0.500000  1
  Pa  Pa1  1  0.171796  0.328204  0.500000  1
  Pa  Pa2  1  0.328204  0.828204  0.500000  1
  Pa  Pa3  1  0.828204  0.671796  0.500000  1
  Ag  Ag4  1  0.000000  0.000000  0.000000  1
  Ag  Ag5  1  0.500000  0.500000  0.000000  1
  Pt  Pt6  1  0.868128  0.368128  0.000000  1
  Pt  Pt7  1  0.631872  0.868128  0.000000  1
  Pt  Pt8  1  0.131872  0.631872  0.000000  1
  Pt  Pt9  1  0.368128  0.131872  0.000000  1
