# generated using pymatgen
data_Hf2CrNi2P3
_symmetry_space_group_name_H-M   'P 1'
_cell_length_a   3.55320700
_cell_length_b   10.07601000
_cell_length_c   12.42122800
_cell_angle_alpha   90.00000000
_cell_angle_beta   90.00000000
_cell_angle_gamma   90.00000000
_symmetry_Int_Tables_number   1
_chemical_formula_structural   Hf2CrNi2P3
_chemical_formula_sum   'Hf8 Cr4 Ni8 P12'
_cell_volume   444.70665890
_cell_formula_units_Z   4
loop_
 _symmetry_equiv_pos_site_id
 _symmetry_equiv_pos_as_xyz
  1  'x, y, z'
loop_
 _atom_site_type_symbol
 _atom_site_label
 _atom_site_symmetry_multiplicity
 _atom_site_fract_x
 _atom_site_fract_y
 _atom_site_fract_z
 _atom_site_occupancy
  Hf  Hf0  1  0.250000  0.339798  0.995972  1
  Hf  Hf1  1  0.250000  0.160202  0.495972  1
  Hf  Hf2  1  0.750000  0.660202  0.004028  1
  Hf  Hf3  1  0.750000  0.839798  0.504028  1
  Hf  Hf4  1  0.250000  0.427470  0.706937  1
  Hf  Hf5  1  0.250000  0.072530  0.206937  1
  Hf  Hf6  1  0.750000  0.572530  0.293063  1
  Hf  Hf7  1  0.750000  0.927470  0.793063  1
  Cr  Cr8  1  0.250000  0.905414  0.985810  1
  Cr  Cr9  1  0.250000  0.594586  0.485810  1
  Cr  Cr10  1  0.750000  0.094586  0.014190  1
  Cr  Cr11  1  0.750000  0.405414  0.514190  1
  Ni  Ni12  1  0.250000  0.135210  0.715703  1
  Ni  Ni13  1  0.250000  0.364790  0.215703  1
  Ni  Ni14  1  0.750000  0.864790  0.284297  1
  Ni  Ni15  1  0.750000  0.635210  0.784297  1
  Ni  Ni16  1  0.250000  0.766731  0.167370  1
  Ni  Ni17  1  0.250000  0.733269  0.667370  1
  Ni  Ni18  1  0.750000  0.233269  0.832630  1
  Ni  Ni19  1  0.750000  0.266731  0.332630  1
  P  P20  1  0.250000  0.104759  0.893609  1
  P  P21  1  0.250000  0.395241  0.393609  1
  P  P22  1  0.750000  0.895241  0.106391  1
  P  P23  1  0.750000  0.604759  0.606391  1
  P  P24  1  0.250000  0.740938  0.856370  1
  P  P25  1  0.250000  0.759062  0.356370  1
  P  P26  1  0.750000  0.259062  0.143630  1
  P  P27  1  0.750000  0.240938  0.643630  1
  P  P28  1  0.250000  0.551992  0.128195  1
  P  P29  1  0.250000  0.948008  0.628195  1
  P  P30  1  0.750000  0.448008  0.871805  1
  P  P31  1  0.750000  0.051992  0.371805  1
