# generated using pymatgen
data_TbHo15(In3Tc)2
_symmetry_space_group_name_H-M   'P 1'
_cell_length_a   10.39187300
_cell_length_b   10.38872153
_cell_length_c   7.00782364
_cell_angle_alpha   89.95638559
_cell_angle_beta   90.00160949
_cell_angle_gamma   120.01288002
_symmetry_Int_Tables_number   1
_chemical_formula_structural   TbHo15(In3Tc)2
_chemical_formula_sum   'Tb1 Ho15 In6 Tc2'
_cell_volume   655.10843128
_cell_formula_units_Z   1
loop_
 _symmetry_equiv_pos_site_id
 _symmetry_equiv_pos_as_xyz
  1  'x, y, z'
loop_
 _atom_site_type_symbol
 _atom_site_label
 _atom_site_symmetry_multiplicity
 _atom_site_fract_x
 _atom_site_fract_y
 _atom_site_fract_z
 _atom_site_occupancy
  Tb  Tb0  1  0.530566  0.061189  0.509900  1
  Ho  Ho1  1  0.938758  0.469395  0.510705  1
  Ho  Ho2  1  0.530660  0.469384  0.510698  1
  Ho  Ho3  1  0.469024  0.938012  0.010079  1
  Ho  Ho4  1  0.062079  0.531217  0.010720  1
  Ho  Ho5  1  0.469153  0.531181  0.010714  1
  Ho  Ho6  1  0.177892  0.355820  0.714233  1
  Ho  Ho7  1  0.644533  0.822009  0.714235  1
  Ho  Ho8  1  0.177503  0.822019  0.714230  1
  Ho  Ho9  1  0.822183  0.644330  0.214174  1
  Ho  Ho10  1  0.355084  0.177805  0.213779  1
  Ho  Ho11  1  0.822688  0.177778  0.213821  1
  Ho  Ho12  1  0.666850  0.333718  0.879473  1
  Ho  Ho13  1  0.333145  0.666270  0.378581  1
  Ho  Ho14  1  0.999917  0.999853  0.489962  1
  Ho  Ho15  1  0.999856  0.999741  0.989929  1
  In  In16  1  0.837544  0.675029  0.750401  1
  In  In17  1  0.324595  0.162502  0.751126  1
  In  In18  1  0.837871  0.162567  0.751023  1
  In  In19  1  0.162385  0.324785  0.250209  1
  In  In20  1  0.675198  0.837485  0.250334  1
  In  In21  1  0.162326  0.837532  0.250341  1
  Tc  Tc22  1  0.666761  0.333522  0.284958  1
  Tc  Tc23  1  0.333429  0.666856  0.784417  1
