# generated using pymatgen
data_Hf4Cr3Ga2Re3
_symmetry_space_group_name_H-M   'P 1'
_cell_length_a   5.17192400
_cell_length_b   5.13726180
_cell_length_c   8.48015500
_cell_angle_alpha   90.00000000
_cell_angle_beta   90.00000000
_cell_angle_gamma   120.22344813
_symmetry_Int_Tables_number   1
_chemical_formula_structural   Hf4Cr3Ga2Re3
_chemical_formula_sum   'Hf4 Cr3 Ga2 Re3'
_cell_volume   194.68656486
_cell_formula_units_Z   1
loop_
 _symmetry_equiv_pos_site_id
 _symmetry_equiv_pos_as_xyz
  1  'x, y, z'
loop_
 _atom_site_type_symbol
 _atom_site_label
 _atom_site_symmetry_multiplicity
 _atom_site_fract_x
 _atom_site_fract_y
 _atom_site_fract_z
 _atom_site_occupancy
  Hf  Hf0  1  0.329294  0.658591  0.053415  1
  Hf  Hf1  1  0.665762  0.331524  0.566568  1
  Hf  Hf2  1  0.665762  0.331524  0.933432  1
  Hf  Hf3  1  0.329294  0.658591  0.446585  1
  Cr  Cr4  1  0.842502  0.685005  0.250000  1
  Cr  Cr5  1  0.170996  0.827076  0.750000  1
  Cr  Cr6  1  0.656081  0.827076  0.750000  1
  Ga  Ga7  1  0.351882  0.186690  0.250000  1
  Ga  Ga8  1  0.834806  0.186690  0.250000  1
  Re  Re9  1  0.990484  0.980970  0.999990  1
  Re  Re10  1  0.990484  0.980970  0.500010  1
  Re  Re11  1  0.172650  0.345298  0.750000  1
