# generated using pymatgen
data_ErMnGaO5
_symmetry_space_group_name_H-M   'P 1'
_cell_length_a   5.72808600
_cell_length_b   7.31170300
_cell_length_c   8.49740400
_cell_angle_alpha   90.00000000
_cell_angle_beta   90.00000000
_cell_angle_gamma   90.00000000
_symmetry_Int_Tables_number   1
_chemical_formula_structural   ErMnGaO5
_chemical_formula_sum   'Er4 Mn4 Ga4 O20'
_cell_volume   355.88881468
_cell_formula_units_Z   4
loop_
 _symmetry_equiv_pos_site_id
 _symmetry_equiv_pos_as_xyz
  1  'x, y, z'
loop_
 _atom_site_type_symbol
 _atom_site_label
 _atom_site_symmetry_multiplicity
 _atom_site_fract_x
 _atom_site_fract_y
 _atom_site_fract_z
 _atom_site_occupancy
  Er  Er0  1  0.500000  0.366682  0.331796  1
  Er  Er1  1  0.500000  0.633318  0.668204  1
  Er  Er2  1  0.500000  0.133318  0.831796  1
  Er  Er3  1  0.500000  0.866682  0.168204  1
  Mn  Mn4  1  0.249228  0.000000  0.500000  1
  Mn  Mn5  1  0.750772  0.000000  0.500000  1
  Mn  Mn6  1  0.750772  0.500000  0.000000  1
  Mn  Mn7  1  0.249228  0.500000  0.000000  1
  Ga  Ga8  1  0.000000  0.108551  0.146531  1
  Ga  Ga9  1  0.000000  0.891449  0.853469  1
  Ga  Ga10  1  0.000000  0.391449  0.646531  1
  Ga  Ga11  1  0.000000  0.608551  0.353469  1
  O  O12  1  0.500000  0.337469  0.058867  1
  O  O13  1  0.500000  0.662531  0.941133  1
  O  O14  1  0.500000  0.162531  0.558867  1
  O  O15  1  0.500000  0.837469  0.441133  1
  O  O16  1  0.230815  0.000000  0.000000  1
  O  O17  1  0.769185  0.000000  0.000000  1
  O  O18  1  0.769185  0.500000  0.500000  1
  O  O19  1  0.230815  0.500000  0.500000  1
  O  O20  1  0.259665  0.108714  0.293650  1
  O  O21  1  0.740335  0.891286  0.706350  1
  O  O22  1  0.259665  0.891286  0.706350  1
  O  O23  1  0.740335  0.391286  0.793650  1
  O  O24  1  0.740335  0.108714  0.293650  1
  O  O25  1  0.259665  0.608714  0.206350  1
  O  O26  1  0.740335  0.608714  0.206350  1
  O  O27  1  0.259665  0.391286  0.793650  1
  O  O28  1  0.000000  0.350188  0.072384  1
  O  O29  1  0.000000  0.649812  0.927616  1
  O  O30  1  0.000000  0.149812  0.572384  1
  O  O31  1  0.000000  0.850188  0.427616  1
