# generated using pymatgen
data_TbYbHo6(B6Ru)4
_symmetry_space_group_name_H-M   'P 1'
_cell_length_a   3.65510800
_cell_length_b   9.13084409
_cell_length_c   11.51383799
_cell_angle_alpha   89.91605987
_cell_angle_beta   90.00000000
_cell_angle_gamma   90.00000000
_symmetry_Int_Tables_number   1
_chemical_formula_structural   TbYbHo6(B6Ru)4
_chemical_formula_sum   'Tb1 Yb1 Ho6 B24 Ru4'
_cell_volume   384.26496442
_cell_formula_units_Z   1
loop_
 _symmetry_equiv_pos_site_id
 _symmetry_equiv_pos_as_xyz
  1  'x, y, z'
loop_
 _atom_site_type_symbol
 _atom_site_label
 _atom_site_symmetry_multiplicity
 _atom_site_fract_x
 _atom_site_fract_y
 _atom_site_fract_z
 _atom_site_occupancy
  Tb  Tb0  1  0.000000  0.323867  0.415238  1
  Yb  Yb1  1  0.000000  0.676943  0.586078  1
  Ho  Ho2  1  0.000000  0.821774  0.084965  1
  Ho  Ho3  1  0.000000  0.177656  0.913968  1
  Ho  Ho4  1  0.000000  0.941592  0.371624  1
  Ho  Ho5  1  0.000000  0.056106  0.629275  1
  Ho  Ho6  1  0.000000  0.443543  0.128068  1
  Ho  Ho7  1  0.000000  0.557422  0.870254  1
  B  B8  1  0.500000  0.554845  0.432583  1
  B  B9  1  0.500000  0.446108  0.567922  1
  B  B10  1  0.500000  0.054027  0.067099  1
  B  B11  1  0.500000  0.946562  0.933454  1
  B  B12  1  0.500000  0.748122  0.418782  1
  B  B13  1  0.500000  0.251586  0.581579  1
  B  B14  1  0.500000  0.248275  0.080395  1
  B  B15  1  0.500000  0.752305  0.919269  1
  B  B16  1  0.500000  0.790247  0.265244  1
  B  B17  1  0.500000  0.208808  0.734669  1
  B  B18  1  0.500000  0.290138  0.233728  1
  B  B19  1  0.500000  0.710400  0.766033  1
  B  B20  1  0.500000  0.631272  0.184425  1
  B  B21  1  0.500000  0.368555  0.814633  1
  B  B22  1  0.500000  0.130682  0.314712  1
  B  B23  1  0.500000  0.869011  0.685803  1
  B  B24  1  0.500000  0.982903  0.212235  1
  B  B25  1  0.500000  0.016809  0.788421  1
  B  B26  1  0.500000  0.483827  0.287235  1
  B  B27  1  0.500000  0.516495  0.712295  1
  B  B28  1  0.500000  0.607033  0.029081  1
  B  B29  1  0.500000  0.392977  0.970242  1
  B  B30  1  0.500000  0.104252  0.471305  1
  B  B31  1  0.500000  0.896305  0.528705  1
  Ru  Ru32  1  0.000000  0.638141  0.319559  1
  Ru  Ru33  1  0.000000  0.360663  0.680046  1
  Ru  Ru34  1  0.000000  0.137261  0.178637  1
  Ru  Ru35  1  0.000000  0.863485  0.822438  1
