# generated using pymatgen
data_Hf5(CoTe)2
_symmetry_space_group_name_H-M   'P 1'
_cell_length_a   7.28670731
_cell_length_b   7.28670752
_cell_length_c   13.84870700
_cell_angle_alpha   90.00000000
_cell_angle_beta   90.00000000
_cell_angle_gamma   150.27774926
_symmetry_Int_Tables_number   1
_chemical_formula_structural   Hf5(CoTe)2
_chemical_formula_sum   'Hf10 Co4 Te4'
_cell_volume   364.56491959
_cell_formula_units_Z   2
loop_
 _symmetry_equiv_pos_site_id
 _symmetry_equiv_pos_as_xyz
  1  'x, y, z'
loop_
 _atom_site_type_symbol
 _atom_site_label
 _atom_site_symmetry_multiplicity
 _atom_site_fract_x
 _atom_site_fract_y
 _atom_site_fract_z
 _atom_site_occupancy
  Hf  Hf0  1  0.964044  0.035956  0.133103  1
  Hf  Hf1  1  0.035956  0.964044  0.866897  1
  Hf  Hf2  1  0.035956  0.964044  0.633103  1
  Hf  Hf3  1  0.964044  0.035956  0.366897  1
  Hf  Hf4  1  0.738029  0.261971  0.636026  1
  Hf  Hf5  1  0.261971  0.738029  0.363974  1
  Hf  Hf6  1  0.261971  0.738029  0.136026  1
  Hf  Hf7  1  0.738029  0.261971  0.863974  1
  Hf  Hf8  1  0.612274  0.387726  0.250000  1
  Hf  Hf9  1  0.387726  0.612274  0.750000  1
  Co  Co10  1  0.427957  0.572043  0.250000  1
  Co  Co11  1  0.572043  0.427957  0.750000  1
  Co  Co12  1  0.804216  0.195784  0.250000  1
  Co  Co13  1  0.195784  0.804216  0.750000  1
  Te  Te14  1  0.615831  0.384169  0.037652  1
  Te  Te15  1  0.384169  0.615831  0.962348  1
  Te  Te16  1  0.384169  0.615831  0.537652  1
  Te  Te17  1  0.615831  0.384169  0.462348  1
