# generated using pymatgen
data_TbYCo2(Os2C)2
_symmetry_space_group_name_H-M   'P 1'
_cell_length_a   5.62533700
_cell_length_b   5.62533585
_cell_length_c   7.43828900
_cell_angle_alpha   90.00000000
_cell_angle_beta   90.00000000
_cell_angle_gamma   140.31297675
_symmetry_Int_Tables_number   1
_chemical_formula_structural   TbYCo2(Os2C)2
_chemical_formula_sum   'Tb1 Y1 Co2 Os4 C2'
_cell_volume   150.31231793
_cell_formula_units_Z   1
loop_
 _symmetry_equiv_pos_site_id
 _symmetry_equiv_pos_as_xyz
  1  'x, y, z'
loop_
 _atom_site_type_symbol
 _atom_site_label
 _atom_site_symmetry_multiplicity
 _atom_site_fract_x
 _atom_site_fract_y
 _atom_site_fract_z
 _atom_site_occupancy
  Tb  Tb0  1  0.535503  0.464497  0.250000  1
  Y  Y1  1  0.464501  0.535499  0.750000  1
  Co  Co2  1  0.263157  0.736843  0.250000  1
  Co  Co3  1  0.736817  0.263183  0.750000  1
  Os  Os4  1  0.825598  0.174402  0.061494  1
  Os  Os5  1  0.174371  0.825629  0.938461  1
  Os  Os6  1  0.174371  0.825629  0.561539  1
  Os  Os7  1  0.825598  0.174402  0.438506  1
  C  C8  1  0.000041  0.999959  0.999927  1
  C  C9  1  0.000041  0.999959  0.500073  1
