# generated using pymatgen
data_RuOF8
_symmetry_space_group_name_H-M   'P 1'
_cell_length_a   5.79424800
_cell_length_b   7.64488582
_cell_length_c   10.65749623
_cell_angle_alpha   45.39487791
_cell_angle_beta   90.00000000
_cell_angle_gamma   90.00000000
_symmetry_Int_Tables_number   1
_chemical_formula_structural   RuOF8
_chemical_formula_sum   'Ru2 O2 F16'
_cell_volume   336.10955653
_cell_formula_units_Z   2
loop_
 _symmetry_equiv_pos_site_id
 _symmetry_equiv_pos_as_xyz
  1  'x, y, z'
loop_
 _atom_site_type_symbol
 _atom_site_label
 _atom_site_symmetry_multiplicity
 _atom_site_fract_x
 _atom_site_fract_y
 _atom_site_fract_z
 _atom_site_occupancy
  Ru  Ru0  1  0.003406  0.500000  0.750000  1
  Ru  Ru1  1  0.996594  0.500000  0.250000  1
  O  O2  1  0.352003  0.000000  0.750000  1
  O  O3  1  0.647997  0.000000  0.250000  1
  F  F4  1  0.500258  0.856376  0.397333  1
  F  F5  1  0.499742  0.856376  0.897333  1
  F  F6  1  0.500258  0.143624  0.102667  1
  F  F7  1  0.499742  0.143624  0.602667  1
  F  F8  1  0.763959  0.342612  0.238676  1
  F  F9  1  0.002573  0.243825  0.996907  1
  F  F10  1  0.236041  0.342612  0.738676  1
  F  F11  1  0.220012  0.333028  0.241647  1
  F  F12  1  0.763959  0.657388  0.261324  1
  F  F13  1  0.779988  0.666972  0.758353  1
  F  F14  1  0.997427  0.243825  0.496907  1
  F  F15  1  0.779988  0.333028  0.741647  1
  F  F16  1  0.236041  0.657388  0.761324  1
  F  F17  1  0.002573  0.756175  0.503093  1
  F  F18  1  0.997427  0.756175  0.003093  1
  F  F19  1  0.220012  0.666972  0.258353  1
