# generated using pymatgen
data_ZrTa5(B2Ru5)2
_symmetry_space_group_name_H-M   'P 1'
_cell_length_a   9.47152060
_cell_length_b   9.47152060
_cell_length_c   3.03991500
_cell_angle_alpha   90.00000000
_cell_angle_beta   90.00000000
_cell_angle_gamma   90.11293988
_symmetry_Int_Tables_number   1
_chemical_formula_structural   ZrTa5(B2Ru5)2
_chemical_formula_sum   'Zr1 Ta5 B4 Ru10'
_cell_volume   272.70934041
_cell_formula_units_Z   1
loop_
 _symmetry_equiv_pos_site_id
 _symmetry_equiv_pos_as_xyz
  1  'x, y, z'
loop_
 _atom_site_type_symbol
 _atom_site_label
 _atom_site_symmetry_multiplicity
 _atom_site_fract_x
 _atom_site_fract_y
 _atom_site_fract_z
 _atom_site_occupancy
  Zr  Zr0  1  0.824403  0.675597  0.000000  1
  Ta  Ta1  1  0.176794  0.323206  0.000000  1
  Ta  Ta2  1  0.324510  0.823447  0.000000  1
  Ta  Ta3  1  0.676553  0.175490  0.000000  1
  Ta  Ta4  1  0.499849  0.500028  0.000000  1
  Ta  Ta5  1  0.999972  0.000151  0.000000  1
  B  B6  1  0.620722  0.879278  0.000000  1
  B  B7  1  0.378573  0.121427  0.000000  1
  B  B8  1  0.121396  0.621441  0.000000  1
  B  B9  1  0.878559  0.378604  0.000000  1
  Ru  Ru10  1  0.565305  0.720708  0.500000  1
  Ru  Ru11  1  0.428018  0.281900  0.500000  1
  Ru  Ru12  1  0.075968  0.782465  0.500000  1
  Ru  Ru13  1  0.929650  0.217665  0.500000  1
  Ru  Ru14  1  0.282335  0.570350  0.500000  1
  Ru  Ru15  1  0.717535  0.424032  0.500000  1
  Ru  Ru16  1  0.218100  0.071982  0.500000  1
  Ru  Ru17  1  0.779292  0.934695  0.500000  1
  Ru  Ru18  1  0.498475  0.001525  0.500000  1
  Ru  Ru19  1  0.003990  0.496010  0.500000  1
