# generated using pymatgen
data_La4Pd5SeO19
_symmetry_space_group_name_H-M   'P 1'
_cell_length_a   7.86359718
_cell_length_b   7.82706801
_cell_length_c   7.86359656
_cell_angle_alpha   109.69105543
_cell_angle_beta   109.66056378
_cell_angle_gamma   109.25065217
_symmetry_Int_Tables_number   1
_chemical_formula_structural   La4Pd5SeO19
_chemical_formula_sum   'La4 Pd5 Se1 O19'
_cell_volume   371.70522942
_cell_formula_units_Z   1
loop_
 _symmetry_equiv_pos_site_id
 _symmetry_equiv_pos_as_xyz
  1  'x, y, z'
loop_
 _atom_site_type_symbol
 _atom_site_label
 _atom_site_symmetry_multiplicity
 _atom_site_fract_x
 _atom_site_fract_y
 _atom_site_fract_z
 _atom_site_occupancy
  La  La0  1  0.009815  0.016652  0.329685  1
  La  La1  1  0.998361  0.320814  0.997715  1
  La  La2  1  0.676901  0.679186  0.677547  1
  La  La3  1  0.313034  0.983348  0.993163  1
  Pd  Pd4  1  0.338696  0.500000  0.838696  1
  Pd  Pd5  1  0.841798  0.339605  0.496785  1
  Pd  Pd6  1  0.502027  0.162821  0.660757  1
  Pd  Pd7  1  0.157180  0.660395  0.502192  1
  Pd  Pd8  1  0.497936  0.837179  0.339206  1
  Se  Se9  1  0.659805  0.500000  0.159805  1
  O  O10  1  0.344955  0.000000  0.344955  1
  O  O11  1  0.368896  0.356033  0.010243  1
  O  O12  1  0.998873  0.661922  0.662824  1
  O  O13  1  0.654210  0.643967  0.012863  1
  O  O14  1  0.000901  0.338078  0.336950  1
  O  O15  1  0.664342  0.000000  0.664342  1
  O  O16  1  0.000781  0.000000  0.000781  1
  O  O17  1  0.366685  0.329991  0.606300  1
  O  O18  1  0.036606  0.282103  0.672041  1
  O  O19  1  0.755046  0.393740  0.713736  1
  O  O20  1  0.389938  0.717897  0.754502  1
  O  O21  1  0.246592  0.966174  0.641000  1
  O  O22  1  0.615540  0.367278  0.306783  1
  O  O23  1  0.319996  0.606260  0.361305  1
  O  O24  1  0.674825  0.033826  0.280416  1
  O  O25  1  0.939505  0.632722  0.248262  1
  O  O26  1  0.706126  0.732324  0.376651  1
  O  O27  1  0.644326  0.267676  0.973799  1
  O  O28  1  0.276309  0.670009  0.036695  1
