# generated using pymatgen
data_Pa3Nb(Ni4P3)2
_symmetry_space_group_name_H-M   'P 1'
_cell_length_a   3.80938700
_cell_length_b   10.78342100
_cell_length_c   12.43326700
_cell_angle_alpha   90.00000000
_cell_angle_beta   90.00000000
_cell_angle_gamma   90.00000000
_symmetry_Int_Tables_number   1
_chemical_formula_structural   Pa3Nb(Ni4P3)2
_chemical_formula_sum   'Pa6 Nb2 Ni16 P12'
_cell_volume   510.73652405
_cell_formula_units_Z   2
loop_
 _symmetry_equiv_pos_site_id
 _symmetry_equiv_pos_as_xyz
  1  'x, y, z'
loop_
 _atom_site_type_symbol
 _atom_site_label
 _atom_site_symmetry_multiplicity
 _atom_site_fract_x
 _atom_site_fract_y
 _atom_site_fract_z
 _atom_site_occupancy
  Pa  Pa0  1  0.751875  0.000000  0.475867  1
  Pa  Pa1  1  0.251875  0.500000  0.524133  1
  Pa  Pa2  1  0.251827  0.680074  0.792798  1
  Pa  Pa3  1  0.251827  0.319926  0.792798  1
  Pa  Pa4  1  0.751827  0.819926  0.207202  1
  Pa  Pa5  1  0.751827  0.180074  0.207202  1
  Nb  Nb6  1  0.251784  0.000000  0.847654  1
  Nb  Nb7  1  0.751784  0.500000  0.152346  1
  Ni  Ni8  1  0.751834  0.000000  0.018246  1
  Ni  Ni9  1  0.251834  0.500000  0.981754  1
  Ni  Ni10  1  0.251781  0.199404  0.571599  1
  Ni  Ni11  1  0.251781  0.800596  0.571599  1
  Ni  Ni12  1  0.751781  0.300596  0.428401  1
  Ni  Ni13  1  0.751781  0.699404  0.428401  1
  Ni  Ni14  1  0.251803  0.620252  0.292938  1
  Ni  Ni15  1  0.251803  0.379748  0.292938  1
  Ni  Ni16  1  0.751803  0.879748  0.707062  1
  Ni  Ni17  1  0.751803  0.120252  0.707062  1
  Ni  Ni18  1  0.251772  0.167396  0.010662  1
  Ni  Ni19  1  0.251772  0.832604  0.010662  1
  Ni  Ni20  1  0.751772  0.332604  0.989338  1
  Ni  Ni21  1  0.751772  0.667396  0.989338  1
  Ni  Ni22  1  0.252329  0.000000  0.302596  1
  Ni  Ni23  1  0.752329  0.500000  0.697404  1
  P  P24  1  0.251731  0.187761  0.386675  1
  P  P25  1  0.251731  0.812239  0.386675  1
  P  P26  1  0.751731  0.312239  0.613325  1
  P  P27  1  0.751731  0.687761  0.613325  1
  P  P28  1  0.251811  0.000000  0.121794  1
  P  P29  1  0.751811  0.500000  0.878206  1
  P  P30  1  0.251782  0.657393  0.106961  1
  P  P31  1  0.251782  0.342607  0.106961  1
  P  P32  1  0.751782  0.842607  0.893039  1
  P  P33  1  0.751782  0.157393  0.893039  1
  P  P34  1  0.251778  0.000000  0.651170  1
  P  P35  1  0.751778  0.500000  0.348830  1
