# generated using pymatgen
data_Sm3Y(Si5Os3)2
_symmetry_space_group_name_H-M   'P 1'
_cell_length_a   8.17759208
_cell_length_b   8.17204621
_cell_length_c   5.84369913
_cell_angle_alpha   70.46590015
_cell_angle_beta   70.44161701
_cell_angle_gamma   93.86053804
_symmetry_Int_Tables_number   1
_chemical_formula_structural   Sm3Y(Si5Os3)2
_chemical_formula_sum   'Sm3 Y1 Si10 Os6'
_cell_volume   339.66846584
_cell_formula_units_Z   1
loop_
 _symmetry_equiv_pos_site_id
 _symmetry_equiv_pos_as_xyz
  1  'x, y, z'
loop_
 _atom_site_type_symbol
 _atom_site_label
 _atom_site_symmetry_multiplicity
 _atom_site_fract_x
 _atom_site_fract_y
 _atom_site_fract_z
 _atom_site_occupancy
  Sm  Sm0  1  0.867880  0.601525  0.754330  1
  Sm  Sm1  1  0.398508  0.131857  0.745965  1
  Sm  Sm2  1  0.132178  0.398521  0.245556  1
  Y  Y3  1  0.601816  0.867831  0.253778  1
  Si  Si4  1  0.066019  0.261202  0.834792  1
  Si  Si5  1  0.738824  0.933882  0.665439  1
  Si  Si6  1  0.932820  0.739523  0.165276  1
  Si  Si7  1  0.260848  0.065476  0.335051  1
  Si  Si8  1  0.207261  0.792805  0.750475  1
  Si  Si9  1  0.792165  0.206466  0.249927  1
  Si  Si10  1  0.512389  0.488209  0.749813  1
  Si  Si11  1  0.488440  0.513219  0.249329  1
  Si  Si12  1  0.773807  0.225439  0.750983  1
  Si  Si13  1  0.226930  0.773997  0.249680  1
  Os  Os14  1  0.256917  0.544190  0.630426  1
  Os  Os15  1  0.457175  0.744434  0.868139  1
  Os  Os16  1  0.743761  0.456395  0.369444  1
  Os  Os17  1  0.543362  0.255157  0.131081  1
  Os  Os18  1  0.001987  0.997504  0.750271  1
  Os  Os19  1  0.996912  0.002370  0.250245  1
