# generated using pymatgen
data_Eu4MnRe(WO7)2
_symmetry_space_group_name_H-M   'P 1'
_cell_length_a   7.56501820
_cell_length_b   7.44253461
_cell_length_c   7.57906394
_cell_angle_alpha   59.39011026
_cell_angle_beta   60.06127527
_cell_angle_gamma   59.45409141
_symmetry_Int_Tables_number   1
_chemical_formula_structural   Eu4MnRe(WO7)2
_chemical_formula_sum   'Eu4 Mn1 Re1 W2 O14'
_cell_volume   299.21197308
_cell_formula_units_Z   1
loop_
 _symmetry_equiv_pos_site_id
 _symmetry_equiv_pos_as_xyz
  1  'x, y, z'
loop_
 _atom_site_type_symbol
 _atom_site_label
 _atom_site_symmetry_multiplicity
 _atom_site_fract_x
 _atom_site_fract_y
 _atom_site_fract_z
 _atom_site_occupancy
  Eu  Eu0  1  0.125000  0.625000  0.125000  1
  Eu  Eu1  1  0.125000  0.125000  0.625000  1
  Eu  Eu2  1  0.625000  0.125000  0.125000  1
  Eu  Eu3  1  0.125000  0.125000  0.125000  1
  Mn  Mn4  1  0.625000  0.125000  0.625000  1
  Re  Re5  1  0.625000  0.625000  0.125000  1
  W  W6  1  0.625000  0.625000  0.625000  1
  W  W7  1  0.125000  0.625000  0.625000  1
  O  O8  1  0.298818  0.684849  0.717515  1
  O  O9  1  0.549907  0.929788  0.970399  1
  O  O10  1  0.701329  0.682186  0.303307  1
  O  O11  1  0.278125  0.307667  0.711113  1
  O  O12  1  0.997831  0.003022  0.001316  1
  O  O13  1  0.313178  0.682186  0.303307  1
  O  O14  1  0.703095  0.307667  0.711113  1
  O  O15  1  0.936822  0.567814  0.946693  1
  O  O16  1  0.548671  0.567814  0.946693  1
  O  O17  1  0.971875  0.942333  0.538887  1
  O  O18  1  0.252169  0.246978  0.248684  1
  O  O19  1  0.546905  0.942333  0.538887  1
  O  O20  1  0.700093  0.320212  0.279601  1
  O  O21  1  0.951182  0.565151  0.532485  1
