# generated using pymatgen
data_La8Nd6CoNi5
_symmetry_space_group_name_H-M   'P 1'
_cell_length_a   6.50352621
_cell_length_b   9.95171038
_cell_length_c   9.95171018
_cell_angle_alpha   119.91265895
_cell_angle_beta   89.70149411
_cell_angle_gamma   90.29850914
_symmetry_Int_Tables_number   1
_chemical_formula_structural   La8Nd6CoNi5
_chemical_formula_sum   'La8 Nd6 Co1 Ni5'
_cell_volume   558.27561907
_cell_formula_units_Z   1
loop_
 _symmetry_equiv_pos_site_id
 _symmetry_equiv_pos_as_xyz
  1  'x, y, z'
loop_
 _atom_site_type_symbol
 _atom_site_label
 _atom_site_symmetry_multiplicity
 _atom_site_fract_x
 _atom_site_fract_y
 _atom_site_fract_z
 _atom_site_occupancy
  La  La0  1  0.470938  0.333453  0.666547  1
  La  La1  1  0.976624  0.669317  0.330683  1
  La  La2  1  0.242882  0.127617  0.872383  1
  La  La3  1  0.241274  0.748203  0.880577  1
  La  La4  1  0.241274  0.119423  0.251797  1
  La  La5  1  0.744014  0.872759  0.127241  1
  La  La6  1  0.743435  0.254975  0.127090  1
  La  La7  1  0.743435  0.872910  0.745025  1
  Nd  Nd8  1  0.436869  0.538312  0.461688  1
  Nd  Nd9  1  0.434682  0.920613  0.458363  1
  Nd  Nd10  1  0.434682  0.541637  0.079387  1
  Nd  Nd11  1  0.937368  0.461799  0.538201  1
  Nd  Nd12  1  0.935517  0.079063  0.538867  1
  Nd  Nd13  1  0.935517  0.461133  0.920937  1
  Co  Co14  1  0.195912  0.813411  0.186589  1
  Ni  Ni15  1  0.194007  0.372965  0.187563  1
  Ni  Ni16  1  0.194007  0.812437  0.627035  1
  Ni  Ni17  1  0.694089  0.187030  0.812970  1
  Ni  Ni18  1  0.694735  0.624430  0.811485  1
  Ni  Ni19  1  0.694735  0.188515  0.375570  1
