# generated using pymatgen
data_Sc4Ti(ReTc)12
_symmetry_space_group_name_H-M   'P 1'
_cell_length_a   8.40974280
_cell_length_b   8.40974197
_cell_length_c   8.40974201
_cell_angle_alpha   109.46138592
_cell_angle_beta   109.46139175
_cell_angle_gamma   109.46138552
_symmetry_Int_Tables_number   1
_chemical_formula_structural   Sc4Ti(ReTc)12
_chemical_formula_sum   'Sc4 Ti1 Re12 Tc12'
_cell_volume   458.01971557
_cell_formula_units_Z   1
loop_
 _symmetry_equiv_pos_site_id
 _symmetry_equiv_pos_as_xyz
  1  'x, y, z'
loop_
 _atom_site_type_symbol
 _atom_site_label
 _atom_site_symmetry_multiplicity
 _atom_site_fract_x
 _atom_site_fract_y
 _atom_site_fract_z
 _atom_site_occupancy
  Sc  Sc0  1  0.000524  0.000524  0.000524  1
  Sc  Sc1  1  0.630550  0.000495  0.000495  1
  Sc  Sc2  1  0.000495  0.630550  0.000495  1
  Sc  Sc3  1  0.000495  0.000495  0.630550  1
  Ti  Ti4  1  0.370105  0.370105  0.370105  1
  Re  Re5  1  0.378094  0.194531  0.002091  1
  Re  Re6  1  0.187229  0.809032  0.809032  1
  Re  Re7  1  0.378094  0.002091  0.194531  1
  Re  Re8  1  0.194531  0.378094  0.002091  1
  Re  Re9  1  0.002091  0.378094  0.194531  1
  Re  Re10  1  0.809032  0.187229  0.809032  1
  Re  Re11  1  0.809032  0.809032  0.187229  1
  Re  Re12  1  0.002091  0.194531  0.378094  1
  Re  Re13  1  0.194531  0.002091  0.378094  1
  Re  Re14  1  0.621984  0.621984  0.814715  1
  Re  Re15  1  0.814715  0.621984  0.621984  1
  Re  Re16  1  0.621984  0.814715  0.621984  1
  Tc  Tc17  1  0.396995  0.675643  0.997629  1
  Tc  Tc18  1  0.723080  0.323750  0.323750  1
  Tc  Tc19  1  0.396995  0.997629  0.675643  1
  Tc  Tc20  1  0.675643  0.396995  0.997629  1
  Tc  Tc21  1  0.997629  0.396995  0.675643  1
  Tc  Tc22  1  0.323750  0.723080  0.323750  1
  Tc  Tc23  1  0.323750  0.323750  0.723080  1
  Tc  Tc24  1  0.997629  0.675643  0.396995  1
  Tc  Tc25  1  0.675643  0.997629  0.396995  1
  Tc  Tc26  1  0.596983  0.596983  0.279345  1
  Tc  Tc27  1  0.279345  0.596983  0.596983  1
  Tc  Tc28  1  0.596983  0.279345  0.596983  1
