# generated using pymatgen
data_Er2Tm3(CoO6)2
_symmetry_space_group_name_H-M   'P 1'
_cell_length_a   6.67212462
_cell_length_b   6.67212504
_cell_length_c   7.07986419
_cell_angle_alpha   74.49600279
_cell_angle_beta   74.49600444
_cell_angle_gamma   50.58952344
_symmetry_Int_Tables_number   1
_chemical_formula_structural   Er2Tm3(CoO6)2
_chemical_formula_sum   'Er2 Tm3 Co2 O12'
_cell_volume   232.62457177
_cell_formula_units_Z   1
loop_
 _symmetry_equiv_pos_site_id
 _symmetry_equiv_pos_as_xyz
  1  'x, y, z'
loop_
 _atom_site_type_symbol
 _atom_site_label
 _atom_site_symmetry_multiplicity
 _atom_site_fract_x
 _atom_site_fract_y
 _atom_site_fract_z
 _atom_site_occupancy
  Er  Er0  1  0.691776  0.691776  0.165457  1
  Er  Er1  1  0.999935  0.999935  0.500173  1
  Tm  Tm2  1  0.305003  0.305003  0.356580  1
  Tm  Tm3  1  0.694942  0.694942  0.643868  1
  Tm  Tm4  1  0.308347  0.308347  0.834290  1
  Co  Co5  1  0.755680  0.244367  0.999860  1
  Co  Co6  1  0.244367  0.755680  0.999860  1
  O  O7  1  0.902318  0.419239  0.919499  1
  O  O8  1  0.419239  0.902318  0.919499  1
  O  O9  1  0.099350  0.579612  0.079461  1
  O  O10  1  0.579612  0.099350  0.079461  1
  O  O11  1  0.097516  0.597355  0.575684  1
  O  O12  1  0.597355  0.097516  0.575684  1
  O  O13  1  0.903137  0.401844  0.425366  1
  O  O14  1  0.401844  0.903137  0.425366  1
  O  O15  1  0.000525  0.000525  0.826362  1
  O  O16  1  0.999405  0.999405  0.173852  1
  O  O17  1  0.500445  0.500445  0.821478  1
  O  O18  1  0.499203  0.499203  0.178198  1
