# generated using pymatgen
data_Zr2MnNi2As3
_symmetry_space_group_name_H-M   'P 1'
_cell_length_a   3.73851000
_cell_length_b   10.43776900
_cell_length_c   12.98170800
_cell_angle_alpha   90.00000000
_cell_angle_beta   90.00000000
_cell_angle_gamma   90.00000000
_symmetry_Int_Tables_number   1
_chemical_formula_structural   Zr2MnNi2As3
_chemical_formula_sum   'Zr8 Mn4 Ni8 As12'
_cell_volume   506.56836419
_cell_formula_units_Z   4
loop_
 _symmetry_equiv_pos_site_id
 _symmetry_equiv_pos_as_xyz
  1  'x, y, z'
loop_
 _atom_site_type_symbol
 _atom_site_label
 _atom_site_symmetry_multiplicity
 _atom_site_fract_x
 _atom_site_fract_y
 _atom_site_fract_z
 _atom_site_occupancy
  Zr  Zr0  1  0.250000  0.332685  0.995662  1
  Zr  Zr1  1  0.250000  0.167315  0.495662  1
  Zr  Zr2  1  0.750000  0.667315  0.004338  1
  Zr  Zr3  1  0.750000  0.832685  0.504338  1
  Zr  Zr4  1  0.250000  0.426874  0.711316  1
  Zr  Zr5  1  0.250000  0.073126  0.211316  1
  Zr  Zr6  1  0.750000  0.573126  0.288684  1
  Zr  Zr7  1  0.750000  0.926874  0.788684  1
  Mn  Mn8  1  0.250000  0.908346  0.987780  1
  Mn  Mn9  1  0.250000  0.591654  0.487780  1
  Mn  Mn10  1  0.750000  0.091654  0.012220  1
  Mn  Mn11  1  0.750000  0.408346  0.512220  1
  Ni  Ni12  1  0.250000  0.137896  0.715369  1
  Ni  Ni13  1  0.250000  0.362104  0.215369  1
  Ni  Ni14  1  0.750000  0.862104  0.284631  1
  Ni  Ni15  1  0.750000  0.637896  0.784631  1
  Ni  Ni16  1  0.250000  0.770836  0.167537  1
  Ni  Ni17  1  0.250000  0.729164  0.667537  1
  Ni  Ni18  1  0.750000  0.229164  0.832463  1
  Ni  Ni19  1  0.750000  0.270836  0.332463  1
  As  As20  1  0.250000  0.103235  0.891011  1
  As  As21  1  0.250000  0.396765  0.391011  1
  As  As22  1  0.750000  0.896765  0.108989  1
  As  As23  1  0.750000  0.603235  0.608989  1
  As  As24  1  0.250000  0.742142  0.856477  1
  As  As25  1  0.250000  0.757858  0.356477  1
  As  As26  1  0.750000  0.257858  0.143523  1
  As  As27  1  0.750000  0.242142  0.643523  1
  As  As28  1  0.250000  0.552301  0.125314  1
  As  As29  1  0.250000  0.947699  0.625314  1
  As  As30  1  0.750000  0.447699  0.874686  1
  As  As31  1  0.750000  0.052301  0.374686  1
