# generated using pymatgen
data_Ho3Er2(Tl2Rh)2
_symmetry_space_group_name_H-M   'P 1'
_cell_length_a   3.60947700
_cell_length_b   7.99381000
_cell_length_c   18.23052600
_cell_angle_alpha   90.00000000
_cell_angle_beta   90.00000000
_cell_angle_gamma   90.00000000
_symmetry_Int_Tables_number   1
_chemical_formula_structural   Ho3Er2(Tl2Rh)2
_chemical_formula_sum   'Ho6 Er4 Tl8 Rh4'
_cell_volume   526.01399587
_cell_formula_units_Z   2
loop_
 _symmetry_equiv_pos_site_id
 _symmetry_equiv_pos_as_xyz
  1  'x, y, z'
loop_
 _atom_site_type_symbol
 _atom_site_label
 _atom_site_symmetry_multiplicity
 _atom_site_fract_x
 _atom_site_fract_y
 _atom_site_fract_z
 _atom_site_occupancy
  Ho  Ho0  1  0.000000  0.245635  0.220755  1
  Ho  Ho1  1  0.000000  0.754365  0.779245  1
  Ho  Ho2  1  0.000000  0.254365  0.720755  1
  Ho  Ho3  1  0.000000  0.745635  0.279245  1
  Ho  Ho4  1  0.000000  0.000000  0.000000  1
  Ho  Ho5  1  0.000000  0.500000  0.500000  1
  Er  Er6  1  0.000000  0.115502  0.410430  1
  Er  Er7  1  0.000000  0.884498  0.589570  1
  Er  Er8  1  0.000000  0.384498  0.910430  1
  Er  Er9  1  0.000000  0.615502  0.089570  1
  Tl  Tl10  1  0.500000  0.424873  0.350400  1
  Tl  Tl11  1  0.500000  0.575127  0.649600  1
  Tl  Tl12  1  0.500000  0.075127  0.850400  1
  Tl  Tl13  1  0.500000  0.924873  0.149600  1
  Tl  Tl14  1  0.500000  0.293883  0.065752  1
  Tl  Tl15  1  0.500000  0.706117  0.934248  1
  Tl  Tl16  1  0.500000  0.206117  0.565752  1
  Tl  Tl17  1  0.500000  0.793883  0.434248  1
  Rh  Rh18  1  0.500000  0.024758  0.305070  1
  Rh  Rh19  1  0.500000  0.975242  0.694930  1
  Rh  Rh20  1  0.500000  0.475242  0.805070  1
  Rh  Rh21  1  0.500000  0.524758  0.194930  1
