# generated using pymatgen
data_Ce(ThS2)6
_symmetry_space_group_name_H-M   'P 1'
_cell_length_a   11.20375900
_cell_length_b   11.20375919
_cell_length_c   3.99868500
_cell_angle_alpha   90.00000000
_cell_angle_beta   90.00000000
_cell_angle_gamma   119.99999057
_symmetry_Int_Tables_number   1
_chemical_formula_structural   Ce(ThS2)6
_chemical_formula_sum   'Ce1 Th6 S12'
_cell_volume   434.68573728
_cell_formula_units_Z   1
loop_
 _symmetry_equiv_pos_site_id
 _symmetry_equiv_pos_as_xyz
  1  'x, y, z'
loop_
 _atom_site_type_symbol
 _atom_site_label
 _atom_site_symmetry_multiplicity
 _atom_site_fract_x
 _atom_site_fract_y
 _atom_site_fract_z
 _atom_site_occupancy
  Ce  Ce0  1  0.000000  0.000000  0.000000  1
  Th  Th1  1  0.571073  0.852246  0.000000  1
  Th  Th2  1  0.281173  0.428927  0.000000  1
  Th  Th3  1  0.147754  0.718827  0.000000  1
  Th  Th4  1  0.439024  0.152206  0.500000  1
  Th  Th5  1  0.713182  0.560976  0.500000  1
  Th  Th6  1  0.847794  0.286818  0.500000  1
  S  S7  1  0.858903  0.485400  0.000000  1
  S  S8  1  0.626496  0.141097  0.000000  1
  S  S9  1  0.514600  0.373504  0.000000  1
  S  S10  1  0.142337  0.525359  0.500000  1
  S  S11  1  0.383023  0.857663  0.500000  1
  S  S12  1  0.474641  0.616977  0.500000  1
  S  S13  1  0.750001  0.745546  0.000000  1
  S  S14  1  0.995545  0.249999  0.000000  1
  S  S15  1  0.254454  0.004455  0.000000  1
  S  S16  1  0.215058  0.219801  0.500000  1
  S  S17  1  0.004744  0.784942  0.500000  1
  S  S18  1  0.780199  0.995256  0.500000  1
