# generated using pymatgen
data_Nd3Y2ErCoBr10
_symmetry_space_group_name_H-M   'P 1'
_cell_length_a   7.46926724
_cell_length_b   9.42604467
_cell_length_c   9.38732249
_cell_angle_alpha   106.79171052
_cell_angle_beta   94.85608081
_cell_angle_gamma   105.09218051
_symmetry_Int_Tables_number   1
_chemical_formula_structural   Nd3Y2ErCoBr10
_chemical_formula_sum   'Nd3 Y2 Er1 Co1 Br10'
_cell_volume   601.70826584
_cell_formula_units_Z   1
loop_
 _symmetry_equiv_pos_site_id
 _symmetry_equiv_pos_as_xyz
  1  'x, y, z'
loop_
 _atom_site_type_symbol
 _atom_site_label
 _atom_site_symmetry_multiplicity
 _atom_site_fract_x
 _atom_site_fract_y
 _atom_site_fract_z
 _atom_site_occupancy
  Nd  Nd0  1  0.535212  0.201835  0.405941  1
  Nd  Nd1  1  0.374293  0.448740  0.736264  1
  Nd  Nd2  1  0.629451  0.550313  0.264620  1
  Y  Y3  1  0.846943  0.627851  0.669366  1
  Y  Y4  1  0.153645  0.378163  0.331792  1
  Er  Er5  1  0.464028  0.784493  0.589166  1
  Co  Co6  1  0.501175  0.499093  0.500173  1
  Br  Br7  1  0.410380  0.118775  0.672265  1
  Br  Br8  1  0.583948  0.868780  0.334876  1
  Br  Br9  1  0.053912  0.680529  0.418964  1
  Br  Br10  1  0.953997  0.328695  0.586132  1
  Br  Br11  1  0.264115  0.747892  0.830188  1
  Br  Br12  1  0.747994  0.258665  0.161595  1
  Br  Br13  1  0.258316  0.427269  0.057929  1
  Br  Br14  1  0.746507  0.578468  0.943386  1
  Br  Br15  1  0.823604  0.935010  0.761042  1
  Br  Br16  1  0.152481  0.065430  0.236302  1
