# generated using pymatgen
data_Gd9HoSn8
_symmetry_space_group_name_H-M   'P 1'
_cell_length_a   8.15570768
_cell_length_b   8.27725600
_cell_length_c   15.66062500
_cell_angle_alpha   90.00000000
_cell_angle_beta   89.70150335
_cell_angle_gamma   90.00000000
_symmetry_Int_Tables_number   1
_chemical_formula_structural   Gd9HoSn8
_chemical_formula_sum   'Gd18 Ho2 Sn16'
_cell_volume   1057.18559063
_cell_formula_units_Z   2
loop_
 _symmetry_equiv_pos_site_id
 _symmetry_equiv_pos_as_xyz
  1  'x, y, z'
loop_
 _atom_site_type_symbol
 _atom_site_label
 _atom_site_symmetry_multiplicity
 _atom_site_fract_x
 _atom_site_fract_y
 _atom_site_fract_z
 _atom_site_occupancy
  Gd  Gd0  1  0.019561  0.180660  0.404367  1
  Gd  Gd1  1  0.368880  0.837559  0.120972  1
  Gd  Gd2  1  0.132544  0.337786  0.621973  1
  Gd  Gd3  1  0.478546  0.678589  0.903711  1
  Gd  Gd4  1  0.869588  0.662082  0.120976  1
  Gd  Gd5  1  0.131120  0.337559  0.879028  1
  Gd  Gd6  1  0.197543  0.502768  0.249649  1
  Gd  Gd7  1  0.697144  0.997952  0.249517  1
  Gd  Gd8  1  0.480439  0.680660  0.595633  1
  Gd  Gd9  1  0.302457  0.002768  0.750351  1
  Gd  Gd10  1  0.634702  0.162043  0.621454  1
  Gd  Gd11  1  0.802856  0.497952  0.750483  1
  Gd  Gd12  1  0.865298  0.662043  0.378546  1
  Gd  Gd13  1  0.021454  0.178589  0.096289  1
  Gd  Gd14  1  0.978065  0.819916  0.904149  1
  Gd  Gd15  1  0.630412  0.162082  0.879024  1
  Gd  Gd16  1  0.521935  0.319916  0.095851  1
  Gd  Gd17  1  0.367456  0.837786  0.378027  1
  Ho  Ho18  1  0.981670  0.820369  0.596100  1
  Ho  Ho19  1  0.518330  0.320369  0.403900  1
  Sn  Sn20  1  0.793735  0.463075  0.541606  1
  Sn  Sn21  1  0.706265  0.963075  0.458394  1
  Sn  Sn22  1  0.674816  0.856249  0.749390  1
  Sn  Sn23  1  0.203474  0.538102  0.457891  1
  Sn  Sn24  1  0.293279  0.035940  0.957896  1
  Sn  Sn25  1  0.825184  0.356249  0.250610  1
  Sn  Sn26  1  0.792207  0.463368  0.957975  1
  Sn  Sn27  1  0.566538  0.613408  0.250079  1
  Sn  Sn28  1  0.206721  0.535940  0.042104  1
  Sn  Sn29  1  0.434552  0.384898  0.750591  1
  Sn  Sn30  1  0.173223  0.645234  0.749337  1
  Sn  Sn31  1  0.933462  0.113408  0.749921  1
  Sn  Sn32  1  0.296526  0.038102  0.542109  1
  Sn  Sn33  1  0.707793  0.963368  0.042025  1
  Sn  Sn34  1  0.326777  0.145234  0.250663  1
  Sn  Sn35  1  0.065448  0.884898  0.249409  1
