# generated using pymatgen
data_NdY4Zr3(Co4As3)4
_symmetry_space_group_name_H-M   'P 1'
_cell_length_a   12.80043600
_cell_length_b   12.80043448
_cell_length_c   3.86509200
_cell_angle_alpha   90.00000000
_cell_angle_beta   90.00000000
_cell_angle_gamma   120.00000393
_symmetry_Int_Tables_number   1
_chemical_formula_structural   NdY4Zr3(Co4As3)4
_chemical_formula_sum   'Nd1 Y4 Zr3 Co16 As12'
_cell_volume   548.45364082
_cell_formula_units_Z   1
loop_
 _symmetry_equiv_pos_site_id
 _symmetry_equiv_pos_as_xyz
  1  'x, y, z'
loop_
 _atom_site_type_symbol
 _atom_site_label
 _atom_site_symmetry_multiplicity
 _atom_site_fract_x
 _atom_site_fract_y
 _atom_site_fract_z
 _atom_site_occupancy
  Nd  Nd0  1  0.333333  0.666667  0.000000  1
  Y  Y1  1  0.182574  0.182570  0.500000  1
  Y  Y2  1  0.817430  0.000004  0.500000  1
  Y  Y3  1  0.999996  0.817426  0.500000  1
  Y  Y4  1  0.666667  0.333333  0.000000  1
  Zr  Zr5  1  0.561106  0.560025  0.000000  1
  Zr  Zr6  1  0.439975  0.001081  0.000000  1
  Zr  Zr7  1  0.998919  0.438894  0.000000  1
  Co  Co8  1  0.720685  0.719709  0.500000  1
  Co  Co9  1  0.280291  0.000976  0.500000  1
  Co  Co10  1  0.999024  0.279315  0.500000  1
  Co  Co11  1  0.176647  0.372454  0.000000  1
  Co  Co12  1  0.627546  0.804193  0.000000  1
  Co  Co13  1  0.195807  0.823353  0.000000  1
  Co  Co14  1  0.803660  0.626082  0.000000  1
  Co  Co15  1  0.822422  0.196340  0.000000  1
  Co  Co16  1  0.373918  0.177578  0.000000  1
  Co  Co17  1  0.356420  0.477037  0.500000  1
  Co  Co18  1  0.522963  0.879384  0.500000  1
  Co  Co19  1  0.120616  0.643580  0.500000  1
  Co  Co20  1  0.877110  0.520595  0.500000  1
  Co  Co21  1  0.643486  0.122890  0.500000  1
  Co  Co22  1  0.479405  0.356514  0.500000  1
  Co  Co23  1  0.000000  0.000000  0.000000  1
  As  As24  1  0.822742  0.822365  0.000000  1
  As  As25  1  0.177635  0.000377  0.000000  1
  As  As26  1  0.999623  0.177258  0.000000  1
  As  As27  1  0.170686  0.478027  0.500000  1
  As  As28  1  0.521973  0.692659  0.500000  1
  As  As29  1  0.307341  0.829314  0.500000  1
  As  As30  1  0.691827  0.518529  0.500000  1
  As  As31  1  0.826702  0.308173  0.500000  1
  As  As32  1  0.481471  0.173298  0.500000  1
  As  As33  1  0.351774  0.351856  0.000000  1
  As  As34  1  0.648144  0.999917  0.000000  1
  As  As35  1  0.000083  0.648226  0.000000  1
