# generated using pymatgen
data_Yb5Pr3Si12IrPd3
_symmetry_space_group_name_H-M   'P 1'
_cell_length_a   8.27253700
_cell_length_b   8.26847169
_cell_length_c   8.38261763
_cell_angle_alpha   89.93907395
_cell_angle_beta   90.00000000
_cell_angle_gamma   120.01626943
_symmetry_Int_Tables_number   1
_chemical_formula_structural   Yb5Pr3Si12IrPd3
_chemical_formula_sum   'Yb5 Pr3 Si12 Ir1 Pd3'
_cell_volume   496.48107709
_cell_formula_units_Z   1
loop_
 _symmetry_equiv_pos_site_id
 _symmetry_equiv_pos_as_xyz
  1  'x, y, z'
loop_
 _atom_site_type_symbol
 _atom_site_label
 _atom_site_symmetry_multiplicity
 _atom_site_fract_x
 _atom_site_fract_y
 _atom_site_fract_z
 _atom_site_occupancy
  Yb  Yb0  1  0.501164  0.498655  0.752960  1
  Yb  Yb1  1  0.502456  0.497775  0.247426  1
  Yb  Yb2  1  0.997491  0.498655  0.752960  1
  Yb  Yb3  1  0.995320  0.497775  0.247426  1
  Yb  Yb4  1  0.501279  0.002556  0.752617  1
  Pr  Pr5  1  0.502974  0.005946  0.246580  1
  Pr  Pr6  1  0.999909  0.999817  0.749329  1
  Pr  Pr7  1  0.999997  0.999993  0.250140  1
  Si  Si8  1  0.833581  0.169251  0.998608  1
  Si  Si9  1  0.164068  0.834641  0.998956  1
  Si  Si10  1  0.335670  0.169251  0.998608  1
  Si  Si11  1  0.164554  0.833666  0.501647  1
  Si  Si12  1  0.670572  0.834641  0.998956  1
  Si  Si13  1  0.835957  0.165633  0.499827  1
  Si  Si14  1  0.831090  0.662180  0.001073  1
  Si  Si15  1  0.669112  0.833666  0.501647  1
  Si  Si16  1  0.165338  0.330678  0.999870  1
  Si  Si17  1  0.329676  0.165633  0.499827  1
  Si  Si18  1  0.165992  0.331985  0.499619  1
  Si  Si19  1  0.834617  0.669233  0.498587  1
  Ir  Ir20  1  0.666224  0.332447  0.997628  1
  Pd  Pd21  1  0.332934  0.665868  0.000676  1
  Pd  Pd22  1  0.332954  0.665909  0.499177  1
  Pd  Pd23  1  0.667072  0.334144  0.505861  1
