# generated using pymatgen
data_Tb3Ce(B4Ru)4
_symmetry_space_group_name_H-M   'P 1'
_cell_length_a   3.58297700
_cell_length_b   5.98148715
_cell_length_c   11.58185022
_cell_angle_alpha   90.07107144
_cell_angle_beta   90.00000000
_cell_angle_gamma   90.00000000
_symmetry_Int_Tables_number   1
_chemical_formula_structural   Tb3Ce(B4Ru)4
_chemical_formula_sum   'Tb3 Ce1 B16 Ru4'
_cell_volume   248.21658991
_cell_formula_units_Z   1
loop_
 _symmetry_equiv_pos_site_id
 _symmetry_equiv_pos_as_xyz
  1  'x, y, z'
loop_
 _atom_site_type_symbol
 _atom_site_label
 _atom_site_symmetry_multiplicity
 _atom_site_fract_x
 _atom_site_fract_y
 _atom_site_fract_z
 _atom_site_occupancy
  Tb  Tb0  1  0.500000  0.871097  0.848900  1
  Tb  Tb1  1  0.500000  0.628563  0.351293  1
  Tb  Tb2  1  0.500000  0.371657  0.649912  1
  Ce  Ce3  1  0.500000  0.128809  0.150162  1
  B  B4  1  0.000000  0.476936  0.191302  1
  B  B5  1  0.000000  0.524073  0.808267  1
  B  B6  1  0.000000  0.975407  0.309553  1
  B  B7  1  0.000000  0.024129  0.691428  1
  B  B8  1  0.000000  0.287941  0.314958  1
  B  B9  1  0.000000  0.712055  0.685373  1
  B  B10  1  0.000000  0.786481  0.185621  1
  B  B11  1  0.000000  0.212878  0.813871  1
  B  B12  1  0.000000  0.362985  0.469446  1
  B  B13  1  0.000000  0.636664  0.530765  1
  B  B14  1  0.000000  0.863169  0.030315  1
  B  B15  1  0.000000  0.136911  0.968778  1
  B  B16  1  0.000000  0.389599  0.045673  1
  B  B17  1  0.000000  0.612013  0.952694  1
  B  B18  1  0.000000  0.887606  0.454186  1
  B  B19  1  0.000000  0.111744  0.546626  1
  Ru  Ru20  1  0.500000  0.139651  0.407405  1
  Ru  Ru21  1  0.500000  0.860570  0.592484  1
  Ru  Ru22  1  0.500000  0.639737  0.093197  1
  Ru  Ru23  1  0.500000  0.359325  0.907791  1
