# generated using pymatgen
data_Zr4Ta6Ga3Si5
_symmetry_space_group_name_H-M   'P 1'
_cell_length_a   6.94894721
_cell_length_b   6.94555105
_cell_length_c   12.82386829
_cell_angle_alpha   89.98613882
_cell_angle_beta   89.93279736
_cell_angle_gamma   89.99642489
_symmetry_Int_Tables_number   1
_chemical_formula_structural   Zr4Ta6Ga3Si5
_chemical_formula_sum   'Zr8 Ta12 Ga6 Si10'
_cell_volume   618.93416543
_cell_formula_units_Z   2
loop_
 _symmetry_equiv_pos_site_id
 _symmetry_equiv_pos_as_xyz
  1  'x, y, z'
loop_
 _atom_site_type_symbol
 _atom_site_label
 _atom_site_symmetry_multiplicity
 _atom_site_fract_x
 _atom_site_fract_y
 _atom_site_fract_z
 _atom_site_occupancy
  Zr  Zr0  1  0.999432  0.666015  0.029144  1
  Zr  Zr1  1  0.002784  0.336356  0.529110  1
  Zr  Zr2  1  0.659417  0.997552  0.972534  1
  Zr  Zr3  1  0.163161  0.502987  0.779270  1
  Zr  Zr4  1  0.833943  0.499457  0.278918  1
  Zr  Zr5  1  0.500906  0.157172  0.220312  1
  Zr  Zr6  1  0.497454  0.836694  0.721154  1
  Zr  Zr7  1  0.339350  0.000440  0.468924  1
  Ta  Ta8  1  0.352098  0.503510  0.377842  1
  Ta  Ta9  1  0.844228  0.998764  0.369240  1
  Ta  Ta10  1  0.003653  0.147976  0.128365  1
  Ta  Ta11  1  0.001134  0.849077  0.630201  1
  Ta  Ta12  1  0.651187  0.501069  0.880808  1
  Ta  Ta13  1  0.498273  0.349345  0.620181  1
  Ta  Ta14  1  0.498549  0.656181  0.122644  1
  Ta  Ta15  1  0.151461  0.998942  0.873890  1
  Ta  Ta16  1  0.664335  0.668018  0.497861  1
  Ta  Ta17  1  0.834549  0.165624  0.749852  1
  Ta  Ta18  1  0.172464  0.835484  0.248925  1
  Ta  Ta19  1  0.334097  0.329581  0.000834  1
  Ga  Ga20  1  0.040646  0.700876  0.435075  1
  Ga  Ga21  1  0.959303  0.301426  0.935241  1
  Ga  Ga22  1  0.700169  0.039970  0.564905  1
  Ga  Ga23  1  0.198704  0.459081  0.185488  1
  Ga  Ga24  1  0.799074  0.540084  0.684849  1
  Ga  Ga25  1  0.460541  0.200104  0.814166  1
  Si  Si26  1  0.542869  0.798390  0.313872  1
  Si  Si27  1  0.298444  0.957652  0.063196  1
  Si  Si28  1  0.861230  0.794052  0.822779  1
  Si  Si29  1  0.136110  0.208012  0.323473  1
  Si  Si30  1  0.793978  0.862109  0.177819  1
  Si  Si31  1  0.292346  0.637864  0.572641  1
  Si  Si32  1  0.706559  0.362989  0.073719  1
  Si  Si33  1  0.637730  0.293270  0.427730  1
  Si  Si34  1  0.362533  0.706286  0.927529  1
  Si  Si35  1  0.207290  0.137589  0.677508  1
