# generated using pymatgen
data_PaTlTe4
_symmetry_space_group_name_H-M   'P 1'
_cell_length_a   8.90109950
_cell_length_b   8.90109831
_cell_length_c   8.90109858
_cell_angle_alpha   151.73106740
_cell_angle_beta   140.31453870
_cell_angle_gamma   49.43607332
_symmetry_Int_Tables_number   1
_chemical_formula_structural   PaTlTe4
_chemical_formula_sum   'Pa1 Tl1 Te4'
_cell_volume   212.40366438
_cell_formula_units_Z   1
loop_
 _symmetry_equiv_pos_site_id
 _symmetry_equiv_pos_as_xyz
  1  'x, y, z'
loop_
 _atom_site_type_symbol
 _atom_site_label
 _atom_site_symmetry_multiplicity
 _atom_site_fract_x
 _atom_site_fract_y
 _atom_site_fract_z
 _atom_site_occupancy
  Pa  Pa0  1  0.863445  0.863445  0.000000  1
  Tl  Tl1  1  0.148350  0.148350  0.000000  1
  Te  Te2  1  0.731726  0.231726  0.500000  1
  Te  Te3  1  0.312274  0.812274  0.500000  1
  Te  Te4  1  0.727703  0.472102  0.255599  1
  Te  Te5  1  0.216503  0.472102  0.744401  1
