# generated using pymatgen
data_La4ErTa2BiO14
_symmetry_space_group_name_H-M   'P 1'
_cell_length_a   6.69359594
_cell_length_b   6.73002852
_cell_length_c   7.75374500
_cell_angle_alpha   90.00000000
_cell_angle_beta   90.00000000
_cell_angle_gamma   110.98120072
_symmetry_Int_Tables_number   1
_chemical_formula_structural   La4ErTa2BiO14
_chemical_formula_sum   'La4 Er1 Ta2 Bi1 O14'
_cell_volume   326.13268143
_cell_formula_units_Z   1
loop_
 _symmetry_equiv_pos_site_id
 _symmetry_equiv_pos_as_xyz
  1  'x, y, z'
loop_
 _atom_site_type_symbol
 _atom_site_label
 _atom_site_symmetry_multiplicity
 _atom_site_fract_x
 _atom_site_fract_y
 _atom_site_fract_z
 _atom_site_occupancy
  La  La0  1  0.988136  0.002751  0.003937  1
  La  La1  1  0.988136  0.002751  0.496063  1
  La  La2  1  0.950506  0.490422  0.750000  1
  La  La3  1  0.064572  0.527828  0.250000  1
  Er  Er4  1  0.509285  0.054703  0.250000  1
  Ta  Ta5  1  0.506790  0.502446  0.002654  1
  Ta  Ta6  1  0.506790  0.502446  0.497346  1
  Bi  Bi7  1  0.474261  0.969623  0.750000  1
  O  O8  1  0.835745  0.116687  0.750000  1
  O  O9  1  0.155820  0.904147  0.250000  1
  O  O10  1  0.102368  0.866781  0.750000  1
  O  O11  1  0.864166  0.160326  0.250000  1
  O  O12  1  0.461110  0.180021  0.971622  1
  O  O13  1  0.540263  0.794909  0.444211  1
  O  O14  1  0.188089  0.417842  0.525050  1
  O  O15  1  0.826052  0.583295  0.026696  1
  O  O16  1  0.460338  0.405162  0.250000  1
  O  O17  1  0.562058  0.541793  0.750000  1
  O  O18  1  0.188089  0.417842  0.974950  1
  O  O19  1  0.826052  0.583295  0.473304  1
  O  O20  1  0.461110  0.180021  0.528378  1
  O  O21  1  0.540263  0.794909  0.055789  1
