# generated using pymatgen
data_Yb5PrAl16(SiOs)8
_symmetry_space_group_name_H-M   'P 1'
_cell_length_a   8.68536404
_cell_length_b   8.68536376
_cell_length_c   9.56543200
_cell_angle_alpha   90.00000000
_cell_angle_beta   90.00000000
_cell_angle_gamma   120.22392233
_symmetry_Int_Tables_number   1
_chemical_formula_structural   Yb5PrAl16(SiOs)8
_chemical_formula_sum   'Yb5 Pr1 Al16 Si8 Os8'
_cell_volume   623.48626725
_cell_formula_units_Z   1
loop_
 _symmetry_equiv_pos_site_id
 _symmetry_equiv_pos_as_xyz
  1  'x, y, z'
loop_
 _atom_site_type_symbol
 _atom_site_label
 _atom_site_symmetry_multiplicity
 _atom_site_fract_x
 _atom_site_fract_y
 _atom_site_fract_z
 _atom_site_occupancy
  Yb  Yb0  1  0.192511  0.390041  0.250000  1
  Yb  Yb1  1  0.807430  0.611978  0.750000  1
  Yb  Yb2  1  0.609959  0.807489  0.250000  1
  Yb  Yb3  1  0.388022  0.192570  0.750000  1
  Yb  Yb4  1  0.196086  0.803914  0.250000  1
  Pr  Pr5  1  0.808000  0.192000  0.750000  1
  Al  Al6  1  0.168548  0.332573  0.576254  1
  Al  Al7  1  0.833562  0.667852  0.423094  1
  Al  Al8  1  0.667427  0.831452  0.576254  1
  Al  Al9  1  0.833562  0.667852  0.076906  1
  Al  Al10  1  0.332148  0.166438  0.423094  1
  Al  Al11  1  0.168548  0.332573  0.923746  1
  Al  Al12  1  0.165453  0.834547  0.574296  1
  Al  Al13  1  0.332148  0.166438  0.076906  1
  Al  Al14  1  0.834053  0.165947  0.421321  1
  Al  Al15  1  0.667427  0.831452  0.923746  1
  Al  Al16  1  0.834053  0.165947  0.078679  1
  Al  Al17  1  0.165453  0.834547  0.925704  1
  Al  Al18  1  0.564931  0.435069  0.250000  1
  Al  Al19  1  0.435927  0.564073  0.750000  1
  Al  Al20  1  0.000634  0.999366  0.250000  1
  Al  Al21  1  0.002350  0.997650  0.750000  1
  Si  Si22  1  0.334467  0.665533  0.037149  1
  Si  Si23  1  0.663404  0.336596  0.963156  1
  Si  Si24  1  0.663404  0.336596  0.536844  1
  Si  Si25  1  0.334467  0.665533  0.462851  1
  Si  Si26  1  0.564938  0.125639  0.250000  1
  Si  Si27  1  0.429139  0.871388  0.750000  1
  Si  Si28  1  0.874361  0.435062  0.250000  1
  Si  Si29  1  0.128612  0.570861  0.750000  1
  Os  Os30  1  0.499303  0.999332  0.000356  1
  Os  Os31  1  0.000668  0.500697  0.000356  1
  Os  Os32  1  0.499303  0.999332  0.499644  1
  Os  Os33  1  0.499403  0.500597  0.000069  1
  Os  Os34  1  0.000668  0.500697  0.499644  1
  Os  Os35  1  0.499403  0.500597  0.499931  1
  Os  Os36  1  0.000112  0.999888  0.001406  1
  Os  Os37  1  0.000112  0.999888  0.498594  1
