# generated using pymatgen
data_LiDy6Y10Cd(HgPt2)2
_symmetry_space_group_name_H-M   'P 1'
_cell_length_a   9.70645561
_cell_length_b   9.71884201
_cell_length_c   9.71884400
_cell_angle_alpha   59.84160957
_cell_angle_beta   59.94288438
_cell_angle_gamma   59.94288360
_symmetry_Int_Tables_number   1
_chemical_formula_structural   LiDy6Y10Cd(HgPt2)2
_chemical_formula_sum   'Li1 Dy6 Y10 Cd1 Hg2 Pt4'
_cell_volume   646.96035981
_cell_formula_units_Z   1
loop_
 _symmetry_equiv_pos_site_id
 _symmetry_equiv_pos_as_xyz
  1  'x, y, z'
loop_
 _atom_site_type_symbol
 _atom_site_label
 _atom_site_symmetry_multiplicity
 _atom_site_fract_x
 _atom_site_fract_y
 _atom_site_fract_z
 _atom_site_occupancy
  Li  Li0  1  0.571092  0.567848  0.567848  1
  Dy  Dy1  1  0.351937  0.352414  0.352414  1
  Dy  Dy2  1  0.352982  0.351793  0.943455  1
  Dy  Dy3  1  0.352982  0.943455  0.351793  1
  Dy  Dy4  1  0.941619  0.353131  0.353131  1
  Dy  Dy5  1  0.809090  0.193015  0.193015  1
  Dy  Dy6  1  0.188271  0.812879  0.812879  1
  Y  Y7  1  0.191865  0.809630  0.192892  1
  Y  Y8  1  0.812263  0.188576  0.812417  1
  Y  Y9  1  0.191865  0.192892  0.809630  1
  Y  Y10  1  0.812263  0.812417  0.188576  1
  Y  Y11  1  0.935772  0.565320  0.565320  1
  Y  Y12  1  0.562870  0.936824  0.936824  1
  Y  Y13  1  0.563662  0.938844  0.564343  1
  Y  Y14  1  0.935923  0.563361  0.937929  1
  Y  Y15  1  0.563662  0.564343  0.938844  1
  Y  Y16  1  0.935923  0.937929  0.563361  1
  Cd  Cd17  1  0.253233  0.582222  0.582222  1
  Hg  Hg18  1  0.585936  0.588412  0.243072  1
  Hg  Hg19  1  0.585936  0.243072  0.588412  1
  Pt  Pt20  1  0.142663  0.145652  0.145652  1
  Pt  Pt21  1  0.144222  0.142001  0.569471  1
  Pt  Pt22  1  0.144222  0.569471  0.142001  1
  Pt  Pt23  1  0.569746  0.144499  0.144499  1
