# generated using pymatgen
data_Ca5HgRh2
_symmetry_space_group_name_H-M   'P 1'
_cell_length_a   9.05942350
_cell_length_b   9.05942356
_cell_length_c   9.05942391
_cell_angle_alpha   128.91698515
_cell_angle_beta   128.91698390
_cell_angle_gamma   75.14418802
_symmetry_Int_Tables_number   1
_chemical_formula_structural   Ca5HgRh2
_chemical_formula_sum   'Ca10 Hg2 Rh4'
_cell_volume   438.22303920
_cell_formula_units_Z   2
loop_
 _symmetry_equiv_pos_site_id
 _symmetry_equiv_pos_as_xyz
  1  'x, y, z'
loop_
 _atom_site_type_symbol
 _atom_site_label
 _atom_site_symmetry_multiplicity
 _atom_site_fract_x
 _atom_site_fract_y
 _atom_site_fract_z
 _atom_site_occupancy
  Ca  Ca0  1  0.465152  0.965152  0.167110  1
  Ca  Ca1  1  0.201959  0.701959  0.167110  1
  Ca  Ca2  1  0.534848  0.034848  0.832890  1
  Ca  Ca3  1  0.034848  0.201959  0.500000  1
  Ca  Ca4  1  0.701959  0.534848  0.500000  1
  Ca  Ca5  1  0.965152  0.798041  0.500000  1
  Ca  Ca6  1  0.000000  0.000000  0.000000  1
  Ca  Ca7  1  0.500000  0.500000  0.000000  1
  Ca  Ca8  1  0.798041  0.298041  0.832890  1
  Ca  Ca9  1  0.298041  0.465152  0.500000  1
  Hg  Hg10  1  0.750000  0.750000  0.000000  1
  Hg  Hg11  1  0.250000  0.250000  0.000000  1
  Rh  Rh12  1  0.126039  0.626039  0.752079  1
  Rh  Rh13  1  0.626039  0.873961  0.500000  1
  Rh  Rh14  1  0.373961  0.126039  0.500000  1
  Rh  Rh15  1  0.873961  0.373961  0.247921  1
