# generated using pymatgen
data_NaEuYBr6
_symmetry_space_group_name_H-M   'P 1'
_cell_length_a   8.37296202
_cell_length_b   8.37334802
_cell_length_c   8.37298500
_cell_angle_alpha   53.48171526
_cell_angle_beta   53.48032136
_cell_angle_gamma   53.47712373
_symmetry_Int_Tables_number   1
_chemical_formula_structural   NaEuYBr6
_chemical_formula_sum   'Na1 Eu1 Y1 Br6'
_cell_volume   351.75629469
_cell_formula_units_Z   1
loop_
 _symmetry_equiv_pos_site_id
 _symmetry_equiv_pos_as_xyz
  1  'x, y, z'
loop_
 _atom_site_type_symbol
 _atom_site_label
 _atom_site_symmetry_multiplicity
 _atom_site_fract_x
 _atom_site_fract_y
 _atom_site_fract_z
 _atom_site_occupancy
  Na  Na0  1  0.669699  0.669726  0.669744  1
  Eu  Eu1  1  0.330839  0.330857  0.330845  1
  Y  Y2  1  0.999905  0.999913  0.999906  1
  Br  Br3  1  0.236610  0.616676  0.923014  1
  Br  Br4  1  0.616687  0.923036  0.236560  1
  Br  Br5  1  0.923025  0.236587  0.616670  1
  Br  Br6  1  0.760669  0.380075  0.082499  1
  Br  Br7  1  0.380094  0.082470  0.760664  1
  Br  Br8  1  0.082475  0.760660  0.380099  1
