# generated using pymatgen
data_Y2HoMg3Ge2Pd
_symmetry_space_group_name_H-M   'P 1'
_cell_length_a   7.28055893
_cell_length_b   7.28055899
_cell_length_c   4.28262000
_cell_angle_alpha   90.00000000
_cell_angle_beta   90.00000000
_cell_angle_gamma   119.94202765
_symmetry_Int_Tables_number   1
_chemical_formula_structural   Y2HoMg3Ge2Pd
_chemical_formula_sum   'Y2 Ho1 Mg3 Ge2 Pd1'
_cell_volume   196.70845345
_cell_formula_units_Z   1
loop_
 _symmetry_equiv_pos_site_id
 _symmetry_equiv_pos_as_xyz
  1  'x, y, z'
loop_
 _atom_site_type_symbol
 _atom_site_label
 _atom_site_symmetry_multiplicity
 _atom_site_fract_x
 _atom_site_fract_y
 _atom_site_fract_z
 _atom_site_occupancy
  Y  Y0  1  0.583259  0.000065  0.000000  1
  Y  Y1  1  0.000065  0.583259  0.000000  1
  Ho  Ho2  1  0.416080  0.416080  0.000000  1
  Mg  Mg3  1  0.242175  0.000259  0.500000  1
  Mg  Mg4  1  0.000259  0.242175  0.500000  1
  Mg  Mg5  1  0.757704  0.757704  0.500000  1
  Ge  Ge6  1  0.333344  0.665834  0.500000  1
  Ge  Ge7  1  0.665834  0.333344  0.500000  1
  Pd  Pd8  1  0.001280  0.001280  0.000000  1
