# generated using pymatgen
data_Ta3Ti9Al8(RhC)4
_symmetry_space_group_name_H-M   'P 1'
_cell_length_a   8.24537425
_cell_length_b   8.22380829
_cell_length_c   8.23716125
_cell_angle_alpha   60.11966813
_cell_angle_beta   59.85986340
_cell_angle_gamma   60.01620310
_symmetry_Int_Tables_number   1
_chemical_formula_structural   Ta3Ti9Al8(RhC)4
_chemical_formula_sum   'Ta3 Ti9 Al8 Rh4 C4'
_cell_volume   394.93661144
_cell_formula_units_Z   1
loop_
 _symmetry_equiv_pos_site_id
 _symmetry_equiv_pos_as_xyz
  1  'x, y, z'
loop_
 _atom_site_type_symbol
 _atom_site_label
 _atom_site_symmetry_multiplicity
 _atom_site_fract_x
 _atom_site_fract_y
 _atom_site_fract_z
 _atom_site_occupancy
  Ta  Ta0  1  0.935268  0.935268  0.564732  1
  Ta  Ta1  1  0.685230  0.315588  0.313397  1
  Ta  Ta2  1  0.315588  0.685230  0.685785  1
  Ti  Ti3  1  0.685106  0.685106  0.314894  1
  Ti  Ti4  1  0.684920  0.315734  0.685498  1
  Ti  Ti5  1  0.315734  0.684920  0.313848  1
  Ti  Ti6  1  0.565286  0.934681  0.563902  1
  Ti  Ti7  1  0.564861  0.935302  0.936459  1
  Ti  Ti8  1  0.935302  0.564861  0.563378  1
  Ti  Ti9  1  0.934681  0.565286  0.936130  1
  Ti  Ti10  1  0.314374  0.314374  0.685626  1
  Ti  Ti11  1  0.564422  0.564422  0.935578  1
  Al  Al12  1  0.915971  0.255412  0.913879  1
  Al  Al13  1  0.336033  0.331422  0.996420  1
  Al  Al14  1  0.995948  0.336504  0.335960  1
  Al  Al15  1  0.331422  0.336033  0.336124  1
  Al  Al16  1  0.255412  0.915971  0.914740  1
  Al  Al17  1  0.913522  0.914711  0.918185  1
  Al  Al18  1  0.914711  0.913522  0.253582  1
  Al  Al19  1  0.336504  0.995948  0.331586  1
  Rh  Rh20  1  0.126654  0.624983  0.122473  1
  Rh  Rh21  1  0.125076  0.122655  0.625318  1
  Rh  Rh22  1  0.624983  0.126654  0.125889  1
  Rh  Rh23  1  0.122655  0.125076  0.126952  1
  C  C24  1  0.621533  0.125919  0.627882  1
  C  C25  1  0.624570  0.628314  0.122808  1
  C  C26  1  0.125919  0.621533  0.624667  1
  C  C27  1  0.628314  0.624570  0.624308  1
