# generated using pymatgen
data_Nb12AlGa3(CuN)4
_symmetry_space_group_name_H-M   'P 1'
_cell_length_a   7.00740690
_cell_length_b   7.00740690
_cell_length_c   7.00740690
_cell_angle_alpha   89.95881595
_cell_angle_beta   89.95881595
_cell_angle_gamma   89.95881595
_symmetry_Int_Tables_number   1
_chemical_formula_structural   Nb12AlGa3(CuN)4
_chemical_formula_sum   'Nb12 Al1 Ga3 Cu4 N4'
_cell_volume   344.08970098
_cell_formula_units_Z   1
loop_
 _symmetry_equiv_pos_site_id
 _symmetry_equiv_pos_as_xyz
  1  'x, y, z'
loop_
 _atom_site_type_symbol
 _atom_site_label
 _atom_site_symmetry_multiplicity
 _atom_site_fract_x
 _atom_site_fract_y
 _atom_site_fract_z
 _atom_site_occupancy
  Nb  Nb0  1  0.790878  0.957553  0.374451  1
  Nb  Nb1  1  0.708857  0.042457  0.875035  1
  Nb  Nb2  1  0.209034  0.457678  0.125562  1
  Nb  Nb3  1  0.291325  0.542303  0.625252  1
  Nb  Nb4  1  0.957553  0.374451  0.790878  1
  Nb  Nb5  1  0.042457  0.875035  0.708857  1
  Nb  Nb6  1  0.457678  0.125562  0.209034  1
  Nb  Nb7  1  0.542303  0.625252  0.291325  1
  Nb  Nb8  1  0.374451  0.790878  0.957553  1
  Nb  Nb9  1  0.875035  0.708857  0.042457  1
  Nb  Nb10  1  0.125562  0.209034  0.457678  1
  Nb  Nb11  1  0.625252  0.291325  0.542303  1
  Al  Al12  1  0.073791  0.073791  0.073791  1
  Ga  Ga13  1  0.573438  0.426495  0.926519  1
  Ga  Ga14  1  0.426495  0.926519  0.573438  1
  Ga  Ga15  1  0.926519  0.573438  0.426495  1
  Cu  Cu16  1  0.178738  0.821697  0.320557  1
  Cu  Cu17  1  0.320557  0.178738  0.821697  1
  Cu  Cu18  1  0.821697  0.320557  0.178738  1
  Cu  Cu19  1  0.678923  0.678923  0.678923  1
  N  N20  1  0.876677  0.123016  0.622663  1
  N  N21  1  0.622663  0.876677  0.123016  1
  N  N22  1  0.123016  0.622663  0.876677  1
  N  N23  1  0.377102  0.377102  0.377102  1
