# generated using pymatgen
data_K4Zr6AlBr18
_symmetry_space_group_name_H-M   'P 1'
_cell_length_a   10.60994317
_cell_length_b   10.76499163
_cell_length_c   10.87175619
_cell_angle_alpha   118.63869713
_cell_angle_beta   100.33304318
_cell_angle_gamma   103.81731985
_symmetry_Int_Tables_number   1
_chemical_formula_structural   K4Zr6AlBr18
_chemical_formula_sum   'K4 Zr6 Al1 Br18'
_cell_volume   993.39079083
_cell_formula_units_Z   1
loop_
 _symmetry_equiv_pos_site_id
 _symmetry_equiv_pos_as_xyz
  1  'x, y, z'
loop_
 _atom_site_type_symbol
 _atom_site_label
 _atom_site_symmetry_multiplicity
 _atom_site_fract_x
 _atom_site_fract_y
 _atom_site_fract_z
 _atom_site_occupancy
  K  K0  1  0.651131  0.536640  0.226339  1
  K  K1  1  0.348869  0.463360  0.773661  1
  K  K2  1  0.688090  0.227870  0.565493  1
  K  K3  1  0.311910  0.772130  0.434507  1
  Zr  Zr4  1  0.158273  0.056772  0.244002  1
  Zr  Zr5  1  0.841727  0.943228  0.755998  1
  Zr  Zr6  1  0.853606  0.135139  0.141648  1
  Zr  Zr7  1  0.146394  0.864861  0.858352  1
  Zr  Zr8  1  0.152113  0.251946  0.044892  1
  Zr  Zr9  1  0.847887  0.748054  0.955108  1
  Al  Al10  1  0.000000  0.000000  0.000000  1
  Br  Br11  1  0.010218  0.414710  0.201119  1
  Br  Br12  1  0.989782  0.585290  0.798881  1
  Br  Br13  1  0.330140  0.333940  0.311738  1
  Br  Br14  1  0.669860  0.666060  0.688262  1
  Br  Br15  1  0.328187  0.526616  0.101463  1
  Br  Br16  1  0.671813  0.473384  0.898537  1
  Br  Br17  1  0.005161  0.792023  0.213299  1
  Br  Br18  1  0.994839  0.207977  0.786701  1
  Br  Br19  1  0.701511  0.281139  0.293925  1
  Br  Br20  1  0.298489  0.718861  0.706075  1
  Br  Br21  1  0.319714  0.128089  0.903258  1
  Br  Br22  1  0.680286  0.871911  0.096742  1
  Br  Br23  1  0.016960  0.208059  0.412647  1
  Br  Br24  1  0.983040  0.791941  0.587353  1
  Br  Br25  1  0.324150  0.922746  0.110829  1
  Br  Br26  1  0.675850  0.077254  0.889171  1
  Br  Br27  1  0.338439  0.121221  0.506890  1
  Br  Br28  1  0.661561  0.878779  0.493110  1
