# generated using pymatgen
data_Tm3Sc3Al17Si7Os8
_symmetry_space_group_name_H-M   'P 1'
_cell_length_a   8.61301921
_cell_length_b   8.62246549
_cell_length_c   9.40911000
_cell_angle_alpha   90.00000000
_cell_angle_beta   90.00000000
_cell_angle_gamma   119.95735252
_symmetry_Int_Tables_number   1
_chemical_formula_structural   Tm3Sc3Al17Si7Os8
_chemical_formula_sum   'Tm3 Sc3 Al17 Si7 Os8'
_cell_volume   605.41410231
_cell_formula_units_Z   1
loop_
 _symmetry_equiv_pos_site_id
 _symmetry_equiv_pos_as_xyz
  1  'x, y, z'
loop_
 _atom_site_type_symbol
 _atom_site_label
 _atom_site_symmetry_multiplicity
 _atom_site_fract_x
 _atom_site_fract_y
 _atom_site_fract_z
 _atom_site_occupancy
  Tm  Tm0  1  0.387780  0.190776  0.750000  1
  Tm  Tm1  1  0.195459  0.806323  0.250000  1
  Tm  Tm2  1  0.802360  0.190327  0.750000  1
  Sc  Sc3  1  0.195341  0.394478  0.250000  1
  Sc  Sc4  1  0.803633  0.607944  0.750000  1
  Sc  Sc5  1  0.605885  0.806239  0.250000  1
  Al  Al6  1  0.164924  0.330360  0.575738  1
  Al  Al7  1  0.833763  0.672186  0.421372  1
  Al  Al8  1  0.671587  0.833745  0.576148  1
  Al  Al9  1  0.833763  0.672186  0.078628  1
  Al  Al10  1  0.330317  0.167585  0.419904  1
  Al  Al11  1  0.164924  0.330360  0.924262  1
  Al  Al12  1  0.163067  0.832458  0.577381  1
  Al  Al13  1  0.330317  0.167585  0.080096  1
  Al  Al14  1  0.836202  0.164087  0.418573  1
  Al  Al15  1  0.671587  0.833745  0.923852  1
  Al  Al16  1  0.836202  0.164087  0.081427  1
  Al  Al17  1  0.163067  0.832458  0.922619  1
  Al  Al18  1  0.122603  0.563518  0.750000  1
  Al  Al19  1  0.563439  0.439317  0.250000  1
  Al  Al20  1  0.440459  0.565984  0.750000  1
  Al  Al21  1  0.995995  0.005290  0.250000  1
  Al  Al22  1  0.994815  0.989723  0.750000  1
  Si  Si23  1  0.335085  0.664197  0.045690  1
  Si  Si24  1  0.668310  0.337877  0.956409  1
  Si  Si25  1  0.668310  0.337877  0.543591  1
  Si  Si26  1  0.335085  0.664197  0.454310  1
  Si  Si27  1  0.564829  0.123122  0.250000  1
  Si  Si28  1  0.436405  0.871912  0.750000  1
  Si  Si29  1  0.875604  0.435804  0.250000  1
  Os  Os30  1  0.501679  0.000792  0.001605  1
  Os  Os31  1  0.999401  0.499651  0.007691  1
  Os  Os32  1  0.501679  0.000792  0.498395  1
  Os  Os33  1  0.501206  0.500793  0.000673  1
  Os  Os34  1  0.999401  0.499651  0.492309  1
  Os  Os35  1  0.501206  0.500793  0.499327  1
  Os  Os36  1  0.002155  0.000889  0.999758  1
  Os  Os37  1  0.002155  0.000889  0.500242  1
