# generated using pymatgen
data_TbCd(CuO2)4
_symmetry_space_group_name_H-M   'P 1'
_cell_length_a   6.26851954
_cell_length_b   6.26559737
_cell_length_c   6.26661009
_cell_angle_alpha   125.71314752
_cell_angle_beta   125.74431570
_cell_angle_gamma   80.34555524
_symmetry_Int_Tables_number   1
_chemical_formula_structural   TbCd(CuO2)4
_chemical_formula_sum   'Tb1 Cd1 Cu4 O8'
_cell_volume   156.49086629
_cell_formula_units_Z   1
loop_
 _symmetry_equiv_pos_site_id
 _symmetry_equiv_pos_as_xyz
  1  'x, y, z'
loop_
 _atom_site_type_symbol
 _atom_site_label
 _atom_site_symmetry_multiplicity
 _atom_site_fract_x
 _atom_site_fract_y
 _atom_site_fract_z
 _atom_site_occupancy
  Tb  Tb0  1  0.749962  0.250025  0.499968  1
  Cd  Cd1  1  0.000044  0.000015  0.000039  1
  Cu  Cu2  1  0.371564  0.625205  0.245925  1
  Cu  Cu3  1  0.374803  0.620745  0.746396  1
  Cu  Cu4  1  0.874355  0.628399  0.253622  1
  Cu  Cu5  1  0.379267  0.125653  0.754059  1
  O  O6  1  0.162819  0.588522  0.854261  1
  O  O7  1  0.734458  0.308674  0.145893  1
  O  O8  1  0.350535  0.981263  0.931797  1
  O  O9  1  0.691295  0.837112  0.425556  1
  O  O10  1  0.049645  0.418943  0.068492  1
  O  O11  1  0.411551  0.265659  0.574203  1
  O  O12  1  0.018638  0.950334  0.369185  1
  O  O13  1  0.581065  0.649450  0.630604  1
