# generated using pymatgen
data_Tb9GeBi4O5
_symmetry_space_group_name_H-M   'P 1'
_cell_length_a   9.96861700
_cell_length_b   9.96861700
_cell_length_c   9.00528700
_cell_angle_alpha   90.00000000
_cell_angle_beta   90.00000000
_cell_angle_gamma   90.00000000
_symmetry_Int_Tables_number   1
_chemical_formula_structural   Tb9GeBi4O5
_chemical_formula_sum   'Tb18 Ge2 Bi8 O10'
_cell_volume   894.88531080
_cell_formula_units_Z   2
loop_
 _symmetry_equiv_pos_site_id
 _symmetry_equiv_pos_as_xyz
  1  'x, y, z'
loop_
 _atom_site_type_symbol
 _atom_site_label
 _atom_site_symmetry_multiplicity
 _atom_site_fract_x
 _atom_site_fract_y
 _atom_site_fract_z
 _atom_site_occupancy
  Tb  Tb0  1  0.222465  0.898826  0.337088  1
  Tb  Tb1  1  0.500000  0.000000  0.665209  1
  Tb  Tb2  1  0.277535  0.601174  0.662912  1
  Tb  Tb3  1  0.722465  0.398826  0.662912  1
  Tb  Tb4  1  0.724470  0.917402  0.999595  1
  Tb  Tb5  1  0.398826  0.277535  0.337088  1
  Tb  Tb6  1  0.101174  0.222465  0.662912  1
  Tb  Tb7  1  0.601174  0.722465  0.337088  1
  Tb  Tb8  1  0.000000  0.500000  0.334791  1
  Tb  Tb9  1  0.898826  0.777535  0.662912  1
  Tb  Tb10  1  0.275530  0.082598  0.999595  1
  Tb  Tb11  1  0.775530  0.582598  0.000405  1
  Tb  Tb12  1  0.224470  0.417402  0.000405  1
  Tb  Tb13  1  0.777535  0.101174  0.337088  1
  Tb  Tb14  1  0.582598  0.224470  0.999595  1
  Tb  Tb15  1  0.917402  0.275530  0.000405  1
  Tb  Tb16  1  0.082598  0.724470  0.000405  1
  Tb  Tb17  1  0.417402  0.775530  0.999595  1
  Ge  Ge18  1  0.000000  0.500000  0.678177  1
  Ge  Ge19  1  0.500000  0.000000  0.321823  1
  Bi  Bi20  1  0.591456  0.691666  0.696410  1
  Bi  Bi21  1  0.908544  0.808334  0.303590  1
  Bi  Bi22  1  0.691666  0.408544  0.303590  1
  Bi  Bi23  1  0.191666  0.908544  0.696410  1
  Bi  Bi24  1  0.808334  0.091456  0.696410  1
  Bi  Bi25  1  0.308334  0.591456  0.303590  1
  Bi  Bi26  1  0.408544  0.308334  0.696410  1
  Bi  Bi27  1  0.091456  0.191666  0.303590  1
  O  O28  1  0.226428  0.879642  0.085177  1
  O  O29  1  0.726428  0.379642  0.914823  1
  O  O30  1  0.500000  0.000000  0.933672  1
  O  O31  1  0.620358  0.726428  0.085177  1
  O  O32  1  0.000000  0.500000  0.066328  1
  O  O33  1  0.879642  0.773572  0.914823  1
  O  O34  1  0.120358  0.226428  0.914823  1
  O  O35  1  0.379642  0.273572  0.085177  1
  O  O36  1  0.773572  0.120358  0.085177  1
  O  O37  1  0.273572  0.620358  0.914823  1
