# generated using pymatgen
data_Zr2Ta(GaRh2)3
_symmetry_space_group_name_H-M   'P 1'
_cell_length_a   4.17572500
_cell_length_b   7.21781800
_cell_length_c   12.52467101
_cell_angle_alpha   90.00000000
_cell_angle_beta   89.99556764
_cell_angle_gamma   90.00000000
_symmetry_Int_Tables_number   1
_chemical_formula_structural   Zr2Ta(GaRh2)3
_chemical_formula_sum   'Zr4 Ta2 Ga6 Rh12'
_cell_volume   377.48886243
_cell_formula_units_Z   2
loop_
 _symmetry_equiv_pos_site_id
 _symmetry_equiv_pos_as_xyz
  1  'x, y, z'
loop_
 _atom_site_type_symbol
 _atom_site_label
 _atom_site_symmetry_multiplicity
 _atom_site_fract_x
 _atom_site_fract_y
 _atom_site_fract_z
 _atom_site_occupancy
  Zr  Zr0  1  0.000005  0.500000  0.329483  1
  Zr  Zr1  1  0.499999  0.000000  0.499498  1
  Zr  Zr2  1  0.999997  0.500000  0.667133  1
  Zr  Zr3  1  0.499999  0.000000  0.837226  1
  Ta  Ta4  1  0.999997  0.500000  0.004650  1
  Ta  Ta5  1  0.500004  0.000000  0.161963  1
  Ga  Ga6  1  0.000001  0.000000  0.000663  1
  Ga  Ga7  1  0.500003  0.500000  0.166048  1
  Ga  Ga8  1  0.000003  0.000000  0.328683  1
  Ga  Ga9  1  0.500000  0.500000  0.497225  1
  Ga  Ga10  1  0.999997  0.000000  0.669298  1
  Ga  Ga11  1  0.499987  0.500000  0.838070  1
  Rh  Rh12  1  0.500001  0.258304  0.004203  1
  Rh  Rh13  1  0.500001  0.741697  0.004203  1
  Rh  Rh14  1  0.000003  0.241752  0.162524  1
  Rh  Rh15  1  0.000003  0.758247  0.162524  1
  Rh  Rh16  1  0.500004  0.240706  0.326727  1
  Rh  Rh17  1  0.500004  0.759294  0.326727  1
  Rh  Rh18  1  0.000000  0.250123  0.497979  1
  Rh  Rh19  1  0.000000  0.749877  0.497979  1
  Rh  Rh20  1  0.499997  0.249957  0.668645  1
  Rh  Rh21  1  0.499997  0.750043  0.668645  1
  Rh  Rh22  1  0.999998  0.259070  0.839952  1
  Rh  Rh23  1  0.999998  0.740929  0.839952  1
