# generated using pymatgen
data_MgAlV(Ni10B3)2
_symmetry_space_group_name_H-M   'P 1'
_cell_length_a   7.42388475
_cell_length_b   7.42388579
_cell_length_c   7.42388400
_cell_angle_alpha   60.00000800
_cell_angle_beta   60.00000332
_cell_angle_gamma   60.00000689
_symmetry_Int_Tables_number   1
_chemical_formula_structural   MgAlV(Ni10B3)2
_chemical_formula_sum   'Mg1 Al1 V1 Ni20 B6'
_cell_volume   289.32019057
_cell_formula_units_Z   1
loop_
 _symmetry_equiv_pos_site_id
 _symmetry_equiv_pos_as_xyz
  1  'x, y, z'
loop_
 _atom_site_type_symbol
 _atom_site_label
 _atom_site_symmetry_multiplicity
 _atom_site_fract_x
 _atom_site_fract_y
 _atom_site_fract_z
 _atom_site_occupancy
  Mg  Mg0  1  0.750000  0.750000  0.750000  1
  Al  Al1  1  0.250000  0.250000  0.250000  1
  V  V2  1  0.000000  0.000000  0.000000  1
  Ni  Ni3  1  0.000276  0.336966  0.662482  1
  Ni  Ni4  1  0.000276  0.000276  0.662482  1
  Ni  Ni5  1  0.662482  0.336966  0.000276  1
  Ni  Ni6  1  0.000276  0.336966  0.000276  1
  Ni  Ni7  1  0.336966  0.000276  0.662482  1
  Ni  Ni8  1  0.336966  0.000276  0.000276  1
  Ni  Ni9  1  0.662482  0.000276  0.000276  1
  Ni  Ni10  1  0.336966  0.662482  0.000276  1
  Ni  Ni11  1  0.662482  0.000276  0.336966  1
  Ni  Ni12  1  0.000276  0.000276  0.336966  1
  Ni  Ni13  1  0.000276  0.662482  0.000276  1
  Ni  Ni14  1  0.000276  0.662482  0.336966  1
  Ni  Ni15  1  0.613348  0.159955  0.613348  1
  Ni  Ni16  1  0.380625  0.380625  0.858126  1
  Ni  Ni17  1  0.858126  0.380625  0.380625  1
  Ni  Ni18  1  0.380625  0.380625  0.380625  1
  Ni  Ni19  1  0.159955  0.613348  0.613348  1
  Ni  Ni20  1  0.613348  0.613348  0.613348  1
  Ni  Ni21  1  0.613348  0.613348  0.159955  1
  Ni  Ni22  1  0.380625  0.858126  0.380625  1
  B  B23  1  0.727763  0.272237  0.727763  1
  B  B24  1  0.727763  0.272237  0.272237  1
  B  B25  1  0.272237  0.727763  0.727763  1
  B  B26  1  0.272237  0.272237  0.727763  1
  B  B27  1  0.727763  0.727763  0.272237  1
  B  B28  1  0.272237  0.727763  0.272237  1
