# generated using pymatgen
data_Li4PrTh3Sn4
_symmetry_space_group_name_H-M   'P 1'
_cell_length_a   9.68423200
_cell_length_b   9.68423206
_cell_length_c   7.41155200
_cell_angle_alpha   90.00000000
_cell_angle_beta   90.00000000
_cell_angle_gamma   119.99999979
_symmetry_Int_Tables_number   1
_chemical_formula_structural   Li4PrTh3Sn4
_chemical_formula_sum   'Li8 Pr2 Th6 Sn8'
_cell_volume   601.96350953
_cell_formula_units_Z   2
loop_
 _symmetry_equiv_pos_site_id
 _symmetry_equiv_pos_as_xyz
  1  'x, y, z'
loop_
 _atom_site_type_symbol
 _atom_site_label
 _atom_site_symmetry_multiplicity
 _atom_site_fract_x
 _atom_site_fract_y
 _atom_site_fract_z
 _atom_site_occupancy
  Li  Li0  1  0.834371  0.165629  0.734771  1
  Li  Li1  1  0.834371  0.668741  0.734771  1
  Li  Li2  1  0.331259  0.165629  0.734771  1
  Li  Li3  1  0.165629  0.834371  0.234771  1
  Li  Li4  1  0.165629  0.331259  0.234771  1
  Li  Li5  1  0.668741  0.834371  0.234771  1
  Li  Li6  1  0.666667  0.333333  0.289038  1
  Li  Li7  1  0.333333  0.666667  0.789038  1
  Pr  Pr8  1  0.000000  0.000000  0.500683  1
  Pr  Pr9  1  0.000000  0.000000  0.000683  1
  Th  Th10  1  0.495762  0.504238  0.504557  1
  Th  Th11  1  0.495762  0.991525  0.504557  1
  Th  Th12  1  0.008475  0.504238  0.504557  1
  Th  Th13  1  0.504238  0.495762  0.004557  1
  Th  Th14  1  0.504238  0.008475  0.004557  1
  Th  Th15  1  0.991525  0.495762  0.004557  1
  Sn  Sn16  1  0.832204  0.167796  0.259047  1
  Sn  Sn17  1  0.832204  0.664407  0.259047  1
  Sn  Sn18  1  0.335593  0.167796  0.259047  1
  Sn  Sn19  1  0.167796  0.832204  0.759047  1
  Sn  Sn20  1  0.167796  0.335593  0.759047  1
  Sn  Sn21  1  0.664407  0.832204  0.759047  1
  Sn  Sn22  1  0.666667  0.333333  0.744159  1
  Sn  Sn23  1  0.333333  0.666667  0.244159  1
