# generated using pymatgen
data_Pr11YNb8(MoN4)12
_symmetry_space_group_name_H-M   'P 1'
_cell_length_a   11.34730360
_cell_length_b   11.34476251
_cell_length_c   11.34730345
_cell_angle_alpha   109.39803857
_cell_angle_beta   109.62674239
_cell_angle_gamma   109.39802943
_symmetry_Int_Tables_number   1
_chemical_formula_structural   Pr11YNb8(MoN4)12
_chemical_formula_sum   'Pr11 Y1 Nb8 Mo12 N48'
_cell_volume   1124.36699125
_cell_formula_units_Z   1
loop_
 _symmetry_equiv_pos_site_id
 _symmetry_equiv_pos_as_xyz
  1  'x, y, z'
loop_
 _atom_site_type_symbol
 _atom_site_label
 _atom_site_symmetry_multiplicity
 _atom_site_fract_x
 _atom_site_fract_y
 _atom_site_fract_z
 _atom_site_occupancy
  Pr  Pr0  1  0.250478  0.375898  0.124842  1
  Pr  Pr1  1  0.375158  0.124102  0.249522  1
  Pr  Pr2  1  0.874857  0.625163  0.250046  1
  Pr  Pr3  1  0.748944  0.124103  0.374580  1
  Pr  Pr4  1  0.125000  0.250000  0.375000  1
  Pr  Pr5  1  0.875000  0.750000  0.625000  1
  Pr  Pr6  1  0.249954  0.874838  0.625144  1
  Pr  Pr7  1  0.125421  0.375898  0.751056  1
  Pr  Pr8  1  0.624883  0.874837  0.749693  1
  Pr  Pr9  1  0.625000  0.250000  0.875001  1
  Pr  Pr10  1  0.750307  0.625163  0.875117  1
  Y  Y11  1  0.375000  0.750000  0.125001  1
  Nb  Nb12  1  0.999674  0.999007  0.999786  1
  Nb  Nb13  1  0.500543  0.999321  0.999722  1
  Nb  Nb14  1  0.000400  0.500680  0.001220  1
  Nb  Nb15  1  0.500278  0.500679  0.999458  1
  Nb  Nb16  1  0.999333  0.999007  0.499222  1
  Nb  Nb17  1  0.500215  0.500994  0.500327  1
  Nb  Nb18  1  0.498780  0.999321  0.499600  1
  Nb  Nb19  1  0.000779  0.500993  0.500667  1
  Mo  Mo20  1  0.875416  0.250000  0.125416  1
  Mo  Mo21  1  0.748797  0.874511  0.124568  1
  Mo  Mo22  1  0.624872  0.374862  0.250127  1
  Mo  Mo23  1  0.125714  0.874511  0.249943  1
  Mo  Mo24  1  0.250057  0.625489  0.374286  1
  Mo  Mo25  1  0.621978  0.750000  0.371978  1
  Mo  Mo26  1  0.374584  0.250000  0.624584  1
  Mo  Mo27  1  0.749990  0.374862  0.624735  1
  Mo  Mo28  1  0.875265  0.125138  0.750010  1
  Mo  Mo29  1  0.375432  0.625489  0.751203  1
  Mo  Mo30  1  0.249873  0.125138  0.875128  1
  Mo  Mo31  1  0.128022  0.750000  0.878022  1
  N  N32  1  0.199769  0.115429  0.014673  1
  N  N33  1  0.318416  0.897269  0.019533  1
  N  N34  1  0.885529  0.399710  0.084307  1
  N  N35  1  0.699702  0.684807  0.084206  1
  N  N36  1  0.985106  0.684807  0.100601  1
  N  N37  1  0.614957  0.416753  0.101055  1
  N  N38  1  0.014755  0.199425  0.115575  1
  N  N39  1  0.597940  0.912624  0.115953  1
  N  N40  1  0.203328  0.587376  0.185317  1
  N  N41  1  0.480467  0.602731  0.181584  1
  N  N42  1  0.584065  0.184668  0.199439  1
  N  N43  1  0.115938  0.014528  0.199973  1
  N  N44  1  0.314683  0.912624  0.296671  1
  N  N45  1  0.485327  0.384572  0.300231  1
  N  N46  1  0.916150  0.300575  0.315330  1
  N  N47  1  0.898590  0.014528  0.314555  1
  N  N48  1  0.578853  0.897270  0.377737  1
  N  N49  1  0.300027  0.485472  0.384063  1
  N  N50  1  0.815346  0.515002  0.399481  1
  N  N51  1  0.084186  0.884488  0.399254  1
  N  N52  1  0.100746  0.615512  0.415814  1
  N  N53  1  0.813345  0.800521  0.415017  1
  N  N54  1  0.600602  0.184668  0.485227  1
  N  N55  1  0.384426  0.300575  0.485245  1
  N  N56  1  0.614495  0.699478  0.512823  1
  N  N57  1  0.399400  0.815194  0.514894  1
  N  N58  1  0.184670  0.199424  0.583850  1
  N  N59  1  0.899245  0.384572  0.584340  1
  N  N60  1  0.915660  0.115428  0.600755  1
  N  N61  1  0.185445  0.485472  0.601410  1
  N  N62  1  0.415693  0.100290  0.614471  1
  N  N63  1  0.699656  0.515001  0.615521  1
  N  N64  1  0.084983  0.699479  0.686655  1
  N  N65  1  0.100520  0.984998  0.684655  1
  N  N66  1  0.684302  0.083247  0.698204  1
  N  N67  1  0.514765  0.615511  0.699696  1
  N  N68  1  0.884479  0.984999  0.800344  1
  N  N69  1  0.415794  0.815193  0.800298  1
  N  N70  1  0.514181  0.399711  0.815404  1
  N  N71  1  0.801796  0.416753  0.815698  1
  N  N72  1  0.398945  0.083247  0.885043  1
  N  N73  1  0.987177  0.800522  0.885505  1
  N  N74  1  0.014773  0.315332  0.899398  1
  N  N75  1  0.384047  0.587376  0.902060  1
  N  N76  1  0.300560  0.315332  0.915935  1
  N  N77  1  0.122263  0.602730  0.921147  1
  N  N78  1  0.684597  0.100290  0.985819  1
  N  N79  1  0.800304  0.884489  0.985235  1
