# generated using pymatgen
data_Na4HoUS6
_symmetry_space_group_name_H-M   'P 1'
_cell_length_a   6.93069910
_cell_length_b   6.93069971
_cell_length_c   7.01494659
_cell_angle_alpha   80.43618393
_cell_angle_beta   80.43617672
_cell_angle_gamma   120.00567012
_symmetry_Int_Tables_number   1
_chemical_formula_structural   Na4HoUS6
_chemical_formula_sum   'Na4 Ho1 U1 S6'
_cell_volume   275.21535473
_cell_formula_units_Z   1
loop_
 _symmetry_equiv_pos_site_id
 _symmetry_equiv_pos_as_xyz
  1  'x, y, z'
loop_
 _atom_site_type_symbol
 _atom_site_label
 _atom_site_symmetry_multiplicity
 _atom_site_fract_x
 _atom_site_fract_y
 _atom_site_fract_z
 _atom_site_occupancy
  Na  Na0  1  0.999964  0.000036  0.000000  1
  Na  Na1  1  0.499680  0.500320  0.500000  1
  Na  Na2  1  0.839954  0.160046  0.500000  1
  Na  Na3  1  0.160343  0.839657  0.500000  1
  Ho  Ho4  1  0.667074  0.332926  0.000000  1
  U  U5  1  0.332689  0.667311  0.000000  1
  S  S6  1  0.274827  0.285279  0.228196  1
  S  S7  1  0.427488  0.065272  0.773110  1
  S  S8  1  0.087330  0.438797  0.774658  1
  S  S9  1  0.714721  0.725173  0.771804  1
  S  S10  1  0.561203  0.912670  0.225342  1
  S  S11  1  0.934728  0.572512  0.226890  1
