# generated using pymatgen
data_Pr9YSi5Pb
_symmetry_space_group_name_H-M   'P 1'
_cell_length_a   7.79689079
_cell_length_b   7.79689031
_cell_length_c   9.25971401
_cell_angle_alpha   114.89846388
_cell_angle_beta   114.89846423
_cell_angle_gamma   90.00000033
_symmetry_Int_Tables_number   1
_chemical_formula_structural   Pr9YSi5Pb
_chemical_formula_sum   'Pr9 Y1 Si5 Pb1'
_cell_volume   452.25993214
_cell_formula_units_Z   1
loop_
 _symmetry_equiv_pos_site_id
 _symmetry_equiv_pos_as_xyz
  1  'x, y, z'
loop_
 _atom_site_type_symbol
 _atom_site_label
 _atom_site_symmetry_multiplicity
 _atom_site_fract_x
 _atom_site_fract_y
 _atom_site_fract_z
 _atom_site_occupancy
  Pr  Pr0  1  0.972635  0.972635  0.945270  1
  Pr  Pr1  1  0.978626  0.830643  0.280090  1
  Pr  Pr2  1  0.301464  0.449446  0.280090  1
  Pr  Pr3  1  0.830643  0.301464  0.280090  1
  Pr  Pr4  1  0.449446  0.978626  0.280090  1
  Pr  Pr5  1  0.049009  0.198140  0.721710  1
  Pr  Pr6  1  0.672702  0.523571  0.721710  1
  Pr  Pr7  1  0.198140  0.672702  0.721710  1
  Pr  Pr8  1  0.523571  0.049009  0.721710  1
  Y  Y9  1  0.516808  0.516808  0.033616  1
  Si  Si10  1  0.255807  0.255807  0.511615  1
  Si  Si11  1  0.616727  0.881118  0.003581  1
  Si  Si12  1  0.386854  0.122463  0.003581  1
  Si  Si13  1  0.881118  0.386854  0.003581  1
  Si  Si14  1  0.122463  0.616727  0.003581  1
  Pb  Pb15  1  0.743988  0.743988  0.487975  1
