# generated using pymatgen
data_Sm8Zn(Si4Rh)3
_symmetry_space_group_name_H-M   'P 1'
_cell_length_a   8.20747400
_cell_length_b   8.20747401
_cell_length_c   8.30852800
_cell_angle_alpha   90.00000000
_cell_angle_beta   90.00000000
_cell_angle_gamma   119.99999995
_symmetry_Int_Tables_number   1
_chemical_formula_structural   Sm8Zn(Si4Rh)3
_chemical_formula_sum   'Sm8 Zn1 Si12 Rh3'
_cell_volume   484.70081689
_cell_formula_units_Z   1
loop_
 _symmetry_equiv_pos_site_id
 _symmetry_equiv_pos_as_xyz
  1  'x, y, z'
loop_
 _atom_site_type_symbol
 _atom_site_label
 _atom_site_symmetry_multiplicity
 _atom_site_fract_x
 _atom_site_fract_y
 _atom_site_fract_z
 _atom_site_occupancy
  Sm  Sm0  1  0.000000  0.000000  0.748940  1
  Sm  Sm1  1  0.000000  0.000000  0.251290  1
  Sm  Sm2  1  0.497221  0.502779  0.745857  1
  Sm  Sm3  1  0.497221  0.994443  0.745857  1
  Sm  Sm4  1  0.005557  0.502779  0.745857  1
  Sm  Sm5  1  0.499253  0.500747  0.254160  1
  Sm  Sm6  1  0.001496  0.500747  0.254160  1
  Sm  Sm7  1  0.499253  0.998504  0.254160  1
  Zn  Zn8  1  0.666667  0.333333  0.995872  1
  Si  Si9  1  0.836548  0.163452  0.999797  1
  Si  Si10  1  0.836548  0.673095  0.999797  1
  Si  Si11  1  0.326905  0.163452  0.999797  1
  Si  Si12  1  0.832788  0.167212  0.500914  1
  Si  Si13  1  0.832788  0.665576  0.500914  1
  Si  Si14  1  0.334424  0.167212  0.500914  1
  Si  Si15  1  0.166789  0.833211  0.499233  1
  Si  Si16  1  0.666422  0.833211  0.499233  1
  Si  Si17  1  0.166789  0.333578  0.499233  1
  Si  Si18  1  0.168381  0.831619  0.000575  1
  Si  Si19  1  0.663239  0.831619  0.000575  1
  Si  Si20  1  0.168381  0.336761  0.000575  1
  Rh  Rh21  1  0.666667  0.333333  0.502970  1
  Rh  Rh22  1  0.333333  0.666667  0.496930  1
  Rh  Rh23  1  0.333333  0.666667  0.002388  1
