# generated using pymatgen
data_Y12Co4OsPb
_symmetry_space_group_name_H-M   'P 1'
_cell_length_a   8.36732584
_cell_length_b   8.36732731
_cell_length_c   8.36732499
_cell_angle_alpha   110.44047516
_cell_angle_beta   111.68756984
_cell_angle_gamma   106.33307428
_symmetry_Int_Tables_number   1
_chemical_formula_structural   Y12Co4OsPb
_chemical_formula_sum   'Y12 Co4 Os1 Pb1'
_cell_volume   449.89611024
_cell_formula_units_Z   1
loop_
 _symmetry_equiv_pos_site_id
 _symmetry_equiv_pos_as_xyz
  1  'x, y, z'
loop_
 _atom_site_type_symbol
 _atom_site_label
 _atom_site_symmetry_multiplicity
 _atom_site_fract_x
 _atom_site_fract_y
 _atom_site_fract_z
 _atom_site_occupancy
  Y  Y0  1  0.284551  0.182684  0.467235  1
  Y  Y1  1  0.715449  0.817316  0.532765  1
  Y  Y2  1  0.284551  0.817316  0.101868  1
  Y  Y3  1  0.715449  0.182684  0.898132  1
  Y  Y4  1  0.618550  0.312174  0.306377  1
  Y  Y5  1  0.381450  0.687826  0.693623  1
  Y  Y6  1  0.005797  0.312174  0.693623  1
  Y  Y7  1  0.994203  0.687826  0.306377  1
  Y  Y8  1  0.213511  0.408298  0.194786  1
  Y  Y9  1  0.786489  0.591702  0.805214  1
  Y  Y10  1  0.213511  0.018725  0.805214  1
  Y  Y11  1  0.786489  0.981275  0.194786  1
  Co  Co12  1  0.000000  0.381792  0.381792  1
  Co  Co13  1  0.000000  0.618208  0.618208  1
  Co  Co14  1  0.390051  0.890051  0.500000  1
  Co  Co15  1  0.609949  0.109949  0.500000  1
  Os  Os16  1  0.000000  0.000000  0.000000  1
  Pb  Pb17  1  0.500000  0.500000  0.000000  1
