# generated using pymatgen
data_Sc4AlZn(B2Ir5)2
_symmetry_space_group_name_H-M   'P 1'
_cell_length_a   3.04257700
_cell_length_b   9.44253200
_cell_length_c   9.44253200
_cell_angle_alpha   90.00000000
_cell_angle_beta   90.00000000
_cell_angle_gamma   90.00000000
_symmetry_Int_Tables_number   1
_chemical_formula_structural   Sc4AlZn(B2Ir5)2
_chemical_formula_sum   'Sc4 Al1 Zn1 B4 Ir10'
_cell_volume   271.28045709
_cell_formula_units_Z   1
loop_
 _symmetry_equiv_pos_site_id
 _symmetry_equiv_pos_as_xyz
  1  'x, y, z'
loop_
 _atom_site_type_symbol
 _atom_site_label
 _atom_site_symmetry_multiplicity
 _atom_site_fract_x
 _atom_site_fract_y
 _atom_site_fract_z
 _atom_site_occupancy
  Sc  Sc0  1  0.000000  0.176246  0.676829  1
  Sc  Sc1  1  0.000000  0.823754  0.323171  1
  Sc  Sc2  1  0.000000  0.323171  0.176246  1
  Sc  Sc3  1  0.000000  0.676829  0.823754  1
  Al  Al4  1  0.000000  0.500000  0.500000  1
  Zn  Zn5  1  0.000000  0.000000  0.000000  1
  B  B6  1  0.000000  0.628112  0.123047  1
  B  B7  1  0.000000  0.371888  0.876953  1
  B  B8  1  0.000000  0.876953  0.628112  1
  B  B9  1  0.000000  0.123047  0.371888  1
  Ir  Ir10  1  0.500000  0.069256  0.216998  1
  Ir  Ir11  1  0.500000  0.930744  0.783002  1
  Ir  Ir12  1  0.500000  0.783002  0.069256  1
  Ir  Ir13  1  0.500000  0.431028  0.715835  1
  Ir  Ir14  1  0.500000  0.216998  0.930744  1
  Ir  Ir15  1  0.500000  0.568972  0.284165  1
  Ir  Ir16  1  0.500000  0.715835  0.568972  1
  Ir  Ir17  1  0.500000  0.284165  0.431028  1
  Ir  Ir18  1  0.500000  0.000000  0.500000  1
  Ir  Ir19  1  0.500000  0.500000  0.000000  1
