# generated using pymatgen
data_SiNi16As3P2
_symmetry_space_group_name_H-M   'P 1'
_cell_length_a   6.72214661
_cell_length_b   6.74221622
_cell_length_c   6.83114936
_cell_angle_alpha   98.11243740
_cell_angle_beta   103.31246799
_cell_angle_gamma   119.07488712
_symmetry_Int_Tables_number   1
_chemical_formula_structural   SiNi16As3P2
_chemical_formula_sum   'Si1 Ni16 As3 P2'
_cell_volume   251.39559457
_cell_formula_units_Z   1
loop_
 _symmetry_equiv_pos_site_id
 _symmetry_equiv_pos_as_xyz
  1  'x, y, z'
loop_
 _atom_site_type_symbol
 _atom_site_label
 _atom_site_symmetry_multiplicity
 _atom_site_fract_x
 _atom_site_fract_y
 _atom_site_fract_z
 _atom_site_occupancy
  Si  Si0  1  0.999706  0.498877  0.500176  1
  Ni  Ni1  1  0.272674  0.648158  0.303638  1
  Ni  Ni2  1  0.741538  0.346150  0.709358  1
  Ni  Ni3  1  0.590046  0.744634  0.123407  1
  Ni  Ni4  1  0.418076  0.266421  0.885983  1
  Ni  Ni5  1  0.583530  0.461691  0.349302  1
  Ni  Ni6  1  0.428422  0.556860  0.652935  1
  Ni  Ni7  1  0.621926  0.089297  0.355762  1
  Ni  Ni8  1  0.375966  0.905114  0.651901  1
  Ni  Ni9  1  0.216970  0.008988  0.105061  1
  Ni  Ni10  1  0.777811  0.991114  0.884181  1
  Ni  Ni11  1  0.023840  0.194566  0.292700  1
  Ni  Ni12  1  0.953881  0.791918  0.693492  1
  Ni  Ni13  1  0.814698  0.369543  0.123333  1
  Ni  Ni14  1  0.188909  0.633459  0.877341  1
  Ni  Ni15  1  0.012009  0.193028  0.651800  1
  Ni  Ni16  1  0.983856  0.795803  0.339585  1
  As  As17  1  0.173464  0.337885  0.028835  1
  As  As18  1  0.821200  0.661819  0.967059  1
  As  As19  1  0.335190  0.172349  0.496690  1
  P  P20  1  0.664093  0.830036  0.504172  1
  P  P21  1  0.502194  0.002290  0.003288  1
