# generated using pymatgen
data_Ti3Al2RhC
_symmetry_space_group_name_H-M   'P 1'
_cell_length_a   8.21528654
_cell_length_b   8.21528693
_cell_length_c   8.21528700
_cell_angle_alpha   60.00000376
_cell_angle_beta   60.00000218
_cell_angle_gamma   60.00000303
_symmetry_Int_Tables_number   1
_chemical_formula_structural   Ti3Al2RhC
_chemical_formula_sum   'Ti12 Al8 Rh4 C4'
_cell_volume   392.06062147
_cell_formula_units_Z   4
loop_
 _symmetry_equiv_pos_site_id
 _symmetry_equiv_pos_as_xyz
  1  'x, y, z'
loop_
 _atom_site_type_symbol
 _atom_site_label
 _atom_site_symmetry_multiplicity
 _atom_site_fract_x
 _atom_site_fract_y
 _atom_site_fract_z
 _atom_site_occupancy
  Ti  Ti0  1  0.935363  0.935363  0.564637  1
  Ti  Ti1  1  0.685363  0.314637  0.314637  1
  Ti  Ti2  1  0.314637  0.685363  0.685363  1
  Ti  Ti3  1  0.685363  0.685363  0.314637  1
  Ti  Ti4  1  0.685363  0.314637  0.685363  1
  Ti  Ti5  1  0.314637  0.685363  0.314637  1
  Ti  Ti6  1  0.564637  0.935363  0.564637  1
  Ti  Ti7  1  0.564637  0.935363  0.935363  1
  Ti  Ti8  1  0.935363  0.564637  0.564637  1
  Ti  Ti9  1  0.935363  0.564637  0.935363  1
  Ti  Ti10  1  0.314637  0.314637  0.685363  1
  Ti  Ti11  1  0.564637  0.564637  0.935363  1
  Al  Al12  1  0.915029  0.254914  0.915029  1
  Al  Al13  1  0.334971  0.334971  0.995086  1
  Al  Al14  1  0.995086  0.334971  0.334971  1
  Al  Al15  1  0.334971  0.334971  0.334971  1
  Al  Al16  1  0.254914  0.915029  0.915029  1
  Al  Al17  1  0.915029  0.915029  0.915029  1
  Al  Al18  1  0.915029  0.915029  0.254914  1
  Al  Al19  1  0.334971  0.995086  0.334971  1
  Rh  Rh20  1  0.125000  0.625000  0.125000  1
  Rh  Rh21  1  0.125000  0.125000  0.625000  1
  Rh  Rh22  1  0.625000  0.125000  0.125000  1
  Rh  Rh23  1  0.125000  0.125000  0.125000  1
  C  C24  1  0.625000  0.125000  0.625000  1
  C  C25  1  0.625000  0.625000  0.125000  1
  C  C26  1  0.125000  0.625000  0.625000  1
  C  C27  1  0.625000  0.625000  0.625000  1
