# generated using pymatgen
data_K3Cr(IO3)6
_symmetry_space_group_name_H-M   'P 1'
_cell_length_a   6.96420298
_cell_length_b   7.16293104
_cell_length_c   10.63889721
_cell_angle_alpha   97.59656991
_cell_angle_beta   108.64907107
_cell_angle_gamma   103.30095856
_symmetry_Int_Tables_number   1
_chemical_formula_structural   K3Cr(IO3)6
_chemical_formula_sum   'K3 Cr1 I6 O18'
_cell_volume   477.01789482
_cell_formula_units_Z   1
loop_
 _symmetry_equiv_pos_site_id
 _symmetry_equiv_pos_as_xyz
  1  'x, y, z'
loop_
 _atom_site_type_symbol
 _atom_site_label
 _atom_site_symmetry_multiplicity
 _atom_site_fract_x
 _atom_site_fract_y
 _atom_site_fract_z
 _atom_site_occupancy
  K  K0  1  0.375219  0.539092  0.295617  1
  K  K1  1  0.624781  0.460908  0.704383  1
  K  K2  1  0.000000  0.500000  0.500000  1
  Cr  Cr3  1  0.000000  0.000000  0.000000  1
  I  I4  1  0.552303  0.038000  0.191637  1
  I  I5  1  0.447697  0.962000  0.808363  1
  I  I6  1  0.785079  0.546630  0.101075  1
  I  I7  1  0.214921  0.453370  0.898925  1
  I  I8  1  0.132713  0.052914  0.372505  1
  I  I9  1  0.867287  0.947086  0.627495  1
  O  O10  1  0.584037  0.658997  0.123938  1
  O  O11  1  0.415963  0.341003  0.876062  1
  O  O12  1  0.002168  0.351859  0.732965  1
  O  O13  1  0.997832  0.648141  0.267035  1
  O  O14  1  0.614848  0.307431  0.233126  1
  O  O15  1  0.385152  0.692569  0.766874  1
  O  O16  1  0.048115  0.101519  0.197639  1
  O  O17  1  0.951885  0.898481  0.802361  1
  O  O18  1  0.297803  0.970439  0.038838  1
  O  O19  1  0.702197  0.029561  0.961162  1
  O  O20  1  0.291085  0.302837  0.461795  1
  O  O21  1  0.708915  0.697163  0.538205  1
  O  O22  1  0.881282  0.072245  0.393036  1
  O  O23  1  0.118718  0.927755  0.606964  1
  O  O24  1  0.562230  0.030495  0.682219  1
  O  O25  1  0.437770  0.969505  0.317781  1
  O  O26  1  0.105273  0.298277  0.002506  1
  O  O27  1  0.894727  0.701723  0.997494  1
