# generated using pymatgen
data_Er8CrTc3C8
_symmetry_space_group_name_H-M   'P 1'
_cell_length_a   5.03871000
_cell_length_b   6.50447890
_cell_length_c   9.73409986
_cell_angle_alpha   89.76128103
_cell_angle_beta   90.00000000
_cell_angle_gamma   90.00000000
_symmetry_Int_Tables_number   1
_chemical_formula_structural   Er8CrTc3C8
_chemical_formula_sum   'Er8 Cr1 Tc3 C8'
_cell_volume   319.02439990
_cell_formula_units_Z   1
loop_
 _symmetry_equiv_pos_site_id
 _symmetry_equiv_pos_as_xyz
  1  'x, y, z'
loop_
 _atom_site_type_symbol
 _atom_site_label
 _atom_site_symmetry_multiplicity
 _atom_site_fract_x
 _atom_site_fract_y
 _atom_site_fract_z
 _atom_site_occupancy
  Er  Er0  1  0.750000  0.533630  0.782455  1
  Er  Er1  1  0.250000  0.965779  0.283219  1
  Er  Er2  1  0.750000  0.677430  0.443236  1
  Er  Er3  1  0.250000  0.825473  0.942734  1
  Er  Er4  1  0.750000  0.180111  0.055466  1
  Er  Er5  1  0.250000  0.319624  0.559365  1
  Er  Er6  1  0.250000  0.465791  0.215453  1
  Er  Er7  1  0.750000  0.031811  0.717628  1
  Cr  Cr8  1  0.250000  0.279194  0.864574  1
  Tc  Tc9  1  0.250000  0.779406  0.635057  1
  Tc  Tc10  1  0.750000  0.217283  0.368299  1
  Tc  Tc11  1  0.750000  0.718446  0.132390  1
  C  C12  1  0.250000  0.676699  0.449852  1
  C  C13  1  0.250000  0.541680  0.763687  1
  C  C14  1  0.750000  0.449860  0.241090  1
  C  C15  1  0.750000  0.824490  0.947542  1
  C  C16  1  0.250000  0.053750  0.744230  1
  C  C17  1  0.250000  0.184595  0.042354  1
  C  C18  1  0.750000  0.323805  0.553029  1
  C  C19  1  0.750000  0.951142  0.258339  1
