# generated using pymatgen
data_Nd3Nb(Co4P3)2
_symmetry_space_group_name_H-M   'P 1'
_cell_length_a   3.76844900
_cell_length_b   10.75182800
_cell_length_c   12.49273400
_cell_angle_alpha   90.00000000
_cell_angle_beta   90.00000000
_cell_angle_gamma   90.00000000
_symmetry_Int_Tables_number   1
_chemical_formula_structural   Nd3Nb(Co4P3)2
_chemical_formula_sum   'Nd6 Nb2 Co16 P12'
_cell_volume   506.17704171
_cell_formula_units_Z   2
loop_
 _symmetry_equiv_pos_site_id
 _symmetry_equiv_pos_as_xyz
  1  'x, y, z'
loop_
 _atom_site_type_symbol
 _atom_site_label
 _atom_site_symmetry_multiplicity
 _atom_site_fract_x
 _atom_site_fract_y
 _atom_site_fract_z
 _atom_site_occupancy
  Nd  Nd0  1  0.000000  0.500000  0.525783  1
  Nd  Nd1  1  0.500000  0.000000  0.474217  1
  Nd  Nd2  1  0.500000  0.819578  0.205417  1
  Nd  Nd3  1  0.500000  0.180422  0.205417  1
  Nd  Nd4  1  0.000000  0.680422  0.794583  1
  Nd  Nd5  1  0.000000  0.319578  0.794583  1
  Nb  Nb6  1  0.500000  0.500000  0.153683  1
  Nb  Nb7  1  0.000000  0.000000  0.846317  1
  Co  Co8  1  0.500000  0.500000  0.703609  1
  Co  Co9  1  0.000000  0.000000  0.296391  1
  Co  Co10  1  0.000000  0.500000  0.986958  1
  Co  Co11  1  0.500000  0.000000  0.013042  1
  Co  Co12  1  0.500000  0.332454  0.992811  1
  Co  Co13  1  0.500000  0.667546  0.992811  1
  Co  Co14  1  0.000000  0.167546  0.007189  1
  Co  Co15  1  0.000000  0.832454  0.007189  1
  Co  Co16  1  0.500000  0.295261  0.431685  1
  Co  Co17  1  0.500000  0.704739  0.431685  1
  Co  Co18  1  0.000000  0.204739  0.568315  1
  Co  Co19  1  0.000000  0.795261  0.568315  1
  Co  Co20  1  0.500000  0.879825  0.705783  1
  Co  Co21  1  0.500000  0.120175  0.705783  1
  Co  Co22  1  0.000000  0.620175  0.294217  1
  Co  Co23  1  0.000000  0.379825  0.294217  1
  P  P24  1  0.500000  0.500000  0.885873  1
  P  P25  1  0.000000  0.000000  0.114127  1
  P  P26  1  0.500000  0.500000  0.350891  1
  P  P27  1  0.000000  0.000000  0.649109  1
  P  P28  1  0.500000  0.306348  0.613736  1
  P  P29  1  0.500000  0.693652  0.613736  1
  P  P30  1  0.000000  0.193652  0.386264  1
  P  P31  1  0.000000  0.806348  0.386264  1
  P  P32  1  0.500000  0.843235  0.896141  1
  P  P33  1  0.500000  0.156765  0.896141  1
  P  P34  1  0.000000  0.656765  0.103859  1
  P  P35  1  0.000000  0.343235  0.103859  1
