# generated using pymatgen
data_Sm2Y2P7Ir8
_symmetry_space_group_name_H-M   'P 1'
_cell_length_a   3.97218000
_cell_length_b   12.76265673
_cell_length_c   13.14657700
_cell_angle_alpha   81.49945428
_cell_angle_beta   90.00000000
_cell_angle_gamma   90.00000000
_symmetry_Int_Tables_number   1
_chemical_formula_structural   Sm2Y2P7Ir8
_chemical_formula_sum   'Sm4 Y4 P14 Ir16'
_cell_volume   659.15164111
_cell_formula_units_Z   2
loop_
 _symmetry_equiv_pos_site_id
 _symmetry_equiv_pos_as_xyz
  1  'x, y, z'
loop_
 _atom_site_type_symbol
 _atom_site_label
 _atom_site_symmetry_multiplicity
 _atom_site_fract_x
 _atom_site_fract_y
 _atom_site_fract_z
 _atom_site_occupancy
  Sm  Sm0  1  0.250000  0.104193  0.788852  1
  Sm  Sm1  1  0.750000  0.895807  0.211148  1
  Sm  Sm2  1  0.250000  0.279943  0.102021  1
  Sm  Sm3  1  0.750000  0.720057  0.897979  1
  Y  Y4  1  0.250000  0.520097  0.294287  1
  Y  Y5  1  0.750000  0.479903  0.705713  1
  Y  Y6  1  0.250000  0.208013  0.439793  1
  Y  Y7  1  0.750000  0.791987  0.560207  1
  P  P8  1  0.250000  0.052262  0.100302  1
  P  P9  1  0.750000  0.947738  0.899698  1
  P  P10  1  0.250000  0.313967  0.687445  1
  P  P11  1  0.750000  0.686033  0.312555  1
  P  P12  1  0.250000  0.607777  0.566366  1
  P  P13  1  0.750000  0.392223  0.433634  1
  P  P14  1  0.250000  0.842572  0.716878  1
  P  P15  1  0.750000  0.157428  0.283122  1
  P  P16  1  0.750000  0.257616  0.918704  1
  P  P17  1  0.250000  0.742384  0.081296  1
  P  P18  1  0.750000  0.092605  0.588699  1
  P  P19  1  0.250000  0.907395  0.411301  1
  P  P20  1  0.750000  0.472984  0.129194  1
  P  P21  1  0.250000  0.527016  0.870806  1
  Ir  Ir22  1  0.250000  0.990630  0.576241  1
  Ir  Ir23  1  0.750000  0.009370  0.423759  1
  Ir  Ir24  1  0.250000  0.661375  0.730651  1
  Ir  Ir25  1  0.750000  0.338625  0.269349  1
  Ir  Ir26  1  0.250000  0.551674  0.048314  1
  Ir  Ir27  1  0.750000  0.448326  0.951686  1
  Ir  Ir28  1  0.250000  0.061988  0.273397  1
  Ir  Ir29  1  0.750000  0.938012  0.726603  1
  Ir  Ir30  1  0.250000  0.422406  0.523697  1
  Ir  Ir31  1  0.750000  0.577594  0.476303  1
  Ir  Ir32  1  0.250000  0.914793  0.997560  1
  Ir  Ir33  1  0.750000  0.085207  0.002440  1
  Ir  Ir34  1  0.250000  0.728357  0.396768  1
  Ir  Ir35  1  0.750000  0.271643  0.603232  1
  Ir  Ir36  1  0.250000  0.341810  0.857034  1
  Ir  Ir37  1  0.750000  0.658190  0.142966  1
