# generated using pymatgen
data_Ce8Nb11Si16Os
_symmetry_space_group_name_H-M   'P 1'
_cell_length_a   7.10309260
_cell_length_b   7.11703664
_cell_length_c   13.18642500
_cell_angle_alpha   89.74821947
_cell_angle_beta   89.94232584
_cell_angle_gamma   90.07967201
_symmetry_Int_Tables_number   1
_chemical_formula_structural   Ce8Nb11Si16Os
_chemical_formula_sum   'Ce8 Nb11 Si16 Os1'
_cell_volume   666.60552865
_cell_formula_units_Z   1
loop_
 _symmetry_equiv_pos_site_id
 _symmetry_equiv_pos_as_xyz
  1  'x, y, z'
loop_
 _atom_site_type_symbol
 _atom_site_label
 _atom_site_symmetry_multiplicity
 _atom_site_fract_x
 _atom_site_fract_y
 _atom_site_fract_z
 _atom_site_occupancy
  Ce  Ce0  1  0.997509  0.337660  0.219870  1
  Ce  Ce1  1  0.004616  0.665317  0.715572  1
  Ce  Ce2  1  0.162018  0.499303  0.466730  1
  Ce  Ce3  1  0.501649  0.836422  0.035070  1
  Ce  Ce4  1  0.835734  0.504375  0.967557  1
  Ce  Ce5  1  0.496594  0.161420  0.530883  1
  Ce  Ce6  1  0.334906  0.996069  0.781758  1
  Ce  Ce7  1  0.665565  0.001911  0.281370  1
  Nb  Nb8  1  0.168492  0.167748  0.001636  1
  Nb  Nb9  1  0.829537  0.831468  0.499399  1
  Nb  Nb10  1  0.328247  0.667437  0.249701  1
  Nb  Nb11  1  0.669691  0.330660  0.749360  1
  Nb  Nb12  1  0.842653  0.006002  0.873739  1
  Nb  Nb13  1  0.500122  0.659376  0.623109  1
  Nb  Nb14  1  0.342725  0.495132  0.876023  1
  Nb  Nb15  1  0.492013  0.337682  0.125530  1
  Nb  Nb16  1  0.658779  0.503556  0.375748  1
  Nb  Nb17  1  0.995240  0.157878  0.626905  1
  Nb  Nb18  1  0.001485  0.839838  0.123200  1
  Si  Si19  1  0.287110  0.036815  0.190451  1
  Si  Si20  1  0.707159  0.957456  0.684839  1
  Si  Si21  1  0.455279  0.791787  0.433627  1
  Si  Si22  1  0.207548  0.540220  0.064339  1
  Si  Si23  1  0.541169  0.207046  0.935853  1
  Si  Si24  1  0.789353  0.457616  0.564171  1
  Si  Si25  1  0.043419  0.293203  0.814880  1
  Si  Si26  1  0.965214  0.720628  0.314607  1
  Si  Si27  1  0.373136  0.292662  0.316107  1
  Si  Si28  1  0.628597  0.703576  0.813303  1
  Si  Si29  1  0.199701  0.873823  0.560045  1
  Si  Si30  1  0.128612  0.797213  0.935923  1
  Si  Si31  1  0.796362  0.129082  0.064812  1
  Si  Si32  1  0.880190  0.196423  0.435386  1
  Si  Si33  1  0.297509  0.370965  0.685364  1
  Si  Si34  1  0.702928  0.624525  0.186220  1
  Os  Os35  1  0.169140  0.007707  0.376908  1
