# generated using pymatgen
data_Nd5Sm2Sn23Ir6
_symmetry_space_group_name_H-M   'P 1'
_cell_length_a   9.96294287
_cell_length_b   9.97093706
_cell_length_c   10.18744400
_cell_angle_alpha   90.00000000
_cell_angle_beta   90.07202415
_cell_angle_gamma   120.02655460
_symmetry_Int_Tables_number   1
_chemical_formula_structural   Nd5Sm2Sn23Ir6
_chemical_formula_sum   'Nd5 Sm2 Sn23 Ir6'
_cell_volume   876.19899756
_cell_formula_units_Z   1
loop_
 _symmetry_equiv_pos_site_id
 _symmetry_equiv_pos_as_xyz
  1  'x, y, z'
loop_
 _atom_site_type_symbol
 _atom_site_label
 _atom_site_symmetry_multiplicity
 _atom_site_fract_x
 _atom_site_fract_y
 _atom_site_fract_z
 _atom_site_occupancy
  Nd  Nd0  1  0.000000  0.000000  0.000000  1
  Nd  Nd1  1  0.478649  0.522089  0.306950  1
  Nd  Nd2  1  0.521351  0.477911  0.693050  1
  Nd  Nd3  1  0.478649  0.956559  0.306950  1
  Nd  Nd4  1  0.521351  0.043441  0.693050  1
  Sm  Sm5  1  0.041998  0.520998  0.305731  1
  Sm  Sm6  1  0.958002  0.479002  0.694269  1
  Sn  Sn7  1  0.351997  0.999476  0.999746  1
  Sn  Sn8  1  0.648003  0.000524  0.000254  1
  Sn  Sn9  1  0.000000  0.352626  0.000000  1
  Sn  Sn10  1  0.000000  0.647374  0.000000  1
  Sn  Sn11  1  0.648003  0.647479  0.000254  1
  Sn  Sn12  1  0.351997  0.352521  0.999746  1
  Sn  Sn13  1  0.333405  0.666703  0.825054  1
  Sn  Sn14  1  0.666595  0.333297  0.174946  1
  Sn  Sn15  1  0.000000  0.000000  0.500000  1
  Sn  Sn16  1  0.781654  0.223344  0.454970  1
  Sn  Sn17  1  0.218346  0.776656  0.545030  1
  Sn  Sn18  1  0.781654  0.558310  0.454970  1
  Sn  Sn19  1  0.218346  0.441690  0.545030  1
  Sn  Sn20  1  0.441062  0.220531  0.454089  1
  Sn  Sn21  1  0.558938  0.779469  0.545911  1
  Sn  Sn22  1  0.330475  0.665238  0.114504  1
  Sn  Sn23  1  0.669525  0.334762  0.885496  1
  Sn  Sn24  1  0.116964  0.882219  0.283819  1
  Sn  Sn25  1  0.883036  0.117781  0.716181  1
  Sn  Sn26  1  0.116964  0.234746  0.283819  1
  Sn  Sn27  1  0.883036  0.765254  0.716181  1
  Sn  Sn28  1  0.767407  0.883705  0.283449  1
  Sn  Sn29  1  0.232593  0.116295  0.716551  1
  Ir  Ir30  1  0.832416  0.169781  0.198193  1
  Ir  Ir31  1  0.167584  0.830219  0.801807  1
  Ir  Ir32  1  0.832416  0.662634  0.198193  1
  Ir  Ir33  1  0.167584  0.337366  0.801807  1
  Ir  Ir34  1  0.335655  0.167827  0.197133  1
  Ir  Ir35  1  0.664345  0.832173  0.802867  1
