# generated using pymatgen
data_Pr3(Ga2Ge)2
_symmetry_space_group_name_H-M   'P 1'
_cell_length_a   4.30225181
_cell_length_b   4.35374843
_cell_length_c   22.18493125
_cell_angle_alpha   84.36884592
_cell_angle_beta   84.43566405
_cell_angle_gamma   89.99999474
_symmetry_Int_Tables_number   1
_chemical_formula_structural   Pr3(Ga2Ge)2
_chemical_formula_sum   'Pr6 Ga8 Ge4'
_cell_volume   411.57127645
_cell_formula_units_Z   2
loop_
 _symmetry_equiv_pos_site_id
 _symmetry_equiv_pos_as_xyz
  1  'x, y, z'
loop_
 _atom_site_type_symbol
 _atom_site_label
 _atom_site_symmetry_multiplicity
 _atom_site_fract_x
 _atom_site_fract_y
 _atom_site_fract_z
 _atom_site_occupancy
  Pr  Pr0  1  0.958092  0.708092  0.083815  1
  Pr  Pr1  1  0.291106  0.041106  0.417789  1
  Pr  Pr2  1  0.624334  0.374334  0.751331  1
  Pr  Pr3  1  0.375997  0.625997  0.248006  1
  Pr  Pr4  1  0.708839  0.958839  0.582321  1
  Pr  Pr5  1  0.041352  0.291352  0.917297  1
  Ga  Ga6  1  0.820223  0.570223  0.359555  1
  Ga  Ga7  1  0.153135  0.903135  0.693731  1
  Ga  Ga8  1  0.431025  0.181025  0.137950  1
  Ga  Ga9  1  0.764885  0.514885  0.470229  1
  Ga  Ga10  1  0.097922  0.847922  0.804156  1
  Ga  Ga11  1  0.846713  0.096713  0.306574  1
  Ga  Ga12  1  0.179652  0.429652  0.640696  1
  Ga  Ga13  1  0.513097  0.763097  0.973806  1
  Ge  Ge14  1  0.902537  0.152537  0.194927  1
  Ge  Ge15  1  0.235588  0.485588  0.528823  1
  Ge  Ge16  1  0.568810  0.818810  0.862378  1
  Ge  Ge17  1  0.486693  0.236693  0.026613  1
