# generated using pymatgen
data_Tb(HfH5)3
_symmetry_space_group_name_H-M   'P 1'
_cell_length_a   7.04189786
_cell_length_b   7.06214848
_cell_length_c   7.09230938
_cell_angle_alpha   109.55072316
_cell_angle_beta   109.43543225
_cell_angle_gamma   109.19606706
_symmetry_Int_Tables_number   1
_chemical_formula_structural   Tb(HfH5)3
_chemical_formula_sum   'Tb2 Hf6 H30'
_cell_volume   272.28479434
_cell_formula_units_Z   2
loop_
 _symmetry_equiv_pos_site_id
 _symmetry_equiv_pos_as_xyz
  1  'x, y, z'
loop_
 _atom_site_type_symbol
 _atom_site_label
 _atom_site_symmetry_multiplicity
 _atom_site_fract_x
 _atom_site_fract_y
 _atom_site_fract_z
 _atom_site_occupancy
  Tb  Tb0  1  0.909616  0.908106  0.907733  1
  Tb  Tb1  1  0.501882  0.000372  0.092267  1
  Hf  Hf2  1  0.006394  0.111861  0.506136  1
  Hf  Hf3  1  0.106962  0.496968  0.000410  1
  Hf  Hf4  1  0.000258  0.605725  0.493864  1
  Hf  Hf5  1  0.606551  0.496559  0.999590  1
  Hf  Hf6  1  0.496897  0.000904  0.593684  1
  Hf  Hf7  1  0.403213  0.407220  0.406316  1
  H  H8  1  0.667464  0.977397  0.402147  1
  H  H9  1  0.223562  0.304106  0.845945  1
  H  H10  1  0.194240  0.423111  0.539565  1
  H  H11  1  0.090745  0.289360  0.127994  1
  H  H12  1  0.282532  0.141229  0.106744  1
  H  H13  1  0.129395  0.102697  0.294143  1
  H  H14  1  0.462751  0.161365  0.872006  1
  H  H15  1  0.722537  0.339915  0.810120  1
  H  H16  1  0.626335  0.384521  0.252763  1
  H  H17  1  0.239006  0.621880  0.367770  1
  H  H18  1  0.760796  0.870073  0.142589  1
  H  H19  1  0.118208  0.727485  0.857411  1
  H  H20  1  0.371236  0.254110  0.632230  1
  H  H21  1  0.873573  0.131758  0.747237  1
  H  H22  1  0.765316  0.575250  0.597853  1
  H  H23  1  0.303631  0.831599  0.228041  1
  H  H24  1  0.380010  0.636310  0.968906  1
  H  H25  1  0.975549  0.382663  0.660764  1
  H  H26  1  0.527735  0.196600  0.430966  1
  H  H27  1  0.412417  0.529795  0.189880  1
  H  H28  1  0.863749  0.237851  0.327880  1
  H  H29  1  0.911104  0.667404  0.031094  1
  H  H30  1  0.814784  0.721898  0.339236  1
  H  H31  1  0.154674  0.883546  0.460435  1
  H  H32  1  0.675788  0.034485  0.893256  1
  H  H33  1  0.335252  0.808553  0.705857  1
  H  H34  1  0.877617  0.458161  0.154055  1
  H  H35  1  0.596768  0.765634  0.569034  1
  H  H36  1  0.575589  0.603557  0.771959  1
  H  H37  1  0.035869  0.909971  0.672120  1
