# generated using pymatgen
data_YbCo4(Si2Ni)2
_symmetry_space_group_name_H-M   'P 1'
_cell_length_a   6.62555069
_cell_length_b   6.65128854
_cell_length_c   3.58039000
_cell_angle_alpha   90.00000000
_cell_angle_beta   90.00000000
_cell_angle_gamma   120.12858873
_symmetry_Int_Tables_number   1
_chemical_formula_structural   YbCo4(Si2Ni)2
_chemical_formula_sum   'Yb1 Co4 Si4 Ni2'
_cell_volume   136.46602506
_cell_formula_units_Z   1
loop_
 _symmetry_equiv_pos_site_id
 _symmetry_equiv_pos_as_xyz
  1  'x, y, z'
loop_
 _atom_site_type_symbol
 _atom_site_label
 _atom_site_symmetry_multiplicity
 _atom_site_fract_x
 _atom_site_fract_y
 _atom_site_fract_z
 _atom_site_occupancy
  Yb  Yb0  1  0.999146  0.999573  0.000000  1
  Co  Co1  1  0.532711  0.067426  0.000000  1
  Co  Co2  1  0.933940  0.466970  0.000000  1
  Co  Co3  1  0.532711  0.465287  0.000000  1
  Co  Co4  1  0.592391  0.796195  0.500001  1
  Si  Si5  1  0.339302  0.669650  0.000000  1
  Si  Si6  1  0.402472  0.201235  0.500001  1
  Si  Si7  1  0.797000  0.195656  0.500001  1
  Si  Si8  1  0.797000  0.601344  0.500001  1
  Ni  Ni9  1  0.203331  0.406105  0.500001  1
  Ni  Ni10  1  0.203331  0.797226  0.500001  1
