# generated using pymatgen
data_Sc3Ti3TcAs6Ru5
_symmetry_space_group_name_H-M   'P 1'
_cell_length_a   7.60120343
_cell_length_b   7.60293434
_cell_length_c   7.59271543
_cell_angle_alpha   128.21586381
_cell_angle_beta   121.41418380
_cell_angle_gamma   81.83833350
_symmetry_Int_Tables_number   1
_chemical_formula_structural   Sc3Ti3TcAs6Ru5
_chemical_formula_sum   'Sc3 Ti3 Tc1 As6 Ru5'
_cell_volume   283.36306846
_cell_formula_units_Z   1
loop_
 _symmetry_equiv_pos_site_id
 _symmetry_equiv_pos_as_xyz
  1  'x, y, z'
loop_
 _atom_site_type_symbol
 _atom_site_label
 _atom_site_symmetry_multiplicity
 _atom_site_fract_x
 _atom_site_fract_y
 _atom_site_fract_z
 _atom_site_occupancy
  Sc  Sc0  1  0.472207  0.243067  0.274100  1
  Sc  Sc1  1  0.527199  0.796104  0.768826  1
  Sc  Sc2  1  0.744665  0.664002  0.416699  1
  Ti  Ti3  1  0.254453  0.669890  0.921996  1
  Ti  Ti4  1  0.052323  0.847467  0.294171  1
  Ti  Ti5  1  0.948201  0.244319  0.792379  1
  Tc  Tc6  1  0.662288  0.492299  0.906251  1
  As  As7  1  0.845914  0.580096  0.757933  1
  As  As8  1  0.158733  0.911258  0.739666  1
  As  As9  1  0.675270  0.912634  0.255421  1
  As  As10  1  0.320611  0.576282  0.233210  1
  As  As11  1  0.283684  0.312713  0.526304  1
  As  As12  1  0.723307  0.208271  0.983271  1
  Ru  Ru13  1  0.339262  0.242929  0.833227  1
  Ru  Ru14  1  0.913837  0.246401  0.407189  1
  Ru  Ru15  1  0.079935  0.494122  0.325308  1
  Ru  Ru16  1  0.027274  0.001752  0.030701  1
  Ru  Ru17  1  0.470839  0.996791  0.473747  1
