# generated using pymatgen
data_Li2CaTbSi4
_symmetry_space_group_name_H-M   'P 1'
_cell_length_a   3.79836700
_cell_length_b   7.80372097
_cell_length_c   10.45077208
_cell_angle_alpha   89.39706249
_cell_angle_beta   90.00000000
_cell_angle_gamma   90.00000000
_symmetry_Int_Tables_number   1
_chemical_formula_structural   Li2CaTbSi4
_chemical_formula_sum   'Li4 Ca2 Tb2 Si8'
_cell_volume   309.75832395
_cell_formula_units_Z   2
loop_
 _symmetry_equiv_pos_site_id
 _symmetry_equiv_pos_as_xyz
  1  'x, y, z'
loop_
 _atom_site_type_symbol
 _atom_site_label
 _atom_site_symmetry_multiplicity
 _atom_site_fract_x
 _atom_site_fract_y
 _atom_site_fract_z
 _atom_site_occupancy
  Li  Li0  1  0.250000  0.998955  0.389746  1
  Li  Li1  1  0.750000  0.001045  0.610254  1
  Li  Li2  1  0.250000  0.492257  0.110823  1
  Li  Li3  1  0.750000  0.507743  0.889177  1
  Ca  Ca4  1  0.250000  0.636274  0.634595  1
  Ca  Ca5  1  0.750000  0.363726  0.365405  1
  Tb  Tb6  1  0.250000  0.130314  0.864929  1
  Tb  Tb7  1  0.750000  0.869686  0.135071  1
  Si  Si8  1  0.750000  0.263293  0.062743  1
  Si  Si9  1  0.250000  0.736707  0.937257  1
  Si  Si10  1  0.750000  0.773479  0.427250  1
  Si  Si11  1  0.250000  0.226521  0.572750  1
  Si  Si12  1  0.750000  0.842256  0.826793  1
  Si  Si13  1  0.250000  0.157744  0.173207  1
  Si  Si14  1  0.750000  0.330866  0.682805  1
  Si  Si15  1  0.250000  0.669134  0.317195  1
