# generated using pymatgen
data_CsK2TmBi2
_symmetry_space_group_name_H-M   'P 1'
_cell_length_a   10.35413004
_cell_length_b   10.35412863
_cell_length_c   10.35413100
_cell_angle_alpha   129.17347961
_cell_angle_beta   69.13575874
_cell_angle_gamma   136.42595898
_symmetry_Int_Tables_number   1
_chemical_formula_structural   CsK2TmBi2
_chemical_formula_sum   'Cs2 K4 Tm2 Bi4'
_cell_volume   582.37393454
_cell_formula_units_Z   2
loop_
 _symmetry_equiv_pos_site_id
 _symmetry_equiv_pos_as_xyz
  1  'x, y, z'
loop_
 _atom_site_type_symbol
 _atom_site_label
 _atom_site_symmetry_multiplicity
 _atom_site_fract_x
 _atom_site_fract_y
 _atom_site_fract_z
 _atom_site_occupancy
  Cs  Cs0  1  0.814860  0.787798  0.602658  1
  Cs  Cs1  1  0.685140  0.287798  0.972941  1
  K  K2  1  0.316000  0.697994  0.013992  1
  K  K3  1  0.184000  0.197994  0.381995  1
  K  K4  1  0.750000  0.251280  0.501280  1
  K  K5  1  0.250000  0.751279  0.501279  1
  Tm  Tm6  1  0.250000  0.252845  0.002845  1
  Tm  Tm7  1  0.750000  0.752845  0.002845  1
  Bi  Bi8  1  0.905059  0.204534  0.109592  1
  Bi  Bi9  1  0.594942  0.704535  0.299476  1
  Bi  Bi10  1  0.399436  0.305548  0.704985  1
  Bi  Bi11  1  0.100564  0.805548  0.906112  1
