# generated using pymatgen
data_Dy3B6Ir7Os
_symmetry_space_group_name_H-M   'P 1'
_cell_length_a   9.99020376
_cell_length_b   9.17000144
_cell_length_c   5.57370800
_cell_angle_alpha   81.36304114
_cell_angle_beta   65.16077241
_cell_angle_gamma   33.47619467
_symmetry_Int_Tables_number   1
_chemical_formula_structural   Dy3B6Ir7Os
_chemical_formula_sum   'Dy3 B6 Ir7 Os1'
_cell_volume   234.25551336
_cell_formula_units_Z   1
loop_
 _symmetry_equiv_pos_site_id
 _symmetry_equiv_pos_as_xyz
  1  'x, y, z'
loop_
 _atom_site_type_symbol
 _atom_site_label
 _atom_site_symmetry_multiplicity
 _atom_site_fract_x
 _atom_site_fract_y
 _atom_site_fract_z
 _atom_site_occupancy
  Dy  Dy0  1  0.000000  0.000000  0.000000  1
  Dy  Dy1  1  0.178908  0.178908  0.821092  1
  Dy  Dy2  1  0.821092  0.821092  0.178908  1
  B  B3  1  0.821347  0.529099  0.482758  1
  B  B4  1  0.166796  0.482758  0.529099  1
  B  B5  1  0.482758  0.166796  0.821347  1
  B  B6  1  0.670171  0.329829  0.670171  1
  B  B7  1  0.529099  0.821347  0.166796  1
  B  B8  1  0.329829  0.670171  0.329829  1
  Ir  Ir9  1  0.414149  0.414149  0.585851  1
  Ir  Ir10  1  0.585661  0.585661  0.914339  1
  Ir  Ir11  1  0.085952  0.085952  0.414048  1
  Ir  Ir12  1  0.914339  0.914339  0.585661  1
  Ir  Ir13  1  0.585851  0.585851  0.414149  1
  Ir  Ir14  1  0.250000  0.250000  0.250000  1
  Ir  Ir15  1  0.414048  0.414048  0.085952  1
  Os  Os16  1  0.750000  0.750000  0.750000  1
