# generated using pymatgen
data_Tb2ReB8W
_symmetry_space_group_name_H-M   'P 1'
_cell_length_a   3.62936000
_cell_length_b   6.01857254
_cell_length_c   11.64682105
_cell_angle_alpha   89.96449310
_cell_angle_beta   90.00000000
_cell_angle_gamma   90.00000000
_symmetry_Int_Tables_number   1
_chemical_formula_structural   Tb2ReB8W
_chemical_formula_sum   'Tb4 Re2 B16 W2'
_cell_volume   254.40806062
_cell_formula_units_Z   2
loop_
 _symmetry_equiv_pos_site_id
 _symmetry_equiv_pos_as_xyz
  1  'x, y, z'
loop_
 _atom_site_type_symbol
 _atom_site_label
 _atom_site_symmetry_multiplicity
 _atom_site_fract_x
 _atom_site_fract_y
 _atom_site_fract_z
 _atom_site_occupancy
  Tb  Tb0  1  0.000000  0.627764  0.149178  1
  Tb  Tb1  1  0.000000  0.372236  0.850822  1
  Tb  Tb2  1  0.000000  0.126705  0.349049  1
  Tb  Tb3  1  0.000000  0.873295  0.650951  1
  Re  Re4  1  0.000000  0.134081  0.086785  1
  Re  Re5  1  0.000000  0.865919  0.913215  1
  B  B6  1  0.500000  0.977241  0.190815  1
  B  B7  1  0.500000  0.022759  0.809185  1
  B  B8  1  0.500000  0.475910  0.306129  1
  B  B9  1  0.500000  0.524090  0.693871  1
  B  B10  1  0.500000  0.788937  0.313276  1
  B  B11  1  0.500000  0.211063  0.686724  1
  B  B12  1  0.500000  0.284799  0.183985  1
  B  B13  1  0.500000  0.715201  0.816015  1
  B  B14  1  0.500000  0.866521  0.467471  1
  B  B15  1  0.500000  0.133479  0.532529  1
  B  B16  1  0.500000  0.362626  0.030860  1
  B  B17  1  0.500000  0.637374  0.969140  1
  B  B18  1  0.500000  0.887183  0.046933  1
  B  B19  1  0.500000  0.112817  0.953067  1
  B  B20  1  0.500000  0.385488  0.452737  1
  B  B21  1  0.500000  0.614512  0.547263  1
  W  W22  1  0.000000  0.630039  0.414580  1
  W  W23  1  0.000000  0.369961  0.585420  1
