# generated using pymatgen
data_Ho2Ga9TcRu4
_symmetry_space_group_name_H-M   'P 1'
_cell_length_a   8.03233971
_cell_length_b   8.03233927
_cell_length_c   8.03234107
_cell_angle_alpha   134.59067417
_cell_angle_beta   134.59066892
_cell_angle_gamma   66.16687401
_symmetry_Int_Tables_number   1
_chemical_formula_structural   Ho2Ga9TcRu4
_chemical_formula_sum   'Ho2 Ga9 Tc1 Ru4'
_cell_volume   258.76077975
_cell_formula_units_Z   1
loop_
 _symmetry_equiv_pos_site_id
 _symmetry_equiv_pos_as_xyz
  1  'x, y, z'
loop_
 _atom_site_type_symbol
 _atom_site_label
 _atom_site_symmetry_multiplicity
 _atom_site_fract_x
 _atom_site_fract_y
 _atom_site_fract_z
 _atom_site_occupancy
  Ho  Ho0  1  0.000274  0.500274  0.500000  1
  Ho  Ho1  1  0.500274  0.000274  0.500000  1
  Ga  Ga2  1  0.437720  0.857861  0.000000  1
  Ga  Ga3  1  0.141999  0.141999  0.581256  1
  Ga  Ga4  1  0.857861  0.437720  0.000000  1
  Ga  Ga5  1  0.857861  0.857861  0.420140  1
  Ga  Ga6  1  0.560742  0.141999  0.000000  1
  Ga  Ga7  1  0.141999  0.560742  0.000000  1
  Ga  Ga8  1  0.560742  0.560742  0.418744  1
  Ga  Ga9  1  0.000313  0.000313  0.000000  1
  Ga  Ga10  1  0.437720  0.437720  0.579860  1
  Tc  Tc11  1  0.182071  0.182071  0.000000  1
  Ru  Ru12  1  0.819135  0.819135  0.000000  1
  Ru  Ru13  1  0.250436  0.750436  0.500000  1
  Ru  Ru14  1  0.750436  0.250436  0.500000  1
  Ru  Ru15  1  0.500416  0.500416  0.000000  1
