# generated using pymatgen
data_CaYLu2(B6Os)2
_symmetry_space_group_name_H-M   'P 1'
_cell_length_a   3.61513900
_cell_length_b   9.09812356
_cell_length_c   11.50618601
_cell_angle_alpha   89.85903684
_cell_angle_beta   90.00000000
_cell_angle_gamma   90.00000000
_symmetry_Int_Tables_number   1
_chemical_formula_structural   CaYLu2(B6Os)2
_chemical_formula_sum   'Ca2 Y2 Lu4 B24 Os4'
_cell_volume   378.44860352
_cell_formula_units_Z   2
loop_
 _symmetry_equiv_pos_site_id
 _symmetry_equiv_pos_as_xyz
  1  'x, y, z'
loop_
 _atom_site_type_symbol
 _atom_site_label
 _atom_site_symmetry_multiplicity
 _atom_site_fract_x
 _atom_site_fract_y
 _atom_site_fract_z
 _atom_site_occupancy
  Ca  Ca0  1  0.000000  0.323198  0.414840  1
  Ca  Ca1  1  0.000000  0.676802  0.585160  1
  Y  Y2  1  0.000000  0.821419  0.086262  1
  Y  Y3  1  0.000000  0.178581  0.913738  1
  Lu  Lu4  1  0.000000  0.942625  0.370517  1
  Lu  Lu5  1  0.000000  0.057375  0.629483  1
  Lu  Lu6  1  0.000000  0.443265  0.129699  1
  Lu  Lu7  1  0.000000  0.556735  0.870301  1
  B  B8  1  0.500000  0.554334  0.431848  1
  B  B9  1  0.500000  0.445666  0.568152  1
  B  B10  1  0.500000  0.054096  0.067000  1
  B  B11  1  0.500000  0.945904  0.933000  1
  B  B12  1  0.500000  0.749655  0.417262  1
  B  B13  1  0.500000  0.250345  0.582738  1
  B  B14  1  0.500000  0.249928  0.081489  1
  B  B15  1  0.500000  0.750072  0.918511  1
  B  B16  1  0.500000  0.792228  0.264555  1
  B  B17  1  0.500000  0.207772  0.735444  1
  B  B18  1  0.500000  0.291259  0.233934  1
  B  B19  1  0.500000  0.708741  0.766067  1
  B  B20  1  0.500000  0.630634  0.184446  1
  B  B21  1  0.500000  0.369366  0.815554  1
  B  B22  1  0.500000  0.130080  0.314262  1
  B  B23  1  0.500000  0.869920  0.685738  1
  B  B24  1  0.500000  0.982752  0.212378  1
  B  B25  1  0.500000  0.017248  0.787622  1
  B  B26  1  0.500000  0.483299  0.286912  1
  B  B27  1  0.500000  0.516701  0.713088  1
  B  B28  1  0.500000  0.600903  0.027622  1
  B  B29  1  0.500000  0.399097  0.972378  1
  B  B30  1  0.500000  0.097866  0.473158  1
  B  B31  1  0.500000  0.902134  0.526842  1
  Os  Os32  1  0.000000  0.640783  0.317478  1
  Os  Os33  1  0.000000  0.359217  0.682522  1
  Os  Os34  1  0.000000  0.137561  0.178487  1
  Os  Os35  1  0.000000  0.862439  0.821513  1
