# generated using pymatgen
data_Ca11Pr8YSi16
_symmetry_space_group_name_H-M   'P 1'
_cell_length_a   7.52568608
_cell_length_b   7.99648522
_cell_length_c   15.24882627
_cell_angle_alpha   89.97857750
_cell_angle_beta   90.00096768
_cell_angle_gamma   89.98335646
_symmetry_Int_Tables_number   1
_chemical_formula_structural   Ca11Pr8YSi16
_chemical_formula_sum   'Ca11 Pr8 Y1 Si16'
_cell_volume   917.65958537
_cell_formula_units_Z   1
loop_
 _symmetry_equiv_pos_site_id
 _symmetry_equiv_pos_as_xyz
  1  'x, y, z'
loop_
 _atom_site_type_symbol
 _atom_site_label
 _atom_site_symmetry_multiplicity
 _atom_site_fract_x
 _atom_site_fract_y
 _atom_site_fract_z
 _atom_site_occupancy
  Ca  Ca0  1  0.321232  0.182188  0.622563  1
  Ca  Ca1  1  0.678686  0.818146  0.377590  1
  Ca  Ca2  1  0.648225  0.998412  0.749719  1
  Ca  Ca3  1  0.179971  0.681694  0.377559  1
  Ca  Ca4  1  0.820956  0.318437  0.878053  1
  Ca  Ca5  1  0.821357  0.317634  0.622364  1
  Ca  Ca6  1  0.853793  0.495401  0.251351  1
  Ca  Ca7  1  0.349325  0.004082  0.250776  1
  Ca  Ca8  1  0.320920  0.181189  0.878742  1
  Ca  Ca9  1  0.178945  0.683163  0.121444  1
  Ca  Ca10  1  0.147543  0.501357  0.749658  1
  Pr  Pr11  1  0.025690  0.185195  0.401646  1
  Pr  Pr12  1  0.525215  0.314951  0.402290  1
  Pr  Pr13  1  0.472756  0.685862  0.900637  1
  Pr  Pr14  1  0.473808  0.686136  0.598734  1
  Pr  Pr15  1  0.973786  0.813748  0.598472  1
  Pr  Pr16  1  0.973102  0.813438  0.900809  1
  Pr  Pr17  1  0.526529  0.314682  0.098839  1
  Pr  Pr18  1  0.025815  0.186643  0.097301  1
  Y  Y19  1  0.677719  0.816334  0.123704  1
  Si  Si20  1  0.258656  0.874063  0.750496  1
  Si  Si21  1  0.471659  0.594090  0.246985  1
  Si  Si22  1  0.031960  0.089876  0.750284  1
  Si  Si23  1  0.531821  0.409489  0.750751  1
  Si  Si24  1  0.144182  0.472829  0.536772  1
  Si  Si25  1  0.964518  0.906687  0.245968  1
  Si  Si26  1  0.739170  0.122013  0.247140  1
  Si  Si27  1  0.852126  0.533224  0.038239  1
  Si  Si28  1  0.362574  0.971352  0.039537  1
  Si  Si29  1  0.141073  0.472984  0.963467  1
  Si  Si30  1  0.643501  0.027104  0.536894  1
  Si  Si31  1  0.356107  0.973717  0.462567  1
  Si  Si32  1  0.856771  0.526502  0.462389  1
  Si  Si33  1  0.758284  0.626355  0.750376  1
  Si  Si34  1  0.243645  0.376213  0.249505  1
  Si  Si35  1  0.648579  0.024813  0.966375  1
