# generated using pymatgen
data_Tb3PrCdPd
_symmetry_space_group_name_H-M   'P 1'
_cell_length_a   9.84785423
_cell_length_b   9.81030769
_cell_length_c   9.81030713
_cell_angle_alpha   60.25337507
_cell_angle_beta   59.87331027
_cell_angle_gamma   59.87331506
_symmetry_Int_Tables_number   1
_chemical_formula_structural   Tb3PrCdPd
_chemical_formula_sum   'Tb12 Pr4 Cd4 Pd4'
_cell_volume   670.16088403
_cell_formula_units_Z   4
loop_
 _symmetry_equiv_pos_site_id
 _symmetry_equiv_pos_as_xyz
  1  'x, y, z'
loop_
 _atom_site_type_symbol
 _atom_site_label
 _atom_site_symmetry_multiplicity
 _atom_site_fract_x
 _atom_site_fract_y
 _atom_site_fract_z
 _atom_site_occupancy
  Tb  Tb0  1  0.352592  0.351964  0.351964  1
  Tb  Tb1  1  0.351964  0.352592  0.943480  1
  Tb  Tb2  1  0.351964  0.943480  0.352592  1
  Tb  Tb3  1  0.943480  0.351964  0.351964  1
  Tb  Tb4  1  0.811045  0.188955  0.188955  1
  Tb  Tb5  1  0.188955  0.811045  0.811045  1
  Tb  Tb6  1  0.189263  0.810737  0.189263  1
  Tb  Tb7  1  0.810737  0.189263  0.810737  1
  Tb  Tb8  1  0.189263  0.189263  0.810737  1
  Tb  Tb9  1  0.810737  0.810737  0.189263  1
  Tb  Tb10  1  0.939830  0.560170  0.560170  1
  Tb  Tb11  1  0.560170  0.939830  0.939830  1
  Pr  Pr12  1  0.565067  0.934933  0.565067  1
  Pr  Pr13  1  0.934933  0.565067  0.934933  1
  Pr  Pr14  1  0.565067  0.565067  0.934933  1
  Pr  Pr15  1  0.934933  0.934933  0.565067  1
  Cd  Cd16  1  0.583237  0.578798  0.578798  1
  Cd  Cd17  1  0.578798  0.583237  0.259166  1
  Cd  Cd18  1  0.578798  0.259166  0.583237  1
  Cd  Cd19  1  0.259166  0.578798  0.578798  1
  Pd  Pd20  1  0.145954  0.142993  0.142993  1
  Pd  Pd21  1  0.142993  0.145954  0.568061  1
  Pd  Pd22  1  0.142993  0.568061  0.145954  1
  Pd  Pd23  1  0.568061  0.142993  0.142993  1
