# generated using pymatgen
data_Ca8ZrSnN8
_symmetry_space_group_name_H-M   'P 1'
_cell_length_a   6.14642033
_cell_length_b   6.13864548
_cell_length_c   9.29109339
_cell_angle_alpha   84.81885048
_cell_angle_beta   108.92610701
_cell_angle_gamma   111.41071947
_symmetry_Int_Tables_number   1
_chemical_formula_structural   Ca8ZrSnN8
_chemical_formula_sum   'Ca8 Zr1 Sn1 N8'
_cell_volume   308.56512835
_cell_formula_units_Z   1
loop_
 _symmetry_equiv_pos_site_id
 _symmetry_equiv_pos_as_xyz
  1  'x, y, z'
loop_
 _atom_site_type_symbol
 _atom_site_label
 _atom_site_symmetry_multiplicity
 _atom_site_fract_x
 _atom_site_fract_y
 _atom_site_fract_z
 _atom_site_occupancy
  Ca  Ca0  1  0.815915  0.271136  0.196382  1
  Ca  Ca1  1  0.185705  0.729394  0.805436  1
  Ca  Ca2  1  0.240375  0.243354  0.993002  1
  Ca  Ca3  1  0.760863  0.751682  0.004448  1
  Ca  Ca4  1  0.055020  0.262689  0.576750  1
  Ca  Ca5  1  0.951060  0.738322  0.427119  1
  Ca  Ca6  1  0.541213  0.750465  0.597583  1
  Ca  Ca7  1  0.467379  0.248690  0.410209  1
  Zr  Zr8  1  0.393441  0.719996  0.235422  1
  Sn  Sn9  1  0.605801  0.280061  0.764558  1
  N  N10  1  0.305356  0.009520  0.612009  1
  N  N11  1  0.685752  0.988187  0.385028  1
  N  N12  1  0.810389  0.152118  0.952204  1
  N  N13  1  0.187486  0.843847  0.044193  1
  N  N14  1  0.415372  0.492124  0.800405  1
  N  N15  1  0.578005  0.510838  0.196283  1
  N  N16  1  0.197472  0.512109  0.380443  1
  N  N17  1  0.803396  0.495469  0.618527  1
