# generated using pymatgen
data_NaTb4Er2Co6Sn23
_symmetry_space_group_name_H-M   'P 1'
_cell_length_a   9.72585953
_cell_length_b   9.71827118
_cell_length_c   9.96771602
_cell_angle_alpha   89.99999959
_cell_angle_beta   89.98766938
_cell_angle_gamma   119.97419567
_symmetry_Int_Tables_number   1
_chemical_formula_structural   NaTb4Er2Co6Sn23
_chemical_formula_sum   'Na1 Tb4 Er2 Co6 Sn23'
_cell_volume   816.12399723
_cell_formula_units_Z   1
loop_
 _symmetry_equiv_pos_site_id
 _symmetry_equiv_pos_as_xyz
  1  'x, y, z'
loop_
 _atom_site_type_symbol
 _atom_site_label
 _atom_site_symmetry_multiplicity
 _atom_site_fract_x
 _atom_site_fract_y
 _atom_site_fract_z
 _atom_site_occupancy
  Na  Na0  1  0.000000  0.000000  0.000000  1
  Tb  Tb1  1  0.479698  0.520534  0.305478  1
  Tb  Tb2  1  0.520302  0.479466  0.694522  1
  Tb  Tb3  1  0.479698  0.959165  0.305478  1
  Tb  Tb4  1  0.520302  0.040835  0.694522  1
  Er  Er5  1  0.039639  0.519820  0.305034  1
  Er  Er6  1  0.960361  0.480180  0.694966  1
  Co  Co7  1  0.830139  0.171605  0.201258  1
  Co  Co8  1  0.169861  0.828395  0.798742  1
  Co  Co9  1  0.830139  0.658535  0.201258  1
  Co  Co10  1  0.169861  0.341465  0.798742  1
  Co  Co11  1  0.340564  0.170282  0.200832  1
  Co  Co12  1  0.659436  0.829718  0.799168  1
  Sn  Sn13  1  0.115660  0.883509  0.271702  1
  Sn  Sn14  1  0.884340  0.116491  0.728298  1
  Sn  Sn15  1  0.115660  0.232152  0.271702  1
  Sn  Sn16  1  0.884340  0.767848  0.728298  1
  Sn  Sn17  1  0.769449  0.884724  0.271709  1
  Sn  Sn18  1  0.230551  0.115276  0.728291  1
  Sn  Sn19  1  0.782506  0.220099  0.454098  1
  Sn  Sn20  1  0.217494  0.779901  0.545902  1
  Sn  Sn21  1  0.782506  0.562407  0.454098  1
  Sn  Sn22  1  0.217494  0.437593  0.545902  1
  Sn  Sn23  1  0.437175  0.218588  0.453745  1
  Sn  Sn24  1  0.562825  0.781412  0.546255  1
  Sn  Sn25  1  0.343245  0.999689  0.999824  1
  Sn  Sn26  1  0.656755  0.000311  0.000176  1
  Sn  Sn27  1  0.000000  0.343890  0.000000  1
  Sn  Sn28  1  0.000000  0.656110  0.000000  1
  Sn  Sn29  1  0.656755  0.656444  0.000176  1
  Sn  Sn30  1  0.343245  0.343556  0.999824  1
  Sn  Sn31  1  0.331124  0.665563  0.116381  1
  Sn  Sn32  1  0.668876  0.334437  0.883619  1
  Sn  Sn33  1  0.333132  0.666566  0.814659  1
  Sn  Sn34  1  0.666868  0.333434  0.185341  1
  Sn  Sn35  1  0.000000  0.000000  0.500000  1
