# generated using pymatgen
data_PaGeH
_symmetry_space_group_name_H-M   'P 1'
_cell_length_a   5.91761163
_cell_length_b   5.91761178
_cell_length_c   4.22945600
_cell_angle_alpha   90.00000000
_cell_angle_beta   90.00000000
_cell_angle_gamma   140.88301630
_symmetry_Int_Tables_number   1
_chemical_formula_structural   PaGeH
_chemical_formula_sum   'Pa2 Ge2 H2'
_cell_volume   93.44196711
_cell_formula_units_Z   2
loop_
 _symmetry_equiv_pos_site_id
 _symmetry_equiv_pos_as_xyz
  1  'x, y, z'
loop_
 _atom_site_type_symbol
 _atom_site_label
 _atom_site_symmetry_multiplicity
 _atom_site_fract_x
 _atom_site_fract_y
 _atom_site_fract_z
 _atom_site_occupancy
  Pa  Pa0  1  0.149795  0.850205  0.750000  1
  Pa  Pa1  1  0.850205  0.149795  0.250000  1
  Ge  Ge2  1  0.426089  0.573911  0.750000  1
  Ge  Ge3  1  0.573911  0.426089  0.250000  1
  H  H4  1  0.756005  0.243995  0.750000  1
  H  H5  1  0.243995  0.756005  0.250000  1
