# generated using pymatgen
data_La8Al5Ga3Rh8
_symmetry_space_group_name_H-M   'P 1'
_cell_length_a   4.27481400
_cell_length_b   7.31537710
_cell_length_c   16.16403567
_cell_angle_alpha   89.75078925
_cell_angle_beta   90.00000000
_cell_angle_gamma   90.00000000
_symmetry_Int_Tables_number   1
_chemical_formula_structural   La8Al5Ga3Rh8
_chemical_formula_sum   'La8 Al5 Ga3 Rh8'
_cell_volume   505.47494477
_cell_formula_units_Z   1
loop_
 _symmetry_equiv_pos_site_id
 _symmetry_equiv_pos_as_xyz
  1  'x, y, z'
loop_
 _atom_site_type_symbol
 _atom_site_label
 _atom_site_symmetry_multiplicity
 _atom_site_fract_x
 _atom_site_fract_y
 _atom_site_fract_z
 _atom_site_occupancy
  La  La0  1  0.250000  0.513278  0.780238  1
  La  La1  1  0.750000  0.488413  0.220194  1
  La  La2  1  0.750000  0.985509  0.281322  1
  La  La3  1  0.250000  0.012889  0.719544  1
  La  La4  1  0.250000  0.653561  0.560280  1
  La  La5  1  0.750000  0.346142  0.439838  1
  La  La6  1  0.750000  0.845483  0.059627  1
  La  La7  1  0.250000  0.152917  0.939264  1
  Al  Al8  1  0.250000  0.158192  0.148831  1
  Al  Al9  1  0.250000  0.505450  0.060384  1
  Al  Al10  1  0.750000  0.493469  0.939756  1
  Al  Al11  1  0.750000  0.993958  0.560480  1
  Al  Al12  1  0.250000  0.005926  0.439911  1
  Ga  Ga13  1  0.250000  0.655893  0.351016  1
  Ga  Ga14  1  0.750000  0.343844  0.649283  1
  Ga  Ga15  1  0.750000  0.844187  0.850384  1
  Rh  Rh16  1  0.250000  0.776025  0.176964  1
  Rh  Rh17  1  0.750000  0.230040  0.822741  1
  Rh  Rh18  1  0.750000  0.729930  0.677360  1
  Rh  Rh19  1  0.250000  0.269854  0.320701  1
  Rh  Rh20  1  0.250000  0.710861  0.928406  1
  Rh  Rh21  1  0.750000  0.284657  0.073384  1
  Rh  Rh22  1  0.750000  0.787809  0.428692  1
  Rh  Rh23  1  0.250000  0.211712  0.571399  1
