# generated using pymatgen
data_Mn3V16Si12Mo
_symmetry_space_group_name_H-M   'P 1'
_cell_length_a   7.01257652
_cell_length_b   7.01414862
_cell_length_c   13.22754829
_cell_angle_alpha   89.97828991
_cell_angle_beta   90.01040943
_cell_angle_gamma   140.69935609
_symmetry_Int_Tables_number   1
_chemical_formula_structural   Mn3V16Si12Mo
_chemical_formula_sum   'Mn3 V16 Si12 Mo1'
_cell_volume   412.10017772
_cell_formula_units_Z   1
loop_
 _symmetry_equiv_pos_site_id
 _symmetry_equiv_pos_as_xyz
  1  'x, y, z'
loop_
 _atom_site_type_symbol
 _atom_site_label
 _atom_site_symmetry_multiplicity
 _atom_site_fract_x
 _atom_site_fract_y
 _atom_site_fract_z
 _atom_site_occupancy
  Mn  Mn0  1  0.501423  0.501521  0.999979  1
  Mn  Mn1  1  0.500450  0.499098  0.500639  1
  Mn  Mn2  1  0.999449  0.999530  0.999951  1
  V  V3  1  0.574649  0.929376  0.902478  1
  V  V4  1  0.421324  0.068941  0.600280  1
  V  V5  1  0.929188  0.574765  0.097082  1
  V  V6  1  0.851969  0.654546  0.678007  1
  V  V7  1  0.347461  0.152530  0.175466  1
  V  V8  1  0.653165  0.849362  0.321650  1
  V  V9  1  0.152083  0.347869  0.824011  1
  V  V10  1  0.654327  0.852159  0.677726  1
  V  V11  1  0.152601  0.347555  0.174803  1
  V  V12  1  0.852058  0.655027  0.322660  1
  V  V13  1  0.347938  0.151987  0.823916  1
  V  V14  1  0.422110  0.069055  0.400513  1
  V  V15  1  0.929042  0.574629  0.902365  1
  V  V16  1  0.069346  0.421938  0.601472  1
  V  V17  1  0.574950  0.928745  0.097066  1
  V  V18  1  0.999838  0.998508  0.500651  1
  Si  Si19  1  0.250634  0.749505  0.751655  1
  Si  Si20  1  0.747662  0.250614  0.246925  1
  Si  Si21  1  0.749326  0.250854  0.751596  1
  Si  Si22  1  0.250913  0.751478  0.246910  1
  Si  Si23  1  0.255987  0.255997  0.663770  1
  Si  Si24  1  0.752099  0.751800  0.159661  1
  Si  Si25  1  0.258192  0.253653  0.336102  1
  Si  Si26  1  0.751946  0.752090  0.840166  1
  Si  Si27  1  0.577523  0.904022  0.501105  1
  Si  Si28  1  0.090650  0.410238  0.999600  1
  Si  Si29  1  0.902669  0.578335  0.501773  1
  Si  Si30  1  0.410067  0.090994  0.999866  1
  Mo  Mo31  1  0.068960  0.423281  0.400157  1
