# generated using pymatgen
data_DyHf7Ti12Si15P
_symmetry_space_group_name_H-M   'P 1'
_cell_length_a   6.83277892
_cell_length_b   6.83819945
_cell_length_c   12.52612519
_cell_angle_alpha   89.95171962
_cell_angle_beta   89.89004133
_cell_angle_gamma   89.96184157
_symmetry_Int_Tables_number   1
_chemical_formula_structural   DyHf7Ti12Si15P
_chemical_formula_sum   'Dy1 Hf7 Ti12 Si15 P1'
_cell_volume   585.26806959
_cell_formula_units_Z   1
loop_
 _symmetry_equiv_pos_site_id
 _symmetry_equiv_pos_as_xyz
  1  'x, y, z'
loop_
 _atom_site_type_symbol
 _atom_site_label
 _atom_site_symmetry_multiplicity
 _atom_site_fract_x
 _atom_site_fract_y
 _atom_site_fract_z
 _atom_site_occupancy
  Dy  Dy0  1  0.338898  0.000804  0.468003  1
  Hf  Hf1  1  0.000588  0.656347  0.031437  1
  Hf  Hf2  1  0.998207  0.349981  0.532721  1
  Hf  Hf3  1  0.656383  0.000743  0.967993  1
  Hf  Hf4  1  0.155685  0.499268  0.783222  1
  Hf  Hf5  1  0.844355  0.502852  0.280745  1
  Hf  Hf6  1  0.499098  0.156580  0.216306  1
  Hf  Hf7  1  0.502372  0.843647  0.718017  1
  Ti  Ti8  1  0.342457  0.505619  0.376954  1
  Ti  Ti9  1  0.850224  0.990863  0.373381  1
  Ti  Ti10  1  0.003066  0.152113  0.125322  1
  Ti  Ti11  1  0.997733  0.843332  0.625550  1
  Ti  Ti12  1  0.507678  0.346803  0.624494  1
  Ti  Ti13  1  0.151597  0.003676  0.874459  1
  Ti  Ti14  1  0.675286  0.670193  0.499829  1
  Ti  Ti15  1  0.829095  0.171674  0.751394  1
  Ti  Ti16  1  0.168148  0.826046  0.250358  1
  Ti  Ti17  1  0.329020  0.328986  0.000269  1
  Ti  Ti18  1  0.496698  0.651930  0.121459  1
  Ti  Ti19  1  0.652663  0.496303  0.877453  1
  Si  Si20  1  0.954815  0.294563  0.936115  1
  Si  Si21  1  0.712169  0.047431  0.565237  1
  Si  Si22  1  0.205689  0.456057  0.184438  1
  Si  Si23  1  0.794251  0.545603  0.687261  1
  Si  Si24  1  0.454355  0.205724  0.815064  1
  Si  Si25  1  0.547541  0.791199  0.311421  1
  Si  Si26  1  0.293568  0.954397  0.064323  1
  Si  Si27  1  0.794957  0.864590  0.176158  1
  Si  Si28  1  0.296949  0.629721  0.577108  1
  Si  Si29  1  0.705823  0.364278  0.072798  1
  Si  Si30  1  0.639231  0.298621  0.426998  1
  Si  Si31  1  0.363998  0.705548  0.926980  1
  Si  Si32  1  0.130865  0.209574  0.318193  1
  Si  Si33  1  0.201442  0.137884  0.681262  1
  Si  Si34  1  0.864437  0.794558  0.822671  1
  P  P35  1  0.040663  0.702488  0.434606  1
