# generated using pymatgen
data_La8Pu12Si15As
_symmetry_space_group_name_H-M   'P 1'
_cell_length_a   7.50620000
_cell_length_b   7.80157255
_cell_length_c   14.64434600
_cell_angle_alpha   90.00000000
_cell_angle_beta   90.00000000
_cell_angle_gamma   90.40670676
_symmetry_Int_Tables_number   1
_chemical_formula_structural   La8Pu12Si15As
_chemical_formula_sum   'La8 Pu12 Si15 As1'
_cell_volume   857.55369616
_cell_formula_units_Z   1
loop_
 _symmetry_equiv_pos_site_id
 _symmetry_equiv_pos_as_xyz
  1  'x, y, z'
loop_
 _atom_site_type_symbol
 _atom_site_label
 _atom_site_symmetry_multiplicity
 _atom_site_fract_x
 _atom_site_fract_y
 _atom_site_fract_z
 _atom_site_occupancy
  La  La0  1  0.015380  0.182316  0.405633  1
  La  La1  1  0.516109  0.319832  0.403166  1
  La  La2  1  0.487768  0.674884  0.905994  1
  La  La3  1  0.487768  0.674884  0.594006  1
  La  La4  1  0.983712  0.820811  0.597109  1
  La  La5  1  0.983712  0.820811  0.902891  1
  La  La6  1  0.516109  0.319832  0.096834  1
  La  La7  1  0.015380  0.182316  0.094367  1
  Pu  Pu8  1  0.327269  0.178351  0.623875  1
  Pu  Pu9  1  0.675877  0.814352  0.369881  1
  Pu  Pu10  1  0.649307  0.019559  0.750000  1
  Pu  Pu11  1  0.168249  0.680610  0.371500  1
  Pu  Pu12  1  0.823237  0.317152  0.875138  1
  Pu  Pu13  1  0.823237  0.317152  0.624862  1
  Pu  Pu14  1  0.853210  0.558657  0.250000  1
  Pu  Pu15  1  0.356981  0.980816  0.250000  1
  Pu  Pu16  1  0.327269  0.178351  0.876125  1
  Pu  Pu17  1  0.168249  0.680610  0.128500  1
  Pu  Pu18  1  0.675877  0.814352  0.130119  1
  Pu  Pu19  1  0.141712  0.469381  0.750000  1
  Si  Si20  1  0.463612  0.590565  0.250000  1
  Si  Si21  1  0.029598  0.097640  0.750000  1
  Si  Si22  1  0.531781  0.405753  0.750000  1
  Si  Si23  1  0.145975  0.471032  0.537713  1
  Si  Si24  1  0.970897  0.919734  0.250000  1
  Si  Si25  1  0.730861  0.131907  0.250000  1
  Si  Si26  1  0.853676  0.531829  0.036519  1
  Si  Si27  1  0.356811  0.963785  0.038631  1
  Si  Si28  1  0.145975  0.471032  0.962287  1
  Si  Si29  1  0.646623  0.027962  0.534673  1
  Si  Si30  1  0.356811  0.963785  0.461369  1
  Si  Si31  1  0.853676  0.531829  0.463481  1
  Si  Si32  1  0.769364  0.626446  0.750000  1
  Si  Si33  1  0.224422  0.372666  0.250000  1
  Si  Si34  1  0.646623  0.027962  0.965327  1
  As  As35  1  0.276889  0.861043  0.750000  1
