# generated using pymatgen
data_Lu4Al18Os2Pt3Rh
_symmetry_space_group_name_H-M   'P 1'
_cell_length_a   7.54154870
_cell_length_b   7.54154904
_cell_length_c   9.39929403
_cell_angle_alpha   90.00428423
_cell_angle_beta   90.00428740
_cell_angle_gamma   119.00688879
_symmetry_Int_Tables_number   1
_chemical_formula_structural   Lu4Al18Os2Pt3Rh
_chemical_formula_sum   'Lu4 Al18 Os2 Pt3 Rh1'
_cell_volume   467.52693944
_cell_formula_units_Z   1
loop_
 _symmetry_equiv_pos_site_id
 _symmetry_equiv_pos_as_xyz
  1  'x, y, z'
loop_
 _atom_site_type_symbol
 _atom_site_label
 _atom_site_symmetry_multiplicity
 _atom_site_fract_x
 _atom_site_fract_y
 _atom_site_fract_z
 _atom_site_occupancy
  Lu  Lu0  1  0.993946  0.681154  0.250687  1
  Lu  Lu1  1  0.006465  0.319058  0.749455  1
  Lu  Lu2  1  0.680942  0.993535  0.250545  1
  Lu  Lu3  1  0.318846  0.006054  0.749313  1
  Al  Al4  1  0.131597  0.132280  0.250394  1
  Al  Al5  1  0.867720  0.868403  0.749606  1
  Al  Al6  1  0.999963  0.334059  0.078245  1
  Al  Al7  1  0.999090  0.666239  0.921475  1
  Al  Al8  1  0.996751  0.662670  0.577342  1
  Al  Al9  1  0.337330  0.003249  0.422658  1
  Al  Al10  1  0.996115  0.333527  0.422837  1
  Al  Al11  1  0.666473  0.003885  0.577163  1
  Al  Al12  1  0.665941  0.000037  0.921755  1
  Al  Al13  1  0.333761  0.000910  0.078525  1
  Al  Al14  1  0.331364  0.328061  0.550301  1
  Al  Al15  1  0.671939  0.668636  0.449699  1
  Al  Al16  1  0.671579  0.671569  0.052943  1
  Al  Al17  1  0.328431  0.328421  0.947057  1
  Al  Al18  1  0.344070  0.551185  0.250374  1
  Al  Al19  1  0.656023  0.445347  0.746894  1
  Al  Al20  1  0.554653  0.343977  0.253106  1
  Al  Al21  1  0.448815  0.655930  0.749626  1
  Os  Os22  1  0.999765  0.000235  0.000000  1
  Os  Os23  1  0.999944  0.000056  0.500000  1
  Pt  Pt24  1  0.672302  0.327698  0.000000  1
  Pt  Pt25  1  0.327043  0.672957  0.000000  1
  Pt  Pt26  1  0.327039  0.672961  0.500000  1
  Rh  Rh27  1  0.672095  0.327905  0.500000  1
