# generated using pymatgen
data_Th4P8Os7Ru
_symmetry_space_group_name_H-M   'P 1'
_cell_length_a   4.17918400
_cell_length_b   7.60644490
_cell_length_c   10.54981564
_cell_angle_alpha   90.08110614
_cell_angle_beta   90.00000000
_cell_angle_gamma   90.00000000
_symmetry_Int_Tables_number   1
_chemical_formula_structural   Th4P8Os7Ru
_chemical_formula_sum   'Th4 P8 Os7 Ru1'
_cell_volume   335.36493501
_cell_formula_units_Z   1
loop_
 _symmetry_equiv_pos_site_id
 _symmetry_equiv_pos_as_xyz
  1  'x, y, z'
loop_
 _atom_site_type_symbol
 _atom_site_label
 _atom_site_symmetry_multiplicity
 _atom_site_fract_x
 _atom_site_fract_y
 _atom_site_fract_z
 _atom_site_occupancy
  Th  Th0  1  0.250000  0.267782  0.668121  1
  Th  Th1  1  0.750000  0.732606  0.332262  1
  Th  Th2  1  0.250000  0.766306  0.830912  1
  Th  Th3  1  0.750000  0.232963  0.168517  1
  P  P4  1  0.250000  0.094063  0.967905  1
  P  P5  1  0.750000  0.905353  0.031805  1
  P  P6  1  0.250000  0.595113  0.531585  1
  P  P7  1  0.750000  0.405716  0.468583  1
  P  P8  1  0.250000  0.529718  0.160631  1
  P  P9  1  0.750000  0.469539  0.840791  1
  P  P10  1  0.250000  0.029700  0.339550  1
  P  P11  1  0.750000  0.970981  0.660009  1
  Os  Os12  1  0.750000  0.110185  0.449711  1
  Os  Os13  1  0.250000  0.890219  0.550272  1
  Os  Os14  1  0.750000  0.610235  0.050234  1
  Os  Os15  1  0.250000  0.389702  0.949981  1
  Os  Os16  1  0.250000  0.870430  0.132810  1
  Os  Os17  1  0.750000  0.129458  0.867377  1
  Os  Os18  1  0.250000  0.369700  0.366616  1
  Ru  Ru19  1  0.750000  0.630230  0.632327  1
