# generated using pymatgen
data_Li2SiSbPd4
_symmetry_space_group_name_H-M   'P 1'
_cell_length_a   7.67093475
_cell_length_b   7.67093486
_cell_length_c   7.67093628
_cell_angle_alpha   32.85424503
_cell_angle_beta   32.85424231
_cell_angle_gamma   32.85425680
_symmetry_Int_Tables_number   1
_chemical_formula_structural   Li2SiSbPd4
_chemical_formula_sum   'Li2 Si1 Sb1 Pd4'
_cell_volume   118.19420709
_cell_formula_units_Z   1
loop_
 _symmetry_equiv_pos_site_id
 _symmetry_equiv_pos_as_xyz
  1  'x, y, z'
loop_
 _atom_site_type_symbol
 _atom_site_label
 _atom_site_symmetry_multiplicity
 _atom_site_fract_x
 _atom_site_fract_y
 _atom_site_fract_z
 _atom_site_occupancy
  Li  Li0  1  0.252646  0.252646  0.252646  1
  Li  Li1  1  0.747354  0.747354  0.747354  1
  Si  Si2  1  0.500000  0.500000  0.500000  1
  Sb  Sb3  1  0.000000  0.000000  0.000000  1
  Pd  Pd4  1  0.611646  0.611646  0.611646  1
  Pd  Pd5  1  0.132167  0.132167  0.132167  1
  Pd  Pd6  1  0.867833  0.867833  0.867833  1
  Pd  Pd7  1  0.388354  0.388354  0.388354  1
