# generated using pymatgen
data_Yb3Tm(Al3Ir)2
_symmetry_space_group_name_H-M   'P 1'
_cell_length_a   5.51985600
_cell_length_b   5.51985418
_cell_length_c   8.73359400
_cell_angle_alpha   90.00000000
_cell_angle_beta   90.00000000
_cell_angle_gamma   119.99999891
_symmetry_Int_Tables_number   1
_chemical_formula_structural   Yb3Tm(Al3Ir)2
_chemical_formula_sum   'Yb3 Tm1 Al6 Ir2'
_cell_volume   230.45120787
_cell_formula_units_Z   1
loop_
 _symmetry_equiv_pos_site_id
 _symmetry_equiv_pos_as_xyz
  1  'x, y, z'
loop_
 _atom_site_type_symbol
 _atom_site_label
 _atom_site_symmetry_multiplicity
 _atom_site_fract_x
 _atom_site_fract_y
 _atom_site_fract_z
 _atom_site_occupancy
  Yb  Yb0  1  0.666668  0.333334  0.055624  1
  Yb  Yb1  1  0.666668  0.333334  0.444618  1
  Yb  Yb2  1  0.333333  0.666666  0.553928  1
  Tm  Tm3  1  0.333333  0.666666  0.948797  1
  Al  Al4  1  0.162068  0.324134  0.248259  1
  Al  Al5  1  0.162067  0.837932  0.248259  1
  Al  Al6  1  0.675865  0.837932  0.248259  1
  Al  Al7  1  0.323624  0.161812  0.751019  1
  Al  Al8  1  0.838187  0.161812  0.751019  1
  Al  Al9  1  0.838188  0.676376  0.751019  1
  Ir  Ir10  1  0.000000  0.000000  0.999375  1
  Ir  Ir11  1  0.000000  0.000000  0.499821  1
