# generated using pymatgen
data_Pr16Cd4Pd3Ru
_symmetry_space_group_name_H-M   'P 1'
_cell_length_a   10.14016246
_cell_length_b   10.14016344
_cell_length_c   10.14016213
_cell_angle_alpha   59.44191311
_cell_angle_beta   59.44191135
_cell_angle_gamma   59.44191229
_symmetry_Int_Tables_number   1
_chemical_formula_structural   Pr16Cd4Pd3Ru
_chemical_formula_sum   'Pr16 Cd4 Pd3 Ru1'
_cell_volume   727.89758777
_cell_formula_units_Z   1
loop_
 _symmetry_equiv_pos_site_id
 _symmetry_equiv_pos_as_xyz
  1  'x, y, z'
loop_
 _atom_site_type_symbol
 _atom_site_label
 _atom_site_symmetry_multiplicity
 _atom_site_fract_x
 _atom_site_fract_y
 _atom_site_fract_z
 _atom_site_occupancy
  Pr  Pr0  1  0.352103  0.352103  0.352103  1
  Pr  Pr1  1  0.348308  0.348308  0.948791  1
  Pr  Pr2  1  0.348308  0.948791  0.348308  1
  Pr  Pr3  1  0.948791  0.348308  0.348308  1
  Pr  Pr4  1  0.818596  0.188607  0.188607  1
  Pr  Pr5  1  0.188516  0.808209  0.808209  1
  Pr  Pr6  1  0.188607  0.818596  0.188607  1
  Pr  Pr7  1  0.808209  0.188516  0.808209  1
  Pr  Pr8  1  0.188607  0.188607  0.818596  1
  Pr  Pr9  1  0.808209  0.808209  0.188516  1
  Pr  Pr10  1  0.937024  0.564905  0.564905  1
  Pr  Pr11  1  0.558432  0.937280  0.937280  1
  Pr  Pr12  1  0.564905  0.937024  0.564905  1
  Pr  Pr13  1  0.937280  0.558432  0.937280  1
  Pr  Pr14  1  0.564905  0.564905  0.937024  1
  Pr  Pr15  1  0.937280  0.937280  0.558432  1
  Cd  Cd16  1  0.580162  0.580162  0.580162  1
  Cd  Cd17  1  0.580327  0.580327  0.256804  1
  Cd  Cd18  1  0.580327  0.256804  0.580327  1
  Cd  Cd19  1  0.256804  0.580327  0.580327  1
  Pd  Pd20  1  0.145461  0.145461  0.570277  1
  Pd  Pd21  1  0.145461  0.570277  0.145461  1
  Pd  Pd22  1  0.570277  0.145461  0.145461  1
  Ru  Ru23  1  0.143103  0.143103  0.143103  1
