# generated using pymatgen
data_SBrCl5
_symmetry_space_group_name_H-M   'P 1'
_cell_length_a   5.66132758
_cell_length_b   5.80253001
_cell_length_c   8.94778247
_cell_angle_alpha   112.38683955
_cell_angle_beta   99.56877692
_cell_angle_gamma   87.97575191
_symmetry_Int_Tables_number   1
_chemical_formula_structural   SBrCl5
_chemical_formula_sum   'S1 Br1 Cl5'
_cell_volume   267.87437009
_cell_formula_units_Z   1
loop_
 _symmetry_equiv_pos_site_id
 _symmetry_equiv_pos_as_xyz
  1  'x, y, z'
loop_
 _atom_site_type_symbol
 _atom_site_label
 _atom_site_symmetry_multiplicity
 _atom_site_fract_x
 _atom_site_fract_y
 _atom_site_fract_z
 _atom_site_occupancy
  S  S0  1  0.053679  0.639443  0.399758  1
  Br  Br1  1  0.357868  0.854303  0.919584  1
  Cl  Cl2  1  0.784620  0.596179  0.515112  1
  Cl  Cl3  1  0.383221  0.507152  0.639239  1
  Cl  Cl4  1  0.178833  0.997106  0.521885  1
  Cl  Cl5  1  0.855440  0.666017  0.195290  1
  Cl  Cl6  1  0.341728  0.164418  0.169222  1
