# generated using pymatgen
data_Li2DyTa2Ni9P7
_symmetry_space_group_name_H-M   'P 1'
_cell_length_a   9.17269310
_cell_length_b   9.19566169
_cell_length_c   3.66559200
_cell_angle_alpha   90.00000000
_cell_angle_beta   90.00000000
_cell_angle_gamma   119.67453744
_symmetry_Int_Tables_number   1
_chemical_formula_structural   Li2DyTa2Ni9P7
_chemical_formula_sum   'Li2 Dy1 Ta2 Ni9 P7'
_cell_volume   268.63932292
_cell_formula_units_Z   1
loop_
 _symmetry_equiv_pos_site_id
 _symmetry_equiv_pos_as_xyz
  1  'x, y, z'
loop_
 _atom_site_type_symbol
 _atom_site_label
 _atom_site_symmetry_multiplicity
 _atom_site_fract_x
 _atom_site_fract_y
 _atom_site_fract_z
 _atom_site_occupancy
  Li  Li0  1  0.232518  0.108628  0.500000  1
  Li  Li1  1  0.665458  0.333586  0.500000  1
  Dy  Dy2  1  0.330798  0.667819  0.000000  1
  Ta  Ta3  1  0.877602  0.777234  0.500000  1
  Ta  Ta4  1  0.895343  0.118574  0.500000  1
  Ni  Ni5  1  0.710725  0.873681  0.000000  1
  Ni  Ni6  1  0.165763  0.281895  0.000000  1
  Ni  Ni7  1  0.127610  0.846898  0.000000  1
  Ni  Ni8  1  0.628408  0.565437  0.000000  1
  Ni  Ni9  1  0.937677  0.368654  0.000000  1
  Ni  Ni10  1  0.432288  0.065178  0.000000  1
  Ni  Ni11  1  0.558327  0.948952  0.500000  1
  Ni  Ni12  1  0.389520  0.432491  0.500000  1
  Ni  Ni13  1  0.050356  0.611131  0.500000  1
  P  P14  1  0.584765  0.708479  0.500000  1
  P  P15  1  0.121772  0.410157  0.500000  1
  P  P16  1  0.285840  0.878274  0.500000  1
  P  P17  1  0.003709  0.002342  0.000000  1
  P  P18  1  0.881805  0.577506  0.000000  1
  P  P19  1  0.694963  0.120286  0.000000  1
  P  P20  1  0.424757  0.302796  0.000000  1
