# generated using pymatgen
data_Pr6Mg(GeS7)2
_symmetry_space_group_name_H-M   'P 1'
_cell_length_a   10.30517200
_cell_length_b   10.30517136
_cell_length_c   5.83016300
_cell_angle_alpha   90.00000000
_cell_angle_beta   90.00000000
_cell_angle_gamma   120.00000206
_symmetry_Int_Tables_number   1
_chemical_formula_structural   Pr6Mg(GeS7)2
_chemical_formula_sum   'Pr6 Mg1 Ge2 S14'
_cell_volume   536.19379291
_cell_formula_units_Z   1
loop_
 _symmetry_equiv_pos_site_id
 _symmetry_equiv_pos_as_xyz
  1  'x, y, z'
loop_
 _atom_site_type_symbol
 _atom_site_label
 _atom_site_symmetry_multiplicity
 _atom_site_fract_x
 _atom_site_fract_y
 _atom_site_fract_z
 _atom_site_occupancy
  Pr  Pr0  1  0.642550  0.769071  0.752431  1
  Pr  Pr1  1  0.126522  0.357450  0.752431  1
  Pr  Pr2  1  0.230929  0.873478  0.752431  1
  Pr  Pr3  1  0.356618  0.229949  0.246864  1
  Pr  Pr4  1  0.873331  0.643382  0.246864  1
  Pr  Pr5  1  0.770051  0.126669  0.246864  1
  Mg  Mg6  1  0.000000  0.000000  0.518070  1
  Ge  Ge7  1  0.333333  0.666667  0.169293  1
  Ge  Ge8  1  0.666667  0.333333  0.663130  1
  S  S9  1  0.481319  0.894395  0.014421  1
  S  S10  1  0.413075  0.518681  0.014421  1
  S  S11  1  0.105605  0.586925  0.014421  1
  S  S12  1  0.519335  0.105411  0.509528  1
  S  S13  1  0.586075  0.480665  0.509528  1
  S  S14  1  0.894589  0.413925  0.509528  1
  S  S15  1  0.333333  0.666667  0.545998  1
  S  S16  1  0.666667  0.333333  0.040429  1
  S  S17  1  0.752851  0.841947  0.281054  1
  S  S18  1  0.089096  0.247149  0.281054  1
  S  S19  1  0.158053  0.910904  0.281054  1
  S  S20  1  0.247245  0.160520  0.757409  1
  S  S21  1  0.913275  0.752755  0.757409  1
  S  S22  1  0.839480  0.086725  0.757409  1
