# generated using pymatgen
data_YErSe3
_symmetry_space_group_name_H-M   'P 1'
_cell_length_a   13.48936972
_cell_length_b   12.87262782
_cell_length_c   7.07587000
_cell_angle_alpha   79.30433214
_cell_angle_beta   69.66891027
_cell_angle_gamma   31.02676339
_symmetry_Int_Tables_number   1
_chemical_formula_structural   YErSe3
_chemical_formula_sum   'Y4 Er4 Se12'
_cell_volume   577.64810901
_cell_formula_units_Z   4
loop_
 _symmetry_equiv_pos_site_id
 _symmetry_equiv_pos_as_xyz
  1  'x, y, z'
loop_
 _atom_site_type_symbol
 _atom_site_label
 _atom_site_symmetry_multiplicity
 _atom_site_fract_x
 _atom_site_fract_y
 _atom_site_fract_z
 _atom_site_occupancy
  Y  Y0  1  0.752751  0.752751  0.247249  1
  Y  Y1  1  0.247249  0.247249  0.752751  1
  Y  Y2  1  0.497249  0.497249  0.002751  1
  Y  Y3  1  0.002751  0.002751  0.497249  1
  Er  Er4  1  0.416195  0.416195  0.583805  1
  Er  Er5  1  0.583805  0.583805  0.416195  1
  Er  Er6  1  0.833805  0.833805  0.666195  1
  Er  Er7  1  0.666195  0.666195  0.833805  1
  Se  Se8  1  0.672960  0.163580  0.819376  1
  Se  Se9  1  0.344084  0.819376  0.163580  1
  Se  Se10  1  0.819376  0.344084  0.672960  1
  Se  Se11  1  0.163580  0.672960  0.344084  1
  Se  Se12  1  0.577040  0.086420  0.430624  1
  Se  Se13  1  0.905916  0.430624  0.086420  1
  Se  Se14  1  0.430624  0.905916  0.577040  1
  Se  Se15  1  0.086420  0.577040  0.905916  1
  Se  Se16  1  0.990670  0.509330  0.509330  1
  Se  Se17  1  0.509330  0.990670  0.990670  1
  Se  Se18  1  0.259330  0.740670  0.740670  1
  Se  Se19  1  0.740670  0.259330  0.259330  1
