# generated using pymatgen
data_Zr3Sc(V3Si4)2
_symmetry_space_group_name_H-M   'P 1'
_cell_length_a   6.63056200
_cell_length_b   6.63025916
_cell_length_c   12.29318200
_cell_angle_alpha   90.00000000
_cell_angle_beta   90.00000000
_cell_angle_gamma   89.98661426
_symmetry_Int_Tables_number   1
_chemical_formula_structural   Zr3Sc(V3Si4)2
_chemical_formula_sum   'Zr6 Sc2 V12 Si16'
_cell_volume   540.43708680
_cell_formula_units_Z   2
loop_
 _symmetry_equiv_pos_site_id
 _symmetry_equiv_pos_as_xyz
  1  'x, y, z'
loop_
 _atom_site_type_symbol
 _atom_site_label
 _atom_site_symmetry_multiplicity
 _atom_site_fract_x
 _atom_site_fract_y
 _atom_site_fract_z
 _atom_site_occupancy
  Zr  Zr0  1  0.003217  0.661053  0.030219  1
  Zr  Zr1  1  0.837987  0.502668  0.280348  1
  Zr  Zr2  1  0.162013  0.497332  0.780348  1
  Zr  Zr3  1  0.502435  0.838069  0.719203  1
  Zr  Zr4  1  0.497565  0.161931  0.219203  1
  Zr  Zr5  1  0.996783  0.338947  0.530219  1
  Sc  Sc6  1  0.662169  0.001668  0.970343  1
  Sc  Sc7  1  0.337831  0.998332  0.470343  1
  V  V8  1  0.331234  0.333898  0.999884  1
  V  V9  1  0.167368  0.832720  0.249756  1
  V  V10  1  0.832632  0.167280  0.749756  1
  V  V11  1  0.668766  0.666102  0.499884  1
  V  V12  1  0.005540  0.159352  0.126690  1
  V  V13  1  0.341448  0.505256  0.376076  1
  V  V14  1  0.658552  0.494744  0.876076  1
  V  V15  1  0.505712  0.341485  0.623875  1
  V  V16  1  0.494288  0.658515  0.123875  1
  V  V17  1  0.994460  0.840648  0.626690  1
  V  V18  1  0.158486  0.005801  0.873287  1
  V  V19  1  0.841514  0.994199  0.373287  1
  Si  Si20  1  0.292487  0.960924  0.063549  1
  Si  Si21  1  0.538567  0.792299  0.315507  1
  Si  Si22  1  0.461433  0.207701  0.815507  1
  Si  Si23  1  0.790962  0.540300  0.685728  1
  Si  Si24  1  0.209038  0.459700  0.185728  1
  Si  Si25  1  0.707513  0.039076  0.563549  1
  Si  Si26  1  0.958438  0.289205  0.935643  1
  Si  Si27  1  0.041562  0.710795  0.435643  1
  Si  Si28  1  0.703916  0.371600  0.070025  1
  Si  Si29  1  0.128422  0.203682  0.321216  1
  Si  Si30  1  0.871578  0.796318  0.821216  1
  Si  Si31  1  0.205359  0.126694  0.679339  1
  Si  Si32  1  0.794641  0.873306  0.179339  1
  Si  Si33  1  0.296084  0.628400  0.570025  1
  Si  Si34  1  0.374123  0.705572  0.929313  1
  Si  Si35  1  0.625877  0.294428  0.429313  1
