# generated using pymatgen
data_Ho5Fe18CoP12
_symmetry_space_group_name_H-M   'P 1'
_cell_length_a   11.94738200
_cell_length_b   11.94738259
_cell_length_c   3.69406800
_cell_angle_alpha   90.00000000
_cell_angle_beta   90.00000000
_cell_angle_gamma   119.99999837
_symmetry_Int_Tables_number   1
_chemical_formula_structural   Ho5Fe18CoP12
_chemical_formula_sum   'Ho5 Fe18 Co1 P12'
_cell_volume   456.64745915
_cell_formula_units_Z   1
loop_
 _symmetry_equiv_pos_site_id
 _symmetry_equiv_pos_as_xyz
  1  'x, y, z'
loop_
 _atom_site_type_symbol
 _atom_site_label
 _atom_site_symmetry_multiplicity
 _atom_site_fract_x
 _atom_site_fract_y
 _atom_site_fract_z
 _atom_site_occupancy
  Ho  Ho0  1  0.666667  0.333333  0.000000  1
  Ho  Ho1  1  0.333333  0.666667  0.000000  1
  Ho  Ho2  1  0.184402  0.184402  0.500000  1
  Ho  Ho3  1  0.815598  0.000000  0.500000  1
  Ho  Ho4  1  0.000000  0.815598  0.500000  1
  Fe  Fe5  1  0.818371  0.197796  0.000000  1
  Fe  Fe6  1  0.802204  0.620574  0.000000  1
  Fe  Fe7  1  0.379426  0.181629  0.000000  1
  Fe  Fe8  1  0.197796  0.818371  0.000000  1
  Fe  Fe9  1  0.620574  0.802204  0.000000  1
  Fe  Fe10  1  0.181629  0.379426  0.000000  1
  Fe  Fe11  1  0.557237  0.557237  0.000000  1
  Fe  Fe12  1  0.442763  0.000000  0.000000  1
  Fe  Fe13  1  0.000000  0.442763  0.000000  1
  Fe  Fe14  1  0.639558  0.122087  0.500000  1
  Fe  Fe15  1  0.877913  0.517472  0.500000  1
  Fe  Fe16  1  0.482528  0.360442  0.500000  1
  Fe  Fe17  1  0.122087  0.639558  0.500000  1
  Fe  Fe18  1  0.517472  0.877913  0.500000  1
  Fe  Fe19  1  0.360442  0.482528  0.500000  1
  Fe  Fe20  1  0.715051  0.715051  0.500000  1
  Fe  Fe21  1  0.284949  0.000000  0.500000  1
  Fe  Fe22  1  0.000000  0.284949  0.500000  1
  Co  Co23  1  0.000000  0.000000  0.000000  1
  P  P24  1  0.370243  0.370243  0.000000  1
  P  P25  1  0.629757  0.000000  0.000000  1
  P  P26  1  0.000000  0.629757  0.000000  1
  P  P27  1  0.833689  0.312394  0.500000  1
  P  P28  1  0.687606  0.521295  0.500000  1
  P  P29  1  0.478705  0.166311  0.500000  1
  P  P30  1  0.312394  0.833689  0.500000  1
  P  P31  1  0.521295  0.687606  0.500000  1
  P  P32  1  0.166311  0.478705  0.500000  1
  P  P33  1  0.815490  0.815490  0.000000  1
  P  P34  1  0.184510  0.000000  0.000000  1
  P  P35  1  0.000000  0.184510  0.000000  1
