# generated using pymatgen
data_Dy10Y3Th3(MgRh)4
_symmetry_space_group_name_H-M   'P 1'
_cell_length_a   9.78393538
_cell_length_b   9.78975494
_cell_length_c   9.79120841
_cell_angle_alpha   59.88700854
_cell_angle_beta   59.78455820
_cell_angle_gamma   59.78901885
_symmetry_Int_Tables_number   1
_chemical_formula_structural   Dy10Y3Th3(MgRh)4
_chemical_formula_sum   'Dy10 Y3 Th3 Mg4 Rh4'
_cell_volume   660.43446069
_cell_formula_units_Z   1
loop_
 _symmetry_equiv_pos_site_id
 _symmetry_equiv_pos_as_xyz
  1  'x, y, z'
loop_
 _atom_site_type_symbol
 _atom_site_label
 _atom_site_symmetry_multiplicity
 _atom_site_fract_x
 _atom_site_fract_y
 _atom_site_fract_z
 _atom_site_occupancy
  Dy  Dy0  1  0.202590  0.599886  0.599784  1
  Dy  Dy1  1  0.061919  0.437862  0.438046  1
  Dy  Dy2  1  0.435874  0.064200  0.064053  1
  Dy  Dy3  1  0.436828  0.062685  0.437143  1
  Dy  Dy4  1  0.062816  0.437011  0.062806  1
  Dy  Dy5  1  0.436978  0.436925  0.062647  1
  Dy  Dy6  1  0.062720  0.062896  0.437205  1
  Dy  Dy7  1  0.186380  0.815292  0.815052  1
  Dy  Dy8  1  0.815133  0.185020  0.184817  1
  Dy  Dy9  1  0.816561  0.184732  0.815890  1
  Y  Y10  1  0.185993  0.814308  0.185188  1
  Y  Y11  1  0.816577  0.816041  0.184506  1
  Y  Y12  1  0.185671  0.185070  0.814466  1
  Th  Th13  1  0.595494  0.597260  0.597756  1
  Th  Th14  1  0.596804  0.599452  0.205922  1
  Th  Th15  1  0.596996  0.205910  0.599552  1
  Mg  Mg16  1  0.830451  0.829957  0.829903  1
  Mg  Mg17  1  0.829729  0.829375  0.509585  1
  Mg  Mg18  1  0.829798  0.509532  0.829384  1
  Mg  Mg19  1  0.508278  0.829949  0.829891  1
  Rh  Rh20  1  0.396499  0.392416  0.392389  1
  Rh  Rh21  1  0.396375  0.391308  0.819171  1
  Rh  Rh22  1  0.396422  0.819209  0.391186  1
  Rh  Rh23  1  0.817116  0.393702  0.393657  1
