# generated using pymatgen
data_Y4Al18(NiIr)3
_symmetry_space_group_name_H-M   'P 1'
_cell_length_a   7.49536344
_cell_length_b   7.49536381
_cell_length_c   9.37453587
_cell_angle_alpha   89.93023510
_cell_angle_beta   89.93023437
_cell_angle_gamma   119.26498828
_symmetry_Int_Tables_number   1
_chemical_formula_structural   Y4Al18(NiIr)3
_chemical_formula_sum   'Y4 Al18 Ni3 Ir3'
_cell_volume   459.44521535
_cell_formula_units_Z   1
loop_
 _symmetry_equiv_pos_site_id
 _symmetry_equiv_pos_as_xyz
  1  'x, y, z'
loop_
 _atom_site_type_symbol
 _atom_site_label
 _atom_site_symmetry_multiplicity
 _atom_site_fract_x
 _atom_site_fract_y
 _atom_site_fract_z
 _atom_site_occupancy
  Y  Y0  1  0.994259  0.673020  0.249846  1
  Y  Y1  1  0.003133  0.324904  0.750171  1
  Y  Y2  1  0.675096  0.996867  0.249829  1
  Y  Y3  1  0.326980  0.005741  0.750154  1
  Al  Al4  1  0.132781  0.132777  0.249593  1
  Al  Al5  1  0.867223  0.867219  0.750407  1
  Al  Al6  1  0.999008  0.338625  0.073320  1
  Al  Al7  1  0.002669  0.663230  0.926000  1
  Al  Al8  1  0.003377  0.663140  0.573804  1
  Al  Al9  1  0.336860  0.996623  0.426196  1
  Al  Al10  1  0.003657  0.338271  0.426097  1
  Al  Al11  1  0.661729  0.996343  0.573903  1
  Al  Al12  1  0.661375  0.000992  0.926680  1
  Al  Al13  1  0.336770  0.997331  0.074000  1
  Al  Al14  1  0.333807  0.335112  0.549649  1
  Al  Al15  1  0.664888  0.666193  0.450351  1
  Al  Al16  1  0.663942  0.664898  0.050118  1
  Al  Al17  1  0.335102  0.336058  0.949882  1
  Al  Al18  1  0.340844  0.556041  0.249659  1
  Al  Al19  1  0.658866  0.448716  0.753251  1
  Al  Al20  1  0.551284  0.341134  0.246749  1
  Al  Al21  1  0.443959  0.659156  0.750341  1
  Ni  Ni22  1  0.670949  0.329051  0.000000  1
  Ni  Ni23  1  0.329169  0.670831  0.000000  1
  Ni  Ni24  1  0.329359  0.670641  0.500000  1
  Ir  Ir25  1  0.672150  0.327850  0.500000  1
  Ir  Ir26  1  0.999749  0.000251  0.000000  1
  Ir  Ir27  1  0.001015  0.998985  0.500000  1
