# generated using pymatgen
data_Th3Mg3CoAu2
_symmetry_space_group_name_H-M   'P 1'
_cell_length_a   7.79032200
_cell_length_b   7.79032085
_cell_length_c   3.97079000
_cell_angle_alpha   90.00000000
_cell_angle_beta   90.00000000
_cell_angle_gamma   119.99999641
_symmetry_Int_Tables_number   1
_chemical_formula_structural   Th3Mg3CoAu2
_chemical_formula_sum   'Th3 Mg3 Co1 Au2'
_cell_volume   208.69801594
_cell_formula_units_Z   1
loop_
 _symmetry_equiv_pos_site_id
 _symmetry_equiv_pos_as_xyz
  1  'x, y, z'
loop_
 _atom_site_type_symbol
 _atom_site_label
 _atom_site_symmetry_multiplicity
 _atom_site_fract_x
 _atom_site_fract_y
 _atom_site_fract_z
 _atom_site_occupancy
  Th  Th0  1  0.593834  0.029046  0.000000  1
  Th  Th1  1  0.970954  0.564789  0.000000  1
  Th  Th2  1  0.435211  0.406166  0.000000  1
  Mg  Mg3  1  0.240816  0.992663  0.500000  1
  Mg  Mg4  1  0.007337  0.248153  0.500000  1
  Mg  Mg5  1  0.751847  0.759184  0.500000  1
  Co  Co6  1  0.666667  0.333333  0.500000  1
  Au  Au7  1  0.333333  0.666667  0.500000  1
  Au  Au8  1  0.000000  0.000000  0.000000  1
