# generated using pymatgen
data_Sr9Tb(Bi3S)2
_symmetry_space_group_name_H-M   'P 1'
_cell_length_a   9.70557600
_cell_length_b   9.61344733
_cell_length_c   7.56747900
_cell_angle_alpha   90.00000000
_cell_angle_beta   90.00000000
_cell_angle_gamma   119.68649223
_symmetry_Int_Tables_number   1
_chemical_formula_structural   Sr9Tb(Bi3S)2
_chemical_formula_sum   'Sr9 Tb1 Bi6 S2'
_cell_volume   613.40266267
_cell_formula_units_Z   1
loop_
 _symmetry_equiv_pos_site_id
 _symmetry_equiv_pos_as_xyz
  1  'x, y, z'
loop_
 _atom_site_type_symbol
 _atom_site_label
 _atom_site_symmetry_multiplicity
 _atom_site_fract_x
 _atom_site_fract_y
 _atom_site_fract_z
 _atom_site_occupancy
  Sr  Sr0  1  0.657041  0.327950  0.498798  1
  Sr  Sr1  1  0.342959  0.670910  0.498798  1
  Sr  Sr2  1  0.342959  0.670910  0.001202  1
  Sr  Sr3  1  0.657041  0.327950  0.001202  1
  Sr  Sr4  1  0.762344  0.755650  0.250000  1
  Sr  Sr5  1  0.237656  0.993306  0.250000  1
  Sr  Sr6  1  0.000000  0.228158  0.250000  1
  Sr  Sr7  1  0.240121  0.246160  0.750000  1
  Sr  Sr8  1  0.759879  0.006037  0.750000  1
  Tb  Tb9  1  0.000000  0.781058  0.750000  1
  Bi  Bi10  1  0.399137  0.397896  0.250000  1
  Bi  Bi11  1  0.600863  0.998759  0.250000  1
  Bi  Bi12  1  0.000000  0.581222  0.250000  1
  Bi  Bi13  1  0.614550  0.604988  0.750000  1
  Bi  Bi14  1  0.385450  0.990438  0.750000  1
  Bi  Bi15  1  0.000000  0.433606  0.750000  1
  S  S16  1  0.000000  0.992502  0.509267  1
  S  S17  1  0.000000  0.992502  0.990733  1
