# generated using pymatgen
data_Dy20Ir9OsRu2
_symmetry_space_group_name_H-M   'P 1'
_cell_length_a   10.86654300
_cell_length_b   10.86654300
_cell_length_c   6.42847700
_cell_angle_alpha   90.00000000
_cell_angle_beta   90.00000000
_cell_angle_gamma   90.00000000
_symmetry_Int_Tables_number   1
_chemical_formula_structural   Dy20Ir9OsRu2
_chemical_formula_sum   'Dy20 Ir9 Os1 Ru2'
_cell_volume   759.08585752
_cell_formula_units_Z   1
loop_
 _symmetry_equiv_pos_site_id
 _symmetry_equiv_pos_as_xyz
  1  'x, y, z'
loop_
 _atom_site_type_symbol
 _atom_site_label
 _atom_site_symmetry_multiplicity
 _atom_site_fract_x
 _atom_site_fract_y
 _atom_site_fract_z
 _atom_site_occupancy
  Dy  Dy0  1  0.293854  0.086710  0.378233  1
  Dy  Dy1  1  0.293892  0.913478  0.878986  1
  Dy  Dy2  1  0.706108  0.086522  0.878986  1
  Dy  Dy3  1  0.706146  0.913290  0.378233  1
  Dy  Dy4  1  0.586522  0.793892  0.878986  1
  Dy  Dy5  1  0.586710  0.206146  0.378233  1
  Dy  Dy6  1  0.413290  0.793854  0.378233  1
  Dy  Dy7  1  0.413478  0.206108  0.878986  1
  Dy  Dy8  1  0.207865  0.412550  0.622743  1
  Dy  Dy9  1  0.207634  0.587449  0.119969  1
  Dy  Dy10  1  0.792366  0.412551  0.119969  1
  Dy  Dy11  1  0.792135  0.587450  0.622743  1
  Dy  Dy12  1  0.912551  0.707634  0.119969  1
  Dy  Dy13  1  0.912550  0.292135  0.622743  1
  Dy  Dy14  1  0.087450  0.707865  0.622743  1
  Dy  Dy15  1  0.087449  0.292366  0.119969  1
  Dy  Dy16  1  0.000000  0.000000  0.499530  1
  Dy  Dy17  1  0.000000  0.000000  0.999454  1
  Dy  Dy18  1  0.500000  0.500000  0.999454  1
  Dy  Dy19  1  0.500000  0.500000  0.499530  1
  Ir  Ir20  1  0.847850  0.153066  0.250163  1
  Ir  Ir21  1  0.847551  0.846943  0.749783  1
  Ir  Ir22  1  0.152449  0.153057  0.749783  1
  Ir  Ir23  1  0.152150  0.846934  0.250163  1
  Ir  Ir24  1  0.653057  0.347551  0.749783  1
  Ir  Ir25  1  0.653066  0.652150  0.250163  1
  Ir  Ir26  1  0.346934  0.347850  0.250163  1
  Ir  Ir27  1  0.346943  0.652449  0.749783  1
  Ir  Ir28  1  0.000000  0.500000  0.377320  1
  Os  Os29  1  0.500000  0.000000  0.124513  1
  Ru  Ru30  1  0.500000  0.000000  0.623871  1
  Ru  Ru31  1  0.000000  0.500000  0.876816  1
