# generated using pymatgen
data_HgBiRuRhO7
_symmetry_space_group_name_H-M   'P 1'
_cell_length_a   7.31009768
_cell_length_b   7.14380533
_cell_length_c   7.31009818
_cell_angle_alpha   60.74970575
_cell_angle_beta   61.12683150
_cell_angle_gamma   60.74970705
_symmetry_Int_Tables_number   1
_chemical_formula_structural   HgBiRuRhO7
_chemical_formula_sum   'Hg2 Bi2 Ru2 Rh2 O14'
_cell_volume   275.25559242
_cell_formula_units_Z   2
loop_
 _symmetry_equiv_pos_site_id
 _symmetry_equiv_pos_as_xyz
  1  'x, y, z'
loop_
 _atom_site_type_symbol
 _atom_site_label
 _atom_site_symmetry_multiplicity
 _atom_site_fract_x
 _atom_site_fract_y
 _atom_site_fract_z
 _atom_site_occupancy
  Hg  Hg0  1  0.125000  0.125000  0.125000  1
  Hg  Hg1  1  0.125000  0.625000  0.125000  1
  Bi  Bi2  1  0.625000  0.125000  0.125000  1
  Bi  Bi3  1  0.125000  0.125000  0.625000  1
  Ru  Ru4  1  0.625000  0.625000  0.125000  1
  Ru  Ru5  1  0.125000  0.625000  0.625000  1
  Rh  Rh6  1  0.625000  0.625000  0.625000  1
  Rh  Rh7  1  0.625000  0.125000  0.625000  1
  O  O8  1  0.243887  0.256113  0.243887  1
  O  O9  1  0.332334  0.667666  0.332334  1
  O  O10  1  0.956390  0.955960  0.545503  1
  O  O11  1  0.539486  0.960514  0.539486  1
  O  O12  1  0.704497  0.707853  0.293610  1
  O  O13  1  0.956390  0.542147  0.545503  1
  O  O14  1  0.710514  0.289486  0.710514  1
  O  O15  1  0.293610  0.294040  0.704497  1
  O  O16  1  0.704497  0.294040  0.293610  1
  O  O17  1  0.293610  0.707853  0.704497  1
  O  O18  1  0.917666  0.582334  0.917666  1
  O  O19  1  0.545503  0.542147  0.956390  1
  O  O20  1  0.006113  0.993887  0.006113  1
  O  O21  1  0.545503  0.955960  0.956390  1
