# generated using pymatgen
data_Th2Np6VS17
_symmetry_space_group_name_H-M   'P 1'
_cell_length_a   7.88356550
_cell_length_b   7.88356696
_cell_length_c   10.42883300
_cell_angle_alpha   80.85830623
_cell_angle_beta   80.85830452
_cell_angle_gamma   65.47319960
_symmetry_Int_Tables_number   1
_chemical_formula_structural   Th2Np6VS17
_chemical_formula_sum   'Th2 Np6 V1 S17'
_cell_volume   579.05960938
_cell_formula_units_Z   1
loop_
 _symmetry_equiv_pos_site_id
 _symmetry_equiv_pos_as_xyz
  1  'x, y, z'
loop_
 _atom_site_type_symbol
 _atom_site_label
 _atom_site_symmetry_multiplicity
 _atom_site_fract_x
 _atom_site_fract_y
 _atom_site_fract_z
 _atom_site_occupancy
  Th  Th0  1  0.681941  0.681941  0.978103  1
  Th  Th1  1  0.318059  0.318059  0.021897  1
  Np  Np2  1  0.816990  0.296238  0.301312  1
  Np  Np3  1  0.296238  0.816990  0.301312  1
  Np  Np4  1  0.183010  0.703762  0.698688  1
  Np  Np5  1  0.703762  0.183010  0.698688  1
  Np  Np6  1  0.206375  0.206375  0.544070  1
  Np  Np7  1  0.793625  0.793625  0.455930  1
  V  V8  1  0.000000  0.000000  0.000000  1
  S  S9  1  0.827663  0.428422  0.533620  1
  S  S10  1  0.428422  0.827663  0.533620  1
  S  S11  1  0.172337  0.571578  0.466380  1
  S  S12  1  0.571578  0.172337  0.466380  1
  S  S13  1  0.941936  0.318255  0.032830  1
  S  S14  1  0.318255  0.941936  0.032830  1
  S  S15  1  0.058064  0.681745  0.967170  1
  S  S16  1  0.681745  0.058064  0.967170  1
  S  S17  1  0.205388  0.205388  0.283319  1
  S  S18  1  0.794612  0.794612  0.716681  1
  S  S19  1  0.058686  0.058686  0.771967  1
  S  S20  1  0.941314  0.941314  0.228033  1
  S  S21  1  0.304673  0.304673  0.750146  1
  S  S22  1  0.695327  0.695327  0.249854  1
  S  S23  1  0.520911  0.520911  0.826353  1
  S  S24  1  0.479089  0.479089  0.173647  1
  S  S25  1  0.000000  0.000000  0.500000  1
