# generated using pymatgen
data_Sc10Sb3Te7
_symmetry_space_group_name_H-M   'P 1'
_cell_length_a   8.02001261
_cell_length_b   8.02001191
_cell_length_c   10.84413823
_cell_angle_alpha   70.48025126
_cell_angle_beta   70.48025181
_cell_angle_gamma   53.97050138
_symmetry_Int_Tables_number   1
_chemical_formula_structural   Sc10Sb3Te7
_chemical_formula_sum   'Sc10 Sb3 Te7'
_cell_volume   522.92568619
_cell_formula_units_Z   1
loop_
 _symmetry_equiv_pos_site_id
 _symmetry_equiv_pos_as_xyz
  1  'x, y, z'
loop_
 _atom_site_type_symbol
 _atom_site_label
 _atom_site_symmetry_multiplicity
 _atom_site_fract_x
 _atom_site_fract_y
 _atom_site_fract_z
 _atom_site_occupancy
  Sc  Sc0  1  0.005264  0.796488  0.950421  1
  Sc  Sc1  1  0.397891  0.205920  0.150826  1
  Sc  Sc2  1  0.802472  0.598548  0.353394  1
  Sc  Sc3  1  0.203512  0.994736  0.049579  1
  Sc  Sc4  1  0.205264  0.000623  0.548700  1
  Sc  Sc5  1  0.593623  0.402577  0.249263  1
  Sc  Sc6  1  0.597423  0.406377  0.750737  1
  Sc  Sc7  1  0.999377  0.794736  0.451300  1
  Sc  Sc8  1  0.401452  0.197528  0.646606  1
  Sc  Sc9  1  0.794080  0.602109  0.849174  1
  Sb  Sb10  1  0.433183  0.566817  0.000000  1
  Sb  Sb11  1  0.233269  0.366512  0.400105  1
  Sb  Sb12  1  0.633488  0.766731  0.599895  1
  Te  Te13  1  0.965956  0.433277  0.100153  1
  Te  Te14  1  0.833906  0.966663  0.199627  1
  Te  Te15  1  0.366549  0.834041  0.299797  1
  Te  Te16  1  0.767275  0.232725  0.500000  1
  Te  Te17  1  0.165959  0.633451  0.700203  1
  Te  Te18  1  0.033337  0.166094  0.800373  1
  Te  Te19  1  0.566723  0.034044  0.899847  1
