# generated using pymatgen
data_TbEr(PaAl5)3
_symmetry_space_group_name_H-M   'P 1'
_cell_length_a   12.60276043
_cell_length_b   12.60276070
_cell_length_c   12.60276002
_cell_angle_alpha   28.09229927
_cell_angle_beta   28.09229457
_cell_angle_gamma   28.09230504
_symmetry_Int_Tables_number   1
_chemical_formula_structural   TbEr(PaAl5)3
_chemical_formula_sum   'Tb1 Er1 Pa3 Al15'
_cell_volume   392.08253510
_cell_formula_units_Z   1
loop_
 _symmetry_equiv_pos_site_id
 _symmetry_equiv_pos_as_xyz
  1  'x, y, z'
loop_
 _atom_site_type_symbol
 _atom_site_label
 _atom_site_symmetry_multiplicity
 _atom_site_fract_x
 _atom_site_fract_y
 _atom_site_fract_z
 _atom_site_occupancy
  Tb  Tb0  1  0.999719  0.999719  0.999719  1
  Er  Er1  1  0.599549  0.599549  0.599549  1
  Pa  Pa2  1  0.130836  0.130836  0.130836  1
  Pa  Pa3  1  0.869147  0.869147  0.869147  1
  Pa  Pa4  1  0.400914  0.400914  0.400914  1
  Al  Al5  1  0.132294  0.635363  0.635363  1
  Al  Al6  1  0.635363  0.635363  0.132294  1
  Al  Al7  1  0.635363  0.132294  0.635363  1
  Al  Al8  1  0.364576  0.871836  0.364576  1
  Al  Al9  1  0.364576  0.364576  0.871836  1
  Al  Al10  1  0.871836  0.364576  0.364576  1
  Al  Al11  1  0.429889  0.883245  0.883245  1
  Al  Al12  1  0.883245  0.883245  0.429889  1
  Al  Al13  1  0.883245  0.429889  0.883245  1
  Al  Al14  1  0.116487  0.568132  0.116487  1
  Al  Al15  1  0.116487  0.116487  0.568132  1
  Al  Al16  1  0.568132  0.116487  0.116487  1
  Al  Al17  1  0.498061  0.498061  0.002217  1
  Al  Al18  1  0.498061  0.002217  0.498061  1
  Al  Al19  1  0.002217  0.498061  0.498061  1
