# generated using pymatgen
data_Nb4GaCo4SiAs2
_symmetry_space_group_name_H-M   'P 1'
_cell_length_a   3.73210000
_cell_length_b   6.34213547
_cell_length_c   7.17151970
_cell_angle_alpha   89.70488123
_cell_angle_beta   90.00000000
_cell_angle_gamma   90.00000000
_symmetry_Int_Tables_number   1
_chemical_formula_structural   Nb4GaCo4SiAs2
_chemical_formula_sum   'Nb4 Ga1 Co4 Si1 As2'
_cell_volume   169.74391756
_cell_formula_units_Z   1
loop_
 _symmetry_equiv_pos_site_id
 _symmetry_equiv_pos_as_xyz
  1  'x, y, z'
loop_
 _atom_site_type_symbol
 _atom_site_label
 _atom_site_symmetry_multiplicity
 _atom_site_fract_x
 _atom_site_fract_y
 _atom_site_fract_z
 _atom_site_occupancy
  Nb  Nb0  1  0.250000  0.016913  0.324084  1
  Nb  Nb1  1  0.250000  0.526240  0.183078  1
  Nb  Nb2  1  0.750000  0.974837  0.674184  1
  Nb  Nb3  1  0.750000  0.477260  0.818968  1
  Ga  Ga4  1  0.250000  0.272431  0.619938  1
  Co  Co5  1  0.250000  0.139289  0.944187  1
  Co  Co6  1  0.250000  0.648076  0.555140  1
  Co  Co7  1  0.750000  0.852088  0.068222  1
  Co  Co8  1  0.750000  0.367443  0.431760  1
  Si  Si9  1  0.750000  0.725305  0.381905  1
  As  As10  1  0.250000  0.772344  0.876931  1
  As  As11  1  0.750000  0.227774  0.121604  1
