# generated using pymatgen
data_Sr5CdPd2
_symmetry_space_group_name_H-M   'P 1'
_cell_length_a   8.40899798
_cell_length_b   8.40899842
_cell_length_c   9.86807727
_cell_angle_alpha   115.21845499
_cell_angle_beta   115.21845640
_cell_angle_gamma   89.99999692
_symmetry_Int_Tables_number   1
_chemical_formula_structural   Sr5CdPd2
_chemical_formula_sum   'Sr10 Cd2 Pd4'
_cell_volume   556.88569035
_cell_formula_units_Z   2
loop_
 _symmetry_equiv_pos_site_id
 _symmetry_equiv_pos_as_xyz
  1  'x, y, z'
loop_
 _atom_site_type_symbol
 _atom_site_label
 _atom_site_symmetry_multiplicity
 _atom_site_fract_x
 _atom_site_fract_y
 _atom_site_fract_z
 _atom_site_occupancy
  Sr  Sr0  1  0.000000  0.000000  0.000000  1
  Sr  Sr1  1  0.500000  0.500000  0.000000  1
  Sr  Sr2  1  0.466683  0.300190  0.266873  1
  Sr  Sr3  1  0.966683  0.466683  0.266873  1
  Sr  Sr4  1  0.300190  0.800189  0.266873  1
  Sr  Sr5  1  0.800189  0.966683  0.266873  1
  Sr  Sr6  1  0.199810  0.033317  0.733127  1
  Sr  Sr7  1  0.699810  0.199810  0.733127  1
  Sr  Sr8  1  0.033317  0.533317  0.733127  1
  Sr  Sr9  1  0.533317  0.699810  0.733127  1
  Cd  Cd10  1  0.250000  0.250000  0.500000  1
  Cd  Cd11  1  0.750000  0.750000  0.500000  1
  Pd  Pd12  1  0.623035  0.123035  0.000000  1
  Pd  Pd13  1  0.123035  0.376966  0.000000  1
  Pd  Pd14  1  0.876965  0.623035  0.000000  1
  Pd  Pd15  1  0.376966  0.876965  0.000000  1
