# generated using pymatgen
data_Er16Tl2In2NiRh3
_symmetry_space_group_name_H-M   'P 1'
_cell_length_a   9.57720850
_cell_length_b   9.58236491
_cell_length_c   9.57690443
_cell_angle_alpha   59.98588682
_cell_angle_beta   59.99895025
_cell_angle_gamma   60.01779915
_symmetry_Int_Tables_number   1
_chemical_formula_structural   Er16Tl2In2NiRh3
_chemical_formula_sum   'Er16 Tl2 In2 Ni1 Rh3'
_cell_volume   621.48462291
_cell_formula_units_Z   1
loop_
 _symmetry_equiv_pos_site_id
 _symmetry_equiv_pos_as_xyz
  1  'x, y, z'
loop_
 _atom_site_type_symbol
 _atom_site_label
 _atom_site_symmetry_multiplicity
 _atom_site_fract_x
 _atom_site_fract_y
 _atom_site_fract_z
 _atom_site_occupancy
  Er  Er0  1  0.186650  0.190183  0.810864  1
  Er  Er1  1  0.439565  0.060099  0.060771  1
  Er  Er2  1  0.438978  0.061527  0.438461  1
  Er  Er3  1  0.061520  0.438185  0.063018  1
  Er  Er4  1  0.650495  0.050553  0.648459  1
  Er  Er5  1  0.188392  0.812037  0.811179  1
  Er  Er6  1  0.061035  0.061527  0.438461  1
  Er  Er7  1  0.811120  0.190238  0.187523  1
  Er  Er8  1  0.811651  0.811038  0.188944  1
  Er  Er9  1  0.652415  0.647256  0.047912  1
  Er  Er10  1  0.653540  0.648255  0.651990  1
  Er  Er11  1  0.062947  0.437969  0.436138  1
  Er  Er12  1  0.046214  0.648255  0.651990  1
  Er  Er13  1  0.812304  0.190183  0.810864  1
  Er  Er14  1  0.437277  0.438185  0.063018  1
  Er  Er15  1  0.188367  0.811038  0.188944  1
  Tl  Tl16  1  0.415640  0.753961  0.414759  1
  Tl  Tl17  1  0.414791  0.414935  0.755484  1
  In  In18  1  0.752032  0.417018  0.415248  1
  In  In19  1  0.415702  0.417018  0.415248  1
  Ni  Ni20  1  0.857624  0.426707  0.858046  1
  Rh  Rh21  1  0.857205  0.858071  0.427520  1
  Rh  Rh22  1  0.427528  0.857880  0.857580  1
  Rh  Rh23  1  0.857012  0.857880  0.857580  1
