# generated using pymatgen
data_Ca3DyHf4(B6Ru)4
_symmetry_space_group_name_H-M   'P 1'
_cell_length_a   3.54790000
_cell_length_b   8.99975362
_cell_length_c   11.39185282
_cell_angle_alpha   89.98733577
_cell_angle_beta   90.00000000
_cell_angle_gamma   90.00000000
_symmetry_Int_Tables_number   1
_chemical_formula_structural   Ca3DyHf4(B6Ru)4
_chemical_formula_sum   'Ca3 Dy1 Hf4 B24 Ru4'
_cell_volume   363.74442446
_cell_formula_units_Z   1
loop_
 _symmetry_equiv_pos_site_id
 _symmetry_equiv_pos_as_xyz
  1  'x, y, z'
loop_
 _atom_site_type_symbol
 _atom_site_label
 _atom_site_symmetry_multiplicity
 _atom_site_fract_x
 _atom_site_fract_y
 _atom_site_fract_z
 _atom_site_occupancy
  Ca  Ca0  1  0.000000  0.322497  0.414426  1
  Ca  Ca1  1  0.000000  0.677455  0.585264  1
  Ca  Ca2  1  0.000000  0.821680  0.086175  1
  Dy  Dy3  1  0.000000  0.177908  0.914027  1
  Hf  Hf4  1  0.000000  0.944159  0.373569  1
  Hf  Hf5  1  0.000000  0.054798  0.625562  1
  Hf  Hf6  1  0.000000  0.445566  0.127070  1
  Hf  Hf7  1  0.000000  0.556018  0.873837  1
  B  B8  1  0.500000  0.554177  0.432788  1
  B  B9  1  0.500000  0.445524  0.567815  1
  B  B10  1  0.500000  0.054279  0.067290  1
  B  B11  1  0.500000  0.945925  0.932569  1
  B  B12  1  0.500000  0.752084  0.417110  1
  B  B13  1  0.500000  0.247550  0.582547  1
  B  B14  1  0.500000  0.252561  0.082544  1
  B  B15  1  0.500000  0.747455  0.917307  1
  B  B16  1  0.500000  0.794536  0.264070  1
  B  B17  1  0.500000  0.205150  0.735867  1
  B  B18  1  0.500000  0.294649  0.235917  1
  B  B19  1  0.500000  0.705920  0.764026  1
  B  B20  1  0.500000  0.630289  0.182929  1
  B  B21  1  0.500000  0.369788  0.817774  1
  B  B22  1  0.500000  0.130251  0.316982  1
  B  B23  1  0.500000  0.869678  0.682193  1
  B  B24  1  0.500000  0.982936  0.213419  1
  B  B25  1  0.500000  0.017047  0.786388  1
  B  B26  1  0.500000  0.482986  0.286857  1
  B  B27  1  0.500000  0.517307  0.713507  1
  B  B28  1  0.500000  0.599824  0.026592  1
  B  B29  1  0.500000  0.399294  0.973256  1
  B  B30  1  0.500000  0.100080  0.473171  1
  B  B31  1  0.500000  0.899957  0.526490  1
  Ru  Ru32  1  0.000000  0.642025  0.317280  1
  Ru  Ru33  1  0.000000  0.357140  0.684036  1
  Ru  Ru34  1  0.000000  0.142070  0.181170  1
  Ru  Ru35  1  0.000000  0.859436  0.818175  1
