# generated using pymatgen
data_K2Li14Ce3O14
_symmetry_space_group_name_H-M   'P 1'
_cell_length_a   8.62011698
_cell_length_b   8.62011953
_cell_length_c   8.62013616
_cell_angle_alpha   128.96418944
_cell_angle_beta   123.80097431
_cell_angle_gamma   79.33062824
_symmetry_Int_Tables_number   1
_chemical_formula_structural   K2Li14Ce3O14
_chemical_formula_sum   'K2 Li14 Ce3 O14'
_cell_volume   400.18827633
_cell_formula_units_Z   1
loop_
 _symmetry_equiv_pos_site_id
 _symmetry_equiv_pos_as_xyz
  1  'x, y, z'
loop_
 _atom_site_type_symbol
 _atom_site_label
 _atom_site_symmetry_multiplicity
 _atom_site_fract_x
 _atom_site_fract_y
 _atom_site_fract_z
 _atom_site_occupancy
  K  K0  1  0.500000  0.245551  0.745551  1
  K  K1  1  0.500000  0.754449  0.254449  1
  Li  Li2  1  0.846743  0.500000  0.346743  1
  Li  Li3  1  0.153257  0.500000  0.653257  1
  Li  Li4  1  0.411043  0.770174  0.640869  1
  Li  Li5  1  0.588957  0.229826  0.359131  1
  Li  Li6  1  0.870695  0.229825  0.640869  1
  Li  Li7  1  0.129305  0.770175  0.359131  1
  Li  Li8  1  0.709271  0.588071  0.567469  1
  Li  Li9  1  0.290729  0.858197  0.878799  1
  Li  Li10  1  0.979398  0.411930  0.121201  1
  Li  Li11  1  0.020602  0.141803  0.432531  1
  Li  Li12  1  0.290729  0.411929  0.432531  1
  Li  Li13  1  0.709271  0.141803  0.121201  1
  Li  Li14  1  0.020602  0.588070  0.878799  1
  Li  Li15  1  0.979398  0.858197  0.567469  1
  Ce  Ce16  1  0.725979  0.725979  0.000000  1
  Ce  Ce17  1  0.274021  0.274021  0.000000  1
  Ce  Ce18  1  0.000000  0.000000  0.000000  1
  O  O19  1  0.750319  0.044200  0.293881  1
  O  O20  1  0.249681  0.543562  0.293881  1
  O  O21  1  0.249681  0.955800  0.706119  1
  O  O22  1  0.750319  0.456438  0.706119  1
  O  O23  1  0.000000  0.705944  0.705944  1
  O  O24  1  0.000000  0.294056  0.294056  1
  O  O25  1  0.683847  0.868327  0.815520  1
  O  O26  1  0.316153  0.131673  0.184480  1
  O  O27  1  0.947192  0.131673  0.815519  1
  O  O28  1  0.052808  0.868327  0.184481  1
  O  O29  1  0.405575  0.624770  0.780805  1
  O  O30  1  0.594425  0.375230  0.219195  1
  O  O31  1  0.156035  0.375230  0.780805  1
  O  O32  1  0.843965  0.624770  0.219195  1
