# generated using pymatgen
data_Zr7Pa(TcOs)4
_symmetry_space_group_name_H-M   'P 1'
_cell_length_a   6.60754900
_cell_length_b   4.68657700
_cell_length_c   9.36899400
_cell_angle_alpha   89.99995109
_cell_angle_beta   89.99817475
_cell_angle_gamma   90.00009226
_symmetry_Int_Tables_number   1
_chemical_formula_structural   Zr7Pa(TcOs)4
_chemical_formula_sum   'Zr7 Pa1 Tc4 Os4'
_cell_volume   290.12764312
_cell_formula_units_Z   1
loop_
 _symmetry_equiv_pos_site_id
 _symmetry_equiv_pos_as_xyz
  1  'x, y, z'
loop_
 _atom_site_type_symbol
 _atom_site_label
 _atom_site_symmetry_multiplicity
 _atom_site_fract_x
 _atom_site_fract_y
 _atom_site_fract_z
 _atom_site_occupancy
  Zr  Zr0  1  0.500076  0.749999  0.125011  1
  Zr  Zr1  1  0.999824  0.249999  0.382993  1
  Zr  Zr2  1  0.500141  0.249998  0.377274  1
  Zr  Zr3  1  0.499719  0.749999  0.625011  1
  Zr  Zr4  1  0.999859  0.749999  0.625012  1
  Zr  Zr5  1  0.500055  0.249998  0.872723  1
  Zr  Zr6  1  0.999727  0.249999  0.867024  1
  Pa  Pa7  1  0.000772  0.749998  0.124999  1
  Tc  Tc8  1  0.755179  0.250000  0.124979  1
  Tc  Tc9  1  0.247820  0.749998  0.373696  1
  Tc  Tc10  1  0.749374  0.249999  0.624979  1
  Tc  Tc11  1  0.247724  0.749999  0.876311  1
  Os  Os12  1  0.250273  0.249998  0.125006  1
  Os  Os13  1  0.749523  0.750000  0.375669  1
  Os  Os14  1  0.250498  0.249997  0.625003  1
  Os  Os15  1  0.749437  0.750002  0.874310  1
