# generated using pymatgen
data_Mn3ZnNiO8
_symmetry_space_group_name_H-M   'P 1'
_cell_length_a   5.85563500
_cell_length_b   5.85563604
_cell_length_c   9.27393700
_cell_angle_alpha   90.00000000
_cell_angle_beta   90.00000000
_cell_angle_gamma   120.00001107
_symmetry_Int_Tables_number   1
_chemical_formula_structural   Mn3ZnNiO8
_chemical_formula_sum   'Mn6 Zn2 Ni2 O16'
_cell_volume   275.38659584
_cell_formula_units_Z   2
loop_
 _symmetry_equiv_pos_site_id
 _symmetry_equiv_pos_as_xyz
  1  'x, y, z'
loop_
 _atom_site_type_symbol
 _atom_site_label
 _atom_site_symmetry_multiplicity
 _atom_site_fract_x
 _atom_site_fract_y
 _atom_site_fract_z
 _atom_site_occupancy
  Mn  Mn0  1  0.672334  0.836166  0.244882  1
  Mn  Mn1  1  0.836166  0.163834  0.744882  1
  Mn  Mn2  1  0.163834  0.327666  0.244882  1
  Mn  Mn3  1  0.836166  0.672334  0.744882  1
  Mn  Mn4  1  0.327666  0.163834  0.744882  1
  Mn  Mn5  1  0.163834  0.836166  0.244882  1
  Zn  Zn6  1  0.666667  0.333333  0.415908  1
  Zn  Zn7  1  0.333333  0.666667  0.915908  1
  Ni  Ni8  1  0.666667  0.333333  0.026943  1
  Ni  Ni9  1  0.333333  0.666667  0.526943  1
  O  O10  1  0.839307  0.160693  0.142711  1
  O  O11  1  0.678615  0.839307  0.642711  1
  O  O12  1  0.160693  0.321385  0.642711  1
  O  O13  1  0.839307  0.678615  0.142711  1
  O  O14  1  0.321385  0.160693  0.142711  1
  O  O15  1  0.160693  0.839307  0.642711  1
  O  O16  1  0.519186  0.480814  0.866807  1
  O  O17  1  0.038371  0.519186  0.366807  1
  O  O18  1  0.480814  0.961629  0.366807  1
  O  O19  1  0.519186  0.038371  0.866807  1
  O  O20  1  0.000000  0.000000  0.350548  1
  O  O21  1  0.000000  0.000000  0.850548  1
  O  O22  1  0.333333  0.666667  0.136896  1
  O  O23  1  0.961629  0.480814  0.866807  1
  O  O24  1  0.480814  0.519186  0.366807  1
  O  O25  1  0.666667  0.333333  0.636896  1
