# generated using pymatgen
data_Zn22OsPt2
_symmetry_space_group_name_H-M   'P 1'
_cell_length_a   7.80865018
_cell_length_b   7.80864968
_cell_length_c   7.84917613
_cell_angle_alpha   71.95606886
_cell_angle_beta   71.95606539
_cell_angle_gamma   58.71247244
_symmetry_Int_Tables_number   1
_chemical_formula_structural   Zn22OsPt2
_chemical_formula_sum   'Zn22 Os1 Pt2'
_cell_volume   382.30220954
_cell_formula_units_Z   1
loop_
 _symmetry_equiv_pos_site_id
 _symmetry_equiv_pos_as_xyz
  1  'x, y, z'
loop_
 _atom_site_type_symbol
 _atom_site_label
 _atom_site_symmetry_multiplicity
 _atom_site_fract_x
 _atom_site_fract_y
 _atom_site_fract_z
 _atom_site_occupancy
  Zn  Zn0  1  0.340495  0.739118  0.316583  1
  Zn  Zn1  1  0.659505  0.260882  0.683417  1
  Zn  Zn2  1  0.260882  0.659505  0.683417  1
  Zn  Zn3  1  0.739118  0.340495  0.316583  1
  Zn  Zn4  1  0.683744  0.316256  0.000000  1
  Zn  Zn5  1  0.316256  0.683744  0.000000  1
  Zn  Zn6  1  0.831755  0.831755  0.781952  1
  Zn  Zn7  1  0.168245  0.168245  0.218048  1
  Zn  Zn8  1  0.975767  0.975767  0.172749  1
  Zn  Zn9  1  0.024233  0.024233  0.827251  1
  Zn  Zn10  1  0.354272  0.354272  0.277140  1
  Zn  Zn11  1  0.645728  0.645728  0.722860  1
  Zn  Zn12  1  0.685102  0.685102  0.381319  1
  Zn  Zn13  1  0.314898  0.314898  0.618681  1
  Zn  Zn14  1  0.659398  0.023247  0.458018  1
  Zn  Zn15  1  0.340602  0.976753  0.541982  1
  Zn  Zn16  1  0.976753  0.340602  0.541982  1
  Zn  Zn17  1  0.023247  0.659398  0.458018  1
  Zn  Zn18  1  0.619542  0.999104  0.107689  1
  Zn  Zn19  1  0.380458  0.000896  0.892311  1
  Zn  Zn20  1  0.000896  0.380458  0.892311  1
  Zn  Zn21  1  0.999104  0.619542  0.107689  1
  Os  Os22  1  0.000000  0.000000  0.500000  1
  Pt  Pt23  1  0.657796  0.657796  0.055958  1
  Pt  Pt24  1  0.342204  0.342204  0.944042  1
