# generated using pymatgen
data_CaAc2(SnPt)3
_symmetry_space_group_name_H-M   'P 1'
_cell_length_a   7.76370400
_cell_length_b   7.69067091
_cell_length_c   4.30163700
_cell_angle_alpha   90.00000000
_cell_angle_beta   90.00000000
_cell_angle_gamma   119.68930904
_symmetry_Int_Tables_number   1
_chemical_formula_structural   CaAc2(SnPt)3
_chemical_formula_sum   'Ca1 Ac2 Sn3 Pt3'
_cell_volume   223.12526544
_cell_formula_units_Z   1
loop_
 _symmetry_equiv_pos_site_id
 _symmetry_equiv_pos_as_xyz
  1  'x, y, z'
loop_
 _atom_site_type_symbol
 _atom_site_label
 _atom_site_symmetry_multiplicity
 _atom_site_fract_x
 _atom_site_fract_y
 _atom_site_fract_z
 _atom_site_occupancy
  Ca  Ca0  1  0.000000  0.591395  0.000000  1
  Ac  Ac1  1  0.415947  0.417275  0.000000  1
  Ac  Ac2  1  0.584053  0.001328  0.000000  1
  Sn  Sn3  1  0.000000  0.255253  0.500000  1
  Sn  Sn4  1  0.763321  0.751214  0.500000  1
  Sn  Sn5  1  0.236679  0.987893  0.500000  1
  Pt  Pt6  1  0.674418  0.336816  0.500000  1
  Pt  Pt7  1  0.000000  0.996428  0.000000  1
  Pt  Pt8  1  0.325582  0.662398  0.500000  1
