# generated using pymatgen
data_LaLu2AuO7
_symmetry_space_group_name_H-M   'P 1'
_cell_length_a   6.48896306
_cell_length_b   6.48896453
_cell_length_c   7.48269700
_cell_angle_alpha   90.00000000
_cell_angle_beta   90.00000000
_cell_angle_gamma   108.65608842
_symmetry_Int_Tables_number   1
_chemical_formula_structural   LaLu2AuO7
_chemical_formula_sum   'La2 Lu4 Au2 O14'
_cell_volume   298.51611617
_cell_formula_units_Z   2
loop_
 _symmetry_equiv_pos_site_id
 _symmetry_equiv_pos_as_xyz
  1  'x, y, z'
loop_
 _atom_site_type_symbol
 _atom_site_label
 _atom_site_symmetry_multiplicity
 _atom_site_fract_x
 _atom_site_fract_y
 _atom_site_fract_z
 _atom_site_occupancy
  La  La0  1  0.499488  0.499488  0.000000  1
  La  La1  1  0.500512  0.500512  0.500000  1
  Lu  Lu2  1  0.527379  0.999894  0.750411  1
  Lu  Lu3  1  0.472621  0.000106  0.250411  1
  Lu  Lu4  1  0.000106  0.472621  0.749589  1
  Lu  Lu5  1  0.999894  0.527379  0.249589  1
  Au  Au6  1  0.999988  0.999988  0.000000  1
  Au  Au7  1  0.000012  0.000012  0.500000  1
  O  O8  1  0.649214  0.350786  0.750000  1
  O  O9  1  0.350786  0.649214  0.250000  1
  O  O10  1  0.919723  0.080277  0.750000  1
  O  O11  1  0.080277  0.919723  0.250000  1
  O  O12  1  0.330827  0.071082  0.976108  1
  O  O13  1  0.669173  0.928918  0.476108  1
  O  O14  1  0.928918  0.669173  0.523892  1
  O  O15  1  0.071082  0.330827  0.023892  1
  O  O16  1  0.355004  0.644996  0.750000  1
  O  O17  1  0.644996  0.355004  0.250000  1
  O  O18  1  0.330516  0.070923  0.524462  1
  O  O19  1  0.669484  0.929077  0.024462  1
  O  O20  1  0.929077  0.669484  0.975538  1
  O  O21  1  0.070923  0.330516  0.475538  1
