# generated using pymatgen
data_Ho5ErCo14(P3Ru)4
_symmetry_space_group_name_H-M   'P 1'
_cell_length_a   3.72928900
_cell_length_b   10.54127225
_cell_length_c   12.30112437
_cell_angle_alpha   90.05498317
_cell_angle_beta   90.00000000
_cell_angle_gamma   90.00000000
_symmetry_Int_Tables_number   1
_chemical_formula_structural   Ho5ErCo14(P3Ru)4
_chemical_formula_sum   'Ho5 Er1 Co14 P12 Ru4'
_cell_volume   483.57482109
_cell_formula_units_Z   1
loop_
 _symmetry_equiv_pos_site_id
 _symmetry_equiv_pos_as_xyz
  1  'x, y, z'
loop_
 _atom_site_type_symbol
 _atom_site_label
 _atom_site_symmetry_multiplicity
 _atom_site_fract_x
 _atom_site_fract_y
 _atom_site_fract_z
 _atom_site_occupancy
  Ho  Ho0  1  0.000000  0.500074  0.528657  1
  Ho  Ho1  1  0.500000  0.999870  0.478440  1
  Ho  Ho2  1  0.500000  0.181750  0.202924  1
  Ho  Ho3  1  0.000000  0.683159  0.795723  1
  Ho  Ho4  1  0.000000  0.316906  0.795806  1
  Er  Er5  1  0.500000  0.818153  0.202503  1
  Co  Co6  1  0.000000  0.500181  0.985601  1
  Co  Co7  1  0.500000  0.999758  0.013735  1
  Co  Co8  1  0.000000  0.199960  0.573645  1
  Co  Co9  1  0.000000  0.799976  0.573406  1
  Co  Co10  1  0.500000  0.879690  0.710616  1
  Co  Co11  1  0.500000  0.120310  0.710773  1
  Co  Co12  1  0.000000  0.621463  0.286579  1
  Co  Co13  1  0.000000  0.378919  0.286875  1
  Co  Co14  1  0.500000  0.332415  0.989956  1
  Co  Co15  1  0.500000  0.667822  0.990074  1
  Co  Co16  1  0.000000  0.166964  0.008950  1
  Co  Co17  1  0.000000  0.832787  0.009077  1
  Co  Co18  1  0.500000  0.500067  0.704809  1
  Co  Co19  1  0.000000  0.999763  0.294445  1
  P  P20  1  0.500000  0.309706  0.621457  1
  P  P21  1  0.500000  0.690373  0.621198  1
  P  P22  1  0.000000  0.183159  0.381805  1
  P  P23  1  0.000000  0.816628  0.381213  1
  P  P24  1  0.500000  0.500134  0.882003  1
  P  P25  1  0.000000  0.999713  0.117231  1
  P  P26  1  0.500000  0.846442  0.893764  1
  P  P27  1  0.500000  0.153497  0.893942  1
  P  P28  1  0.000000  0.654058  0.104991  1
  P  P29  1  0.000000  0.346200  0.104836  1
  P  P30  1  0.500000  0.499942  0.345313  1
  P  P31  1  0.000000  0.999975  0.651219  1
  Ru  Ru32  1  0.500000  0.295969  0.430684  1
  Ru  Ru33  1  0.500000  0.704344  0.430215  1
  Ru  Ru34  1  0.500000  0.499990  0.156740  1
  Ru  Ru35  1  0.000000  0.999883  0.840797  1
