# generated using pymatgen
data_Sc4Co6SiOs
_symmetry_space_group_name_H-M   'P 1'
_cell_length_a   4.96131807
_cell_length_b   4.96229187
_cell_length_c   7.73833606
_cell_angle_alpha   89.98679623
_cell_angle_beta   90.00398998
_cell_angle_gamma   119.97409121
_symmetry_Int_Tables_number   1
_chemical_formula_structural   Sc4Co6SiOs
_chemical_formula_sum   'Sc4 Co6 Si1 Os1'
_cell_volume   165.03304218
_cell_formula_units_Z   1
loop_
 _symmetry_equiv_pos_site_id
 _symmetry_equiv_pos_as_xyz
  1  'x, y, z'
loop_
 _atom_site_type_symbol
 _atom_site_label
 _atom_site_symmetry_multiplicity
 _atom_site_fract_x
 _atom_site_fract_y
 _atom_site_fract_z
 _atom_site_occupancy
  Sc  Sc0  1  0.666643  0.333374  0.060165  1
  Sc  Sc1  1  0.666638  0.333347  0.432451  1
  Sc  Sc2  1  0.333306  0.666673  0.567369  1
  Sc  Sc3  1  0.333347  0.666719  0.940062  1
  Co  Co4  1  0.170957  0.341824  0.256575  1
  Co  Co5  1  0.170852  0.829116  0.256698  1
  Co  Co6  1  0.658168  0.829021  0.256604  1
  Co  Co7  1  0.341776  0.170831  0.743315  1
  Co  Co8  1  0.829098  0.170892  0.743426  1
  Co  Co9  1  0.829169  0.658236  0.743298  1
  Si  Si10  1  0.000073  0.999888  0.499985  1
  Os  Os11  1  0.999971  0.000074  0.000057  1
