# generated using pymatgen
data_Yb2ScMoO6
_symmetry_space_group_name_H-M   'P 1'
_cell_length_a   5.68397600
_cell_length_b   5.44878835
_cell_length_c   9.45187298
_cell_angle_alpha   55.48215804
_cell_angle_beta   90.00000000
_cell_angle_gamma   90.00000000
_symmetry_Int_Tables_number   1
_chemical_formula_structural   Yb2ScMoO6
_chemical_formula_sum   'Yb4 Sc2 Mo2 O12'
_cell_volume   241.19638099
_cell_formula_units_Z   2
loop_
 _symmetry_equiv_pos_site_id
 _symmetry_equiv_pos_as_xyz
  1  'x, y, z'
loop_
 _atom_site_type_symbol
 _atom_site_label
 _atom_site_symmetry_multiplicity
 _atom_site_fract_x
 _atom_site_fract_y
 _atom_site_fract_z
 _atom_site_occupancy
  Yb  Yb0  1  0.938750  0.231822  0.750550  1
  Yb  Yb1  1  0.561250  0.231822  0.250550  1
  Yb  Yb2  1  0.061250  0.768178  0.249450  1
  Yb  Yb3  1  0.438750  0.768178  0.749450  1
  Sc  Sc4  1  0.000000  0.500000  0.000000  1
  Sc  Sc5  1  0.500000  0.500000  0.500000  1
  Mo  Mo6  1  0.000000  0.000000  0.500000  1
  Mo  Mo7  1  0.500000  0.000000  0.000000  1
  O  O8  1  0.533886  0.348018  0.758695  1
  O  O9  1  0.966114  0.348018  0.258695  1
  O  O10  1  0.466114  0.651982  0.241305  1
  O  O11  1  0.033886  0.651982  0.741305  1
  O  O12  1  0.692082  0.754790  0.949216  1
  O  O13  1  0.807918  0.754790  0.449216  1
  O  O14  1  0.307918  0.245210  0.050784  1
  O  O15  1  0.192082  0.245210  0.550784  1
  O  O16  1  0.795858  0.135631  0.057913  1
  O  O17  1  0.704142  0.135631  0.557913  1
  O  O18  1  0.204142  0.864369  0.942087  1
  O  O19  1  0.295858  0.864369  0.442087  1
