# generated using pymatgen
data_Ho3Er3Zr4(Sn3O)2
_symmetry_space_group_name_H-M   'P 1'
_cell_length_a   8.73532500
_cell_length_b   8.73491389
_cell_length_c   6.02275700
_cell_angle_alpha   90.00000000
_cell_angle_beta   90.00000000
_cell_angle_gamma   120.00065368
_symmetry_Int_Tables_number   1
_chemical_formula_structural   Ho3Er3Zr4(Sn3O)2
_chemical_formula_sum   'Ho3 Er3 Zr4 Sn6 O2'
_cell_volume   397.97959678
_cell_formula_units_Z   1
loop_
 _symmetry_equiv_pos_site_id
 _symmetry_equiv_pos_as_xyz
  1  'x, y, z'
loop_
 _atom_site_type_symbol
 _atom_site_label
 _atom_site_symmetry_multiplicity
 _atom_site_fract_x
 _atom_site_fract_y
 _atom_site_fract_z
 _atom_site_occupancy
  Ho  Ho0  1  0.999968  0.773152  0.750000  1
  Ho  Ho1  1  0.999970  0.226817  0.250000  1
  Ho  Ho2  1  0.226878  0.226873  0.750000  1
  Er  Er3  1  0.226669  0.999978  0.250000  1
  Er  Er4  1  0.773346  0.773344  0.250000  1
  Er  Er5  1  0.773305  0.999972  0.750000  1
  Zr  Zr6  1  0.333359  0.666689  0.999982  1
  Zr  Zr7  1  0.333359  0.666689  0.500018  1
  Zr  Zr8  1  0.666669  0.333339  0.999980  1
  Zr  Zr9  1  0.666669  0.333339  0.500020  1
  Sn  Sn10  1  0.000007  0.595499  0.250000  1
  Sn  Sn11  1  0.999917  0.404611  0.750000  1
  Sn  Sn12  1  0.404803  0.404709  0.250000  1
  Sn  Sn13  1  0.595353  0.595437  0.750000  1
  Sn  Sn14  1  0.404850  0.000008  0.750000  1
  Sn  Sn15  1  0.595256  0.999914  0.250000  1
  O  O16  1  0.999812  0.999815  0.000233  1
  O  O17  1  0.999812  0.999815  0.499767  1
