# generated using pymatgen
data_Tb5ErCo17ReP12
_symmetry_space_group_name_H-M   'P 1'
_cell_length_a   3.70259300
_cell_length_b   10.51041908
_cell_length_c   12.21679809
_cell_angle_alpha   89.98610631
_cell_angle_beta   90.00000468
_cell_angle_gamma   89.99984631
_symmetry_Int_Tables_number   1
_chemical_formula_structural   Tb5ErCo17ReP12
_chemical_formula_sum   'Tb5 Er1 Co17 Re1 P12'
_cell_volume   475.42650724
_cell_formula_units_Z   1
loop_
 _symmetry_equiv_pos_site_id
 _symmetry_equiv_pos_as_xyz
  1  'x, y, z'
loop_
 _atom_site_type_symbol
 _atom_site_label
 _atom_site_symmetry_multiplicity
 _atom_site_fract_x
 _atom_site_fract_y
 _atom_site_fract_z
 _atom_site_occupancy
  Tb  Tb0  1  0.999999  0.500033  0.523621  1
  Tb  Tb1  1  0.500000  0.999890  0.478059  1
  Tb  Tb2  1  0.500000  0.182016  0.206776  1
  Tb  Tb3  1  0.999999  0.683163  0.795068  1
  Tb  Tb4  1  0.000000  0.316969  0.795356  1
  Er  Er5  1  0.499998  0.817530  0.206735  1
  Co  Co6  1  0.000002  0.999698  0.840153  1
  Co  Co7  1  0.500000  0.500205  0.703035  1
  Co  Co8  1  0.000001  0.998994  0.295783  1
  Co  Co9  1  0.000000  0.500526  0.988632  1
  Co  Co10  1  0.500001  0.999394  0.015211  1
  Co  Co11  1  0.499999  0.332485  0.991754  1
  Co  Co12  1  0.500002  0.668123  0.992024  1
  Co  Co13  1  0.000000  0.166044  0.005804  1
  Co  Co14  1  0.000002  0.833358  0.006232  1
  Co  Co15  1  0.499999  0.296592  0.430496  1
  Co  Co16  1  0.500000  0.703496  0.429726  1
  Co  Co17  1  0.000000  0.203163  0.569039  1
  Co  Co18  1  0.999998  0.796754  0.568420  1
  Co  Co19  1  0.499999  0.879435  0.708855  1
  Co  Co20  1  0.500001  0.120582  0.709191  1
  Co  Co21  1  0.999997  0.621196  0.290356  1
  Co  Co22  1  0.999997  0.379959  0.290986  1
  Re  Re23  1  0.500006  0.500359  0.156851  1
  P  P24  1  0.499999  0.500303  0.881513  1
  P  P25  1  0.000004  0.998966  0.117464  1
  P  P26  1  0.499998  0.499921  0.349032  1
  P  P27  1  0.000000  0.000024  0.656332  1
  P  P28  1  0.500001  0.310526  0.616185  1
  P  P29  1  0.499999  0.689698  0.615759  1
  P  P30  1  0.000000  0.188776  0.384540  1
  P  P31  1  0.000000  0.811083  0.383364  1
  P  P32  1  0.500001  0.849980  0.892083  1
  P  P33  1  0.500000  0.149889  0.892497  1
  P  P34  1  0.000001  0.656850  0.106861  1
  P  P35  1  0.999997  0.344020  0.106209  1
