# generated using pymatgen
data_Li7Rh3
_symmetry_space_group_name_H-M   'P 1'
_cell_length_a   4.72693052
_cell_length_b   5.28293349
_cell_length_c   9.01545867
_cell_angle_alpha   41.61040160
_cell_angle_beta   97.96769178
_cell_angle_gamma   111.21593127
_symmetry_Int_Tables_number   1
_chemical_formula_structural   Li7Rh3
_chemical_formula_sum   'Li7 Rh3'
_cell_volume   136.16733436
_cell_formula_units_Z   1
loop_
 _symmetry_equiv_pos_site_id
 _symmetry_equiv_pos_as_xyz
  1  'x, y, z'
loop_
 _atom_site_type_symbol
 _atom_site_label
 _atom_site_symmetry_multiplicity
 _atom_site_fract_x
 _atom_site_fract_y
 _atom_site_fract_z
 _atom_site_occupancy
  Li  Li0  1  0.516238  0.525922  0.083692  1
  Li  Li1  1  0.311873  0.208916  0.501381  1
  Li  Li2  1  0.920117  0.625744  0.285847  1
  Li  Li3  1  0.326287  0.729049  0.486158  1
  Li  Li4  1  0.100257  0.414521  0.893281  1
  Li  Li5  1  0.739898  0.836628  0.678773  1
  Li  Li6  1  0.527919  0.041300  0.070934  1
  Rh  Rh7  1  0.921347  0.127461  0.285054  1
  Rh  Rh8  1  0.721245  0.316728  0.686115  1
  Rh  Rh9  1  0.121123  0.938154  0.883983  1
