# generated using pymatgen
data_AgP(SF2)3
_symmetry_space_group_name_H-M   'P 1'
_cell_length_a   8.81189332
_cell_length_b   8.81189311
_cell_length_c   5.28289220
_cell_angle_alpha   88.49545391
_cell_angle_beta   88.49545712
_cell_angle_gamma   117.99164406
_symmetry_Int_Tables_number   1
_chemical_formula_structural   AgP(SF2)3
_chemical_formula_sum   'Ag2 P2 S6 F12'
_cell_volume   361.75443220
_cell_formula_units_Z   2
loop_
 _symmetry_equiv_pos_site_id
 _symmetry_equiv_pos_as_xyz
  1  'x, y, z'
loop_
 _atom_site_type_symbol
 _atom_site_label
 _atom_site_symmetry_multiplicity
 _atom_site_fract_x
 _atom_site_fract_y
 _atom_site_fract_z
 _atom_site_occupancy
  Ag  Ag0  1  0.500000  0.500000  0.000000  1
  Ag  Ag1  1  0.000000  0.000000  0.500000  1
  P  P2  1  0.825088  0.174912  0.000000  1
  P  P3  1  0.174912  0.825088  0.000000  1
  S  S4  1  0.292364  0.292364  0.595269  1
  S  S5  1  0.707636  0.707636  0.404731  1
  S  S6  1  0.292009  0.507121  0.415206  1
  S  S7  1  0.507121  0.292009  0.415206  1
  S  S8  1  0.707991  0.492879  0.584794  1
  S  S9  1  0.492879  0.707991  0.584794  1
  F  F10  1  0.011176  0.203055  0.113608  1
  F  F11  1  0.203055  0.011176  0.113608  1
  F  F12  1  0.988824  0.796945  0.886392  1
  F  F13  1  0.796945  0.988824  0.886392  1
  F  F14  1  0.929232  0.272093  0.734265  1
  F  F15  1  0.272093  0.929232  0.734265  1
  F  F16  1  0.070768  0.727907  0.265735  1
  F  F17  1  0.727907  0.070768  0.265735  1
  F  F18  1  0.644700  0.145199  0.886027  1
  F  F19  1  0.145199  0.644700  0.886027  1
  F  F20  1  0.355300  0.854801  0.113973  1
  F  F21  1  0.854801  0.355300  0.113973  1
