# generated using pymatgen
data_Ho2Tc5(PIr)7
_symmetry_space_group_name_H-M   'P 1'
_cell_length_a   9.46178445
_cell_length_b   9.52674601
_cell_length_c   3.99405500
_cell_angle_alpha   90.00000000
_cell_angle_beta   90.00000000
_cell_angle_gamma   120.15935276
_symmetry_Int_Tables_number   1
_chemical_formula_structural   Ho2Tc5(PIr)7
_chemical_formula_sum   'Ho2 Tc5 P7 Ir7'
_cell_volume   311.28823135
_cell_formula_units_Z   1
loop_
 _symmetry_equiv_pos_site_id
 _symmetry_equiv_pos_as_xyz
  1  'x, y, z'
loop_
 _atom_site_type_symbol
 _atom_site_label
 _atom_site_symmetry_multiplicity
 _atom_site_fract_x
 _atom_site_fract_y
 _atom_site_fract_z
 _atom_site_occupancy
  Ho  Ho0  1  0.998014  0.000125  0.000000  1
  Ho  Ho1  1  0.331657  0.663635  0.500000  1
  Tc  Tc2  1  0.770430  0.169935  0.000000  1
  Tc  Tc3  1  0.395587  0.220603  0.000000  1
  Tc  Tc4  1  0.832589  0.610817  0.000000  1
  Tc  Tc5  1  0.576061  0.463862  0.500000  1
  Tc  Tc6  1  0.890376  0.427300  0.500000  1
  P  P7  1  0.550845  0.912489  0.000000  1
  P  P8  1  0.368794  0.447457  0.000000  1
  P  P9  1  0.082901  0.630143  0.000000  1
  P  P10  1  0.945191  0.213229  0.500000  1
  P  P11  1  0.260570  0.055982  0.500000  1
  P  P12  1  0.789141  0.734953  0.500000  1
  P  P13  1  0.671781  0.341329  0.000000  1
  Ir  Ir14  1  0.302017  0.895029  0.000000  1
  Ir  Ir15  1  0.595881  0.698030  0.000000  1
  Ir  Ir16  1  0.103738  0.402987  0.000000  1
  Ir  Ir17  1  0.724139  0.941758  0.500000  1
  Ir  Ir18  1  0.218603  0.277457  0.500000  1
  Ir  Ir19  1  0.062254  0.786305  0.500000  1
  Ir  Ir20  1  0.529432  0.106576  0.500000  1
