# generated using pymatgen
data_Cs4Si8Mo2O23
_symmetry_space_group_name_H-M   'P 1'
_cell_length_a   7.09938786
_cell_length_b   7.91675542
_cell_length_c   11.26003655
_cell_angle_alpha   103.17081691
_cell_angle_beta   89.72932250
_cell_angle_gamma   107.41514205
_symmetry_Int_Tables_number   1
_chemical_formula_structural   Cs4Si8Mo2O23
_chemical_formula_sum   'Cs4 Si8 Mo2 O23'
_cell_volume   586.59294117
_cell_formula_units_Z   1
loop_
 _symmetry_equiv_pos_site_id
 _symmetry_equiv_pos_as_xyz
  1  'x, y, z'
loop_
 _atom_site_type_symbol
 _atom_site_label
 _atom_site_symmetry_multiplicity
 _atom_site_fract_x
 _atom_site_fract_y
 _atom_site_fract_z
 _atom_site_occupancy
  Cs  Cs0  1  0.322295  0.277348  0.634009  1
  Cs  Cs1  1  0.677705  0.722652  0.365991  1
  Cs  Cs2  1  0.294733  0.202650  0.983942  1
  Cs  Cs3  1  0.705267  0.797350  0.016058  1
  Si  Si4  1  0.507708  0.189389  0.295115  1
  Si  Si5  1  0.492292  0.810611  0.704885  1
  Si  Si6  1  0.930525  0.857680  0.714158  1
  Si  Si7  1  0.069475  0.142320  0.285842  1
  Si  Si8  1  0.851221  0.297271  0.498253  1
  Si  Si9  1  0.148779  0.702729  0.501747  1
  Si  Si10  1  0.158305  0.668050  0.870789  1
  Si  Si11  1  0.841695  0.331950  0.129211  1
  Mo  Mo12  1  0.795820  0.256065  0.812493  1
  Mo  Mo13  1  0.204180  0.743935  0.187507  1
  O  O14  1  0.457036  0.973409  0.242992  1
  O  O15  1  0.542964  0.026591  0.757008  1
  O  O16  1  0.631479  0.303733  0.199513  1
  O  O17  1  0.368521  0.696267  0.800487  1
  O  O18  1  0.636690  0.270655  0.428585  1
  O  O19  1  0.363310  0.729345  0.571415  1
  O  O20  1  0.307047  0.254364  0.320072  1
  O  O21  1  0.692953  0.745636  0.679928  1
  O  O22  1  0.958799  0.067496  0.779236  1
  O  O23  1  0.041201  0.932504  0.220764  1
  O  O24  1  0.017398  0.757116  0.803079  1
  O  O25  1  0.982602  0.242884  0.196921  1
  O  O26  1  0.045779  0.847020  0.586187  1
  O  O27  1  0.954221  0.152980  0.413813  1
  O  O28  1  0.000000  0.500000  0.500000  1
  O  O29  1  0.819068  0.259838  0.630924  1
  O  O30  1  0.180932  0.740162  0.369076  1
  O  O31  1  0.062366  0.449989  0.853179  1
  O  O32  1  0.937634  0.550011  0.146821  1
  O  O33  1  0.206049  0.783763  0.011583  1
  O  O34  1  0.793951  0.216237  0.988417  1
  O  O35  1  0.642194  0.395028  0.845468  1
  O  O36  1  0.357806  0.604972  0.154532  1
