# generated using pymatgen
data_Tb4Pr3Th(MgIr)2
_symmetry_space_group_name_H-M   'P 1'
_cell_length_a   9.90302207
_cell_length_b   9.90302158
_cell_length_c   9.92894400
_cell_angle_alpha   59.91337841
_cell_angle_beta   59.91338009
_cell_angle_gamma   60.09740011
_symmetry_Int_Tables_number   1
_chemical_formula_structural   Tb4Pr3Th(MgIr)2
_chemical_formula_sum   'Tb8 Pr6 Th2 Mg4 Ir4'
_cell_volume   688.13160851
_cell_formula_units_Z   2
loop_
 _symmetry_equiv_pos_site_id
 _symmetry_equiv_pos_as_xyz
  1  'x, y, z'
loop_
 _atom_site_type_symbol
 _atom_site_label
 _atom_site_symmetry_multiplicity
 _atom_site_fract_x
 _atom_site_fract_y
 _atom_site_fract_z
 _atom_site_occupancy
  Tb  Tb0  1  0.346865  0.959486  0.346825  1
  Tb  Tb1  1  0.959486  0.346865  0.346825  1
  Tb  Tb2  1  0.814479  0.185802  0.185997  1
  Tb  Tb3  1  0.185802  0.814479  0.813722  1
  Tb  Tb4  1  0.185802  0.814479  0.185997  1
  Tb  Tb5  1  0.814479  0.185802  0.813722  1
  Tb  Tb6  1  0.185069  0.185069  0.814931  1
  Tb  Tb7  1  0.813593  0.813593  0.186407  1
  Pr  Pr8  1  0.941095  0.560321  0.561010  1
  Pr  Pr9  1  0.560321  0.941095  0.937574  1
  Pr  Pr10  1  0.560321  0.941095  0.561010  1
  Pr  Pr11  1  0.941095  0.560321  0.937574  1
  Pr  Pr12  1  0.562081  0.562081  0.937919  1
  Pr  Pr13  1  0.941854  0.941854  0.558146  1
  Th  Th14  1  0.343969  0.343969  0.347637  1
  Th  Th15  1  0.343969  0.343969  0.964427  1
  Mg  Mg16  1  0.578266  0.578266  0.578614  1
  Mg  Mg17  1  0.578266  0.578266  0.264853  1
  Mg  Mg18  1  0.578302  0.263046  0.579326  1
  Mg  Mg19  1  0.263046  0.578302  0.579326  1
  Ir  Ir20  1  0.142701  0.142701  0.141534  1
  Ir  Ir21  1  0.142701  0.142701  0.573065  1
  Ir  Ir22  1  0.145606  0.570831  0.141781  1
  Ir  Ir23  1  0.570831  0.145606  0.141781  1
