# generated using pymatgen
data_Li4Ac3PrGe8
_symmetry_space_group_name_H-M   'P 1'
_cell_length_a   4.11512100
_cell_length_b   8.02443349
_cell_length_c   11.05615188
_cell_angle_alpha   90.14549862
_cell_angle_beta   90.00000000
_cell_angle_gamma   90.00000000
_symmetry_Int_Tables_number   1
_chemical_formula_structural   Li4Ac3PrGe8
_chemical_formula_sum   'Li4 Ac3 Pr1 Ge8'
_cell_volume   365.08970548
_cell_formula_units_Z   1
loop_
 _symmetry_equiv_pos_site_id
 _symmetry_equiv_pos_as_xyz
  1  'x, y, z'
loop_
 _atom_site_type_symbol
 _atom_site_label
 _atom_site_symmetry_multiplicity
 _atom_site_fract_x
 _atom_site_fract_y
 _atom_site_fract_z
 _atom_site_occupancy
  Li  Li0  1  0.750000  0.509699  0.109461  1
  Li  Li1  1  0.750000  0.009291  0.389159  1
  Li  Li2  1  0.250000  0.990811  0.612289  1
  Li  Li3  1  0.250000  0.491450  0.889252  1
  Ac  Ac4  1  0.250000  0.138991  0.132429  1
  Ac  Ac5  1  0.250000  0.640764  0.366595  1
  Ac  Ac6  1  0.750000  0.359860  0.634915  1
  Pr  Pr7  1  0.750000  0.864127  0.866253  1
  Ge  Ge8  1  0.250000  0.718159  0.064611  1
  Ge  Ge9  1  0.750000  0.837352  0.177963  1
  Ge  Ge10  1  0.750000  0.337405  0.318823  1
  Ge  Ge11  1  0.250000  0.215664  0.429978  1
  Ge  Ge12  1  0.750000  0.786271  0.573866  1
  Ge  Ge13  1  0.250000  0.666047  0.686004  1
  Ge  Ge14  1  0.250000  0.155237  0.818898  1
  Ge  Ge15  1  0.750000  0.278872  0.929502  1
