# generated using pymatgen
data_Ho6InSi2
_symmetry_space_group_name_H-M   'P 1'
_cell_length_a   8.49191104
_cell_length_b   8.49191080
_cell_length_c   8.49191178
_cell_angle_alpha   112.47787764
_cell_angle_beta   110.98123579
_cell_angle_gamma   105.04699228
_symmetry_Int_Tables_number   1
_chemical_formula_structural   Ho6InSi2
_chemical_formula_sum   'Ho12 In2 Si4'
_cell_volume   469.23149620
_cell_formula_units_Z   2
loop_
 _symmetry_equiv_pos_site_id
 _symmetry_equiv_pos_as_xyz
  1  'x, y, z'
loop_
 _atom_site_type_symbol
 _atom_site_label
 _atom_site_symmetry_multiplicity
 _atom_site_fract_x
 _atom_site_fract_y
 _atom_site_fract_z
 _atom_site_occupancy
  Ho  Ho0  1  0.319608  0.616043  0.296434  1
  Ho  Ho1  1  0.680392  0.383957  0.703566  1
  Ho  Ho2  1  0.319608  0.023173  0.703566  1
  Ho  Ho3  1  0.680392  0.976827  0.296434  1
  Ho  Ho4  1  0.186420  0.278438  0.464857  1
  Ho  Ho5  1  0.813580  0.721562  0.535143  1
  Ho  Ho6  1  0.186420  0.721562  0.907982  1
  Ho  Ho7  1  0.813580  0.278438  0.092018  1
  Ho  Ho8  1  0.442608  0.237776  0.204833  1
  Ho  Ho9  1  0.557392  0.762224  0.795167  1
  Ho  Ho10  1  0.032943  0.237776  0.795167  1
  Ho  Ho11  1  0.967057  0.762224  0.204833  1
  In  In12  1  0.500000  0.500000  0.000000  1
  In  In13  1  0.000000  0.000000  0.000000  1
  Si  Si14  1  0.115671  0.615671  0.500000  1
  Si  Si15  1  0.884329  0.384329  0.500000  1
  Si  Si16  1  0.369448  0.000000  0.369448  1
  Si  Si17  1  0.630552  0.000000  0.630552  1
