# generated using pymatgen
data_Tm10Ga3Sn2Os
_symmetry_space_group_name_H-M   'P 1'
_cell_length_a   8.60909401
_cell_length_b   8.60909429
_cell_length_c   8.64211700
_cell_angle_alpha   125.86207679
_cell_angle_beta   125.86206991
_cell_angle_gamma   79.85345067
_symmetry_Int_Tables_number   1
_chemical_formula_structural   Tm10Ga3Sn2Os
_chemical_formula_sum   'Tm10 Ga3 Sn2 Os1'
_cell_volume   406.86085635
_cell_formula_units_Z   1
loop_
 _symmetry_equiv_pos_site_id
 _symmetry_equiv_pos_as_xyz
  1  'x, y, z'
loop_
 _atom_site_type_symbol
 _atom_site_label
 _atom_site_symmetry_multiplicity
 _atom_site_fract_x
 _atom_site_fract_y
 _atom_site_fract_z
 _atom_site_occupancy
  Tm  Tm0  1  0.010084  0.004288  0.014372  1
  Tm  Tm1  1  0.495712  0.489916  0.985628  1
  Tm  Tm2  1  0.790250  0.300746  0.807532  1
  Tm  Tm3  1  0.199254  0.709750  0.192468  1
  Tm  Tm4  1  0.482718  0.993214  0.192468  1
  Tm  Tm5  1  0.309042  0.464200  0.500000  1
  Tm  Tm6  1  0.035800  0.190958  0.500000  1
  Tm  Tm7  1  0.506786  0.017282  0.807532  1
  Tm  Tm8  1  0.696522  0.518758  0.500000  1
  Tm  Tm9  1  0.981242  0.803478  0.500000  1
  Ga  Ga10  1  0.132305  0.638877  0.771183  1
  Ga  Ga11  1  0.861123  0.367695  0.228817  1
  Ga  Ga12  1  0.634138  0.865862  0.500000  1
  Sn  Sn13  1  0.245356  0.254644  0.000000  1
  Sn  Sn14  1  0.745356  0.754644  0.000000  1
  Os  Os15  1  0.374310  0.125690  0.500000  1
