# generated using pymatgen
data_Tb8Sc12GePb15
_symmetry_space_group_name_H-M   'P 1'
_cell_length_a   7.81227700
_cell_length_b   8.05559880
_cell_length_c   14.97984400
_cell_angle_alpha   90.00000000
_cell_angle_beta   90.00000000
_cell_angle_gamma   89.32091422
_symmetry_Int_Tables_number   1
_chemical_formula_structural   Tb8Sc12GePb15
_chemical_formula_sum   'Tb8 Sc12 Ge1 Pb15'
_cell_volume   942.65385583
_cell_formula_units_Z   1
loop_
 _symmetry_equiv_pos_site_id
 _symmetry_equiv_pos_as_xyz
  1  'x, y, z'
loop_
 _atom_site_type_symbol
 _atom_site_label
 _atom_site_symmetry_multiplicity
 _atom_site_fract_x
 _atom_site_fract_y
 _atom_site_fract_z
 _atom_site_occupancy
  Tb  Tb0  1  0.487257  0.319625  0.094840  1
  Tb  Tb1  1  0.986907  0.167312  0.401327  1
  Tb  Tb2  1  0.511525  0.678892  0.592382  1
  Tb  Tb3  1  0.015668  0.822720  0.905941  1
  Tb  Tb4  1  0.511525  0.678892  0.907618  1
  Tb  Tb5  1  0.015668  0.822720  0.594059  1
  Tb  Tb6  1  0.487257  0.319625  0.405160  1
  Tb  Tb7  1  0.986907  0.167312  0.098673  1
  Sc  Sc8  1  0.671948  0.004002  0.750000  1
  Sc  Sc9  1  0.171098  0.495395  0.750000  1
  Sc  Sc10  1  0.315362  0.991823  0.250000  1
  Sc  Sc11  1  0.828613  0.511303  0.250000  1
  Sc  Sc12  1  0.843074  0.342753  0.626535  1
  Sc  Sc13  1  0.341734  0.156045  0.874890  1
  Sc  Sc14  1  0.143012  0.669852  0.133159  1
  Sc  Sc15  1  0.674752  0.845815  0.370146  1
  Sc  Sc16  1  0.143012  0.669852  0.366841  1
  Sc  Sc17  1  0.674752  0.845815  0.129854  1
  Sc  Sc18  1  0.843074  0.342753  0.873465  1
  Sc  Sc19  1  0.341734  0.156045  0.625110  1
  Ge  Ge20  1  0.964366  0.866569  0.250000  1
  Pb  Pb21  1  0.818155  0.655680  0.750000  1
  Pb  Pb22  1  0.320170  0.843601  0.750000  1
  Pb  Pb23  1  0.181468  0.347239  0.250000  1
  Pb  Pb24  1  0.682509  0.153409  0.250000  1
  Pb  Pb25  1  0.529457  0.370885  0.750000  1
  Pb  Pb26  1  0.033564  0.129691  0.750000  1
  Pb  Pb27  1  0.468371  0.631686  0.250000  1
  Pb  Pb28  1  0.691753  0.044721  0.543169  1
  Pb  Pb29  1  0.188227  0.457645  0.959611  1
  Pb  Pb30  1  0.312522  0.952756  0.044620  1
  Pb  Pb31  1  0.811029  0.541225  0.456065  1
  Pb  Pb32  1  0.312522  0.952756  0.455380  1
  Pb  Pb33  1  0.811029  0.541225  0.043935  1
  Pb  Pb34  1  0.691753  0.044721  0.956831  1
  Pb  Pb35  1  0.188227  0.457645  0.540389  1
