# generated using pymatgen
data_Tm4Cu2(TcRu)3
_symmetry_space_group_name_H-M   'P 1'
_cell_length_a   5.27188740
_cell_length_b   5.16568154
_cell_length_c   8.86603300
_cell_angle_alpha   90.00000000
_cell_angle_beta   90.00000000
_cell_angle_gamma   119.35708019
_symmetry_Int_Tables_number   1
_chemical_formula_structural   Tm4Cu2(TcRu)3
_chemical_formula_sum   'Tm4 Cu2 Tc3 Ru3'
_cell_volume   210.44131202
_cell_formula_units_Z   1
loop_
 _symmetry_equiv_pos_site_id
 _symmetry_equiv_pos_as_xyz
  1  'x, y, z'
loop_
 _atom_site_type_symbol
 _atom_site_label
 _atom_site_symmetry_multiplicity
 _atom_site_fract_x
 _atom_site_fract_y
 _atom_site_fract_z
 _atom_site_occupancy
  Tm  Tm0  1  0.676435  0.338278  0.559622  1
  Tm  Tm1  1  0.341037  0.670477  0.434218  1
  Tm  Tm2  1  0.341037  0.670477  0.065782  1
  Tm  Tm3  1  0.676435  0.338278  0.940378  1
  Cu  Cu4  1  0.811946  0.653126  0.250000  1
  Cu  Cu5  1  0.811980  0.158728  0.250000  1
  Tc  Tc6  1  0.171861  0.338499  0.750000  1
  Tc  Tc7  1  0.171900  0.833418  0.750000  1
  Tc  Tc8  1  0.657589  0.828821  0.750000  1
  Ru  Ru9  1  0.015000  0.007522  0.494300  1
  Ru  Ru10  1  0.015000  0.007522  0.005700  1
  Ru  Ru11  1  0.309783  0.154854  0.250000  1
