# generated using pymatgen
data_Sc8Cr7Si16Tc5
_symmetry_space_group_name_H-M   'P 1'
_cell_length_a   6.57683506
_cell_length_b   6.57219924
_cell_length_c   12.09117884
_cell_angle_alpha   89.88587641
_cell_angle_beta   89.90937047
_cell_angle_gamma   89.99455191
_symmetry_Int_Tables_number   1
_chemical_formula_structural   Sc8Cr7Si16Tc5
_chemical_formula_sum   'Sc8 Cr7 Si16 Tc5'
_cell_volume   522.63069039
_cell_formula_units_Z   1
loop_
 _symmetry_equiv_pos_site_id
 _symmetry_equiv_pos_as_xyz
  1  'x, y, z'
loop_
 _atom_site_type_symbol
 _atom_site_label
 _atom_site_symmetry_multiplicity
 _atom_site_fract_x
 _atom_site_fract_y
 _atom_site_fract_z
 _atom_site_occupancy
  Sc  Sc0  1  0.003301  0.662431  0.029076  1
  Sc  Sc1  1  0.497504  0.162024  0.220967  1
  Sc  Sc2  1  0.838021  0.501250  0.279520  1
  Sc  Sc3  1  0.335977  0.999074  0.472217  1
  Sc  Sc4  1  0.997941  0.336459  0.528568  1
  Sc  Sc5  1  0.501840  0.836707  0.720982  1
  Sc  Sc6  1  0.162856  0.497626  0.777928  1
  Sc  Sc7  1  0.663201  0.001336  0.970421  1
  Cr  Cr8  1  0.986228  0.170661  0.126988  1
  Cr  Cr9  1  0.830375  0.012787  0.374373  1
  Cr  Cr10  1  0.330855  0.488776  0.376022  1
  Cr  Cr11  1  0.488450  0.330935  0.623659  1
  Cr  Cr12  1  0.011688  0.831302  0.626459  1
  Cr  Cr13  1  0.168725  0.986847  0.873377  1
  Cr  Cr14  1  0.667721  0.511708  0.876623  1
  Si  Si15  1  0.281484  0.969632  0.064532  1
  Si  Si16  1  0.701495  0.373005  0.065060  1
  Si  Si17  1  0.806015  0.882293  0.185912  1
  Si  Si18  1  0.212100  0.464085  0.184712  1
  Si  Si19  1  0.534867  0.789046  0.317658  1
  Si  Si20  1  0.121409  0.198479  0.316804  1
  Si  Si21  1  0.621116  0.300494  0.433664  1
  Si  Si22  1  0.033781  0.715009  0.435034  1
  Si  Si23  1  0.714051  0.034255  0.565478  1
  Si  Si24  1  0.300529  0.621108  0.566458  1
  Si  Si25  1  0.199654  0.121386  0.683540  1
  Si  Si26  1  0.785545  0.534051  0.684676  1
  Si  Si27  1  0.465663  0.214185  0.814760  1
  Si  Si28  1  0.878195  0.800171  0.816479  1
  Si  Si29  1  0.375852  0.700229  0.930923  1
  Si  Si30  1  0.967213  0.285610  0.934440  1
  Tc  Tc31  1  0.331837  0.330555  0.998118  1
  Tc  Tc32  1  0.517789  0.670172  0.122968  1
  Tc  Tc33  1  0.166743  0.831657  0.251228  1
  Tc  Tc34  1  0.667582  0.667161  0.500354  1
  Tc  Tc35  1  0.832397  0.167498  0.750024  1
