# generated using pymatgen
data_Tb5HoAl24ZnOs7
_symmetry_space_group_name_H-M   'P 1'
_cell_length_a   8.86791308
_cell_length_b   8.86791328
_cell_length_c   9.55704773
_cell_angle_alpha   89.96693925
_cell_angle_beta   90.03306019
_cell_angle_gamma   120.01113186
_symmetry_Int_Tables_number   1
_chemical_formula_structural   Tb5HoAl24ZnOs7
_chemical_formula_sum   'Tb5 Ho1 Al24 Zn1 Os7'
_cell_volume   650.80132557
_cell_formula_units_Z   1
loop_
 _symmetry_equiv_pos_site_id
 _symmetry_equiv_pos_as_xyz
  1  'x, y, z'
loop_
 _atom_site_type_symbol
 _atom_site_label
 _atom_site_symmetry_multiplicity
 _atom_site_fract_x
 _atom_site_fract_y
 _atom_site_fract_z
 _atom_site_occupancy
  Tb  Tb0  1  0.191106  0.385751  0.248225  1
  Tb  Tb1  1  0.808861  0.614076  0.751739  1
  Tb  Tb2  1  0.614249  0.808894  0.248225  1
  Tb  Tb3  1  0.385924  0.191139  0.751739  1
  Tb  Tb4  1  0.194192  0.805808  0.252945  1
  Ho  Ho5  1  0.805376  0.194624  0.747018  1
  Al  Al6  1  0.329651  0.670349  0.020482  1
  Al  Al7  1  0.670543  0.329457  0.979264  1
  Al  Al8  1  0.666194  0.333806  0.517325  1
  Al  Al9  1  0.333971  0.666029  0.482948  1
  Al  Al10  1  0.162409  0.325762  0.574107  1
  Al  Al11  1  0.837372  0.674162  0.426029  1
  Al  Al12  1  0.674238  0.837591  0.574107  1
  Al  Al13  1  0.848517  0.677182  0.080723  1
  Al  Al14  1  0.325838  0.162628  0.426029  1
  Al  Al15  1  0.151161  0.322680  0.919125  1
  Al  Al16  1  0.162916  0.837084  0.575175  1
  Al  Al17  1  0.322818  0.151483  0.080723  1
  Al  Al18  1  0.837070  0.162930  0.425139  1
  Al  Al19  1  0.677320  0.848839  0.919125  1
  Al  Al20  1  0.836637  0.163363  0.076092  1
  Al  Al21  1  0.163341  0.836659  0.923602  1
  Al  Al22  1  0.561778  0.122082  0.249247  1
  Al  Al23  1  0.438690  0.878296  0.750742  1
  Al  Al24  1  0.877918  0.438222  0.249247  1
  Al  Al25  1  0.121704  0.561310  0.750742  1
  Al  Al26  1  0.563689  0.436311  0.254551  1
  Al  Al27  1  0.436268  0.563732  0.745445  1
  Al  Al28  1  0.999101  0.000899  0.250537  1
  Al  Al29  1  0.000684  0.999316  0.749477  1
  Zn  Zn30  1  0.500020  0.499980  0.000035  1
  Os  Os31  1  0.500352  0.000172  0.999764  1
  Os  Os32  1  0.999828  0.499648  0.999764  1
  Os  Os33  1  0.500412  0.000225  0.500269  1
  Os  Os34  1  0.999775  0.499588  0.500269  1
  Os  Os35  1  0.500089  0.499911  0.499995  1
  Os  Os36  1  0.000011  0.999989  0.999924  1
  Os  Os37  1  0.999975  0.000025  0.500108  1
