# generated using pymatgen
data_Tb5Ho2Tm13Pb16
_symmetry_space_group_name_H-M   'P 1'
_cell_length_a   8.15746675
_cell_length_b   15.50921878
_cell_length_c   8.22154535
_cell_angle_alpha   89.99672928
_cell_angle_beta   89.89360689
_cell_angle_gamma   90.11031001
_symmetry_Int_Tables_number   1
_chemical_formula_structural   Tb5Ho2Tm13Pb16
_chemical_formula_sum   'Tb5 Ho2 Tm13 Pb16'
_cell_volume   1040.15278694
_cell_formula_units_Z   1
loop_
 _symmetry_equiv_pos_site_id
 _symmetry_equiv_pos_as_xyz
  1  'x, y, z'
loop_
 _atom_site_type_symbol
 _atom_site_label
 _atom_site_symmetry_multiplicity
 _atom_site_fract_x
 _atom_site_fract_y
 _atom_site_fract_z
 _atom_site_occupancy
  Tb  Tb0  1  0.963680  0.900260  0.823203  1
  Tb  Tb1  1  0.536508  0.099504  0.323563  1
  Tb  Tb2  1  0.036928  0.400334  0.176263  1
  Tb  Tb3  1  0.536985  0.400427  0.323890  1
  Tb  Tb4  1  0.036496  0.099529  0.176548  1
  Ho  Ho5  1  0.463562  0.900400  0.676353  1
  Ho  Ho6  1  0.963121  0.599833  0.823403  1
  Tm  Tm7  1  0.623201  0.621648  0.158139  1
  Tm  Tm8  1  0.123799  0.878324  0.342003  1
  Tm  Tm9  1  0.376608  0.121480  0.841645  1
  Tm  Tm10  1  0.877149  0.378652  0.658668  1
  Tm  Tm11  1  0.377234  0.378869  0.841292  1
  Tm  Tm12  1  0.876451  0.121532  0.658390  1
  Tm  Tm13  1  0.623427  0.878156  0.158033  1
  Tm  Tm14  1  0.123216  0.621571  0.342041  1
  Tm  Tm15  1  0.461975  0.600065  0.675714  1
  Tm  Tm16  1  0.791283  0.749674  0.495422  1
  Tm  Tm17  1  0.291853  0.749722  0.004837  1
  Tm  Tm18  1  0.208341  0.250138  0.505066  1
  Tm  Tm19  1  0.708260  0.250094  0.994833  1
  Pb  Pb20  1  0.717974  0.457402  0.965655  1
  Pb  Pb21  1  0.217391  0.042490  0.535224  1
  Pb  Pb22  1  0.283397  0.956964  0.034259  1
  Pb  Pb23  1  0.781351  0.543164  0.467278  1
  Pb  Pb24  1  0.282775  0.543234  0.033076  1
  Pb  Pb25  1  0.782618  0.956952  0.465466  1
  Pb  Pb26  1  0.717095  0.042741  0.965433  1
  Pb  Pb27  1  0.218079  0.457885  0.535136  1
  Pb  Pb28  1  0.428884  0.750014  0.373268  1
  Pb  Pb29  1  0.928875  0.749996  0.127375  1
  Pb  Pb30  1  0.571177  0.250065  0.627378  1
  Pb  Pb31  1  0.071225  0.249993  0.872269  1
  Pb  Pb32  1  0.650743  0.749412  0.844704  1
  Pb  Pb33  1  0.152292  0.749574  0.654031  1
  Pb  Pb34  1  0.348074  0.249994  0.153667  1
  Pb  Pb35  1  0.847973  0.249910  0.346473  1
