# generated using pymatgen
data_HoFeP3(RuRh)2
_symmetry_space_group_name_H-M   'P 1'
_cell_length_a   3.85081400
_cell_length_b   10.72074100
_cell_length_c   12.27367900
_cell_angle_alpha   90.00000000
_cell_angle_beta   90.00000000
_cell_angle_gamma   90.00000000
_symmetry_Int_Tables_number   1
_chemical_formula_structural   HoFeP3(RuRh)2
_chemical_formula_sum   'Ho4 Fe4 P12 Ru8 Rh8'
_cell_volume   506.70140316
_cell_formula_units_Z   4
loop_
 _symmetry_equiv_pos_site_id
 _symmetry_equiv_pos_as_xyz
  1  'x, y, z'
loop_
 _atom_site_type_symbol
 _atom_site_label
 _atom_site_symmetry_multiplicity
 _atom_site_fract_x
 _atom_site_fract_y
 _atom_site_fract_z
 _atom_site_occupancy
  Ho  Ho0  1  0.250000  0.583378  0.706608  1
  Ho  Ho1  1  0.250000  0.916622  0.206608  1
  Ho  Ho2  1  0.750000  0.416622  0.293392  1
  Ho  Ho3  1  0.750000  0.083378  0.793392  1
  Fe  Fe4  1  0.250000  0.462273  0.935165  1
  Fe  Fe5  1  0.250000  0.037727  0.435165  1
  Fe  Fe6  1  0.750000  0.537727  0.064835  1
  Fe  Fe7  1  0.750000  0.962273  0.564835  1
  P  P8  1  0.250000  0.428792  0.108039  1
  P  P9  1  0.250000  0.071208  0.608039  1
  P  P10  1  0.750000  0.571208  0.891961  1
  P  P11  1  0.750000  0.928792  0.391961  1
  P  P12  1  0.250000  0.268837  0.873904  1
  P  P13  1  0.250000  0.231163  0.373904  1
  P  P14  1  0.750000  0.731163  0.126096  1
  P  P15  1  0.750000  0.768837  0.626096  1
  P  P16  1  0.250000  0.597207  0.395599  1
  P  P17  1  0.250000  0.902793  0.895599  1
  P  P18  1  0.750000  0.402793  0.604401  1
  P  P19  1  0.750000  0.097207  0.104401  1
  Ru  Ru20  1  0.250000  0.706942  0.985883  1
  Ru  Ru21  1  0.250000  0.793058  0.485883  1
  Ru  Ru22  1  0.750000  0.293058  0.014117  1
  Ru  Ru23  1  0.750000  0.206942  0.514117  1
  Ru  Ru24  1  0.250000  0.403702  0.488244  1
  Ru  Ru25  1  0.250000  0.096298  0.988244  1
  Ru  Ru26  1  0.750000  0.596298  0.511756  1
  Ru  Ru27  1  0.750000  0.903702  0.011756  1
  Rh  Rh28  1  0.250000  0.233865  0.179457  1
  Rh  Rh29  1  0.250000  0.266135  0.679457  1
  Rh  Rh30  1  0.750000  0.766135  0.820543  1
  Rh  Rh31  1  0.750000  0.733865  0.320543  1
  Rh  Rh32  1  0.250000  0.885819  0.703545  1
  Rh  Rh33  1  0.250000  0.614181  0.203545  1
  Rh  Rh34  1  0.750000  0.114181  0.296455  1
  Rh  Rh35  1  0.750000  0.385819  0.796455  1
