# generated using pymatgen
data_Ba4HoMn3O12
_symmetry_space_group_name_H-M   'P 1'
_cell_length_a   10.26845726
_cell_length_b   10.26845684
_cell_length_c   10.26845686
_cell_angle_alpha   33.22416295
_cell_angle_beta   33.22416584
_cell_angle_gamma   33.22416722
_symmetry_Int_Tables_number   1
_chemical_formula_structural   Ba4HoMn3O12
_chemical_formula_sum   'Ba4 Ho1 Mn3 O12'
_cell_volume   289.36750466
_cell_formula_units_Z   1
loop_
 _symmetry_equiv_pos_site_id
 _symmetry_equiv_pos_as_xyz
  1  'x, y, z'
loop_
 _atom_site_type_symbol
 _atom_site_label
 _atom_site_symmetry_multiplicity
 _atom_site_fract_x
 _atom_site_fract_y
 _atom_site_fract_z
 _atom_site_occupancy
  Ba  Ba0  1  0.870681  0.870681  0.870681  1
  Ba  Ba1  1  0.129319  0.129319  0.129319  1
  Ba  Ba2  1  0.715853  0.715853  0.715853  1
  Ba  Ba3  1  0.284147  0.284147  0.284147  1
  Ho  Ho4  1  0.000000  0.000000  0.000000  1
  Mn  Mn5  1  0.411842  0.411842  0.411842  1
  Mn  Mn6  1  0.500000  0.500000  0.500000  1
  Mn  Mn7  1  0.588159  0.588159  0.588159  1
  O  O8  1  0.395627  0.835158  0.395628  1
  O  O9  1  0.395628  0.395628  0.835156  1
  O  O10  1  0.835158  0.395627  0.395628  1
  O  O11  1  0.164842  0.604373  0.604372  1
  O  O12  1  0.604372  0.604372  0.164844  1
  O  O13  1  0.604373  0.164842  0.604372  1
  O  O14  1  0.221094  0.690820  0.221092  1
  O  O15  1  0.221093  0.221093  0.690820  1
  O  O16  1  0.690820  0.221094  0.221092  1
  O  O17  1  0.309180  0.778906  0.778908  1
  O  O18  1  0.778907  0.778907  0.309180  1
  O  O19  1  0.778906  0.309180  0.778908  1
