# generated using pymatgen
data_NiPtI18
_symmetry_space_group_name_H-M   'P 1'
_cell_length_a   9.96236212
_cell_length_b   10.01694210
_cell_length_c   9.94572535
_cell_angle_alpha   94.78085749
_cell_angle_beta   94.81304396
_cell_angle_gamma   94.67169826
_symmetry_Int_Tables_number   1
_chemical_formula_structural   NiPtI18
_chemical_formula_sum   'Ni1 Pt1 I18'
_cell_volume   981.65048748
_cell_formula_units_Z   1
loop_
 _symmetry_equiv_pos_site_id
 _symmetry_equiv_pos_as_xyz
  1  'x, y, z'
loop_
 _atom_site_type_symbol
 _atom_site_label
 _atom_site_symmetry_multiplicity
 _atom_site_fract_x
 _atom_site_fract_y
 _atom_site_fract_z
 _atom_site_occupancy
  Ni  Ni0  1  0.500000  0.500000  0.500000  1
  Pt  Pt1  1  0.000000  0.000000  0.000000  1
  I  I2  1  0.773064  0.480705  0.521631  1
  I  I3  1  0.521089  0.771380  0.480157  1
  I  I4  1  0.481067  0.522165  0.773525  1
  I  I5  1  0.226936  0.519295  0.478369  1
  I  I6  1  0.478911  0.228620  0.519843  1
  I  I7  1  0.518933  0.477835  0.226475  1
  I  I8  1  0.891217  0.369169  0.757525  1
  I  I9  1  0.756797  0.889791  0.369770  1
  I  I10  1  0.369866  0.757196  0.891126  1
  I  I11  1  0.108783  0.630831  0.242475  1
  I  I12  1  0.243203  0.110209  0.630230  1
  I  I13  1  0.630134  0.242804  0.108874  1
  I  I14  1  0.997361  0.962610  0.725949  1
  I  I15  1  0.726525  0.997734  0.961407  1
  I  I16  1  0.961506  0.727983  0.996279  1
  I  I17  1  0.002639  0.037390  0.274051  1
  I  I18  1  0.273475  0.002266  0.038593  1
  I  I19  1  0.038494  0.272017  0.003721  1
