# generated using pymatgen
data_Dy3YEr4(WO6)4
_symmetry_space_group_name_H-M   'P 1'
_cell_length_a   5.38958200
_cell_length_b   7.69200619
_cell_length_c   11.42718514
_cell_angle_alpha   75.48840880
_cell_angle_beta   90.00000000
_cell_angle_gamma   90.00000000
_symmetry_Int_Tables_number   1
_chemical_formula_structural   Dy3YEr4(WO6)4
_chemical_formula_sum   'Dy3 Y1 Er4 W4 O24'
_cell_volume   458.61983361
_cell_formula_units_Z   1
loop_
 _symmetry_equiv_pos_site_id
 _symmetry_equiv_pos_as_xyz
  1  'x, y, z'
loop_
 _atom_site_type_symbol
 _atom_site_label
 _atom_site_symmetry_multiplicity
 _atom_site_fract_x
 _atom_site_fract_y
 _atom_site_fract_z
 _atom_site_occupancy
  Dy  Dy0  1  0.316126  0.500000  0.750000  1
  Dy  Dy1  1  0.741124  0.000000  0.250000  1
  Dy  Dy2  1  0.258913  0.000000  0.750000  1
  Y  Y3  1  0.683943  0.500000  0.250000  1
  Er  Er4  1  0.183384  0.206123  0.421804  1
  Er  Er5  1  0.183384  0.793877  0.078196  1
  Er  Er6  1  0.816686  0.793729  0.578282  1
  Er  Er7  1  0.816686  0.206271  0.921718  1
  W  W8  1  0.256038  0.276120  0.114482  1
  W  W9  1  0.256038  0.723880  0.385518  1
  W  W10  1  0.743981  0.723739  0.885300  1
  W  W11  1  0.743981  0.276261  0.614700  1
  O  O12  1  0.456641  0.208485  0.273594  1
  O  O13  1  0.456641  0.791515  0.226406  1
  O  O14  1  0.543088  0.791098  0.726431  1
  O  O15  1  0.543088  0.208902  0.773569  1
  O  O16  1  0.045972  0.059762  0.103575  1
  O  O17  1  0.045972  0.940238  0.396425  1
  O  O18  1  0.954036  0.940280  0.896355  1
  O  O19  1  0.954036  0.059720  0.603645  1
  O  O20  1  0.981306  0.288310  0.229044  1
  O  O21  1  0.981306  0.711690  0.270956  1
  O  O22  1  0.019082  0.711216  0.771025  1
  O  O23  1  0.019082  0.288784  0.728975  1
  O  O24  1  0.850565  0.365233  0.451413  1
  O  O25  1  0.850565  0.634767  0.048587  1
  O  O26  1  0.149744  0.634709  0.548862  1
  O  O27  1  0.149744  0.365291  0.951138  1
  O  O28  1  0.640258  0.510654  0.614211  1
  O  O29  1  0.640258  0.489346  0.885789  1
  O  O30  1  0.358959  0.489229  0.386077  1
  O  O31  1  0.358959  0.510771  0.113923  1
  O  O32  1  0.463907  0.154799  0.568534  1
  O  O33  1  0.463907  0.845201  0.931466  1
  O  O34  1  0.536299  0.845222  0.431483  1
  O  O35  1  0.536299  0.154778  0.068517  1
