# generated using pymatgen
data_La4Nd2MgCuSb14
_symmetry_space_group_name_H-M   'P 1'
_cell_length_a   12.63439351
_cell_length_b   12.63439396
_cell_length_c   4.29370402
_cell_angle_alpha   80.19771086
_cell_angle_beta   80.19769837
_cell_angle_gamma   101.33756716
_symmetry_Int_Tables_number   1
_chemical_formula_structural   La4Nd2MgCuSb14
_chemical_formula_sum   'La4 Nd2 Mg1 Cu1 Sb14'
_cell_volume   647.32177780
_cell_formula_units_Z   1
loop_
 _symmetry_equiv_pos_site_id
 _symmetry_equiv_pos_as_xyz
  1  'x, y, z'
loop_
 _atom_site_type_symbol
 _atom_site_label
 _atom_site_symmetry_multiplicity
 _atom_site_fract_x
 _atom_site_fract_y
 _atom_site_fract_z
 _atom_site_occupancy
  La  La0  1  0.271618  0.006764  0.793693  1
  La  La1  1  0.727247  0.998176  0.070712  1
  La  La2  1  0.998176  0.727247  0.070712  1
  La  La3  1  0.006764  0.271618  0.793693  1
  Nd  Nd4  1  0.327482  0.678546  0.929948  1
  Nd  Nd5  1  0.678546  0.327482  0.929948  1
  Mg  Mg6  1  0.376423  0.376423  0.056892  1
  Cu  Cu7  1  0.266749  0.266749  0.666309  1
  Sb  Sb8  1  0.567678  0.567678  0.865432  1
  Sb  Sb9  1  0.473063  0.253729  0.569368  1
  Sb  Sb10  1  0.550820  0.745087  0.284859  1
  Sb  Sb11  1  0.745087  0.550820  0.284859  1
  Sb  Sb12  1  0.253729  0.473063  0.569368  1
  Sb  Sb13  1  0.512848  0.911475  0.721294  1
  Sb  Sb14  1  0.489077  0.083764  0.146482  1
  Sb  Sb15  1  0.083764  0.489077  0.146482  1
  Sb  Sb16  1  0.911475  0.512848  0.721294  1
  Sb  Sb17  1  0.164989  0.164989  0.268688  1
  Sb  Sb18  1  0.858104  0.858104  0.575412  1
  Sb  Sb19  1  0.202845  0.800339  0.431484  1
  Sb  Sb20  1  0.800339  0.202845  0.431484  1
  Sb  Sb21  1  0.993778  0.993778  0.938888  1
