# generated using pymatgen
data_Mn3Pd12W
_symmetry_space_group_name_H-M   'P 1'
_cell_length_a   5.58043100
_cell_length_b   5.58043124
_cell_length_c   9.03457200
_cell_angle_alpha   90.00000000
_cell_angle_beta   90.00000000
_cell_angle_gamma   120.00000450
_symmetry_Int_Tables_number   1
_chemical_formula_structural   Mn3Pd12W
_chemical_formula_sum   'Mn3 Pd12 W1'
_cell_volume   243.65408631
_cell_formula_units_Z   1
loop_
 _symmetry_equiv_pos_site_id
 _symmetry_equiv_pos_as_xyz
  1  'x, y, z'
loop_
 _atom_site_type_symbol
 _atom_site_label
 _atom_site_symmetry_multiplicity
 _atom_site_fract_x
 _atom_site_fract_y
 _atom_site_fract_z
 _atom_site_occupancy
  Mn  Mn0  1  0.000000  0.000000  0.500000  1
  Mn  Mn1  1  0.333333  0.666667  0.745622  1
  Mn  Mn2  1  0.666667  0.333333  0.254378  1
  Pd  Pd3  1  0.500000  0.500000  0.500000  1
  Pd  Pd4  1  0.500000  0.000000  0.500000  1
  Pd  Pd5  1  0.000000  0.500000  0.500000  1
  Pd  Pd6  1  0.500000  0.500000  0.000000  1
  Pd  Pd7  1  0.500000  0.000000  0.000000  1
  Pd  Pd8  1  0.000000  0.500000  0.000000  1
  Pd  Pd9  1  0.165271  0.834729  0.245776  1
  Pd  Pd10  1  0.165271  0.330543  0.245776  1
  Pd  Pd11  1  0.669457  0.834729  0.245776  1
  Pd  Pd12  1  0.834729  0.165271  0.754224  1
  Pd  Pd13  1  0.834729  0.669457  0.754224  1
  Pd  Pd14  1  0.330543  0.165271  0.754224  1
  W  W15  1  0.000000  0.000000  0.000000  1
