# generated using pymatgen
data_Na4La2PrNdTe8
_symmetry_space_group_name_H-M   'P 1'
_cell_length_a   9.22192018
_cell_length_b   9.16793201
_cell_length_c   9.22191864
_cell_angle_alpha   60.09616687
_cell_angle_beta   60.30284591
_cell_angle_gamma   60.09616615
_symmetry_Int_Tables_number   1
_chemical_formula_structural   Na4La2PrNdTe8
_chemical_formula_sum   'Na4 La2 Pr1 Nd1 Te8'
_cell_volume   553.37026258
_cell_formula_units_Z   1
loop_
 _symmetry_equiv_pos_site_id
 _symmetry_equiv_pos_as_xyz
  1  'x, y, z'
loop_
 _atom_site_type_symbol
 _atom_site_label
 _atom_site_symmetry_multiplicity
 _atom_site_fract_x
 _atom_site_fract_y
 _atom_site_fract_z
 _atom_site_occupancy
  Na  Na0  1  0.125000  0.625000  0.125000  1
  Na  Na1  1  0.125000  0.125000  0.625000  1
  Na  Na2  1  0.625000  0.125000  0.125000  1
  Na  Na3  1  0.125000  0.125000  0.125000  1
  La  La4  1  0.125000  0.625000  0.625000  1
  La  La5  1  0.625000  0.625000  0.125000  1
  Pr  Pr6  1  0.625000  0.625000  0.625000  1
  Nd  Nd7  1  0.625000  0.125000  0.625000  1
  Te  Te8  1  0.378536  0.867138  0.378536  1
  Te  Te9  1  0.871464  0.382862  0.871464  1
  Te  Te10  1  0.869199  0.874216  0.384605  1
  Te  Te11  1  0.870391  0.875383  0.870391  1
  Te  Te12  1  0.865395  0.375784  0.380801  1
  Te  Te13  1  0.380801  0.375784  0.865395  1
  Te  Te14  1  0.379609  0.374617  0.379609  1
  Te  Te15  1  0.384605  0.874216  0.869199  1
