# generated using pymatgen
data_Sr3Pa3Se10
_symmetry_space_group_name_H-M   'P 1'
_cell_length_a   7.90998300
_cell_length_b   8.63520575
_cell_length_c   12.45800500
_cell_angle_alpha   89.82614585
_cell_angle_beta   90.00000000
_cell_angle_gamma   90.00000000
_symmetry_Int_Tables_number   1
_chemical_formula_structural   Sr3Pa3Se10
_chemical_formula_sum   'Sr6 Pa6 Se20'
_cell_volume   850.93177611
_cell_formula_units_Z   2
loop_
 _symmetry_equiv_pos_site_id
 _symmetry_equiv_pos_as_xyz
  1  'x, y, z'
loop_
 _atom_site_type_symbol
 _atom_site_label
 _atom_site_symmetry_multiplicity
 _atom_site_fract_x
 _atom_site_fract_y
 _atom_site_fract_z
 _atom_site_occupancy
  Sr  Sr0  1  0.050858  0.495814  0.328868  1
  Sr  Sr1  1  0.550858  0.504186  0.171132  1
  Sr  Sr2  1  0.944093  0.505441  0.671758  1
  Sr  Sr3  1  0.444093  0.494559  0.828242  1
  Sr  Sr4  1  0.047281  0.003191  0.319645  1
  Sr  Sr5  1  0.547281  0.996809  0.180355  1
  Pa  Pa6  1  0.957110  0.000302  0.672652  1
  Pa  Pa7  1  0.457110  0.999698  0.827348  1
  Pa  Pa8  1  0.062890  0.748350  0.005602  1
  Pa  Pa9  1  0.562890  0.251650  0.494398  1
  Pa  Pa10  1  0.929642  0.247212  0.990103  1
  Pa  Pa11  1  0.429642  0.752788  0.509897  1
  Se  Se12  1  0.670134  0.959307  0.427440  1
  Se  Se13  1  0.170134  0.040693  0.072560  1
  Se  Se14  1  0.325583  0.044297  0.598663  1
  Se  Se15  1  0.825583  0.955703  0.901337  1
  Se  Se16  1  0.446203  0.766455  0.992698  1
  Se  Se17  1  0.946203  0.233545  0.507302  1
  Se  Se18  1  0.550596  0.228807  0.985437  1
  Se  Se19  1  0.050596  0.771193  0.514563  1
  Se  Se20  1  0.854176  0.748081  0.185054  1
  Se  Se21  1  0.354176  0.251919  0.314946  1
  Se  Se22  1  0.148383  0.225936  0.804241  1
  Se  Se23  1  0.648383  0.774064  0.695759  1
  Se  Se24  1  0.330999  0.745135  0.294642  1
  Se  Se25  1  0.830999  0.254865  0.205358  1
  Se  Se26  1  0.675581  0.226058  0.714377  1
  Se  Se27  1  0.175581  0.773942  0.785623  1
  Se  Se28  1  0.183284  0.456492  0.065002  1
  Se  Se29  1  0.683284  0.543508  0.434998  1
  Se  Se30  1  0.823189  0.538029  0.914217  1
  Se  Se31  1  0.323189  0.461971  0.585783  1
