# generated using pymatgen
data_Dy2Y2VTc3B16
_symmetry_space_group_name_H-M   'P 1'
_cell_length_a   3.57548800
_cell_length_b   5.97262131
_cell_length_c   11.54524605
_cell_angle_alpha   89.85603648
_cell_angle_beta   90.00000000
_cell_angle_gamma   90.00000000
_symmetry_Int_Tables_number   1
_chemical_formula_structural   Dy2Y2VTc3B16
_chemical_formula_sum   'Dy2 Y2 V1 Tc3 B16'
_cell_volume   246.54836454
_cell_formula_units_Z   1
loop_
 _symmetry_equiv_pos_site_id
 _symmetry_equiv_pos_as_xyz
  1  'x, y, z'
loop_
 _atom_site_type_symbol
 _atom_site_label
 _atom_site_symmetry_multiplicity
 _atom_site_fract_x
 _atom_site_fract_y
 _atom_site_fract_z
 _atom_site_occupancy
  Dy  Dy0  1  0.000000  0.127106  0.150272  1
  Dy  Dy1  1  0.000000  0.872735  0.848581  1
  Y  Y2  1  0.000000  0.625833  0.350258  1
  Y  Y3  1  0.000000  0.374383  0.649847  1
  V  V4  1  0.000000  0.872465  0.582087  1
  Tc  Tc5  1  0.000000  0.633719  0.087293  1
  Tc  Tc6  1  0.000000  0.366600  0.913929  1
  Tc  Tc7  1  0.000000  0.126645  0.416570  1
  B  B8  1  0.500000  0.785429  0.185631  1
  B  B9  1  0.500000  0.214648  0.814790  1
  B  B10  1  0.500000  0.285274  0.315694  1
  B  B11  1  0.500000  0.714395  0.684769  1
  B  B12  1  0.500000  0.864111  0.031384  1
  B  B13  1  0.500000  0.136039  0.968658  1
  B  B14  1  0.500000  0.364274  0.467932  1
  B  B15  1  0.500000  0.635171  0.532094  1
  B  B16  1  0.500000  0.886467  0.452932  1
  B  B17  1  0.500000  0.113934  0.547153  1
  B  B18  1  0.500000  0.386837  0.047363  1
  B  B19  1  0.500000  0.613795  0.952704  1
  B  B20  1  0.500000  0.977034  0.307732  1
  B  B21  1  0.500000  0.023123  0.692357  1
  B  B22  1  0.500000  0.475723  0.192469  1
  B  B23  1  0.500000  0.524261  0.807502  1
