# generated using pymatgen
data_AcYb3(GaIr2)2
_symmetry_space_group_name_H-M   'P 1'
_cell_length_a   5.75038432
_cell_length_b   5.84243004
_cell_length_c   7.71643127
_cell_angle_alpha   101.68469621
_cell_angle_beta   100.94901045
_cell_angle_gamma   59.23188564
_symmetry_Int_Tables_number   1
_chemical_formula_structural   AcYb3(GaIr2)2
_chemical_formula_sum   'Ac1 Yb3 Ga2 Ir4'
_cell_volume   216.98583353
_cell_formula_units_Z   1
loop_
 _symmetry_equiv_pos_site_id
 _symmetry_equiv_pos_as_xyz
  1  'x, y, z'
loop_
 _atom_site_type_symbol
 _atom_site_label
 _atom_site_symmetry_multiplicity
 _atom_site_fract_x
 _atom_site_fract_y
 _atom_site_fract_z
 _atom_site_occupancy
  Ac  Ac0  1  0.781903  0.506490  0.142743  1
  Yb  Yb1  1  0.502376  0.207787  0.366719  1
  Yb  Yb2  1  0.501401  0.792505  0.644162  1
  Yb  Yb3  1  0.210064  0.498141  0.845348  1
  Ga  Ga4  1  0.100065  0.899276  0.253941  1
  Ga  Ga5  1  0.901733  0.091723  0.744588  1
  Ir  Ir6  1  0.280905  0.998198  0.010268  1
  Ir  Ir7  1  0.013781  0.707786  0.489670  1
  Ir  Ir8  1  0.994900  0.282470  0.514020  1
  Ir  Ir9  1  0.712872  0.015622  0.988540  1
