# generated using pymatgen
data_SrLiCaReN4
_symmetry_space_group_name_H-M   'P 1'
_cell_length_a   5.86363700
_cell_length_b   6.01048013
_cell_length_c   6.81407461
_cell_angle_alpha   73.62657648
_cell_angle_beta   90.00000000
_cell_angle_gamma   90.00000000
_symmetry_Int_Tables_number   1
_chemical_formula_structural   SrLiCaReN4
_chemical_formula_sum   'Sr2 Li2 Ca2 Re2 N8'
_cell_volume   230.41096143
_cell_formula_units_Z   2
loop_
 _symmetry_equiv_pos_site_id
 _symmetry_equiv_pos_as_xyz
  1  'x, y, z'
loop_
 _atom_site_type_symbol
 _atom_site_label
 _atom_site_symmetry_multiplicity
 _atom_site_fract_x
 _atom_site_fract_y
 _atom_site_fract_z
 _atom_site_occupancy
  Sr  Sr0  1  0.750000  0.776245  0.434283  1
  Sr  Sr1  1  0.250000  0.223755  0.565717  1
  Li  Li2  1  0.750000  0.302035  0.303652  1
  Li  Li3  1  0.250000  0.697965  0.696348  1
  Ca  Ca4  1  0.250000  0.265441  0.051061  1
  Ca  Ca5  1  0.750000  0.734559  0.948939  1
  Re  Re6  1  0.250000  0.725272  0.189897  1
  Re  Re7  1  0.750000  0.274728  0.810103  1
  N  N8  1  0.502913  0.469610  0.761282  1
  N  N9  1  0.002913  0.530390  0.238718  1
  N  N10  1  0.497087  0.530390  0.238718  1
  N  N11  1  0.997087  0.469610  0.761282  1
  N  N12  1  0.750000  0.088106  0.635531  1
  N  N13  1  0.250000  0.911894  0.364469  1
  N  N14  1  0.750000  0.098100  0.076863  1
  N  N15  1  0.250000  0.901900  0.923137  1
