# generated using pymatgen
data_Ta2TiZnOs4
_symmetry_space_group_name_H-M   'P 1'
_cell_length_a   6.27324000
_cell_length_b   4.42319600
_cell_length_c   8.86371900
_cell_angle_alpha   90.00000000
_cell_angle_beta   90.00032600
_cell_angle_gamma   90.00000000
_symmetry_Int_Tables_number   1
_chemical_formula_structural   Ta2TiZnOs4
_chemical_formula_sum   'Ta4 Ti2 Zn2 Os8'
_cell_volume   245.94843682
_cell_formula_units_Z   2
loop_
 _symmetry_equiv_pos_site_id
 _symmetry_equiv_pos_as_xyz
  1  'x, y, z'
loop_
 _atom_site_type_symbol
 _atom_site_label
 _atom_site_symmetry_multiplicity
 _atom_site_fract_x
 _atom_site_fract_y
 _atom_site_fract_z
 _atom_site_occupancy
  Ta  Ta0  1  0.749999  0.250000  0.133220  1
  Ta  Ta1  1  0.250000  0.749999  0.366780  1
  Ta  Ta2  1  0.750000  0.250000  0.618135  1
  Ta  Ta3  1  0.250000  0.749999  0.881865  1
  Ti  Ti4  1  0.250001  0.250000  0.624234  1
  Ti  Ti5  1  0.750000  0.749999  0.875766  1
  Zn  Zn6  1  0.250000  0.250000  0.125075  1
  Zn  Zn7  1  0.749999  0.749999  0.374925  1
  Os  Os8  1  0.503872  0.749999  0.121033  1
  Os  Os9  1  0.996126  0.749999  0.121036  1
  Os  Os10  1  0.496129  0.250000  0.378966  1
  Os  Os11  1  0.003872  0.250000  0.378965  1
  Os  Os12  1  0.004117  0.749999  0.628305  1
  Os  Os13  1  0.495890  0.749999  0.628307  1
  Os  Os14  1  0.995884  0.250000  0.871695  1
  Os  Os15  1  0.504111  0.250000  0.871693  1
