# generated using pymatgen
data_SrYPa2(Ga3Ir)6
_symmetry_space_group_name_H-M   'P 1'
_cell_length_a   7.66695090
_cell_length_b   7.66210472
_cell_length_c   9.44241000
_cell_angle_alpha   90.00000000
_cell_angle_beta   90.00000000
_cell_angle_gamma   119.91214867
_symmetry_Int_Tables_number   1
_chemical_formula_structural   SrYPa2(Ga3Ir)6
_chemical_formula_sum   'Sr1 Y1 Pa2 Ga18 Ir6'
_cell_volume   480.80395264
_cell_formula_units_Z   1
loop_
 _symmetry_equiv_pos_site_id
 _symmetry_equiv_pos_as_xyz
  1  'x, y, z'
loop_
 _atom_site_type_symbol
 _atom_site_label
 _atom_site_symmetry_multiplicity
 _atom_site_fract_x
 _atom_site_fract_y
 _atom_site_fract_z
 _atom_site_occupancy
  Sr  Sr0  1  0.668450  0.995661  0.250000  1
  Y  Y1  1  0.331730  0.004698  0.750000  1
  Pa  Pa2  1  0.998743  0.668510  0.250000  1
  Pa  Pa3  1  0.001179  0.331052  0.750000  1
  Ga  Ga4  1  0.131252  0.128950  0.250000  1
  Ga  Ga5  1  0.870134  0.871524  0.750000  1
  Ga  Ga6  1  0.999784  0.331947  0.081663  1
  Ga  Ga7  1  0.001355  0.669289  0.917729  1
  Ga  Ga8  1  0.001355  0.669289  0.582271  1
  Ga  Ga9  1  0.336729  0.001602  0.420709  1
  Ga  Ga10  1  0.999784  0.331947  0.418337  1
  Ga  Ga11  1  0.662006  0.998214  0.580825  1
  Ga  Ga12  1  0.662006  0.998214  0.919175  1
  Ga  Ga13  1  0.336729  0.001602  0.079291  1
  Ga  Ga14  1  0.334361  0.331648  0.566873  1
  Ga  Ga15  1  0.665510  0.667281  0.433858  1
  Ga  Ga16  1  0.665510  0.667281  0.066142  1
  Ga  Ga17  1  0.334361  0.331648  0.933127  1
  Ga  Ga18  1  0.339248  0.544163  0.250000  1
  Ga  Ga19  1  0.659794  0.454143  0.750000  1
  Ga  Ga20  1  0.545048  0.340423  0.250000  1
  Ga  Ga21  1  0.454532  0.660587  0.750000  1
  Ir  Ir22  1  0.676605  0.333181  0.998588  1
  Ir  Ir23  1  0.322254  0.666899  0.998735  1
  Ir  Ir24  1  0.322254  0.666899  0.501265  1
  Ir  Ir25  1  0.676605  0.333181  0.501412  1
  Ir  Ir26  1  0.001341  0.000083  0.998607  1
  Ir  Ir27  1  0.001341  0.000083  0.501393  1
