# generated using pymatgen
data_TbTm11Tc3Pt
_symmetry_space_group_name_H-M   'P 1'
_cell_length_a   6.23228342
_cell_length_b   7.33735163
_cell_length_c   9.02393700
_cell_angle_alpha   90.00000000
_cell_angle_beta   90.00000000
_cell_angle_gamma   89.87483700
_symmetry_Int_Tables_number   1
_chemical_formula_structural   TbTm11Tc3Pt
_chemical_formula_sum   'Tb1 Tm11 Tc3 Pt1'
_cell_volume   412.64971109
_cell_formula_units_Z   1
loop_
 _symmetry_equiv_pos_site_id
 _symmetry_equiv_pos_as_xyz
  1  'x, y, z'
loop_
 _atom_site_type_symbol
 _atom_site_label
 _atom_site_symmetry_multiplicity
 _atom_site_fract_x
 _atom_site_fract_y
 _atom_site_fract_z
 _atom_site_occupancy
  Tb  Tb0  1  0.126199  0.456308  0.750000  1
  Tm  Tm1  1  0.331442  0.676553  0.066910  1
  Tm  Tm2  1  0.163229  0.176525  0.436072  1
  Tm  Tm3  1  0.663912  0.317804  0.557656  1
  Tm  Tm4  1  0.838532  0.828297  0.941022  1
  Tm  Tm5  1  0.663912  0.317804  0.942344  1
  Tm  Tm6  1  0.838532  0.828297  0.558978  1
  Tm  Tm7  1  0.331442  0.676553  0.433090  1
  Tm  Tm8  1  0.163229  0.176525  0.063928  1
  Tm  Tm9  1  0.874229  0.542033  0.250000  1
  Tm  Tm10  1  0.621981  0.037142  0.250000  1
  Tm  Tm11  1  0.373588  0.964995  0.750000  1
  Tc  Tc12  1  0.037738  0.884672  0.250000  1
  Tc  Tc13  1  0.464294  0.385829  0.250000  1
  Tc  Tc14  1  0.958304  0.114848  0.750000  1
  Pt  Pt15  1  0.549435  0.615814  0.750000  1
