# generated using pymatgen
data_Dy2U(Co3P2)3
_symmetry_space_group_name_H-M   'P 1'
_cell_length_a   3.68734300
_cell_length_b   10.50921600
_cell_length_c   12.06547200
_cell_angle_alpha   90.00000000
_cell_angle_beta   90.00000000
_cell_angle_gamma   90.00000000
_symmetry_Int_Tables_number   1
_chemical_formula_structural   Dy2U(Co3P2)3
_chemical_formula_sum   'Dy4 U2 Co18 P12'
_cell_volume   467.55011961
_cell_formula_units_Z   2
loop_
 _symmetry_equiv_pos_site_id
 _symmetry_equiv_pos_as_xyz
  1  'x, y, z'
loop_
 _atom_site_type_symbol
 _atom_site_label
 _atom_site_symmetry_multiplicity
 _atom_site_fract_x
 _atom_site_fract_y
 _atom_site_fract_z
 _atom_site_occupancy
  Dy  Dy0  1  0.500000  0.814957  0.205378  1
  Dy  Dy1  1  0.500000  0.185043  0.205378  1
  Dy  Dy2  1  0.000000  0.685043  0.794622  1
  Dy  Dy3  1  0.000000  0.314957  0.794622  1
  U  U4  1  0.000000  0.500000  0.530039  1
  U  U5  1  0.500000  0.000000  0.469961  1
  Co  Co6  1  0.500000  0.500000  0.159031  1
  Co  Co7  1  0.000000  0.000000  0.840969  1
  Co  Co8  1  0.500000  0.500000  0.692754  1
  Co  Co9  1  0.000000  0.000000  0.307246  1
  Co  Co10  1  0.000000  0.500000  0.984429  1
  Co  Co11  1  0.500000  0.000000  0.015571  1
  Co  Co12  1  0.500000  0.334245  0.993347  1
  Co  Co13  1  0.500000  0.665755  0.993347  1
  Co  Co14  1  0.000000  0.165755  0.006653  1
  Co  Co15  1  0.000000  0.834245  0.006653  1
  Co  Co16  1  0.500000  0.300461  0.432081  1
  Co  Co17  1  0.500000  0.699539  0.432081  1
  Co  Co18  1  0.000000  0.199539  0.567919  1
  Co  Co19  1  0.000000  0.800461  0.567919  1
  Co  Co20  1  0.500000  0.880482  0.709660  1
  Co  Co21  1  0.500000  0.119518  0.709660  1
  Co  Co22  1  0.000000  0.619518  0.290340  1
  Co  Co23  1  0.000000  0.380482  0.290340  1
  P  P24  1  0.500000  0.500000  0.877663  1
  P  P25  1  0.000000  0.000000  0.122337  1
  P  P26  1  0.500000  0.500000  0.346698  1
  P  P27  1  0.000000  0.000000  0.653302  1
  P  P28  1  0.500000  0.306530  0.615904  1
  P  P29  1  0.500000  0.693470  0.615904  1
  P  P30  1  0.000000  0.193470  0.384096  1
  P  P31  1  0.000000  0.806530  0.384096  1
  P  P32  1  0.500000  0.847885  0.894337  1
  P  P33  1  0.500000  0.152115  0.894337  1
  P  P34  1  0.000000  0.652115  0.105663  1
  P  P35  1  0.000000  0.347885  0.105663  1
