# generated using pymatgen
data_Dy2Y2Ga12Ru
_symmetry_space_group_name_H-M   'P 1'
_cell_length_a   7.49195654
_cell_length_b   7.48812810
_cell_length_c   7.49195603
_cell_angle_alpha   109.49024771
_cell_angle_beta   109.45388800
_cell_angle_gamma   109.49024665
_symmetry_Int_Tables_number   1
_chemical_formula_structural   Dy2Y2Ga12Ru
_chemical_formula_sum   'Dy2 Y2 Ga12 Ru1'
_cell_volume   323.46753048
_cell_formula_units_Z   1
loop_
 _symmetry_equiv_pos_site_id
 _symmetry_equiv_pos_as_xyz
  1  'x, y, z'
loop_
 _atom_site_type_symbol
 _atom_site_label
 _atom_site_symmetry_multiplicity
 _atom_site_fract_x
 _atom_site_fract_y
 _atom_site_fract_z
 _atom_site_occupancy
  Dy  Dy0  1  0.000000  0.000000  0.500000  1
  Dy  Dy1  1  0.500000  0.000000  0.000000  1
  Y  Y2  1  0.000000  0.500000  0.000000  1
  Y  Y3  1  0.500000  0.500000  0.500000  1
  Ga  Ga4  1  0.750053  0.249572  0.499519  1
  Ga  Ga5  1  0.750000  0.500000  0.250000  1
  Ga  Ga6  1  0.499519  0.249572  0.750053  1
  Ga  Ga7  1  0.250000  0.500000  0.750000  1
  Ga  Ga8  1  0.249947  0.750428  0.500481  1
  Ga  Ga9  1  0.500481  0.750428  0.249947  1
  Ga  Ga10  1  0.710766  0.711382  0.000616  1
  Ga  Ga11  1  0.289181  0.000000  0.289181  1
  Ga  Ga12  1  0.999384  0.288618  0.289234  1
  Ga  Ga13  1  0.289234  0.288618  0.999384  1
  Ga  Ga14  1  0.710819  0.000000  0.710819  1
  Ga  Ga15  1  0.000616  0.711382  0.710766  1
  Ru  Ru16  1  0.000000  0.000000  0.000000  1
