# generated using pymatgen
data_Nb6Al6OsRu11
_symmetry_space_group_name_H-M   'P 1'
_cell_length_a   4.39219800
_cell_length_b   6.20818400
_cell_length_c   13.16045600
_cell_angle_alpha   90.00021959
_cell_angle_beta   89.99948224
_cell_angle_gamma   90.00025966
_symmetry_Int_Tables_number   1
_chemical_formula_structural   Nb6Al6OsRu11
_chemical_formula_sum   'Nb6 Al6 Os1 Ru11'
_cell_volume   358.85369927
_cell_formula_units_Z   1
loop_
 _symmetry_equiv_pos_site_id
 _symmetry_equiv_pos_as_xyz
  1  'x, y, z'
loop_
 _atom_site_type_symbol
 _atom_site_label
 _atom_site_symmetry_multiplicity
 _atom_site_fract_x
 _atom_site_fract_y
 _atom_site_fract_z
 _atom_site_occupancy
  Nb  Nb0  1  0.000002  0.000344  0.000213  1
  Nb  Nb1  1  0.499659  0.499947  0.166693  1
  Nb  Nb2  1  0.999657  0.000015  0.333351  1
  Nb  Nb3  1  0.500003  0.499950  0.499957  1
  Nb  Nb4  1  0.000346  0.000343  0.666438  1
  Nb  Nb5  1  0.500339  0.499461  0.833351  1
  Al  Al6  1  0.000002  0.499863  0.000075  1
  Al  Al7  1  0.499868  0.999993  0.166684  1
  Al  Al8  1  0.999916  0.499996  0.333330  1
  Al  Al9  1  0.500002  0.999990  0.499988  1
  Al  Al10  1  0.000088  0.499865  0.666596  1
  Al  Al11  1  0.500139  0.000290  0.833330  1
  Os  Os12  1  0.000295  0.749873  0.833329  1
  Ru  Ru13  1  0.500001  0.249800  0.000071  1
  Ru  Ru14  1  0.500003  0.750208  0.000052  1
  Ru  Ru15  1  0.999676  0.250367  0.166808  1
  Ru  Ru16  1  0.999679  0.749749  0.166649  1
  Ru  Ru17  1  0.499679  0.249875  0.333338  1
  Ru  Ru18  1  0.499683  0.750203  0.333340  1
  Ru  Ru19  1  0.000003  0.250370  0.499856  1
  Ru  Ru20  1  0.000001  0.749753  0.500014  1
  Ru  Ru21  1  0.500317  0.249803  0.666591  1
  Ru  Ru22  1  0.500315  0.750210  0.666610  1
  Ru  Ru23  1  0.000325  0.249733  0.833339  1
