# generated using pymatgen
data_Ac3In4Br
_symmetry_space_group_name_H-M   'P 1'
_cell_length_a   8.91571744
_cell_length_b   8.91571675
_cell_length_c   8.91571716
_cell_angle_alpha   119.14434843
_cell_angle_beta   119.14434490
_cell_angle_gamma   91.48853546
_symmetry_Int_Tables_number   1
_chemical_formula_structural   Ac3In4Br
_chemical_formula_sum   'Ac6 In8 Br2'
_cell_volume   507.42991423
_cell_formula_units_Z   2
loop_
 _symmetry_equiv_pos_site_id
 _symmetry_equiv_pos_as_xyz
  1  'x, y, z'
loop_
 _atom_site_type_symbol
 _atom_site_label
 _atom_site_symmetry_multiplicity
 _atom_site_fract_x
 _atom_site_fract_y
 _atom_site_fract_z
 _atom_site_occupancy
  Ac  Ac0  1  0.750000  0.750000  0.000000  1
  Ac  Ac1  1  0.250000  0.250000  0.000000  1
  Ac  Ac2  1  0.340576  0.840576  0.181150  1
  Ac  Ac3  1  0.659424  0.159424  0.818850  1
  Ac  Ac4  1  0.840576  0.659424  0.500000  1
  Ac  Ac5  1  0.159424  0.340576  0.500000  1
  In  In6  1  0.953123  0.453123  0.787832  1
  In  In7  1  0.665291  0.165291  0.212168  1
  In  In8  1  0.453123  0.665291  0.500000  1
  In  In9  1  0.165291  0.953123  0.500000  1
  In  In10  1  0.046877  0.546877  0.212168  1
  In  In11  1  0.334709  0.834709  0.787832  1
  In  In12  1  0.546877  0.334709  0.500000  1
  In  In13  1  0.834709  0.046877  0.500000  1
  Br  Br14  1  0.000000  0.000000  0.000000  1
  Br  Br15  1  0.500000  0.500000  0.000000  1
