# generated using pymatgen
data_YbTh2(AgSn)4
_symmetry_space_group_name_H-M   'P 1'
_cell_length_a   8.93741830
_cell_length_b   8.93741788
_cell_length_c   8.93741837
_cell_angle_alpha   149.32632202
_cell_angle_beta   131.26793823
_cell_angle_gamma   58.69002405
_symmetry_Int_Tables_number   1
_chemical_formula_structural   YbTh2(AgSn)4
_chemical_formula_sum   'Yb1 Th2 Ag4 Sn4'
_cell_volume   271.62004820
_cell_formula_units_Z   1
loop_
 _symmetry_equiv_pos_site_id
 _symmetry_equiv_pos_as_xyz
  1  'x, y, z'
loop_
 _atom_site_type_symbol
 _atom_site_label
 _atom_site_symmetry_multiplicity
 _atom_site_fract_x
 _atom_site_fract_y
 _atom_site_fract_z
 _atom_site_occupancy
  Yb  Yb0  1  0.500000  0.000000  0.500000  1
  Th  Th1  1  0.872204  0.872204  0.000000  1
  Th  Th2  1  0.127796  0.127796  0.000000  1
  Ag  Ag3  1  0.475118  0.669567  0.805552  1
  Ag  Ag4  1  0.864016  0.669567  0.194448  1
  Ag  Ag5  1  0.135984  0.330433  0.805552  1
  Ag  Ag6  1  0.524882  0.330433  0.194448  1
  Sn  Sn7  1  0.284741  0.784741  0.500000  1
  Sn  Sn8  1  0.715259  0.215259  0.500000  1
  Sn  Sn9  1  0.804983  0.500000  0.304983  1
  Sn  Sn10  1  0.195017  0.500000  0.695017  1
