# generated using pymatgen
data_Cs7VIn3As2P3
_symmetry_space_group_name_H-M   'P 1'
_cell_length_a   8.88017897
_cell_length_b   9.66217738
_cell_length_c   14.91607382
_cell_angle_alpha   85.23230498
_cell_angle_beta   84.59966781
_cell_angle_gamma   84.40582286
_symmetry_Int_Tables_number   1
_chemical_formula_structural   Cs7VIn3As2P3
_chemical_formula_sum   'Cs14 V2 In6 As4 P6'
_cell_volume   1264.54198440
_cell_formula_units_Z   2
loop_
 _symmetry_equiv_pos_site_id
 _symmetry_equiv_pos_as_xyz
  1  'x, y, z'
loop_
 _atom_site_type_symbol
 _atom_site_label
 _atom_site_symmetry_multiplicity
 _atom_site_fract_x
 _atom_site_fract_y
 _atom_site_fract_z
 _atom_site_occupancy
  Cs  Cs0  1  0.814094  0.805406  0.132081  1
  Cs  Cs1  1  0.185906  0.194594  0.867919  1
  Cs  Cs2  1  0.272059  0.257133  0.255334  1
  Cs  Cs3  1  0.727941  0.742867  0.744666  1
  Cs  Cs4  1  0.738778  0.502480  0.972790  1
  Cs  Cs5  1  0.261222  0.497520  0.027210  1
  Cs  Cs6  1  0.678914  0.081845  0.884639  1
  Cs  Cs7  1  0.321086  0.918155  0.115361  1
  Cs  Cs8  1  0.664512  0.653960  0.401209  1
  Cs  Cs9  1  0.335488  0.346040  0.598791  1
  Cs  Cs10  1  0.759272  0.994288  0.529685  1
  Cs  Cs11  1  0.240728  0.005712  0.470315  1
  Cs  Cs12  1  0.842658  0.365745  0.650613  1
  Cs  Cs13  1  0.157342  0.634255  0.349387  1
  V  V14  1  0.648268  0.393109  0.227160  1
  V  V15  1  0.351732  0.606891  0.772840  1
  In  In16  1  0.896098  0.282186  0.371204  1
  In  In17  1  0.103902  0.717814  0.628796  1
  In  In18  1  0.939465  0.190934  0.133339  1
  In  In19  1  0.060535  0.809066  0.866661  1
  In  In20  1  0.639285  0.055782  0.295117  1
  In  In21  1  0.360715  0.944218  0.704883  1
  As  As22  1  0.623608  0.208924  0.125507  1
  As  As23  1  0.376392  0.791076  0.874493  1
  As  As24  1  0.967102  0.003248  0.298194  1
  As  As25  1  0.032898  0.996752  0.701806  1
  P  P26  1  0.497639  0.582872  0.194683  1
  P  P27  1  0.502361  0.417128  0.805317  1
  P  P28  1  0.899272  0.443607  0.212514  1
  P  P29  1  0.100728  0.556393  0.787486  1
  P  P30  1  0.590283  0.302282  0.375504  1
  P  P31  1  0.409717  0.697718  0.624496  1
