# generated using pymatgen
data_DyHo2Si2Ag3Hg
_symmetry_space_group_name_H-M   'P 1'
_cell_length_a   7.24039900
_cell_length_b   7.24006866
_cell_length_c   4.20197400
_cell_angle_alpha   90.00000000
_cell_angle_beta   90.00000000
_cell_angle_gamma   119.99850258
_symmetry_Int_Tables_number   1
_chemical_formula_structural   DyHo2Si2Ag3Hg
_chemical_formula_sum   'Dy1 Ho2 Si2 Ag3 Hg1'
_cell_volume   190.76369687
_cell_formula_units_Z   1
loop_
 _symmetry_equiv_pos_site_id
 _symmetry_equiv_pos_as_xyz
  1  'x, y, z'
loop_
 _atom_site_type_symbol
 _atom_site_label
 _atom_site_symmetry_multiplicity
 _atom_site_fract_x
 _atom_site_fract_y
 _atom_site_fract_z
 _atom_site_occupancy
  Dy  Dy0  1  0.000000  0.580069  0.500000  1
  Ho  Ho1  1  0.419979  0.419967  0.500000  1
  Ho  Ho2  1  0.580021  0.999988  0.500000  1
  Si  Si3  1  0.666494  0.333218  0.000000  1
  Si  Si4  1  0.333506  0.666725  0.000000  1
  Ag  Ag5  1  0.729659  0.729724  0.000000  1
  Ag  Ag6  1  0.270341  0.000064  0.000000  1
  Ag  Ag7  1  0.000000  0.270147  0.000000  1
  Hg  Hg8  1  0.000000  0.000098  0.500000  1
