# generated using pymatgen
data_Li2Dy3TlSi2Ag
_symmetry_space_group_name_H-M   'P 1'
_cell_length_a   7.22526230
_cell_length_b   7.31514898
_cell_length_c   4.20632600
_cell_angle_alpha   90.00000000
_cell_angle_beta   90.00000000
_cell_angle_gamma   120.41239084
_symmetry_Int_Tables_number   1
_chemical_formula_structural   Li2Dy3TlSi2Ag
_chemical_formula_sum   'Li2 Dy3 Tl1 Si2 Ag1'
_cell_volume   191.73022928
_cell_formula_units_Z   1
loop_
 _symmetry_equiv_pos_site_id
 _symmetry_equiv_pos_as_xyz
  1  'x, y, z'
loop_
 _atom_site_type_symbol
 _atom_site_label
 _atom_site_symmetry_multiplicity
 _atom_site_fract_x
 _atom_site_fract_y
 _atom_site_fract_z
 _atom_site_occupancy
  Li  Li0  1  0.742256  0.745199  0.000000  1
  Li  Li1  1  0.257744  0.002943  0.000000  1
  Dy  Dy2  1  0.431611  0.433230  0.500000  1
  Dy  Dy3  1  0.568389  0.001619  0.500000  1
  Dy  Dy4  1  0.000000  0.562992  0.500000  1
  Tl  Tl5  1  0.000000  0.985281  0.500000  1
  Si  Si6  1  0.661009  0.332685  0.000000  1
  Si  Si7  1  0.338991  0.671677  0.000000  1
  Ag  Ag8  1  0.000000  0.264373  0.000000  1
