# generated using pymatgen
data_Dy12MgIn(CoOs)2
_symmetry_space_group_name_H-M   'P 1'
_cell_length_a   8.40874492
_cell_length_b   8.40874540
_cell_length_c   8.40874494
_cell_angle_alpha   112.93980059
_cell_angle_beta   110.56161193
_cell_angle_gamma   105.01203007
_symmetry_Int_Tables_number   1
_chemical_formula_structural   Dy12MgIn(CoOs)2
_chemical_formula_sum   'Dy12 Mg1 In1 Co2 Os2'
_cell_volume   455.41869558
_cell_formula_units_Z   1
loop_
 _symmetry_equiv_pos_site_id
 _symmetry_equiv_pos_as_xyz
  1  'x, y, z'
loop_
 _atom_site_type_symbol
 _atom_site_label
 _atom_site_symmetry_multiplicity
 _atom_site_fract_x
 _atom_site_fract_y
 _atom_site_fract_z
 _atom_site_occupancy
  Dy  Dy0  1  0.439940  0.241825  0.198116  1
  Dy  Dy1  1  0.560060  0.758175  0.801884  1
  Dy  Dy2  1  0.043709  0.241825  0.801884  1
  Dy  Dy3  1  0.956291  0.758175  0.198116  1
  Dy  Dy4  1  0.185238  0.284116  0.469355  1
  Dy  Dy5  1  0.814762  0.715884  0.530645  1
  Dy  Dy6  1  0.185238  0.715884  0.901121  1
  Dy  Dy7  1  0.814762  0.284116  0.098879  1
  Dy  Dy8  1  0.322310  0.638644  0.316334  1
  Dy  Dy9  1  0.677690  0.361356  0.683666  1
  Dy  Dy10  1  0.322310  0.005976  0.683666  1
  Dy  Dy11  1  0.677690  0.994024  0.316334  1
  Mg  Mg12  1  0.000000  0.000000  0.000000  1
  In  In13  1  0.500000  0.500000  0.000000  1
  Co  Co14  1  0.110633  0.610633  0.500000  1
  Co  Co15  1  0.889367  0.389367  0.500000  1
  Os  Os16  1  0.323535  0.000000  0.323535  1
  Os  Os17  1  0.676465  0.000000  0.676465  1
