# generated using pymatgen
data_Dy3TmGa3SiRu4
_symmetry_space_group_name_H-M   'P 1'
_cell_length_a   4.45361500
_cell_length_b   7.12429187
_cell_length_c   7.12796976
_cell_angle_alpha   90.18716260
_cell_angle_beta   90.00000000
_cell_angle_gamma   90.00000000
_symmetry_Int_Tables_number   1
_chemical_formula_structural   Dy3TmGa3SiRu4
_chemical_formula_sum   'Dy3 Tm1 Ga3 Si1 Ru4'
_cell_volume   226.16109888
_cell_formula_units_Z   1
loop_
 _symmetry_equiv_pos_site_id
 _symmetry_equiv_pos_as_xyz
  1  'x, y, z'
loop_
 _atom_site_type_symbol
 _atom_site_label
 _atom_site_symmetry_multiplicity
 _atom_site_fract_x
 _atom_site_fract_y
 _atom_site_fract_z
 _atom_site_occupancy
  Dy  Dy0  1  0.750000  0.016179  0.195458  1
  Dy  Dy1  1  0.250000  0.477300  0.694170  1
  Dy  Dy2  1  0.750000  0.515633  0.306172  1
  Tm  Tm3  1  0.250000  0.984950  0.806175  1
  Ga  Ga4  1  0.250000  0.302134  0.106595  1
  Ga  Ga5  1  0.750000  0.695100  0.892126  1
  Ga  Ga6  1  0.250000  0.801410  0.397551  1
  Si  Si7  1  0.750000  0.195862  0.602272  1
  Ru  Ru8  1  0.750000  0.857810  0.566717  1
  Ru  Ru9  1  0.250000  0.162145  0.447140  1
  Ru  Ru10  1  0.750000  0.330675  0.921204  1
  Ru  Ru11  1  0.250000  0.660803  0.064422  1
