# generated using pymatgen
data_Sr(LaYb2)3
_symmetry_space_group_name_H-M   'P 1'
_cell_length_a   15.83714771
_cell_length_b   15.83714863
_cell_length_c   6.32983700
_cell_angle_alpha   90.00000000
_cell_angle_beta   90.00000000
_cell_angle_gamma   166.61638995
_symmetry_Int_Tables_number   1
_chemical_formula_structural   Sr(LaYb2)3
_chemical_formula_sum   'Sr1 La3 Yb6'
_cell_volume   367.48573965
_cell_formula_units_Z   1
loop_
 _symmetry_equiv_pos_site_id
 _symmetry_equiv_pos_as_xyz
  1  'x, y, z'
loop_
 _atom_site_type_symbol
 _atom_site_label
 _atom_site_symmetry_multiplicity
 _atom_site_fract_x
 _atom_site_fract_y
 _atom_site_fract_z
 _atom_site_occupancy
  Sr  Sr0  1  0.600872  0.399128  0.000000  1
  La  La1  1  0.799432  0.200568  0.000000  1
  La  La2  1  0.206700  0.793300  0.000000  1
  La  La3  1  0.499672  0.500328  0.499999  1
  Yb  Yb4  1  0.996363  0.003637  0.000000  1
  Yb  Yb5  1  0.397962  0.602038  0.000000  1
  Yb  Yb6  1  0.901980  0.098021  0.499999  1
  Yb  Yb7  1  0.698807  0.301194  0.499999  1
  Yb  Yb8  1  0.300515  0.699486  0.499999  1
  Yb  Yb9  1  0.097698  0.902303  0.499999  1
