# generated using pymatgen
data_La7Pr3Al4(OsRu)3
_symmetry_space_group_name_H-M   'P 1'
_cell_length_a   8.66430569
_cell_length_b   8.65155785
_cell_length_c   8.66966330
_cell_angle_alpha   109.20278640
_cell_angle_beta   109.91915217
_cell_angle_gamma   109.31370525
_symmetry_Int_Tables_number   1
_chemical_formula_structural   La7Pr3Al4(OsRu)3
_chemical_formula_sum   'La7 Pr3 Al4 Os3 Ru3'
_cell_volume   500.12178696
_cell_formula_units_Z   1
loop_
 _symmetry_equiv_pos_site_id
 _symmetry_equiv_pos_as_xyz
  1  'x, y, z'
loop_
 _atom_site_type_symbol
 _atom_site_label
 _atom_site_symmetry_multiplicity
 _atom_site_fract_x
 _atom_site_fract_y
 _atom_site_fract_z
 _atom_site_occupancy
  La  La0  1  0.247942  0.684729  0.435838  1
  La  La1  1  0.749895  0.814217  0.063026  1
  La  La2  1  0.437778  0.249661  0.688431  1
  La  La3  1  0.685640  0.435998  0.250321  1
  La  La4  1  0.062388  0.748469  0.811438  1
  La  La5  1  0.812986  0.063322  0.746855  1
  La  La6  1  0.210569  0.211541  0.211707  1
  Pr  Pr7  1  0.499817  0.999812  0.285533  1
  Pr  Pr8  1  0.286502  0.501171  0.000668  1
  Pr  Pr9  1  0.000954  0.285395  0.500045  1
  Al  Al10  1  0.588459  0.587379  0.589237  1
  Al  Al11  1  0.500300  0.001015  0.912708  1
  Al  Al12  1  0.911817  0.499403  0.998947  1
  Al  Al13  1  0.001830  0.913310  0.501215  1
  Os  Os14  1  0.249996  0.115564  0.865701  1
  Os  Os15  1  0.750366  0.385140  0.635122  1
  Os  Os16  1  0.864735  0.250120  0.114475  1
  Ru  Ru17  1  0.112302  0.864439  0.249368  1
  Ru  Ru18  1  0.637386  0.751121  0.387906  1
  Ru  Ru19  1  0.388338  0.638193  0.751460  1
