# generated using pymatgen
data_Zr3Pa5(HgPd2)4
_symmetry_space_group_name_H-M   'P 1'
_cell_length_a   7.56462167
_cell_length_b   7.56462249
_cell_length_c   7.32167800
_cell_angle_alpha   90.00000000
_cell_angle_beta   90.00000000
_cell_angle_gamma   89.82665643
_symmetry_Int_Tables_number   1
_chemical_formula_structural   Zr3Pa5(HgPd2)4
_chemical_formula_sum   'Zr3 Pa5 Hg4 Pd8'
_cell_volume   418.97017658
_cell_formula_units_Z   1
loop_
 _symmetry_equiv_pos_site_id
 _symmetry_equiv_pos_as_xyz
  1  'x, y, z'
loop_
 _atom_site_type_symbol
 _atom_site_label
 _atom_site_symmetry_multiplicity
 _atom_site_fract_x
 _atom_site_fract_y
 _atom_site_fract_z
 _atom_site_occupancy
  Zr  Zr0  1  0.686142  0.685869  0.000000  1
  Zr  Zr1  1  0.187161  0.812839  0.500000  1
  Zr  Zr2  1  0.314131  0.313858  0.000000  1
  Pa  Pa3  1  0.634383  0.641561  0.500000  1
  Pa  Pa4  1  0.813641  0.186359  0.500000  1
  Pa  Pa5  1  0.862785  0.137215  0.000000  1
  Pa  Pa6  1  0.139574  0.860426  0.000000  1
  Pa  Pa7  1  0.358439  0.365617  0.500000  1
  Hg  Hg8  1  0.001894  0.502026  0.240512  1
  Hg  Hg9  1  0.497974  0.998106  0.759488  1
  Hg  Hg10  1  0.497974  0.998106  0.240512  1
  Hg  Hg11  1  0.001894  0.502026  0.759488  1
  Pd  Pd12  1  0.634898  0.365102  0.203651  1
  Pd  Pd13  1  0.365849  0.634151  0.798614  1
  Pd  Pd14  1  0.865357  0.864099  0.703324  1
  Pd  Pd15  1  0.634898  0.365102  0.796349  1
  Pd  Pd16  1  0.365849  0.634151  0.201386  1
  Pd  Pd17  1  0.135901  0.134643  0.296676  1
  Pd  Pd18  1  0.865357  0.864099  0.296676  1
  Pd  Pd19  1  0.135901  0.134643  0.703324  1
