# generated using pymatgen
data_BaMnSb4F24
_symmetry_space_group_name_H-M   'P 1'
_cell_length_a   10.35119031
_cell_length_b   10.35119007
_cell_length_c   10.35119090
_cell_angle_alpha   132.33540028
_cell_angle_beta   132.33540088
_cell_angle_gamma   69.69981147
_symmetry_Int_Tables_number   1
_chemical_formula_structural   BaMnSb4F24
_chemical_formula_sum   'Ba1 Mn1 Sb4 F24'
_cell_volume   594.40675903
_cell_formula_units_Z   1
loop_
 _symmetry_equiv_pos_site_id
 _symmetry_equiv_pos_as_xyz
  1  'x, y, z'
loop_
 _atom_site_type_symbol
 _atom_site_label
 _atom_site_symmetry_multiplicity
 _atom_site_fract_x
 _atom_site_fract_y
 _atom_site_fract_z
 _atom_site_occupancy
  Ba  Ba0  1  0.750000  0.250000  0.500000  1
  Mn  Mn1  1  0.000000  0.000000  0.000000  1
  Sb  Sb2  1  0.792634  0.792634  0.000000  1
  Sb  Sb3  1  0.207366  0.207366  0.000000  1
  Sb  Sb4  1  0.981550  0.481550  0.500000  1
  Sb  Sb5  1  0.518450  0.018450  0.500000  1
  F  F6  1  0.873139  0.782928  0.219482  1
  F  F7  1  0.563445  0.653657  0.780518  1
  F  F8  1  0.417546  0.779708  0.310731  1
  F  F9  1  0.346343  0.126861  0.909789  1
  F  F10  1  0.217072  0.436555  0.090211  1
  F  F11  1  0.220292  0.531021  0.637836  1
  F  F12  1  0.628643  0.255140  0.676400  1
  F  F13  1  0.744860  0.421260  0.373504  1
  F  F14  1  0.047758  0.371357  0.626496  1
  F  F15  1  0.069894  0.260001  0.090710  1
  F  F16  1  0.169291  0.979184  0.909290  1
  F  F17  1  0.578740  0.952242  0.323600  1
  F  F18  1  0.739999  0.830709  0.809894  1
  F  F19  1  0.020816  0.930106  0.190106  1
  F  F20  1  0.290685  0.058119  0.301392  1
  F  F21  1  0.941881  0.243273  0.232566  1
  F  F22  1  0.010708  0.709315  0.767434  1
  F  F23  1  0.420317  0.289244  0.298799  1
  F  F24  1  0.990445  0.121517  0.701201  1
  F  F25  1  0.756727  0.989292  0.698608  1
  F  F26  1  0.710756  0.009555  0.131072  1
  F  F27  1  0.878483  0.579683  0.868928  1
  F  F28  1  0.468979  0.106814  0.689269  1
  F  F29  1  0.893186  0.582454  0.362164  1
