# generated using pymatgen
data_LiV5(SiOs2)6
_symmetry_space_group_name_H-M   'P 1'
_cell_length_a   4.20676200
_cell_length_b   5.94829000
_cell_length_c   12.66320900
_cell_angle_alpha   90.00000000
_cell_angle_beta   90.00082943
_cell_angle_gamma   90.00000000
_symmetry_Int_Tables_number   1
_chemical_formula_structural   LiV5(SiOs2)6
_chemical_formula_sum   'Li1 V5 Si6 Os12'
_cell_volume   316.87198959
_cell_formula_units_Z   1
loop_
 _symmetry_equiv_pos_site_id
 _symmetry_equiv_pos_as_xyz
  1  'x, y, z'
loop_
 _atom_site_type_symbol
 _atom_site_label
 _atom_site_symmetry_multiplicity
 _atom_site_fract_x
 _atom_site_fract_y
 _atom_site_fract_z
 _atom_site_occupancy
  Li  Li0  1  0.000000  0.500001  0.000000  1
  V  V1  1  0.499782  0.000000  0.162576  1
  V  V2  1  0.999799  0.500001  0.332140  1
  V  V3  1  0.500000  0.000000  0.500000  1
  V  V4  1  0.000200  0.500001  0.667860  1
  V  V5  1  0.500217  0.000000  0.837424  1
  Si  Si6  1  0.000000  0.000000  0.000000  1
  Si  Si7  1  0.499775  0.500001  0.159434  1
  Si  Si8  1  0.999799  0.000000  0.329088  1
  Si  Si9  1  0.500000  0.500001  0.500000  1
  Si  Si10  1  0.000202  0.000000  0.670912  1
  Si  Si11  1  0.500227  0.500001  0.840566  1
  Os  Os12  1  0.500000  0.245257  0.000000  1
  Os  Os13  1  0.500000  0.754743  0.000000  1
  Os  Os14  1  0.999817  0.249233  0.169679  1
  Os  Os15  1  0.999817  0.750767  0.169679  1
  Os  Os16  1  0.499838  0.250837  0.334283  1
  Os  Os17  1  0.499838  0.749163  0.334283  1
  Os  Os18  1  0.000000  0.248444  0.500000  1
  Os  Os19  1  0.000000  0.751556  0.500000  1
  Os  Os20  1  0.500164  0.250837  0.665717  1
  Os  Os21  1  0.500164  0.749163  0.665717  1
  Os  Os22  1  0.000182  0.249233  0.830321  1
  Os  Os23  1  0.000182  0.750767  0.830321  1
