# generated using pymatgen
data_Ho4Si4Ir2OsRu
_symmetry_space_group_name_H-M   'P 1'
_cell_length_a   4.26083100
_cell_length_b   6.88590925
_cell_length_c   7.30276616
_cell_angle_alpha   90.11083126
_cell_angle_beta   90.00000000
_cell_angle_gamma   90.00000000
_symmetry_Int_Tables_number   1
_chemical_formula_structural   Ho4Si4Ir2OsRu
_chemical_formula_sum   'Ho4 Si4 Ir2 Os1 Ru1'
_cell_volume   214.26053526
_cell_formula_units_Z   1
loop_
 _symmetry_equiv_pos_site_id
 _symmetry_equiv_pos_as_xyz
  1  'x, y, z'
loop_
 _atom_site_type_symbol
 _atom_site_label
 _atom_site_symmetry_multiplicity
 _atom_site_fract_x
 _atom_site_fract_y
 _atom_site_fract_z
 _atom_site_occupancy
  Ho  Ho0  1  0.750000  0.502768  0.814362  1
  Ho  Ho1  1  0.250000  0.994490  0.313702  1
  Ho  Ho2  1  0.750000  0.003094  0.687126  1
  Ho  Ho3  1  0.250000  0.496169  0.184489  1
  Si  Si4  1  0.250000  0.801451  0.886076  1
  Si  Si5  1  0.250000  0.302279  0.610555  1
  Si  Si6  1  0.750000  0.199845  0.107542  1
  Si  Si7  1  0.750000  0.700420  0.395296  1
  Ir  Ir8  1  0.750000  0.842539  0.065952  1
  Ir  Ir9  1  0.750000  0.342852  0.433278  1
  Os  Os10  1  0.250000  0.657864  0.565107  1
  Ru  Ru11  1  0.250000  0.156228  0.936517  1
