# generated using pymatgen
data_Ca(NbS2)2
_symmetry_space_group_name_H-M   'P 1'
_cell_length_a   5.86696100
_cell_length_b   6.77677700
_cell_length_c   14.29025700
_cell_angle_alpha   90.00000000
_cell_angle_beta   90.00000000
_cell_angle_gamma   90.00000000
_symmetry_Int_Tables_number   1
_chemical_formula_structural   Ca(NbS2)2
_chemical_formula_sum   'Ca4 Nb8 S16'
_cell_volume   568.16756224
_cell_formula_units_Z   4
loop_
 _symmetry_equiv_pos_site_id
 _symmetry_equiv_pos_as_xyz
  1  'x, y, z'
loop_
 _atom_site_type_symbol
 _atom_site_label
 _atom_site_symmetry_multiplicity
 _atom_site_fract_x
 _atom_site_fract_y
 _atom_site_fract_z
 _atom_site_occupancy
  Ca  Ca0  1  0.315536  0.250000  0.002975  1
  Ca  Ca1  1  0.315536  0.750000  0.497025  1
  Ca  Ca2  1  0.684464  0.250000  0.502975  1
  Ca  Ca3  1  0.684464  0.750000  0.997025  1
  Nb  Nb4  1  0.156075  0.000000  0.250000  1
  Nb  Nb5  1  0.156075  0.500000  0.250000  1
  Nb  Nb6  1  0.338779  0.250000  0.749610  1
  Nb  Nb7  1  0.338779  0.750000  0.750390  1
  Nb  Nb8  1  0.661221  0.250000  0.249610  1
  Nb  Nb9  1  0.661221  0.750000  0.250390  1
  Nb  Nb10  1  0.843925  0.000000  0.750000  1
  Nb  Nb11  1  0.843925  0.500000  0.750000  1
  S  S12  1  0.012362  0.250000  0.639508  1
  S  S13  1  0.012362  0.750000  0.860492  1
  S  S14  1  0.004427  0.250000  0.859694  1
  S  S15  1  0.004427  0.750000  0.640306  1
  S  S16  1  0.492575  0.501454  0.139577  1
  S  S17  1  0.492575  0.998546  0.139577  1
  S  S18  1  0.492575  0.001454  0.360423  1
  S  S19  1  0.492575  0.498546  0.360423  1
  S  S20  1  0.507425  0.501454  0.639577  1
  S  S21  1  0.507425  0.001454  0.860423  1
  S  S22  1  0.507425  0.498546  0.860423  1
  S  S23  1  0.507425  0.998546  0.639577  1
  S  S24  1  0.995573  0.750000  0.140306  1
  S  S25  1  0.995573  0.250000  0.359694  1
  S  S26  1  0.987638  0.250000  0.139508  1
  S  S27  1  0.987638  0.750000  0.360492  1
