# generated using pymatgen
data_PrDy4Mn2O12
_symmetry_space_group_name_H-M   'P 1'
_cell_length_a   6.89092533
_cell_length_b   6.89095540
_cell_length_c   7.34600519
_cell_angle_alpha   74.66083415
_cell_angle_beta   74.66107440
_cell_angle_gamma   49.58252652
_symmetry_Int_Tables_number   1
_chemical_formula_structural   PrDy4Mn2O12
_chemical_formula_sum   'Pr1 Dy4 Mn2 O12'
_cell_volume   254.05071060
_cell_formula_units_Z   1
loop_
 _symmetry_equiv_pos_site_id
 _symmetry_equiv_pos_as_xyz
  1  'x, y, z'
loop_
 _atom_site_type_symbol
 _atom_site_label
 _atom_site_symmetry_multiplicity
 _atom_site_fract_x
 _atom_site_fract_y
 _atom_site_fract_z
 _atom_site_occupancy
  Pr  Pr0  1  0.000000  0.000000  0.500000  1
  Dy  Dy1  1  0.306122  0.306122  0.356046  1
  Dy  Dy2  1  0.693878  0.693878  0.643954  1
  Dy  Dy3  1  0.305337  0.305334  0.837108  1
  Dy  Dy4  1  0.694663  0.694666  0.162892  1
  Mn  Mn5  1  0.753089  0.246891  0.000014  1
  Mn  Mn6  1  0.246911  0.753109  0.999986  1
  O  O7  1  0.899180  0.421038  0.921319  1
  O  O8  1  0.421032  0.899182  0.921319  1
  O  O9  1  0.100820  0.578962  0.078681  1
  O  O10  1  0.578968  0.100818  0.078681  1
  O  O11  1  0.095222  0.586311  0.580582  1
  O  O12  1  0.586314  0.095218  0.580582  1
  O  O13  1  0.904778  0.413689  0.419418  1
  O  O14  1  0.413686  0.904782  0.419418  1
  O  O15  1  0.000265  0.000268  0.827190  1
  O  O16  1  0.999735  0.999732  0.172810  1
  O  O17  1  0.499578  0.499579  0.819759  1
  O  O18  1  0.500422  0.500421  0.180241  1
