# generated using pymatgen
data_Ti4SbTeP2
_symmetry_space_group_name_H-M   'P 1'
_cell_length_a   3.67332400
_cell_length_b   3.67332422
_cell_length_c   12.51652400
_cell_angle_alpha   90.00000000
_cell_angle_beta   90.00000000
_cell_angle_gamma   120.00003404
_symmetry_Int_Tables_number   1
_chemical_formula_structural   Ti4SbTeP2
_chemical_formula_sum   'Ti4 Sb1 Te1 P2'
_cell_volume   146.26240756
_cell_formula_units_Z   1
loop_
 _symmetry_equiv_pos_site_id
 _symmetry_equiv_pos_as_xyz
  1  'x, y, z'
loop_
 _atom_site_type_symbol
 _atom_site_label
 _atom_site_symmetry_multiplicity
 _atom_site_fract_x
 _atom_site_fract_y
 _atom_site_fract_z
 _atom_site_occupancy
  Ti  Ti0  1  0.666667  0.333333  0.598250  1
  Ti  Ti1  1  0.333333  0.666667  0.402015  1
  Ti  Ti2  1  0.333333  0.666667  0.097985  1
  Ti  Ti3  1  0.666667  0.333333  0.901750  1
  Sb  Sb4  1  0.333333  0.666667  0.750000  1
  Te  Te5  1  0.666667  0.333333  0.250000  1
  P  P6  1  0.000000  0.000000  0.500326  1
  P  P7  1  0.000000  0.000000  0.999674  1
