# generated using pymatgen
data_Ho11ErOs3Ru
_symmetry_space_group_name_H-M   'P 1'
_cell_length_a   6.30356753
_cell_length_b   7.35987666
_cell_length_c   9.05018272
_cell_angle_alpha   90.00574408
_cell_angle_beta   89.95467579
_cell_angle_gamma   89.92242355
_symmetry_Int_Tables_number   1
_chemical_formula_structural   Ho11ErOs3Ru
_chemical_formula_sum   'Ho11 Er1 Os3 Ru1'
_cell_volume   419.86894880
_cell_formula_units_Z   1
loop_
 _symmetry_equiv_pos_site_id
 _symmetry_equiv_pos_as_xyz
  1  'x, y, z'
loop_
 _atom_site_type_symbol
 _atom_site_label
 _atom_site_symmetry_multiplicity
 _atom_site_fract_x
 _atom_site_fract_y
 _atom_site_fract_z
 _atom_site_occupancy
  Ho  Ho0  1  0.169322  0.175588  0.437136  1
  Ho  Ho1  1  0.668385  0.324289  0.563054  1
  Ho  Ho2  1  0.832301  0.825046  0.937720  1
  Ho  Ho3  1  0.668247  0.324460  0.937052  1
  Ho  Ho4  1  0.832299  0.825104  0.562387  1
  Ho  Ho5  1  0.329989  0.676073  0.435543  1
  Ho  Ho6  1  0.169389  0.175597  0.062786  1
  Ho  Ho7  1  0.868826  0.538757  0.249823  1
  Ho  Ho8  1  0.630836  0.039057  0.249890  1
  Ho  Ho9  1  0.133034  0.460670  0.750170  1
  Ho  Ho10  1  0.368807  0.959062  0.750130  1
  Er  Er11  1  0.329858  0.675730  0.064599  1
  Os  Os12  1  0.039099  0.883437  0.249761  1
  Os  Os13  1  0.460814  0.384171  0.249780  1
  Os  Os14  1  0.961140  0.116596  0.749904  1
  Ru  Ru15  1  0.537650  0.616365  0.750266  1
