# generated using pymatgen
data_HfZr2PaCo2
_symmetry_space_group_name_H-M   'P 1'
_cell_length_a   5.02280564
_cell_length_b   5.02280522
_cell_length_c   5.59518611
_cell_angle_alpha   104.63102241
_cell_angle_beta   104.63103439
_cell_angle_gamma   115.92815422
_symmetry_Int_Tables_number   1
_chemical_formula_structural   HfZr2PaCo2
_chemical_formula_sum   'Hf1 Zr2 Pa1 Co2'
_cell_volume   111.63275911
_cell_formula_units_Z   1
loop_
 _symmetry_equiv_pos_site_id
 _symmetry_equiv_pos_as_xyz
  1  'x, y, z'
loop_
 _atom_site_type_symbol
 _atom_site_label
 _atom_site_symmetry_multiplicity
 _atom_site_fract_x
 _atom_site_fract_y
 _atom_site_fract_z
 _atom_site_occupancy
  Hf  Hf0  1  0.351045  0.851045  0.202092  1
  Zr  Zr1  1  0.829216  0.662259  0.491475  1
  Zr  Zr2  1  0.162259  0.329216  0.491475  1
  Pa  Pa3  1  0.678071  0.178071  0.856143  1
  Co  Co4  1  0.739704  0.739704  0.979409  1
  Co  Co5  1  0.239704  0.239704  0.979409  1
