# generated using pymatgen
data_Zr4Sc7FeOs3
_symmetry_space_group_name_H-M   'P 1'
_cell_length_a   9.47204150
_cell_length_b   9.47204158
_cell_length_c   9.47204200
_cell_angle_alpha   60.00000550
_cell_angle_beta   60.00000525
_cell_angle_gamma   60.00000375
_symmetry_Int_Tables_number   1
_chemical_formula_structural   Zr4Sc7FeOs3
_chemical_formula_sum   'Zr8 Sc14 Fe2 Os6'
_cell_volume   600.91888502
_cell_formula_units_Z   2
loop_
 _symmetry_equiv_pos_site_id
 _symmetry_equiv_pos_as_xyz
  1  'x, y, z'
loop_
 _atom_site_type_symbol
 _atom_site_label
 _atom_site_symmetry_multiplicity
 _atom_site_fract_x
 _atom_site_fract_y
 _atom_site_fract_z
 _atom_site_occupancy
  Zr  Zr0  1  0.841703  0.841703  0.841703  1
  Zr  Zr1  1  0.525108  0.158297  0.158297  1
  Zr  Zr2  1  0.158297  0.158297  0.525108  1
  Zr  Zr3  1  0.158297  0.525108  0.158297  1
  Zr  Zr4  1  0.841703  0.841703  0.474892  1
  Zr  Zr5  1  0.841703  0.474892  0.841703  1
  Zr  Zr6  1  0.474892  0.841703  0.841703  1
  Zr  Zr7  1  0.158297  0.158297  0.158297  1
  Sc  Sc8  1  0.194495  0.805505  0.194495  1
  Sc  Sc9  1  0.194495  0.805505  0.805505  1
  Sc  Sc10  1  0.805505  0.194495  0.194495  1
  Sc  Sc11  1  0.805505  0.805505  0.194495  1
  Sc  Sc12  1  0.194495  0.194495  0.805505  1
  Sc  Sc13  1  0.805505  0.194495  0.805505  1
  Sc  Sc14  1  0.385255  0.385255  0.385255  1
  Sc  Sc15  1  0.155768  0.614745  0.614745  1
  Sc  Sc16  1  0.614745  0.155768  0.614745  1
  Sc  Sc17  1  0.614745  0.614745  0.155768  1
  Sc  Sc18  1  0.385255  0.844232  0.385255  1
  Sc  Sc19  1  0.385255  0.385255  0.844232  1
  Sc  Sc20  1  0.844232  0.385255  0.385255  1
  Sc  Sc21  1  0.614745  0.614745  0.614745  1
  Fe  Fe22  1  0.500000  0.500000  0.500000  1
  Fe  Fe23  1  0.000000  0.000000  0.000000  1
  Os  Os24  1  0.500000  0.500000  0.000000  1
  Os  Os25  1  0.000000  0.000000  0.500000  1
  Os  Os26  1  0.500000  0.000000  0.500000  1
  Os  Os27  1  0.000000  0.500000  0.500000  1
  Os  Os28  1  0.500000  0.000000  0.000000  1
  Os  Os29  1  0.000000  0.500000  0.000000  1
