# generated using pymatgen
data_Y12TlCo4Rh
_symmetry_space_group_name_H-M   'P 1'
_cell_length_a   8.35414862
_cell_length_b   8.35414762
_cell_length_c   8.35414800
_cell_angle_alpha   110.93826157
_cell_angle_beta   110.56602612
_cell_angle_gamma   106.93891181
_symmetry_Int_Tables_number   1
_chemical_formula_structural   Y12TlCo4Rh
_chemical_formula_sum   'Y12 Tl1 Co4 Rh1'
_cell_volume   448.17387623
_cell_formula_units_Z   1
loop_
 _symmetry_equiv_pos_site_id
 _symmetry_equiv_pos_as_xyz
  1  'x, y, z'
loop_
 _atom_site_type_symbol
 _atom_site_label
 _atom_site_symmetry_multiplicity
 _atom_site_fract_x
 _atom_site_fract_y
 _atom_site_fract_z
 _atom_site_occupancy
  Y  Y0  1  0.406432  0.211288  0.195144  1
  Y  Y1  1  0.593568  0.788712  0.804856  1
  Y  Y2  1  0.016145  0.211288  0.804856  1
  Y  Y3  1  0.983855  0.788712  0.195144  1
  Y  Y4  1  0.186547  0.291899  0.478445  1
  Y  Y5  1  0.813453  0.708101  0.521555  1
  Y  Y6  1  0.186546  0.708101  0.894648  1
  Y  Y7  1  0.813454  0.291899  0.105352  1
  Y  Y8  1  0.313530  0.618002  0.304471  1
  Y  Y9  1  0.686470  0.381998  0.695529  1
  Y  Y10  1  0.313530  0.009056  0.695525  1
  Y  Y11  1  0.686470  0.990944  0.304475  1
  Tl  Tl12  1  0.500000  0.500000  0.000000  1
  Co  Co13  1  0.382119  0.000000  0.382119  1
  Co  Co14  1  0.617881  0.000000  0.617881  1
  Co  Co15  1  0.110630  0.610629  0.499999  1
  Co  Co16  1  0.889370  0.389371  0.500001  1
  Rh  Rh17  1  0.000000  0.000000  0.000000  1
