# generated using pymatgen
data_Rb3LiMgMnH9
_symmetry_space_group_name_H-M   'P 1'
_cell_length_a   7.99160045
_cell_length_b   7.99160015
_cell_length_c   7.99159925
_cell_angle_alpha   44.19640678
_cell_angle_beta   44.19640976
_cell_angle_gamma   44.19642840
_symmetry_Int_Tables_number   1
_chemical_formula_structural   Rb3LiMgMnH9
_chemical_formula_sum   'Rb3 Li1 Mg1 Mn1 H9'
_cell_volume   225.37720962
_cell_formula_units_Z   1
loop_
 _symmetry_equiv_pos_site_id
 _symmetry_equiv_pos_as_xyz
  1  'x, y, z'
loop_
 _atom_site_type_symbol
 _atom_site_label
 _atom_site_symmetry_multiplicity
 _atom_site_fract_x
 _atom_site_fract_y
 _atom_site_fract_z
 _atom_site_occupancy
  Rb  Rb0  1  0.993244  0.993244  0.993244  1
  Rb  Rb1  1  0.781621  0.781621  0.781621  1
  Rb  Rb2  1  0.217317  0.217317  0.217317  1
  Li  Li3  1  0.620783  0.620783  0.620783  1
  Mg  Mg4  1  0.378827  0.378827  0.378827  1
  Mn  Mn5  1  0.499920  0.499920  0.499920  1
  H  H6  1  0.010365  0.498030  0.498030  1
  H  H7  1  0.498030  0.010365  0.498030  1
  H  H8  1  0.498030  0.498030  0.010365  1
  H  H9  1  0.714779  0.323610  0.323610  1
  H  H10  1  0.323610  0.714779  0.323610  1
  H  H11  1  0.323610  0.323610  0.714779  1
  H  H12  1  0.673391  0.673391  0.293080  1
  H  H13  1  0.673391  0.293080  0.673391  1
  H  H14  1  0.293080  0.673391  0.673391  1
