# generated using pymatgen
data_Li4Ac3Si4
_symmetry_space_group_name_H-M   'P 1'
_cell_length_a   4.62445011
_cell_length_b   7.05227595
_cell_length_c   8.77920347
_cell_angle_alpha   113.68116948
_cell_angle_beta   105.27043856
_cell_angle_gamma   90.00000548
_symmetry_Int_Tables_number   1
_chemical_formula_structural   Li4Ac3Si4
_chemical_formula_sum   'Li4 Ac3 Si4'
_cell_volume   251.12856383
_cell_formula_units_Z   1
loop_
 _symmetry_equiv_pos_site_id
 _symmetry_equiv_pos_as_xyz
  1  'x, y, z'
loop_
 _atom_site_type_symbol
 _atom_site_label
 _atom_site_symmetry_multiplicity
 _atom_site_fract_x
 _atom_site_fract_y
 _atom_site_fract_z
 _atom_site_occupancy
  Li  Li0  1  0.669891  0.981764  0.339780  1
  Li  Li1  1  0.330211  0.018348  0.660423  1
  Li  Li2  1  0.330211  0.642074  0.660423  1
  Li  Li3  1  0.669891  0.358015  0.339780  1
  Ac  Ac4  1  0.000192  0.000192  0.000386  1
  Ac  Ac5  1  0.134699  0.634699  0.269399  1
  Ac  Ac6  1  0.864998  0.364998  0.729995  1
  Si  Si7  1  0.500012  0.670778  0.000025  1
  Si  Si8  1  0.500012  0.329247  0.000025  1
  Si  Si9  1  0.787888  0.787888  0.575773  1
  Si  Si10  1  0.211995  0.211995  0.423990  1
