# generated using pymatgen
data_LaYbSi7Rh12
_symmetry_space_group_name_H-M   'P 1'
_cell_length_a   9.78522800
_cell_length_b   9.78522661
_cell_length_c   3.87761600
_cell_angle_alpha   90.00000000
_cell_angle_beta   90.00000000
_cell_angle_gamma   119.99999794
_symmetry_Int_Tables_number   1
_chemical_formula_structural   LaYbSi7Rh12
_chemical_formula_sum   'La1 Yb1 Si7 Rh12'
_cell_volume   321.54167986
_cell_formula_units_Z   1
loop_
 _symmetry_equiv_pos_site_id
 _symmetry_equiv_pos_as_xyz
  1  'x, y, z'
loop_
 _atom_site_type_symbol
 _atom_site_label
 _atom_site_symmetry_multiplicity
 _atom_site_fract_x
 _atom_site_fract_y
 _atom_site_fract_z
 _atom_site_occupancy
  La  La0  1  0.333333  0.666667  0.249163  1
  Yb  Yb1  1  0.666667  0.333333  0.749121  1
  Si  Si2  1  0.000000  0.000000  0.504748  1
  Si  Si3  1  0.398768  0.108415  0.249358  1
  Si  Si4  1  0.709649  0.601232  0.249358  1
  Si  Si5  1  0.891585  0.290351  0.249358  1
  Si  Si6  1  0.605800  0.896704  0.750380  1
  Si  Si7  1  0.290902  0.394200  0.750380  1
  Si  Si8  1  0.103296  0.709098  0.750380  1
  Rh  Rh9  1  0.445143  0.378547  0.247991  1
  Rh  Rh10  1  0.933405  0.554857  0.247991  1
  Rh  Rh11  1  0.621453  0.066595  0.247991  1
  Rh  Rh12  1  0.558360  0.618037  0.752157  1
  Rh  Rh13  1  0.059678  0.441640  0.752157  1
  Rh  Rh14  1  0.381963  0.940322  0.752157  1
  Rh  Rh15  1  0.141718  0.881370  0.254728  1
  Rh  Rh16  1  0.739652  0.858282  0.254728  1
  Rh  Rh17  1  0.118630  0.260348  0.254728  1
  Rh  Rh18  1  0.860092  0.120624  0.744375  1
  Rh  Rh19  1  0.260531  0.139908  0.744375  1
  Rh  Rh20  1  0.879376  0.739469  0.744375  1
