# generated using pymatgen
data_Pa4Ir3PtPb2
_symmetry_space_group_name_H-M   'P 1'
_cell_length_a   7.89226245
_cell_length_b   7.89226245
_cell_length_c   3.59115400
_cell_angle_alpha   90.00000000
_cell_angle_beta   90.00000000
_cell_angle_gamma   89.96137818
_symmetry_Int_Tables_number   1
_chemical_formula_structural   Pa4Ir3PtPb2
_chemical_formula_sum   'Pa4 Ir3 Pt1 Pb2'
_cell_volume   223.68505483
_cell_formula_units_Z   1
loop_
 _symmetry_equiv_pos_site_id
 _symmetry_equiv_pos_as_xyz
  1  'x, y, z'
loop_
 _atom_site_type_symbol
 _atom_site_label
 _atom_site_symmetry_multiplicity
 _atom_site_fract_x
 _atom_site_fract_y
 _atom_site_fract_z
 _atom_site_occupancy
  Pa  Pa0  1  0.324857  0.167596  0.500001  1
  Pa  Pa1  1  0.837121  0.337121  0.500001  1
  Pa  Pa2  1  0.170744  0.670745  0.500001  1
  Pa  Pa3  1  0.667597  0.824857  0.500001  1
  Ir  Ir4  1  0.130444  0.369210  0.000000  1
  Ir  Ir5  1  0.869211  0.630445  0.000000  1
  Ir  Ir6  1  0.371294  0.871295  0.000000  1
  Pt  Pt7  1  0.630148  0.130147  0.000000  1
  Pb  Pb8  1  0.000045  0.998540  0.000000  1
  Pb  Pb9  1  0.498539  0.500044  0.000000  1
