# generated using pymatgen
data_La15NdCd4IrPt3
_symmetry_space_group_name_H-M   'P 1'
_cell_length_a   10.18741797
_cell_length_b   10.16497922
_cell_length_c   10.16342400
_cell_angle_alpha   60.00506101
_cell_angle_beta   60.07788067
_cell_angle_gamma   60.08886320
_symmetry_Int_Tables_number   1
_chemical_formula_structural   La15NdCd4IrPt3
_chemical_formula_sum   'La15 Nd1 Cd4 Ir1 Pt3'
_cell_volume   745.17528702
_cell_formula_units_Z   1
loop_
 _symmetry_equiv_pos_site_id
 _symmetry_equiv_pos_as_xyz
  1  'x, y, z'
loop_
 _atom_site_type_symbol
 _atom_site_label
 _atom_site_symmetry_multiplicity
 _atom_site_fract_x
 _atom_site_fract_y
 _atom_site_fract_z
 _atom_site_occupancy
  La  La0  1  0.351498  0.347030  0.346970  1
  La  La1  1  0.351498  0.347030  0.954502  1
  La  La2  1  0.351406  0.953390  0.347602  1
  La  La3  1  0.948158  0.350289  0.350776  1
  La  La4  1  0.805715  0.190241  0.191366  1
  La  La5  1  0.192535  0.808303  0.807178  1
  La  La6  1  0.192535  0.808303  0.191985  1
  La  La7  1  0.805715  0.190241  0.812679  1
  La  La8  1  0.192555  0.191154  0.808146  1
  La  La9  1  0.805025  0.813105  0.190935  1
  La  La10  1  0.937850  0.563768  0.563767  1
  La  La11  1  0.565249  0.937078  0.935901  1
  La  La12  1  0.565249  0.937078  0.561773  1
  La  La13  1  0.937850  0.563768  0.934616  1
  La  La14  1  0.564562  0.561080  0.937179  1
  Nd  Nd15  1  0.938497  0.936163  0.562671  1
  Cd  Cd16  1  0.579469  0.580044  0.579872  1
  Cd  Cd17  1  0.579469  0.580044  0.260614  1
  Cd  Cd18  1  0.580332  0.259591  0.580038  1
  Cd  Cd19  1  0.260369  0.580524  0.579552  1
  Ir  Ir20  1  0.573083  0.142212  0.142353  1
  Pt  Pt21  1  0.140458  0.143287  0.143800  1
  Pt  Pt22  1  0.140458  0.143287  0.572453  1
  Pt  Pt23  1  0.140467  0.572991  0.143271  1
