# generated using pymatgen
data_Ti8Al15Fe3Co4
_symmetry_space_group_name_H-M   'P 1'
_cell_length_a   8.45264865
_cell_length_b   8.45499649
_cell_length_c   8.45264800
_cell_angle_alpha   120.13292122
_cell_angle_beta   119.77755431
_cell_angle_gamma   90.06981102
_symmetry_Int_Tables_number   1
_chemical_formula_structural   Ti8Al15Fe3Co4
_chemical_formula_sum   'Ti8 Al15 Fe3 Co4'
_cell_volume   427.46692852
_cell_formula_units_Z   1
loop_
 _symmetry_equiv_pos_site_id
 _symmetry_equiv_pos_as_xyz
  1  'x, y, z'
loop_
 _atom_site_type_symbol
 _atom_site_label
 _atom_site_symmetry_multiplicity
 _atom_site_fract_x
 _atom_site_fract_y
 _atom_site_fract_z
 _atom_site_occupancy
  Ti  Ti0  1  0.782540  0.283528  0.066572  1
  Ti  Ti1  1  0.216957  0.283528  0.500988  1
  Ti  Ti2  1  0.212959  0.720891  0.507932  1
  Ti  Ti3  1  0.222883  0.724055  0.932739  1
  Ti  Ti4  1  0.791316  0.724055  0.501172  1
  Ti  Ti5  1  0.779170  0.272252  0.493082  1
  Ti  Ti6  1  0.379307  0.122959  0.743652  1
  Ti  Ti7  1  0.380574  0.637734  0.257161  1
  Al  Al8  1  0.995878  0.495178  0.499300  1
  Al  Al9  1  0.155316  0.345397  0.190079  1
  Al  Al10  1  0.158219  0.978310  0.820091  1
  Al  Al11  1  0.153532  0.345373  0.811643  1
  Al  Al12  1  0.533729  0.345373  0.191842  1
  Al  Al13  1  0.844925  0.652141  0.807215  1
  Al  Al14  1  0.843320  0.028144  0.184824  1
  Al  Al15  1  0.841566  0.655085  0.181880  1
  Al  Al16  1  0.473205  0.655085  0.813519  1
  Al  Al17  1  0.379342  0.122601  0.261352  1
  Al  Al18  1  0.861250  0.122601  0.743260  1
  Al  Al19  1  0.620060  0.875322  0.255262  1
  Al  Al20  1  0.620558  0.362407  0.741848  1
  Al  Al21  1  0.619781  0.877347  0.739383  1
  Al  Al22  1  0.137963  0.877347  0.257567  1
  Fe  Fe23  1  0.002061  0.999344  0.502256  1
  Fe  Fe24  1  0.497088  0.999344  0.997283  1
  Fe  Fe25  1  0.497142  0.496686  0.999544  1
  Co  Co26  1  0.497941  0.500133  0.497717  1
  Co  Co27  1  0.002415  0.500133  0.002191  1
  Co  Co28  1  0.999904  0.999699  0.999795  1
  Co  Co29  1  0.499095  0.997944  0.498849  1
