# generated using pymatgen
data_Tm3Sc9(Si3Os)4
_symmetry_space_group_name_H-M   'P 1'
_cell_length_a   4.04071000
_cell_length_b   10.40907444
_cell_length_c   11.84078853
_cell_angle_alpha   89.96610672
_cell_angle_beta   90.00000000
_cell_angle_gamma   90.00000000
_symmetry_Int_Tables_number   1
_chemical_formula_structural   Tm3Sc9(Si3Os)4
_chemical_formula_sum   'Tm3 Sc9 Si12 Os4'
_cell_volume   498.02408468
_cell_formula_units_Z   1
loop_
 _symmetry_equiv_pos_site_id
 _symmetry_equiv_pos_as_xyz
  1  'x, y, z'
loop_
 _atom_site_type_symbol
 _atom_site_label
 _atom_site_symmetry_multiplicity
 _atom_site_fract_x
 _atom_site_fract_y
 _atom_site_fract_z
 _atom_site_occupancy
  Tm  Tm0  1  0.250000  0.876602  0.018684  1
  Tm  Tm1  1  0.250000  0.621239  0.518062  1
  Tm  Tm2  1  0.750000  0.124023  0.981733  1
  Sc  Sc3  1  0.750000  0.375576  0.481367  1
  Sc  Sc4  1  0.250000  0.921726  0.604698  1
  Sc  Sc5  1  0.250000  0.578142  0.105650  1
  Sc  Sc6  1  0.750000  0.080761  0.395773  1
  Sc  Sc7  1  0.750000  0.421692  0.894314  1
  Sc  Sc8  1  0.250000  0.658185  0.797943  1
  Sc  Sc9  1  0.250000  0.840983  0.299235  1
  Sc  Sc10  1  0.750000  0.340858  0.203227  1
  Sc  Sc11  1  0.750000  0.160492  0.699881  1
  Si  Si12  1  0.250000  0.015948  0.816846  1
  Si  Si13  1  0.250000  0.482791  0.318450  1
  Si  Si14  1  0.750000  0.984931  0.183692  1
  Si  Si15  1  0.750000  0.512569  0.679036  1
  Si  Si16  1  0.250000  0.253534  0.841206  1
  Si  Si17  1  0.250000  0.249388  0.344016  1
  Si  Si18  1  0.750000  0.746509  0.159290  1
  Si  Si19  1  0.750000  0.752047  0.657460  1
  Si  Si20  1  0.250000  0.196136  0.546132  1
  Si  Si21  1  0.250000  0.308895  0.047747  1
  Si  Si22  1  0.750000  0.808328  0.452804  1
  Si  Si23  1  0.750000  0.691192  0.952572  1
  Os  Os24  1  0.250000  0.389129  0.676944  1
  Os  Os25  1  0.250000  0.110673  0.181277  1
  Os  Os26  1  0.750000  0.607871  0.321913  1
  Os  Os27  1  0.750000  0.889778  0.820047  1
