# generated using pymatgen
data_Dy3Lu3Co2
_symmetry_space_group_name_H-M   'P 1'
_cell_length_a   6.16068404
_cell_length_b   6.89238500
_cell_length_c   9.25913128
_cell_angle_alpha   90.00000000
_cell_angle_beta   90.25228312
_cell_angle_gamma   90.00000000
_symmetry_Int_Tables_number   1
_chemical_formula_structural   Dy3Lu3Co2
_chemical_formula_sum   'Dy6 Lu6 Co4'
_cell_volume   393.15562714
_cell_formula_units_Z   2
loop_
 _symmetry_equiv_pos_site_id
 _symmetry_equiv_pos_as_xyz
  1  'x, y, z'
loop_
 _atom_site_type_symbol
 _atom_site_label
 _atom_site_symmetry_multiplicity
 _atom_site_fract_x
 _atom_site_fract_y
 _atom_site_fract_z
 _atom_site_occupancy
  Dy  Dy0  1  0.322899  0.674809  0.066948  1
  Dy  Dy1  1  0.177101  0.174809  0.433052  1
  Dy  Dy2  1  0.861516  0.541298  0.250998  1
  Dy  Dy3  1  0.638484  0.041298  0.249002  1
  Dy  Dy4  1  0.133208  0.458164  0.749961  1
  Dy  Dy5  1  0.366792  0.958164  0.750039  1
  Lu  Lu6  1  0.674322  0.325900  0.568987  1
  Lu  Lu7  1  0.825678  0.825900  0.931013  1
  Lu  Lu8  1  0.675306  0.324674  0.932165  1
  Lu  Lu9  1  0.824694  0.824674  0.567835  1
  Lu  Lu10  1  0.326323  0.674424  0.434469  1
  Lu  Lu11  1  0.173677  0.174424  0.065531  1
  Co  Co12  1  0.048519  0.887554  0.250410  1
  Co  Co13  1  0.451481  0.387554  0.249590  1
  Co  Co14  1  0.949538  0.113176  0.752488  1
  Co  Co15  1  0.550462  0.613176  0.747512  1
