# generated using pymatgen
data_TbEr5C3Cl5
_symmetry_space_group_name_H-M   'P 1'
_cell_length_a   3.62212763
_cell_length_b   8.23573568
_cell_length_c   10.17692566
_cell_angle_alpha   85.58424644
_cell_angle_beta   79.67436077
_cell_angle_gamma   77.35633704
_symmetry_Int_Tables_number   1
_chemical_formula_structural   TbEr5C3Cl5
_chemical_formula_sum   'Tb1 Er5 C3 Cl5'
_cell_volume   291.20188072
_cell_formula_units_Z   1
loop_
 _symmetry_equiv_pos_site_id
 _symmetry_equiv_pos_as_xyz
  1  'x, y, z'
loop_
 _atom_site_type_symbol
 _atom_site_label
 _atom_site_symmetry_multiplicity
 _atom_site_fract_x
 _atom_site_fract_y
 _atom_site_fract_z
 _atom_site_occupancy
  Tb  Tb0  1  0.432100  0.923305  0.217357  1
  Er  Er1  1  0.573687  0.075299  0.778578  1
  Er  Er2  1  0.959107  0.428734  0.656593  1
  Er  Er3  1  0.683558  0.179438  0.456387  1
  Er  Er4  1  0.045828  0.569266  0.343079  1
  Er  Er5  1  0.320609  0.818552  0.543357  1
  C  C6  1  0.127562  0.123134  0.624947  1
  C  C7  1  0.876456  0.874756  0.375479  1
  C  C8  1  0.502804  0.498603  0.499985  1
  Cl  Cl9  1  0.751595  0.745618  0.755292  1
  Cl  Cl10  1  0.379248  0.379450  0.868074  1
  Cl  Cl11  1  0.250253  0.255255  0.244187  1
  Cl  Cl12  1  0.629990  0.613554  0.130838  1
  Cl  Cl13  1  0.004423  0.998626  0.995162  1
