# generated using pymatgen
data_Dy4Ho15ThPb16
_symmetry_space_group_name_H-M   'P 1'
_cell_length_a   8.19929567
_cell_length_b   8.27584260
_cell_length_c   15.62545400
_cell_angle_alpha   90.03130004
_cell_angle_beta   89.66081281
_cell_angle_gamma   89.92914006
_symmetry_Int_Tables_number   1
_chemical_formula_structural   Dy4Ho15ThPb16
_chemical_formula_sum   'Dy4 Ho15 Th1 Pb16'
_cell_volume   1060.26251065
_cell_formula_units_Z   1
loop_
 _symmetry_equiv_pos_site_id
 _symmetry_equiv_pos_as_xyz
  1  'x, y, z'
loop_
 _atom_site_type_symbol
 _atom_site_label
 _atom_site_symmetry_multiplicity
 _atom_site_fract_x
 _atom_site_fract_y
 _atom_site_fract_z
 _atom_site_occupancy
  Dy  Dy0  1  0.032959  0.177537  0.400371  1
  Dy  Dy1  1  0.531515  0.323597  0.401302  1
  Dy  Dy2  1  0.034715  0.176234  0.099618  1
  Dy  Dy3  1  0.466008  0.675265  0.901124  1
  Ho  Ho4  1  0.626656  0.158304  0.621961  1
  Ho  Ho5  1  0.125047  0.341470  0.879460  1
  Ho  Ho6  1  0.375943  0.842078  0.121210  1
  Ho  Ho7  1  0.873254  0.657949  0.378088  1
  Ho  Ho8  1  0.374227  0.842501  0.378003  1
  Ho  Ho9  1  0.876778  0.658033  0.120690  1
  Ho  Ho10  1  0.622558  0.157740  0.878644  1
  Ho  Ho11  1  0.125350  0.342138  0.621616  1
  Ho  Ho12  1  0.465288  0.675477  0.599655  1
  Ho  Ho13  1  0.962219  0.824499  0.899015  1
  Ho  Ho14  1  0.536621  0.324641  0.100264  1
  Ho  Ho15  1  0.792817  0.496156  0.750746  1
  Ho  Ho16  1  0.293154  0.004514  0.750577  1
  Ho  Ho17  1  0.207165  0.504068  0.249889  1
  Ho  Ho18  1  0.707232  0.995930  0.249227  1
  Th  Th19  1  0.969857  0.822337  0.597972  1
  Pb  Pb20  1  0.714564  0.966731  0.455870  1
  Pb  Pb21  1  0.219695  0.532584  0.043529  1
  Pb  Pb22  1  0.280338  0.031191  0.956607  1
  Pb  Pb23  1  0.781765  0.464403  0.543051  1
  Pb  Pb24  1  0.288047  0.038551  0.542152  1
  Pb  Pb25  1  0.782773  0.464241  0.957353  1
  Pb  Pb26  1  0.717357  0.965734  0.042315  1
  Pb  Pb27  1  0.215135  0.537747  0.457847  1
  Pb  Pb28  1  0.430317  0.373426  0.750067  1
  Pb  Pb29  1  0.930239  0.127197  0.750138  1
  Pb  Pb30  1  0.570015  0.625912  0.249771  1
  Pb  Pb31  1  0.070000  0.873944  0.249751  1
  Pb  Pb32  1  0.651771  0.845001  0.749666  1
  Pb  Pb33  1  0.155954  0.651662  0.752158  1
  Pb  Pb34  1  0.346470  0.155097  0.250072  1
  Pb  Pb35  1  0.846200  0.346110  0.250221  1
