# generated using pymatgen
data_TcMo3Ir4
_symmetry_space_group_name_H-M   'P 1'
_cell_length_a   5.52067800
_cell_length_b   5.55002797
_cell_length_c   4.41629000
_cell_angle_alpha   90.00000000
_cell_angle_beta   90.00000000
_cell_angle_gamma   119.82521955
_symmetry_Int_Tables_number   1
_chemical_formula_structural   TcMo3Ir4
_chemical_formula_sum   'Tc1 Mo3 Ir4'
_cell_volume   117.39186290
_cell_formula_units_Z   1
loop_
 _symmetry_equiv_pos_site_id
 _symmetry_equiv_pos_as_xyz
  1  'x, y, z'
loop_
 _atom_site_type_symbol
 _atom_site_label
 _atom_site_symmetry_multiplicity
 _atom_site_fract_x
 _atom_site_fract_y
 _atom_site_fract_z
 _atom_site_occupancy
  Tc  Tc0  1  0.834034  0.668069  0.250000  1
  Mo  Mo1  1  0.336293  0.672587  0.250000  1
  Mo  Mo2  1  0.668424  0.336847  0.750000  1
  Mo  Mo3  1  0.163956  0.327912  0.750000  1
  Ir  Ir4  1  0.160268  0.824674  0.750000  1
  Ir  Ir5  1  0.664406  0.824674  0.750000  1
  Ir  Ir6  1  0.337038  0.172617  0.250000  1
  Ir  Ir7  1  0.835579  0.172617  0.250000  1
