# generated using pymatgen
data_Nd4DyHo5Pb6
_symmetry_space_group_name_H-M   'P 1'
_cell_length_a   9.17462170
_cell_length_b   9.17462110
_cell_length_c   6.72417800
_cell_angle_alpha   90.00000000
_cell_angle_beta   90.00000000
_cell_angle_gamma   119.55263049
_symmetry_Int_Tables_number   1
_chemical_formula_structural   Nd4DyHo5Pb6
_chemical_formula_sum   'Nd4 Dy1 Ho5 Pb6'
_cell_volume   492.36404816
_cell_formula_units_Z   1
loop_
 _symmetry_equiv_pos_site_id
 _symmetry_equiv_pos_as_xyz
  1  'x, y, z'
loop_
 _atom_site_type_symbol
 _atom_site_label
 _atom_site_symmetry_multiplicity
 _atom_site_fract_x
 _atom_site_fract_y
 _atom_site_fract_z
 _atom_site_occupancy
  Nd  Nd0  1  0.238782  0.000678  0.750000  1
  Nd  Nd1  1  0.000678  0.238782  0.750000  1
  Nd  Nd2  1  0.761503  0.999190  0.250000  1
  Nd  Nd3  1  0.999190  0.761503  0.250000  1
  Dy  Dy4  1  0.242497  0.242497  0.250000  1
  Ho  Ho5  1  0.666459  0.333325  0.999913  1
  Ho  Ho6  1  0.333325  0.666459  0.999913  1
  Ho  Ho7  1  0.333325  0.666459  0.500087  1
  Ho  Ho8  1  0.666459  0.333325  0.500087  1
  Ho  Ho9  1  0.758006  0.758006  0.750000  1
  Pb  Pb10  1  0.401224  0.401224  0.750000  1
  Pb  Pb11  1  0.603748  0.997218  0.750000  1
  Pb  Pb12  1  0.997218  0.603748  0.750000  1
  Pb  Pb13  1  0.599194  0.599194  0.250000  1
  Pb  Pb14  1  0.396453  0.001938  0.250000  1
  Pb  Pb15  1  0.001938  0.396453  0.250000  1
