# generated using pymatgen
data_Er5Tm7Lu8(CoSb2)4
_symmetry_space_group_name_H-M   'P 1'
_cell_length_a   7.69919314
_cell_length_b   8.71171600
_cell_length_c   12.01427522
_cell_angle_alpha   90.00000000
_cell_angle_beta   89.97789388
_cell_angle_gamma   90.00000000
_symmetry_Int_Tables_number   1
_chemical_formula_structural   Er5Tm7Lu8(CoSb2)4
_chemical_formula_sum   'Er5 Tm7 Lu8 Co4 Sb8'
_cell_volume   805.83563384
_cell_formula_units_Z   1
loop_
 _symmetry_equiv_pos_site_id
 _symmetry_equiv_pos_as_xyz
  1  'x, y, z'
loop_
 _atom_site_type_symbol
 _atom_site_label
 _atom_site_symmetry_multiplicity
 _atom_site_fract_x
 _atom_site_fract_y
 _atom_site_fract_z
 _atom_site_occupancy
  Er  Er0  1  0.050917  0.750000  0.497884  1
  Er  Er1  1  0.622883  0.750000  0.308935  1
  Er  Er2  1  0.122989  0.250000  0.191001  1
  Er  Er3  1  0.377071  0.250000  0.691055  1
  Er  Er4  1  0.877100  0.750000  0.809028  1
  Tm  Tm5  1  0.156696  0.750000  0.204360  1
  Tm  Tm6  1  0.656696  0.250000  0.295446  1
  Tm  Tm7  1  0.843228  0.250000  0.795507  1
  Tm  Tm8  1  0.343383  0.750000  0.704660  1
  Tm  Tm9  1  0.449039  0.750000  0.997864  1
  Tm  Tm10  1  0.949120  0.250000  0.502114  1
  Tm  Tm11  1  0.551017  0.250000  0.002174  1
  Lu  Lu12  1  0.825092  0.962541  0.065487  1
  Lu  Lu13  1  0.325295  0.037708  0.434408  1
  Lu  Lu14  1  0.174844  0.462681  0.934525  1
  Lu  Lu15  1  0.674737  0.537229  0.565507  1
  Lu  Lu16  1  0.174844  0.037319  0.934525  1
  Lu  Lu17  1  0.674737  0.962771  0.565507  1
  Lu  Lu18  1  0.825092  0.537459  0.065487  1
  Lu  Lu19  1  0.325295  0.462292  0.434408  1
  Co  Co20  1  0.432050  0.750000  0.491364  1
  Co  Co21  1  0.931835  0.250000  0.008691  1
  Co  Co22  1  0.568176  0.250000  0.508715  1
  Co  Co23  1  0.068230  0.750000  0.991257  1
  Sb  Sb24  1  0.931982  0.991973  0.327534  1
  Sb  Sb25  1  0.432191  0.008248  0.172237  1
  Sb  Sb26  1  0.067832  0.491543  0.672499  1
  Sb  Sb27  1  0.567813  0.508178  0.827775  1
  Sb  Sb28  1  0.067832  0.008457  0.672499  1
  Sb  Sb29  1  0.567813  0.991822  0.827775  1
  Sb  Sb30  1  0.931982  0.508027  0.327534  1
  Sb  Sb31  1  0.432191  0.491752  0.172237  1
