# generated using pymatgen
data_LaLu7(Tc3Ge4)4
_symmetry_space_group_name_H-M   'P 1'
_cell_length_a   6.92201039
_cell_length_b   6.92048072
_cell_length_c   12.87336600
_cell_angle_alpha   89.90904509
_cell_angle_beta   90.36491693
_cell_angle_gamma   89.99936228
_symmetry_Int_Tables_number   1
_chemical_formula_structural   LaLu7(Tc3Ge4)4
_chemical_formula_sum   'La1 Lu7 Tc12 Ge16'
_cell_volume   616.66779899
_cell_formula_units_Z   1
loop_
 _symmetry_equiv_pos_site_id
 _symmetry_equiv_pos_as_xyz
  1  'x, y, z'
loop_
 _atom_site_type_symbol
 _atom_site_label
 _atom_site_symmetry_multiplicity
 _atom_site_fract_x
 _atom_site_fract_y
 _atom_site_fract_z
 _atom_site_occupancy
  La  La0  1  0.003917  0.662602  0.027779  1
  Lu  Lu1  1  0.341529  0.992426  0.471693  1
  Lu  Lu2  1  0.506826  0.838139  0.721913  1
  Lu  Lu3  1  0.490270  0.155277  0.224326  1
  Lu  Lu4  1  0.839590  0.505480  0.277814  1
  Lu  Lu5  1  0.158740  0.489773  0.777969  1
  Lu  Lu6  1  0.656276  0.007812  0.973900  1
  Lu  Lu7  1  0.994503  0.339314  0.526209  1
  Tc  Tc8  1  0.339044  0.331455  0.998583  1
  Tc  Tc9  1  0.163624  0.834619  0.254716  1
  Tc  Tc10  1  0.837304  0.162933  0.748452  1
  Tc  Tc11  1  0.663334  0.664267  0.499374  1
  Tc  Tc12  1  0.198108  0.972840  0.864368  1
  Tc  Tc13  1  0.517776  0.695296  0.121534  1
  Tc  Tc14  1  0.480124  0.321801  0.623461  1
  Tc  Tc15  1  0.684005  0.513826  0.870590  1
  Tc  Tc16  1  0.307964  0.471890  0.385023  1
  Tc  Tc17  1  0.816597  0.020733  0.376428  1
  Tc  Tc18  1  0.974213  0.192996  0.131821  1
  Tc  Tc19  1  0.020948  0.824487  0.623323  1
  Ge  Ge20  1  0.192285  0.119389  0.679498  1
  Ge  Ge21  1  0.393857  0.687237  0.928907  1
  Ge  Ge22  1  0.615544  0.311746  0.432781  1
  Ge  Ge23  1  0.681172  0.385966  0.069477  1
  Ge  Ge24  1  0.309022  0.619500  0.569012  1
  Ge  Ge25  1  0.806410  0.891256  0.186681  1
  Ge  Ge26  1  0.114127  0.188046  0.319761  1
  Ge  Ge27  1  0.885822  0.813133  0.812812  1
  Ge  Ge28  1  0.272332  0.988966  0.064151  1
  Ge  Ge29  1  0.516673  0.769161  0.317219  1
  Ge  Ge30  1  0.482079  0.219092  0.814974  1
  Ge  Ge31  1  0.782751  0.523430  0.679774  1
  Ge  Ge32  1  0.232445  0.481100  0.190643  1
  Ge  Ge33  1  0.717987  0.024253  0.567993  1
  Ge  Ge34  1  0.983620  0.258838  0.933769  1
  Ge  Ge35  1  0.019181  0.720920  0.433269  1
