# generated using pymatgen
data_Nb12Al6CuPdN4
_symmetry_space_group_name_H-M   'P 1'
_cell_length_a   7.05072815
_cell_length_b   7.06218430
_cell_length_c   7.06898529
_cell_angle_alpha   90.08887260
_cell_angle_beta   89.89106322
_cell_angle_gamma   90.22688746
_symmetry_Int_Tables_number   1
_chemical_formula_structural   Nb12Al6CuPdN4
_chemical_formula_sum   'Nb12 Al6 Cu1 Pd1 N4'
_cell_volume   351.98599815
_cell_formula_units_Z   1
loop_
 _symmetry_equiv_pos_site_id
 _symmetry_equiv_pos_as_xyz
  1  'x, y, z'
loop_
 _atom_site_type_symbol
 _atom_site_label
 _atom_site_symmetry_multiplicity
 _atom_site_fract_x
 _atom_site_fract_y
 _atom_site_fract_z
 _atom_site_occupancy
  Nb  Nb0  1  0.791402  0.956106  0.376471  1
  Nb  Nb1  1  0.710180  0.042915  0.876708  1
  Nb  Nb2  1  0.204818  0.455602  0.128067  1
  Nb  Nb3  1  0.294052  0.546108  0.624685  1
  Nb  Nb4  1  0.954390  0.380765  0.791692  1
  Nb  Nb5  1  0.042145  0.868624  0.706909  1
  Nb  Nb6  1  0.458012  0.129678  0.208787  1
  Nb  Nb7  1  0.543893  0.621077  0.292389  1
  Nb  Nb8  1  0.378856  0.789865  0.955934  1
  Nb  Nb9  1  0.872794  0.707314  0.042401  1
  Nb  Nb10  1  0.120003  0.209152  0.454234  1
  Nb  Nb11  1  0.628927  0.293200  0.541949  1
  Al  Al12  1  0.823901  0.321024  0.176061  1
  Al  Al13  1  0.675652  0.679206  0.676267  1
  Al  Al14  1  0.562914  0.420074  0.925482  1
  Al  Al15  1  0.417609  0.933370  0.570039  1
  Al  Al16  1  0.938155  0.580792  0.424886  1
  Al  Al17  1  0.082177  0.064906  0.072059  1
  Cu  Cu18  1  0.181417  0.824305  0.318946  1
  Pd  Pd19  1  0.317418  0.177244  0.818149  1
  N  N20  1  0.879077  0.122640  0.629511  1
  N  N21  1  0.621192  0.877178  0.128639  1
  N  N22  1  0.127881  0.624201  0.879742  1
  N  N23  1  0.373136  0.374656  0.379994  1
