# generated using pymatgen
data_TbTm5Zn4Pt13
_symmetry_space_group_name_H-M   'P 1'
_cell_length_a   8.23310175
_cell_length_b   8.23310263
_cell_length_c   8.23310300
_cell_angle_alpha   109.58643613
_cell_angle_beta   109.58644569
_cell_angle_gamma   109.24103011
_symmetry_Int_Tables_number   1
_chemical_formula_structural   TbTm5Zn4Pt13
_chemical_formula_sum   'Tb1 Tm5 Zn4 Pt13'
_cell_volume   429.59912444
_cell_formula_units_Z   1
loop_
 _symmetry_equiv_pos_site_id
 _symmetry_equiv_pos_as_xyz
  1  'x, y, z'
loop_
 _atom_site_type_symbol
 _atom_site_label
 _atom_site_symmetry_multiplicity
 _atom_site_fract_x
 _atom_site_fract_y
 _atom_site_fract_z
 _atom_site_occupancy
  Tb  Tb0  1  0.700428  0.700428  0.000000  1
  Tm  Tm1  1  0.302925  0.000145  0.302780  1
  Tm  Tm2  1  0.000145  0.302925  0.302780  1
  Tm  Tm3  1  0.302351  0.302351  0.000000  1
  Tm  Tm4  1  0.697365  0.000145  0.697220  1
  Tm  Tm5  1  0.000145  0.697365  0.697220  1
  Zn  Zn6  1  0.999532  0.999532  0.499582  1
  Zn  Zn7  1  0.999532  0.499950  0.000000  1
  Zn  Zn8  1  0.499950  0.999532  0.000000  1
  Zn  Zn9  1  0.499950  0.499950  0.500418  1
  Pt  Pt10  1  0.331099  0.331099  0.663396  1
  Pt  Pt11  1  0.666777  0.000378  0.333601  1
  Pt  Pt12  1  0.000378  0.666777  0.333601  1
  Pt  Pt13  1  0.667704  0.331099  0.000000  1
  Pt  Pt14  1  0.332333  0.664821  0.332488  1
  Pt  Pt15  1  0.999845  0.332333  0.667512  1
  Pt  Pt16  1  0.331099  0.667704  0.000000  1
  Pt  Pt17  1  0.332333  0.999845  0.667512  1
  Pt  Pt18  1  0.664821  0.332333  0.332488  1
  Pt  Pt19  1  0.667704  0.667704  0.336604  1
  Pt  Pt20  1  0.666777  0.333176  0.666399  1
  Pt  Pt21  1  0.333176  0.666777  0.666399  1
  Pt  Pt22  1  0.003637  0.003637  0.000000  1
