# generated using pymatgen
data_LaAl2Tc2B
_symmetry_space_group_name_H-M   'P 1'
_cell_length_a   4.29205600
_cell_length_b   4.29205600
_cell_length_c   5.68389400
_cell_angle_alpha   90.00000000
_cell_angle_beta   90.00000000
_cell_angle_gamma   90.00000000
_symmetry_Int_Tables_number   1
_chemical_formula_structural   LaAl2Tc2B
_chemical_formula_sum   'La1 Al2 Tc2 B1'
_cell_volume   104.70724421
_cell_formula_units_Z   1
loop_
 _symmetry_equiv_pos_site_id
 _symmetry_equiv_pos_as_xyz
  1  'x, y, z'
loop_
 _atom_site_type_symbol
 _atom_site_label
 _atom_site_symmetry_multiplicity
 _atom_site_fract_x
 _atom_site_fract_y
 _atom_site_fract_z
 _atom_site_occupancy
  La  La0  1  0.000000  0.000000  0.500001  1
  Al  Al1  1  0.500000  0.500000  0.255794  1
  Al  Al2  1  0.500000  0.500000  0.744205  1
  Tc  Tc3  1  0.000000  0.500000  0.000000  1
  Tc  Tc4  1  0.500000  0.000000  0.000000  1
  B  B5  1  0.000000  0.000000  0.000000  1
