# generated using pymatgen
data_Yb5P12Rh19
_symmetry_space_group_name_H-M   'P 1'
_cell_length_a   12.67585300
_cell_length_b   12.67585213
_cell_length_c   3.91478600
_cell_angle_alpha   90.00000000
_cell_angle_beta   90.00000000
_cell_angle_gamma   119.99999965
_symmetry_Int_Tables_number   1
_chemical_formula_structural   Yb5P12Rh19
_chemical_formula_sum   'Yb5 P12 Rh19'
_cell_volume   544.74470588
_cell_formula_units_Z   1
loop_
 _symmetry_equiv_pos_site_id
 _symmetry_equiv_pos_as_xyz
  1  'x, y, z'
loop_
 _atom_site_type_symbol
 _atom_site_label
 _atom_site_symmetry_multiplicity
 _atom_site_fract_x
 _atom_site_fract_y
 _atom_site_fract_z
 _atom_site_occupancy
  Yb  Yb0  1  0.000000  0.183673  0.500000  1
  Yb  Yb1  1  0.816327  0.816327  0.500000  1
  Yb  Yb2  1  0.183673  0.000000  0.500000  1
  Yb  Yb3  1  0.666667  0.333333  0.000000  1
  Yb  Yb4  1  0.333333  0.666667  0.000000  1
  P  P5  1  0.000000  0.819969  0.000000  1
  P  P6  1  0.180031  0.180031  0.000000  1
  P  P7  1  0.819969  0.000000  0.000000  1
  P  P8  1  0.686232  0.168364  0.500000  1
  P  P9  1  0.831636  0.517869  0.500000  1
  P  P10  1  0.482131  0.313768  0.500000  1
  P  P11  1  0.168364  0.686232  0.500000  1
  P  P12  1  0.517869  0.831636  0.500000  1
  P  P13  1  0.313768  0.482131  0.500000  1
  P  P14  1  0.000000  0.365825  0.000000  1
  P  P15  1  0.634175  0.634175  0.000000  1
  P  P16  1  0.365825  0.000000  0.000000  1
  Rh  Rh17  1  0.000000  0.546941  0.000000  1
  Rh  Rh18  1  0.453059  0.453059  0.000000  1
  Rh  Rh19  1  0.546941  0.000000  0.000000  1
  Rh  Rh20  1  0.000000  0.717019  0.500000  1
  Rh  Rh21  1  0.282981  0.282981  0.500000  1
  Rh  Rh22  1  0.717019  0.000000  0.500000  1
  Rh  Rh23  1  0.805553  0.181375  0.000000  1
  Rh  Rh24  1  0.818625  0.624177  0.000000  1
  Rh  Rh25  1  0.375823  0.194447  0.000000  1
  Rh  Rh26  1  0.181375  0.805553  0.000000  1
  Rh  Rh27  1  0.624177  0.818625  0.000000  1
  Rh  Rh28  1  0.194447  0.375823  0.000000  1
  Rh  Rh29  1  0.869986  0.359016  0.500000  1
  Rh  Rh30  1  0.640984  0.510970  0.500000  1
  Rh  Rh31  1  0.489030  0.130014  0.500000  1
  Rh  Rh32  1  0.359016  0.869986  0.500000  1
  Rh  Rh33  1  0.510970  0.640984  0.500000  1
  Rh  Rh34  1  0.130014  0.489030  0.500000  1
  Rh  Rh35  1  0.000000  0.000000  0.000000  1
