# generated using pymatgen
data_BiIrBr18
_symmetry_space_group_name_H-M   'P 1'
_cell_length_a   9.31573771
_cell_length_b   9.31573865
_cell_length_c   9.31573778
_cell_angle_alpha   86.84277571
_cell_angle_beta   86.84277617
_cell_angle_gamma   86.84277728
_symmetry_Int_Tables_number   1
_chemical_formula_structural   BiIrBr18
_chemical_formula_sum   'Bi1 Ir1 Br18'
_cell_volume   804.89624563
_cell_formula_units_Z   1
loop_
 _symmetry_equiv_pos_site_id
 _symmetry_equiv_pos_as_xyz
  1  'x, y, z'
loop_
 _atom_site_type_symbol
 _atom_site_label
 _atom_site_symmetry_multiplicity
 _atom_site_fract_x
 _atom_site_fract_y
 _atom_site_fract_z
 _atom_site_occupancy
  Bi  Bi0  1  0.500000  0.500000  0.500000  1
  Ir  Ir1  1  0.000000  0.000000  0.000000  1
  Br  Br2  1  0.732366  0.992041  0.033643  1
  Br  Br3  1  0.751400  0.112781  0.623155  1
  Br  Br4  1  0.033643  0.732366  0.992041  1
  Br  Br5  1  0.248600  0.887219  0.376845  1
  Br  Br6  1  0.112781  0.623155  0.751400  1
  Br  Br7  1  0.007959  0.966357  0.267634  1
  Br  Br8  1  0.623155  0.751400  0.112781  1
  Br  Br9  1  0.966357  0.267634  0.007959  1
  Br  Br10  1  0.887219  0.376845  0.248600  1
  Br  Br11  1  0.376845  0.248600  0.887219  1
  Br  Br12  1  0.992041  0.033643  0.732366  1
  Br  Br13  1  0.267634  0.007959  0.966357  1
  Br  Br14  1  0.809974  0.522787  0.470680  1
  Br  Br15  1  0.529320  0.190026  0.477213  1
  Br  Br16  1  0.477213  0.529320  0.190026  1
  Br  Br17  1  0.470680  0.809974  0.522787  1
  Br  Br18  1  0.522787  0.470680  0.809974  1
  Br  Br19  1  0.190026  0.477213  0.529320  1
