# generated using pymatgen
data_Er13Th3(HgOs)4
_symmetry_space_group_name_H-M   'P 1'
_cell_length_a   9.64148333
_cell_length_b   9.62585303
_cell_length_c   9.62585400
_cell_angle_alpha   60.00000354
_cell_angle_beta   60.05361631
_cell_angle_gamma   60.05362124
_symmetry_Int_Tables_number   1
_chemical_formula_structural   Er13Th3(HgOs)4
_chemical_formula_sum   'Er13 Th3 Hg4 Os4'
_cell_volume   632.20636394
_cell_formula_units_Z   1
loop_
 _symmetry_equiv_pos_site_id
 _symmetry_equiv_pos_as_xyz
  1  'x, y, z'
loop_
 _atom_site_type_symbol
 _atom_site_label
 _atom_site_symmetry_multiplicity
 _atom_site_fract_x
 _atom_site_fract_y
 _atom_site_fract_z
 _atom_site_occupancy
  Er  Er0  1  0.197272  0.600909  0.600909  1
  Er  Er1  1  0.060804  0.440304  0.440304  1
  Er  Er2  1  0.434361  0.062391  0.062391  1
  Er  Er3  1  0.434361  0.062391  0.440856  1
  Er  Er4  1  0.060804  0.440304  0.058586  1
  Er  Er5  1  0.434361  0.440856  0.062391  1
  Er  Er6  1  0.060804  0.058586  0.440304  1
  Er  Er7  1  0.190552  0.809535  0.809535  1
  Er  Er8  1  0.814326  0.187841  0.187841  1
  Er  Er9  1  0.814326  0.187841  0.809994  1
  Er  Er10  1  0.190552  0.809535  0.190379  1
  Er  Er11  1  0.814326  0.809994  0.187841  1
  Er  Er12  1  0.190552  0.190379  0.809535  1
  Th  Th13  1  0.597038  0.599430  0.599430  1
  Th  Th14  1  0.597038  0.599430  0.204102  1
  Th  Th15  1  0.597038  0.204102  0.599430  1
  Hg  Hg16  1  0.838566  0.833350  0.833350  1
  Hg  Hg17  1  0.838566  0.833350  0.494733  1
  Hg  Hg18  1  0.838566  0.494733  0.833350  1
  Hg  Hg19  1  0.494852  0.835048  0.835048  1
  Os  Os20  1  0.391926  0.390742  0.390742  1
  Os  Os21  1  0.391926  0.390742  0.826590  1
  Os  Os22  1  0.391926  0.826590  0.390742  1
  Os  Os23  1  0.825153  0.391616  0.391616  1
