# generated using pymatgen
data_Ta5Be4Sn
_symmetry_space_group_name_H-M   'P 1'
_cell_length_a   6.41881700
_cell_length_b   6.41881700
_cell_length_c   3.49315100
_cell_angle_alpha   90.00000000
_cell_angle_beta   90.00000000
_cell_angle_gamma   90.00000000
_symmetry_Int_Tables_number   1
_chemical_formula_structural   Ta5Be4Sn
_chemical_formula_sum   'Ta5 Be4 Sn1'
_cell_volume   143.92205378
_cell_formula_units_Z   1
loop_
 _symmetry_equiv_pos_site_id
 _symmetry_equiv_pos_as_xyz
  1  'x, y, z'
loop_
 _atom_site_type_symbol
 _atom_site_label
 _atom_site_symmetry_multiplicity
 _atom_site_fract_x
 _atom_site_fract_y
 _atom_site_fract_z
 _atom_site_occupancy
  Ta  Ta0  1  0.000000  0.000000  0.000000  1
  Ta  Ta1  1  0.682116  0.167984  0.500000  1
  Ta  Ta2  1  0.317884  0.832016  0.500000  1
  Ta  Ta3  1  0.167984  0.317884  0.500000  1
  Ta  Ta4  1  0.832016  0.682116  0.500000  1
  Be  Be5  1  0.110629  0.617940  0.000000  1
  Be  Be6  1  0.889371  0.382060  0.000000  1
  Be  Be7  1  0.617940  0.889371  0.000000  1
  Be  Be8  1  0.382060  0.110629  0.000000  1
  Sn  Sn9  1  0.500000  0.500000  0.000000  1
