# generated using pymatgen
data_TmLu15Mg2(Co2Hg)2
_symmetry_space_group_name_H-M   'P 1'
_cell_length_a   9.32237778
_cell_length_b   9.32237808
_cell_length_c   9.26807400
_cell_angle_alpha   60.19250745
_cell_angle_beta   60.19250640
_cell_angle_gamma   60.55107037
_symmetry_Int_Tables_number   1
_chemical_formula_structural   TmLu15Mg2(Co2Hg)2
_chemical_formula_sum   'Tm1 Lu15 Mg2 Co4 Hg2'
_cell_volume   573.55116520
_cell_formula_units_Z   1
loop_
 _symmetry_equiv_pos_site_id
 _symmetry_equiv_pos_as_xyz
  1  'x, y, z'
loop_
 _atom_site_type_symbol
 _atom_site_label
 _atom_site_symmetry_multiplicity
 _atom_site_fract_x
 _atom_site_fract_y
 _atom_site_fract_z
 _atom_site_occupancy
  Tm  Tm0  1  0.938076  0.938076  0.561924  1
  Lu  Lu1  1  0.344940  0.344940  0.343702  1
  Lu  Lu2  1  0.344940  0.344940  0.966417  1
  Lu  Lu3  1  0.347747  0.960806  0.345724  1
  Lu  Lu4  1  0.960806  0.347747  0.345724  1
  Lu  Lu5  1  0.812273  0.186872  0.187268  1
  Lu  Lu6  1  0.186872  0.812273  0.813588  1
  Lu  Lu7  1  0.186872  0.812273  0.187268  1
  Lu  Lu8  1  0.812273  0.186872  0.813588  1
  Lu  Lu9  1  0.186139  0.186139  0.813861  1
  Lu  Lu10  1  0.809436  0.809436  0.190564  1
  Lu  Lu11  1  0.935079  0.561567  0.562870  1
  Lu  Lu12  1  0.561567  0.935079  0.940484  1
  Lu  Lu13  1  0.561567  0.935079  0.562870  1
  Lu  Lu14  1  0.935079  0.561567  0.940484  1
  Lu  Lu15  1  0.562176  0.562176  0.937824  1
  Mg  Mg16  1  0.581155  0.272439  0.573203  1
  Mg  Mg17  1  0.272439  0.581155  0.573203  1
  Co  Co18  1  0.139685  0.139685  0.143159  1
  Co  Co19  1  0.139685  0.139685  0.577472  1
  Co  Co20  1  0.138006  0.578337  0.141829  1
  Co  Co21  1  0.578337  0.138006  0.141829  1
  Hg  Hg22  1  0.582425  0.582425  0.587857  1
  Hg  Hg23  1  0.582425  0.582425  0.247291  1
