# generated using pymatgen
data_TmTh7(Si3Pd)4
_symmetry_space_group_name_H-M   'P 1'
_cell_length_a   8.24198600
_cell_length_b   8.24198578
_cell_length_c   8.47214700
_cell_angle_alpha   90.00000000
_cell_angle_beta   90.00000000
_cell_angle_gamma   120.00000088
_symmetry_Int_Tables_number   1
_chemical_formula_structural   TmTh7(Si3Pd)4
_chemical_formula_sum   'Tm1 Th7 Si12 Pd4'
_cell_volume   498.41125838
_cell_formula_units_Z   1
loop_
 _symmetry_equiv_pos_site_id
 _symmetry_equiv_pos_as_xyz
  1  'x, y, z'
loop_
 _atom_site_type_symbol
 _atom_site_label
 _atom_site_symmetry_multiplicity
 _atom_site_fract_x
 _atom_site_fract_y
 _atom_site_fract_z
 _atom_site_occupancy
  Tm  Tm0  1  0.000000  0.000000  0.750000  1
  Th  Th1  1  0.501252  0.002502  0.250000  1
  Th  Th2  1  0.498879  0.997759  0.750000  1
  Th  Th3  1  0.997498  0.498748  0.250000  1
  Th  Th4  1  0.002241  0.501121  0.750000  1
  Th  Th5  1  0.501252  0.498748  0.250000  1
  Th  Th6  1  0.498879  0.501121  0.750000  1
  Th  Th7  1  0.000000  0.000000  0.250000  1
  Si  Si8  1  0.165070  0.330140  0.997623  1
  Si  Si9  1  0.835036  0.670072  0.994531  1
  Si  Si10  1  0.669860  0.834930  0.997623  1
  Si  Si11  1  0.835036  0.670072  0.505469  1
  Si  Si12  1  0.329928  0.164964  0.994531  1
  Si  Si13  1  0.165070  0.330140  0.502377  1
  Si  Si14  1  0.165070  0.834930  0.997623  1
  Si  Si15  1  0.329928  0.164964  0.505469  1
  Si  Si16  1  0.835036  0.164964  0.994531  1
  Si  Si17  1  0.669860  0.834930  0.502377  1
  Si  Si18  1  0.835036  0.164964  0.505469  1
  Si  Si19  1  0.165070  0.834930  0.502377  1
  Pd  Pd20  1  0.333333  0.666667  0.005457  1
  Pd  Pd21  1  0.666667  0.333333  0.997610  1
  Pd  Pd22  1  0.666667  0.333333  0.502390  1
  Pd  Pd23  1  0.333333  0.666667  0.494543  1
