# generated using pymatgen
data_NaLi3ErP12Ir19
_symmetry_space_group_name_H-M   'P 1'
_cell_length_a   12.60245413
_cell_length_b   12.59426008
_cell_length_c   3.93009900
_cell_angle_alpha   90.00000000
_cell_angle_beta   90.00000000
_cell_angle_gamma   119.90139059
_symmetry_Int_Tables_number   1
_chemical_formula_structural   NaLi3ErP12Ir19
_chemical_formula_sum   'Na1 Li3 Er1 P12 Ir19'
_cell_volume   540.74509220
_cell_formula_units_Z   1
loop_
 _symmetry_equiv_pos_site_id
 _symmetry_equiv_pos_as_xyz
  1  'x, y, z'
loop_
 _atom_site_type_symbol
 _atom_site_label
 _atom_site_symmetry_multiplicity
 _atom_site_fract_x
 _atom_site_fract_y
 _atom_site_fract_z
 _atom_site_occupancy
  Na  Na0  1  0.820706  0.819135  0.500000  1
  Li  Li1  1  0.668000  0.334615  0.000000  1
  Li  Li2  1  0.331968  0.666463  0.000000  1
  Li  Li3  1  0.177234  0.998601  0.500000  1
  Er  Er4  1  0.000569  0.176603  0.500000  1
  P  P5  1  0.687381  0.177111  0.500000  1
  P  P6  1  0.822845  0.512151  0.500000  1
  P  P7  1  0.489198  0.312525  0.500000  1
  P  P8  1  0.177566  0.689344  0.500000  1
  P  P9  1  0.510537  0.823334  0.500000  1
  P  P10  1  0.312465  0.489075  0.500000  1
  P  P11  1  0.639775  0.640159  0.000000  1
  P  P12  1  0.358771  0.000430  0.000000  1
  P  P13  1  0.999987  0.359797  0.000000  1
  P  P14  1  0.183768  0.176803  0.000000  1
  P  P15  1  0.817444  0.994631  0.000000  1
  P  P16  1  0.001418  0.820402  0.000000  1
  Ir  Ir17  1  0.806985  0.180535  0.000000  1
  Ir  Ir18  1  0.817650  0.620604  0.000000  1
  Ir  Ir19  1  0.379355  0.196354  0.000000  1
  Ir  Ir20  1  0.183002  0.805705  0.000000  1
  Ir  Ir21  1  0.619125  0.817595  0.000000  1
  Ir  Ir22  1  0.193119  0.373396  0.000000  1
  Ir  Ir23  1  0.455494  0.459605  0.000000  1
  Ir  Ir24  1  0.543580  0.004039  0.000000  1
  Ir  Ir25  1  0.000207  0.541627  0.000000  1
  Ir  Ir26  1  0.290486  0.291273  0.500000  1
  Ir  Ir27  1  0.709316  0.001477  0.500000  1
  Ir  Ir28  1  0.000787  0.708801  0.500000  1
  Ir  Ir29  1  0.868035  0.360054  0.500000  1
  Ir  Ir30  1  0.638565  0.509474  0.500000  1
  Ir  Ir31  1  0.491533  0.131844  0.500000  1
  Ir  Ir32  1  0.360978  0.871209  0.500000  1
  Ir  Ir33  1  0.507830  0.640004  0.500000  1
  Ir  Ir34  1  0.132134  0.492030  0.500000  1
  Ir  Ir35  1  0.002186  0.003197  0.000000  1
