# generated using pymatgen
data_TaCrB3(RuW)2
_symmetry_space_group_name_H-M   'P 1'
_cell_length_a   3.06525300
_cell_length_b   6.35965300
_cell_length_c   10.75394500
_cell_angle_alpha   90.00000000
_cell_angle_beta   90.00000000
_cell_angle_gamma   90.00000000
_symmetry_Int_Tables_number   1
_chemical_formula_structural   TaCrB3(RuW)2
_chemical_formula_sum   'Ta2 Cr2 B6 Ru4 W4'
_cell_volume   209.63681706
_cell_formula_units_Z   2
loop_
 _symmetry_equiv_pos_site_id
 _symmetry_equiv_pos_as_xyz
  1  'x, y, z'
loop_
 _atom_site_type_symbol
 _atom_site_label
 _atom_site_symmetry_multiplicity
 _atom_site_fract_x
 _atom_site_fract_y
 _atom_site_fract_z
 _atom_site_occupancy
  Ta  Ta0  1  0.000000  0.144481  0.250000  1
  Ta  Ta1  1  0.000000  0.855519  0.750000  1
  Cr  Cr2  1  0.500000  0.806223  0.250000  1
  Cr  Cr3  1  0.500000  0.193777  0.750000  1
  B  B4  1  0.500000  0.052762  0.083839  1
  B  B5  1  0.500000  0.947238  0.916161  1
  B  B6  1  0.500000  0.052762  0.416161  1
  B  B7  1  0.500000  0.947238  0.583839  1
  B  B8  1  0.000000  0.568948  0.250000  1
  B  B9  1  0.000000  0.431052  0.750000  1
  Ru  Ru10  1  0.500000  0.435183  0.121653  1
  Ru  Ru11  1  0.500000  0.564817  0.878347  1
  Ru  Ru12  1  0.500000  0.435183  0.378347  1
  Ru  Ru13  1  0.500000  0.564817  0.621653  1
  W  W14  1  0.000000  0.210879  0.952407  1
  W  W15  1  0.000000  0.789121  0.047593  1
  W  W16  1  0.000000  0.210879  0.547593  1
  W  W17  1  0.000000  0.789121  0.452407  1
