# generated using pymatgen
data_La6Ga8Si3Sn
_symmetry_space_group_name_H-M   'P 1'
_cell_length_a   4.36895543
_cell_length_b   4.41181459
_cell_length_c   22.40295576
_cell_angle_alpha   84.34920098
_cell_angle_beta   84.40427181
_cell_angle_gamma   89.99999683
_symmetry_Int_Tables_number   1
_chemical_formula_structural   La6Ga8Si3Sn
_chemical_formula_sum   'La6 Ga8 Si3 Sn1'
_cell_volume   427.65118094
_cell_formula_units_Z   1
loop_
 _symmetry_equiv_pos_site_id
 _symmetry_equiv_pos_as_xyz
  1  'x, y, z'
loop_
 _atom_site_type_symbol
 _atom_site_label
 _atom_site_symmetry_multiplicity
 _atom_site_fract_x
 _atom_site_fract_y
 _atom_site_fract_z
 _atom_site_occupancy
  La  La0  1  0.961965  0.711965  0.076068  1
  La  La1  1  0.288490  0.038490  0.423020  1
  La  La2  1  0.624027  0.374027  0.751943  1
  La  La3  1  0.373730  0.623730  0.252541  1
  La  La4  1  0.707807  0.957807  0.584385  1
  La  La5  1  0.042455  0.292455  0.915089  1
  Ga  Ga6  1  0.817722  0.567722  0.364555  1
  Ga  Ga7  1  0.152630  0.902630  0.694741  1
  Ga  Ga8  1  0.436006  0.186006  0.127987  1
  Ga  Ga9  1  0.762265  0.512265  0.475471  1
  Ga  Ga10  1  0.097154  0.847154  0.805692  1
  Ga  Ga11  1  0.843597  0.093597  0.312807  1
  Ga  Ga12  1  0.179827  0.429827  0.640346  1
  Ga  Ga13  1  0.515110  0.765110  0.969779  1
  Si  Si14  1  0.234430  0.484430  0.531139  1
  Si  Si15  1  0.569753  0.819753  0.860494  1
  Si  Si16  1  0.490078  0.240078  0.019842  1
  Sn  Sn17  1  0.902951  0.152951  0.194098  1
