# generated using pymatgen
data_Tm2BeCo16
_symmetry_space_group_name_H-M   'P 1'
_cell_length_a   6.25508470
_cell_length_b   6.19349863
_cell_length_c   6.25508500
_cell_angle_alpha   83.39119091
_cell_angle_beta   82.52216718
_cell_angle_gamma   83.39117887
_symmetry_Int_Tables_number   1
_chemical_formula_structural   Tm2BeCo16
_chemical_formula_sum   'Tm2 Be1 Co16'
_cell_volume   237.43372493
_cell_formula_units_Z   1
loop_
 _symmetry_equiv_pos_site_id
 _symmetry_equiv_pos_as_xyz
  1  'x, y, z'
loop_
 _atom_site_type_symbol
 _atom_site_label
 _atom_site_symmetry_multiplicity
 _atom_site_fract_x
 _atom_site_fract_y
 _atom_site_fract_z
 _atom_site_occupancy
  Tm  Tm0  1  0.655955  0.656946  0.655955  1
  Tm  Tm1  1  0.344045  0.343054  0.344045  1
  Be  Be2  1  0.000000  0.500000  0.000000  1
  Co  Co3  1  0.000000  0.000000  0.500000  1
  Co  Co4  1  0.500000  0.000000  0.000000  1
  Co  Co5  1  0.283770  0.706039  0.998986  1
  Co  Co6  1  0.711611  0.000000  0.288389  1
  Co  Co7  1  0.001014  0.293961  0.716230  1
  Co  Co8  1  0.288389  0.000000  0.711611  1
  Co  Co9  1  0.998986  0.706039  0.283770  1
  Co  Co10  1  0.716230  0.293961  0.001014  1
  Co  Co11  1  0.341306  0.350177  0.853756  1
  Co  Co12  1  0.347111  0.845749  0.347111  1
  Co  Co13  1  0.853756  0.350177  0.341306  1
  Co  Co14  1  0.658694  0.649823  0.146244  1
  Co  Co15  1  0.652889  0.154251  0.652889  1
  Co  Co16  1  0.146244  0.649823  0.658694  1
  Co  Co17  1  0.902447  0.903910  0.902447  1
  Co  Co18  1  0.097553  0.096090  0.097553  1
