# generated using pymatgen
data_NdSm3(Ga8Pd3)3
_symmetry_space_group_name_H-M   'P 1'
_cell_length_a   7.59904196
_cell_length_b   7.63316242
_cell_length_c   13.42083000
_cell_angle_alpha   84.89598033
_cell_angle_beta   100.43668642
_cell_angle_gamma   119.79917741
_symmetry_Int_Tables_number   1
_chemical_formula_structural   NdSm3(Ga8Pd3)3
_chemical_formula_sum   'Nd1 Sm3 Ga24 Pd9'
_cell_volume   664.35943605
_cell_formula_units_Z   1
loop_
 _symmetry_equiv_pos_site_id
 _symmetry_equiv_pos_as_xyz
  1  'x, y, z'
loop_
 _atom_site_type_symbol
 _atom_site_label
 _atom_site_symmetry_multiplicity
 _atom_site_fract_x
 _atom_site_fract_y
 _atom_site_fract_z
 _atom_site_occupancy
  Nd  Nd0  1  0.437540  0.831306  0.810431  1
  Sm  Sm1  1  0.562590  0.168547  0.189595  1
  Sm  Sm2  1  0.771280  0.503022  0.811038  1
  Sm  Sm3  1  0.228940  0.497243  0.189401  1
  Ga  Ga4  1  0.479329  0.167728  0.941707  1
  Ga  Ga5  1  0.521034  0.833388  0.060561  1
  Ga  Ga6  1  0.021705  0.165848  0.558233  1
  Ga  Ga7  1  0.978153  0.834148  0.441167  1
  Ga  Ga8  1  0.354200  0.832907  0.555708  1
  Ga  Ga9  1  0.645944  0.167622  0.443149  1
  Ga  Ga10  1  0.614992  0.835073  0.327170  1
  Ga  Ga11  1  0.384336  0.166711  0.671418  1
  Ga  Ga12  1  0.057156  0.493661  0.670269  1
  Ga  Ga13  1  0.940560  0.504440  0.328164  1
  Ga  Ga14  1  0.731801  0.838186  0.668723  1
  Ga  Ga15  1  0.269712  0.162189  0.329238  1
  Ga  Ga16  1  0.144987  0.498119  0.942586  1
  Ga  Ga17  1  0.854032  0.500118  0.058742  1
  Ga  Ga18  1  0.816728  0.833251  0.949006  1
  Ga  Ga19  1  0.185302  0.167117  0.053257  1
  Ga  Ga20  1  0.312571  0.499944  0.442225  1
  Ga  Ga21  1  0.687360  0.499914  0.557439  1
  Ga  Ga22  1  0.100318  0.836025  0.182621  1
  Ga  Ga23  1  0.900793  0.165344  0.817442  1
  Ga  Ga24  1  0.307359  0.366943  0.816597  1
  Ga  Ga25  1  0.693233  0.631426  0.183705  1
  Ga  Ga26  1  0.100878  0.961064  0.816711  1
  Ga  Ga27  1  0.897408  0.038444  0.183690  1
  Pd  Pd28  1  0.385087  0.503425  0.637180  1
  Pd  Pd29  1  0.614667  0.497929  0.362503  1
  Pd  Pd30  1  0.171744  0.830038  0.999517  1
  Pd  Pd31  1  0.828310  0.169091  0.001352  1
  Pd  Pd32  1  0.290038  0.832923  0.361205  1
  Pd  Pd33  1  0.708569  0.165998  0.638072  1
  Pd  Pd34  1  0.050473  0.829352  0.637044  1
  Pd  Pd35  1  0.951036  0.170792  0.362681  1
  Pd  Pd36  1  0.499834  0.500726  0.000449  1
