# generated using pymatgen
data_Y10Sn5Sb
_symmetry_space_group_name_H-M   'P 1'
_cell_length_a   6.52720200
_cell_length_b   8.98534607
_cell_length_c   8.99093510
_cell_angle_alpha   120.02676746
_cell_angle_beta   90.00028065
_cell_angle_gamma   89.99990786
_symmetry_Int_Tables_number   1
_chemical_formula_structural   Y10Sn5Sb
_chemical_formula_sum   'Y10 Sn5 Sb1'
_cell_volume   456.54138537
_cell_formula_units_Z   1
loop_
 _symmetry_equiv_pos_site_id
 _symmetry_equiv_pos_as_xyz
  1  'x, y, z'
loop_
 _atom_site_type_symbol
 _atom_site_label
 _atom_site_symmetry_multiplicity
 _atom_site_fract_x
 _atom_site_fract_y
 _atom_site_fract_z
 _atom_site_occupancy
  Y  Y0  1  0.500272  0.334222  0.667450  1
  Y  Y1  1  0.500267  0.665746  0.333227  1
  Y  Y2  1  0.999729  0.665750  0.333225  1
  Y  Y3  1  0.999729  0.334221  0.667450  1
  Y  Y4  1  0.750005  0.240674  0.000846  1
  Y  Y5  1  0.750009  0.759416  0.760106  1
  Y  Y6  1  0.750006  0.999938  0.240857  1
  Y  Y7  1  0.249995  0.758383  0.997978  1
  Y  Y8  1  0.250002  0.241680  0.239497  1
  Y  Y9  1  0.250006  0.999914  0.760001  1
  Sn  Sn10  1  0.750001  0.606123  0.000976  1
  Sn  Sn11  1  0.750002  0.394038  0.394741  1
  Sn  Sn12  1  0.750002  0.999988  0.606321  1
  Sn  Sn13  1  0.249971  0.394749  0.999717  1
  Sn  Sn14  1  0.250002  0.605183  0.604859  1
  Sb  Sb15  1  0.250003  0.999975  0.392750  1
