# generated using pymatgen
data_TiVGaC
_symmetry_space_group_name_H-M   'P 1'
_cell_length_a   2.98869400
_cell_length_b   2.98869456
_cell_length_c   13.19373900
_cell_angle_alpha   90.00000000
_cell_angle_beta   90.00000000
_cell_angle_gamma   120.00001591
_symmetry_Int_Tables_number   1
_chemical_formula_structural   TiVGaC
_chemical_formula_sum   'Ti2 V2 Ga2 C2'
_cell_volume   102.06137988
_cell_formula_units_Z   2
loop_
 _symmetry_equiv_pos_site_id
 _symmetry_equiv_pos_as_xyz
  1  'x, y, z'
loop_
 _atom_site_type_symbol
 _atom_site_label
 _atom_site_symmetry_multiplicity
 _atom_site_fract_x
 _atom_site_fract_y
 _atom_site_fract_z
 _atom_site_occupancy
  Ti  Ti0  1  0.666667  0.333333  0.913074  1
  Ti  Ti1  1  0.333333  0.666667  0.413074  1
  V  V2  1  0.333333  0.666667  0.086698  1
  V  V3  1  0.666667  0.333333  0.586698  1
  Ga  Ga4  1  0.333333  0.666667  0.746265  1
  Ga  Ga5  1  0.666667  0.333333  0.246265  1
  C  C6  1  0.000000  0.000000  0.503962  1
  C  C7  1  0.000000  0.000000  0.003962  1
