# generated using pymatgen
data_Ho4Mg2B4Ir9Rh
_symmetry_space_group_name_H-M   'P 1'
_cell_length_a   9.73440303
_cell_length_b   9.73522803
_cell_length_c   3.12490500
_cell_angle_alpha   90.00000000
_cell_angle_beta   90.00000000
_cell_angle_gamma   89.99130689
_symmetry_Int_Tables_number   1
_chemical_formula_structural   Ho4Mg2B4Ir9Rh
_chemical_formula_sum   'Ho4 Mg2 B4 Ir9 Rh1'
_cell_volume   296.13672249
_cell_formula_units_Z   1
loop_
 _symmetry_equiv_pos_site_id
 _symmetry_equiv_pos_as_xyz
  1  'x, y, z'
loop_
 _atom_site_type_symbol
 _atom_site_label
 _atom_site_symmetry_multiplicity
 _atom_site_fract_x
 _atom_site_fract_y
 _atom_site_fract_z
 _atom_site_occupancy
  Ho  Ho0  1  0.678494  0.178024  0.000000  1
  Ho  Ho1  1  0.321814  0.821894  0.000000  1
  Ho  Ho2  1  0.179282  0.322157  0.000000  1
  Ho  Ho3  1  0.821919  0.677893  0.000000  1
  Mg  Mg4  1  0.999421  0.000353  0.000000  1
  Mg  Mg5  1  0.499698  0.498788  0.000000  1
  B  B6  1  0.123227  0.623844  0.000000  1
  B  B7  1  0.877356  0.376948  0.000000  1
  B  B8  1  0.623055  0.876460  0.000000  1
  B  B9  1  0.375718  0.120475  0.000000  1
  Ir  Ir10  1  0.499595  0.000765  0.500000  1
  Ir  Ir11  1  0.000898  0.499965  0.500000  1
  Ir  Ir12  1  0.223982  0.069107  0.500000  1
  Ir  Ir13  1  0.775501  0.931969  0.500000  1
  Ir  Ir14  1  0.067318  0.776631  0.500000  1
  Ir  Ir15  1  0.724673  0.431916  0.500000  1
  Ir  Ir16  1  0.932505  0.224301  0.500000  1
  Ir  Ir17  1  0.276177  0.569349  0.500000  1
  Ir  Ir18  1  0.567945  0.723909  0.500000  1
  Rh  Rh19  1  0.431422  0.275254  0.500000  1
