# generated using pymatgen
data_SrAl2GaAu
_symmetry_space_group_name_H-M   'P 1'
_cell_length_a   6.37737909
_cell_length_b   6.37737846
_cell_length_c   6.37737893
_cell_angle_alpha   139.48884759
_cell_angle_beta   139.48884661
_cell_angle_gamma   58.63024178
_symmetry_Int_Tables_number   1
_chemical_formula_structural   SrAl2GaAu
_chemical_formula_sum   'Sr1 Al2 Ga1 Au1'
_cell_volume   108.42973665
_cell_formula_units_Z   1
loop_
 _symmetry_equiv_pos_site_id
 _symmetry_equiv_pos_as_xyz
  1  'x, y, z'
loop_
 _atom_site_type_symbol
 _atom_site_label
 _atom_site_symmetry_multiplicity
 _atom_site_fract_x
 _atom_site_fract_y
 _atom_site_fract_z
 _atom_site_occupancy
  Sr  Sr0  1  0.006485  0.006485  0.000000  1
  Al  Al1  1  0.752333  0.252333  0.500000  1
  Al  Al2  1  0.252333  0.752333  0.500000  1
  Ga  Ga3  1  0.612284  0.612284  0.000000  1
  Au  Au4  1  0.376564  0.376564  0.000000  1
