# generated using pymatgen
data_U4Zn3GaPt4
_symmetry_space_group_name_H-M   'P 1'
_cell_length_a   4.64369600
_cell_length_b   5.98032416
_cell_length_c   8.05411393
_cell_angle_alpha   90.15749109
_cell_angle_beta   90.00000000
_cell_angle_gamma   90.00000000
_symmetry_Int_Tables_number   1
_chemical_formula_structural   U4Zn3GaPt4
_chemical_formula_sum   'U4 Zn3 Ga1 Pt4'
_cell_volume   223.66840184
_cell_formula_units_Z   1
loop_
 _symmetry_equiv_pos_site_id
 _symmetry_equiv_pos_as_xyz
  1  'x, y, z'
loop_
 _atom_site_type_symbol
 _atom_site_label
 _atom_site_symmetry_multiplicity
 _atom_site_fract_x
 _atom_site_fract_y
 _atom_site_fract_z
 _atom_site_occupancy
  U  U0  1  0.250000  0.504092  0.229604  1
  U  U1  1  0.750000  0.487593  0.771185  1
  U  U2  1  0.750000  0.002690  0.730907  1
  U  U3  1  0.250000  0.005729  0.268111  1
  Zn  Zn4  1  0.750000  0.285690  0.416329  1
  Zn  Zn5  1  0.750000  0.783957  0.082270  1
  Zn  Zn6  1  0.250000  0.212590  0.917893  1
  Ga  Ga7  1  0.250000  0.715090  0.583287  1
  Pt  Pt8  1  0.250000  0.749477  0.915394  1
  Pt  Pt9  1  0.750000  0.247407  0.085241  1
  Pt  Pt10  1  0.750000  0.750575  0.416392  1
  Pt  Pt11  1  0.250000  0.255107  0.583387  1
