# generated using pymatgen
data_Eu6Mn(WC4)3
_symmetry_space_group_name_H-M   'P 1'
_cell_length_a   8.48871400
_cell_length_b   8.48871312
_cell_length_c   5.29033400
_cell_angle_alpha   90.00000000
_cell_angle_beta   90.00000000
_cell_angle_gamma   119.99998260
_symmetry_Int_Tables_number   1
_chemical_formula_structural   Eu6Mn(WC4)3
_chemical_formula_sum   'Eu6 Mn1 W3 C12'
_cell_volume   330.13955232
_cell_formula_units_Z   1
loop_
 _symmetry_equiv_pos_site_id
 _symmetry_equiv_pos_as_xyz
  1  'x, y, z'
loop_
 _atom_site_type_symbol
 _atom_site_label
 _atom_site_symmetry_multiplicity
 _atom_site_fract_x
 _atom_site_fract_y
 _atom_site_fract_z
 _atom_site_occupancy
  Eu  Eu0  1  0.610948  0.691952  0.750000  1
  Eu  Eu1  1  0.922719  0.606619  0.250000  1
  Eu  Eu2  1  0.683901  0.077281  0.250000  1
  Eu  Eu3  1  0.308048  0.918996  0.750000  1
  Eu  Eu4  1  0.081004  0.389052  0.750000  1
  Eu  Eu5  1  0.393381  0.316099  0.250000  1
  Mn  Mn6  1  0.333333  0.666667  0.250000  1
  W  W7  1  0.000000  0.000000  0.498620  1
  W  W8  1  0.000000  0.000000  0.001380  1
  W  W9  1  0.666667  0.333333  0.750000  1
  C  C10  1  0.952814  0.774913  0.750000  1
  C  C11  1  0.186957  0.946080  0.250000  1
  C  C12  1  0.759124  0.813043  0.250000  1
  C  C13  1  0.225087  0.177901  0.750000  1
  C  C14  1  0.822099  0.047186  0.750000  1
  C  C15  1  0.053920  0.240876  0.250000  1
  C  C16  1  0.862424  0.588138  0.750000  1
  C  C17  1  0.274673  0.847639  0.250000  1
  C  C18  1  0.572964  0.725327  0.250000  1
  C  C19  1  0.411862  0.274284  0.750000  1
  C  C20  1  0.152361  0.427036  0.250000  1
  C  C21  1  0.725716  0.137576  0.750000  1
