# generated using pymatgen
data_Ti20Si12As
_symmetry_space_group_name_H-M   'P 1'
_cell_length_a   5.20354835
_cell_length_b   7.55252301
_cell_length_c   13.05684600
_cell_angle_alpha   90.00002633
_cell_angle_beta   90.00015167
_cell_angle_gamma   90.02361555
_symmetry_Int_Tables_number   1
_chemical_formula_structural   Ti20Si12As
_chemical_formula_sum   'Ti20 Si12 As1'
_cell_volume   513.13294209
_cell_formula_units_Z   1
loop_
 _symmetry_equiv_pos_site_id
 _symmetry_equiv_pos_as_xyz
  1  'x, y, z'
loop_
 _atom_site_type_symbol
 _atom_site_label
 _atom_site_symmetry_multiplicity
 _atom_site_fract_x
 _atom_site_fract_y
 _atom_site_fract_z
 _atom_site_occupancy
  Ti  Ti0  1  0.500000  0.000004  0.334848  1
  Ti  Ti1  1  0.500000  0.499998  0.832129  1
  Ti  Ti2  1  0.500001  0.499997  0.167864  1
  Ti  Ti3  1  0.500001  0.000003  0.665148  1
  Ti  Ti4  1  0.000001  0.499999  0.166623  1
  Ti  Ti5  1  0.999999  0.000002  0.666469  1
  Ti  Ti6  1  0.000001  0.000003  0.333541  1
  Ti  Ti7  1  0.000000  0.499998  0.833374  1
  Ti  Ti8  1  0.732589  0.266104  0.999988  1
  Ti  Ti9  1  0.749215  0.754218  0.500023  1
  Ti  Ti10  1  0.749219  0.375913  0.377370  1
  Ti  Ti11  1  0.733639  0.866462  0.864763  1
  Ti  Ti12  1  0.733598  0.866434  0.135224  1
  Ti  Ti13  1  0.749224  0.375869  0.622638  1
  Ti  Ti14  1  0.267411  0.733896  0.999989  1
  Ti  Ti15  1  0.250785  0.245780  0.500023  1
  Ti  Ti16  1  0.266400  0.133566  0.135223  1
  Ti  Ti17  1  0.250775  0.624128  0.622637  1
  Ti  Ti18  1  0.250777  0.624085  0.377369  1
  Ti  Ti19  1  0.266359  0.133536  0.864765  1
  Si  Si20  1  0.752644  0.609131  0.000001  1
  Si  Si21  1  0.752381  0.109948  0.500014  1
  Si  Si22  1  0.753445  0.199073  0.199866  1
  Si  Si23  1  0.750847  0.693259  0.692706  1
  Si  Si24  1  0.750845  0.693222  0.307294  1
  Si  Si25  1  0.753433  0.199036  0.800114  1
  Si  Si26  1  0.247357  0.390867  0.000002  1
  Si  Si27  1  0.247619  0.890058  0.500013  1
  Si  Si28  1  0.249153  0.306777  0.307295  1
  Si  Si29  1  0.246569  0.800965  0.800114  1
  Si  Si30  1  0.246561  0.800928  0.199867  1
  Si  Si31  1  0.249153  0.306740  0.692705  1
  As  As32  1  0.999999  0.999999  0.000000  1
