# generated using pymatgen
data_Dy3Y(B4Os)4
_symmetry_space_group_name_H-M   'P 1'
_cell_length_a   3.57108300
_cell_length_b   5.97058100
_cell_length_c   11.55660800
_cell_angle_alpha   90.00128252
_cell_angle_beta   90.00000000
_cell_angle_gamma   90.00000000
_symmetry_Int_Tables_number   1
_chemical_formula_structural   Dy3Y(B4Os)4
_chemical_formula_sum   'Dy3 Y1 B16 Os4'
_cell_volume   246.40352762
_cell_formula_units_Z   1
loop_
 _symmetry_equiv_pos_site_id
 _symmetry_equiv_pos_as_xyz
  1  'x, y, z'
loop_
 _atom_site_type_symbol
 _atom_site_label
 _atom_site_symmetry_multiplicity
 _atom_site_fract_x
 _atom_site_fract_y
 _atom_site_fract_z
 _atom_site_occupancy
  Dy  Dy0  1  0.000000  0.372123  0.650226  1
  Dy  Dy1  1  0.000000  0.127882  0.150211  1
  Dy  Dy2  1  0.000000  0.872127  0.849781  1
  Y  Y3  1  0.000000  0.627924  0.349798  1
  B  B4  1  0.500000  0.788725  0.185815  1
  B  B5  1  0.500000  0.211407  0.814078  1
  B  B6  1  0.500000  0.288384  0.314024  1
  B  B7  1  0.500000  0.711382  0.685930  1
  B  B8  1  0.500000  0.863674  0.030154  1
  B  B9  1  0.500000  0.136328  0.969833  1
  B  B10  1  0.500000  0.363503  0.469928  1
  B  B11  1  0.500000  0.636309  0.530277  1
  B  B12  1  0.500000  0.887763  0.453517  1
  B  B13  1  0.500000  0.112400  0.546570  1
  B  B14  1  0.500000  0.387595  0.046556  1
  B  B15  1  0.500000  0.612404  0.953436  1
  B  B16  1  0.500000  0.975101  0.308489  1
  B  B17  1  0.500000  0.025104  0.691458  1
  B  B18  1  0.500000  0.474754  0.191363  1
  B  B19  1  0.500000  0.525110  0.808553  1
  Os  Os20  1  0.000000  0.641060  0.093109  1
  Os  Os21  1  0.000000  0.358944  0.906764  1
  Os  Os22  1  0.000000  0.140945  0.406824  1
  Os  Os23  1  0.000000  0.859054  0.593305  1
