# generated using pymatgen
data_Tb10FeBi4Ru
_symmetry_space_group_name_H-M   'P 1'
_cell_length_a   8.04480136
_cell_length_b   9.00569100
_cell_length_c   12.50137407
_cell_angle_alpha   90.00000000
_cell_angle_beta   90.38560951
_cell_angle_gamma   90.00000000
_symmetry_Int_Tables_number   1
_chemical_formula_structural   Tb10FeBi4Ru
_chemical_formula_sum   'Tb20 Fe2 Bi8 Ru2'
_cell_volume   905.69147837
_cell_formula_units_Z   2
loop_
 _symmetry_equiv_pos_site_id
 _symmetry_equiv_pos_as_xyz
  1  'x, y, z'
loop_
 _atom_site_type_symbol
 _atom_site_label
 _atom_site_symmetry_multiplicity
 _atom_site_fract_x
 _atom_site_fract_y
 _atom_site_fract_z
 _atom_site_occupancy
  Tb  Tb0  1  0.848006  0.750000  0.801380  1
  Tb  Tb1  1  0.151994  0.250000  0.198620  1
  Tb  Tb2  1  0.345222  0.250000  0.705392  1
  Tb  Tb3  1  0.654778  0.750000  0.294608  1
  Tb  Tb4  1  0.378320  0.750000  0.692402  1
  Tb  Tb5  1  0.621680  0.250000  0.307598  1
  Tb  Tb6  1  0.882707  0.250000  0.812060  1
  Tb  Tb7  1  0.117293  0.750000  0.187940  1
  Tb  Tb8  1  0.946488  0.750000  0.504624  1
  Tb  Tb9  1  0.053512  0.250000  0.495376  1
  Tb  Tb10  1  0.446421  0.250000  0.995825  1
  Tb  Tb11  1  0.553579  0.750000  0.004175  1
  Tb  Tb12  1  0.676279  0.040752  0.565853  1
  Tb  Tb13  1  0.323721  0.959248  0.434147  1
  Tb  Tb14  1  0.174581  0.964070  0.937975  1
  Tb  Tb15  1  0.323721  0.540752  0.434147  1
  Tb  Tb16  1  0.825419  0.035930  0.062025  1
  Tb  Tb17  1  0.676279  0.459248  0.565853  1
  Tb  Tb18  1  0.825419  0.464070  0.062025  1
  Tb  Tb19  1  0.174581  0.535930  0.937975  1
  Fe  Fe20  1  0.070885  0.250000  0.989831  1
  Fe  Fe21  1  0.929115  0.750000  0.010169  1
  Bi  Bi22  1  0.571533  0.493103  0.827828  1
  Bi  Bi23  1  0.428467  0.506897  0.172172  1
  Bi  Bi24  1  0.071003  0.506938  0.673707  1
  Bi  Bi25  1  0.428467  0.993103  0.172172  1
  Bi  Bi26  1  0.928997  0.493062  0.326293  1
  Bi  Bi27  1  0.571533  0.006897  0.827828  1
  Bi  Bi28  1  0.928997  0.006938  0.326293  1
  Bi  Bi29  1  0.071003  0.993062  0.673707  1
  Ru  Ru30  1  0.573843  0.750000  0.510664  1
  Ru  Ru31  1  0.426157  0.250000  0.489336  1
