# generated using pymatgen
data_Sm3DyGa18(RuPt2)2
_symmetry_space_group_name_H-M   'P 1'
_cell_length_a   7.67315628
_cell_length_b   7.67243000
_cell_length_c   9.55890234
_cell_angle_alpha   89.98056573
_cell_angle_beta   90.03031686
_cell_angle_gamma   119.76621787
_symmetry_Int_Tables_number   1
_chemical_formula_structural   Sm3DyGa18(RuPt2)2
_chemical_formula_sum   'Sm3 Dy1 Ga18 Ru2 Pt4'
_cell_volume   488.49918791
_cell_formula_units_Z   1
loop_
 _symmetry_equiv_pos_site_id
 _symmetry_equiv_pos_as_xyz
  1  'x, y, z'
loop_
 _atom_site_type_symbol
 _atom_site_label
 _atom_site_symmetry_multiplicity
 _atom_site_fract_x
 _atom_site_fract_y
 _atom_site_fract_z
 _atom_site_occupancy
  Sm  Sm0  1  0.327320  0.002790  0.750346  1
  Sm  Sm1  1  0.672947  0.997610  0.250328  1
  Sm  Sm2  1  0.002744  0.327454  0.749740  1
  Dy  Dy3  1  0.997425  0.673115  0.249597  1
  Ga  Ga4  1  0.863993  0.863637  0.749968  1
  Ga  Ga5  1  0.135777  0.135058  0.250067  1
  Ga  Ga6  1  0.661659  0.666218  0.433625  1
  Ga  Ga7  1  0.339770  0.333935  0.935353  1
  Ga  Ga8  1  0.667571  0.660179  0.066547  1
  Ga  Ga9  1  0.333684  0.339529  0.564544  1
  Ga  Ga10  1  0.452328  0.661880  0.746388  1
  Ga  Ga11  1  0.549365  0.339578  0.246526  1
  Ga  Ga12  1  0.662148  0.452691  0.753569  1
  Ga  Ga13  1  0.337590  0.547930  0.253500  1
  Ga  Ga14  1  0.994673  0.336903  0.081527  1
  Ga  Ga15  1  0.005413  0.664581  0.578672  1
  Ga  Ga16  1  0.333304  0.992712  0.418456  1
  Ga  Ga17  1  0.664861  0.005672  0.920148  1
  Ga  Ga18  1  0.993976  0.658851  0.921592  1
  Ga  Ga19  1  0.006079  0.343055  0.418788  1
  Ga  Ga20  1  0.658492  0.993507  0.579526  1
  Ga  Ga21  1  0.339735  0.004509  0.081150  1
  Ru  Ru22  1  0.328721  0.671105  0.499430  1
  Ru  Ru23  1  0.671176  0.328763  0.000546  1
  Pt  Pt24  1  0.000224  0.999047  0.499517  1
  Pt  Pt25  1  0.999094  0.999887  0.000547  1
  Pt  Pt26  1  0.670908  0.328743  0.499706  1
  Pt  Pt27  1  0.329024  0.671062  0.000298  1
