# generated using pymatgen
data_Nd5Nb3(Co4P3)4
_symmetry_space_group_name_H-M   'P 1'
_cell_length_a   12.28724700
_cell_length_b   12.28724758
_cell_length_c   3.75005000
_cell_angle_alpha   90.00000000
_cell_angle_beta   90.00000000
_cell_angle_gamma   119.99999575
_symmetry_Int_Tables_number   1
_chemical_formula_structural   Nd5Nb3(Co4P3)4
_chemical_formula_sum   'Nd5 Nb3 Co16 P12'
_cell_volume   490.31694927
_cell_formula_units_Z   1
loop_
 _symmetry_equiv_pos_site_id
 _symmetry_equiv_pos_as_xyz
  1  'x, y, z'
loop_
 _atom_site_type_symbol
 _atom_site_label
 _atom_site_symmetry_multiplicity
 _atom_site_fract_x
 _atom_site_fract_y
 _atom_site_fract_z
 _atom_site_occupancy
  Nd  Nd0  1  0.815816  0.000000  0.500000  1
  Nd  Nd1  1  0.000000  0.815816  0.500000  1
  Nd  Nd2  1  0.184184  0.184184  0.500000  1
  Nd  Nd3  1  0.333333  0.666667  0.000000  1
  Nd  Nd4  1  0.666667  0.333333  0.000000  1
  Nb  Nb5  1  0.442747  0.000000  0.000000  1
  Nb  Nb6  1  0.000000  0.442747  0.000000  1
  Nb  Nb7  1  0.557253  0.557253  0.000000  1
  Co  Co8  1  0.280756  0.000000  0.500000  1
  Co  Co9  1  0.000000  0.280756  0.500000  1
  Co  Co10  1  0.719244  0.719244  0.500000  1
  Co  Co11  1  0.624808  0.801667  0.000000  1
  Co  Co12  1  0.198333  0.823141  0.000000  1
  Co  Co13  1  0.176859  0.375192  0.000000  1
  Co  Co14  1  0.375192  0.176859  0.000000  1
  Co  Co15  1  0.801667  0.624808  0.000000  1
  Co  Co16  1  0.823141  0.198333  0.000000  1
  Co  Co17  1  0.520269  0.874900  0.500000  1
  Co  Co18  1  0.125100  0.645368  0.500000  1
  Co  Co19  1  0.354632  0.479731  0.500000  1
  Co  Co20  1  0.479731  0.354632  0.500000  1
  Co  Co21  1  0.874900  0.520269  0.500000  1
  Co  Co22  1  0.645368  0.125100  0.500000  1
  Co  Co23  1  0.000000  0.000000  0.000000  1
  P  P24  1  0.181488  0.000000  0.000000  1
  P  P25  1  0.000000  0.181488  0.000000  1
  P  P26  1  0.818512  0.818512  0.000000  1
  P  P27  1  0.523502  0.689769  0.500000  1
  P  P28  1  0.310231  0.833732  0.500000  1
  P  P29  1  0.166268  0.476498  0.500000  1
  P  P30  1  0.476498  0.166268  0.500000  1
  P  P31  1  0.689769  0.523502  0.500000  1
  P  P32  1  0.833732  0.310231  0.500000  1
  P  P33  1  0.639990  0.000000  0.000000  1
  P  P34  1  0.000000  0.639990  0.000000  1
  P  P35  1  0.360010  0.360010  0.000000  1
