# generated using pymatgen
data_Tb3ZnCd2PdPt2
_symmetry_space_group_name_H-M   'P 1'
_cell_length_a   7.58496200
_cell_length_b   7.59550836
_cell_length_c   3.85485000
_cell_angle_alpha   90.00000000
_cell_angle_beta   90.00000000
_cell_angle_gamma   119.95406202
_symmetry_Int_Tables_number   1
_chemical_formula_structural   Tb3ZnCd2PdPt2
_chemical_formula_sum   'Tb3 Zn1 Cd2 Pd1 Pt2'
_cell_volume   192.41956123
_cell_formula_units_Z   1
loop_
 _symmetry_equiv_pos_site_id
 _symmetry_equiv_pos_as_xyz
  1  'x, y, z'
loop_
 _atom_site_type_symbol
 _atom_site_label
 _atom_site_symmetry_multiplicity
 _atom_site_fract_x
 _atom_site_fract_y
 _atom_site_fract_z
 _atom_site_occupancy
  Tb  Tb0  1  0.994860  0.401754  0.000000  1
  Tb  Tb1  1  0.593107  0.598246  0.000000  1
  Tb  Tb2  1  0.424223  0.000000  0.000000  1
  Zn  Zn3  1  0.740420  0.000000  0.500000  1
  Cd  Cd4  1  0.005727  0.751868  0.500000  1
  Cd  Cd5  1  0.253860  0.248132  0.500000  1
  Pd  Pd6  1  0.974001  0.000000  0.000000  1
  Pt  Pt7  1  0.342265  0.670729  0.500000  1
  Pt  Pt8  1  0.671537  0.329271  0.500000  1
