# generated using pymatgen
data_Tb2Ho4Al24ZnOs7
_symmetry_space_group_name_H-M   'P 1'
_cell_length_a   8.86535528
_cell_length_b   8.86021888
_cell_length_c   9.55102442
_cell_angle_alpha   89.94818892
_cell_angle_beta   90.01115509
_cell_angle_gamma   120.02723452
_symmetry_Int_Tables_number   1
_chemical_formula_structural   Tb2Ho4Al24ZnOs7
_chemical_formula_sum   'Tb2 Ho4 Al24 Zn1 Os7'
_cell_volume   649.53377008
_cell_formula_units_Z   1
loop_
 _symmetry_equiv_pos_site_id
 _symmetry_equiv_pos_as_xyz
  1  'x, y, z'
loop_
 _atom_site_type_symbol
 _atom_site_label
 _atom_site_symmetry_multiplicity
 _atom_site_fract_x
 _atom_site_fract_y
 _atom_site_fract_z
 _atom_site_occupancy
  Tb  Tb0  1  0.191383  0.385217  0.247594  1
  Tb  Tb1  1  0.808617  0.614783  0.752406  1
  Ho  Ho2  1  0.613343  0.808396  0.248217  1
  Ho  Ho3  1  0.386657  0.191604  0.751783  1
  Ho  Ho4  1  0.194716  0.805141  0.253783  1
  Ho  Ho5  1  0.805284  0.194859  0.746217  1
  Al  Al6  1  0.329650  0.670601  0.021485  1
  Al  Al7  1  0.670350  0.329399  0.978515  1
  Al  Al8  1  0.665964  0.333927  0.517786  1
  Al  Al9  1  0.334036  0.666073  0.482214  1
  Al  Al10  1  0.162587  0.325938  0.573794  1
  Al  Al11  1  0.837413  0.674062  0.426206  1
  Al  Al12  1  0.673983  0.837537  0.573564  1
  Al  Al13  1  0.848841  0.677122  0.081332  1
  Al  Al14  1  0.326017  0.162463  0.426436  1
  Al  Al15  1  0.151159  0.322878  0.918668  1
  Al  Al16  1  0.163065  0.837216  0.575314  1
  Al  Al17  1  0.322842  0.150849  0.080941  1
  Al  Al18  1  0.836935  0.162784  0.424686  1
  Al  Al19  1  0.677158  0.849151  0.919059  1
  Al  Al20  1  0.836292  0.163026  0.075812  1
  Al  Al21  1  0.163708  0.836974  0.924188  1
  Al  Al22  1  0.561604  0.121080  0.249215  1
  Al  Al23  1  0.438396  0.878920  0.750785  1
  Al  Al24  1  0.878441  0.438378  0.249308  1
  Al  Al25  1  0.121559  0.561622  0.750692  1
  Al  Al26  1  0.564108  0.436520  0.254584  1
  Al  Al27  1  0.435892  0.563480  0.745416  1
  Al  Al28  1  0.998569  0.999768  0.250513  1
  Al  Al29  1  0.001431  0.000232  0.749487  1
  Zn  Zn30  1  0.500000  0.500000  0.000000  1
  Os  Os31  1  0.500000  0.000000  0.000000  1
  Os  Os32  1  0.000000  0.500000  0.000000  1
  Os  Os33  1  0.500000  0.000000  0.500000  1
  Os  Os34  1  0.000000  0.500000  0.500000  1
  Os  Os35  1  0.500000  0.500000  0.500000  1
  Os  Os36  1  0.000000  0.000000  0.000000  1
  Os  Os37  1  0.000000  0.000000  0.500000  1
