# generated using pymatgen
data_Ti3Tc(PRu)4
_symmetry_space_group_name_H-M   'P 1'
_cell_length_a   3.79273300
_cell_length_b   6.16149624
_cell_length_c   7.06169983
_cell_angle_alpha   89.80105204
_cell_angle_beta   90.00000000
_cell_angle_gamma   90.00000000
_symmetry_Int_Tables_number   1
_chemical_formula_structural   Ti3Tc(PRu)4
_chemical_formula_sum   'Ti3 Tc1 P4 Ru4'
_cell_volume   165.02323383
_cell_formula_units_Z   1
loop_
 _symmetry_equiv_pos_site_id
 _symmetry_equiv_pos_as_xyz
  1  'x, y, z'
loop_
 _atom_site_type_symbol
 _atom_site_label
 _atom_site_symmetry_multiplicity
 _atom_site_fract_x
 _atom_site_fract_y
 _atom_site_fract_z
 _atom_site_occupancy
  Ti  Ti0  1  0.250000  0.025882  0.179138  1
  Ti  Ti1  1  0.250000  0.525215  0.328647  1
  Ti  Ti2  1  0.750000  0.971936  0.817249  1
  Tc  Tc3  1  0.750000  0.476078  0.668938  1
  P  P4  1  0.250000  0.761563  0.625043  1
  P  P5  1  0.250000  0.273538  0.871726  1
  P  P6  1  0.750000  0.238257  0.384434  1
  P  P7  1  0.750000  0.731420  0.123684  1
  Ru  Ru8  1  0.250000  0.145554  0.565470  1
  Ru  Ru9  1  0.250000  0.650495  0.940536  1
  Ru  Ru10  1  0.750000  0.852410  0.436078  1
  Ru  Ru11  1  0.750000  0.347652  0.059056  1
