# generated using pymatgen
data_Tb7Dy(C2Cl3)2
_symmetry_space_group_name_H-M   'P 1'
_cell_length_a   3.67502400
_cell_length_b   10.56618500
_cell_length_c   19.78919500
_cell_angle_alpha   90.00000000
_cell_angle_beta   90.00000000
_cell_angle_gamma   90.00000000
_symmetry_Int_Tables_number   1
_chemical_formula_structural   Tb7Dy(C2Cl3)2
_chemical_formula_sum   'Tb14 Dy2 C8 Cl12'
_cell_volume   768.43390380
_cell_formula_units_Z   2
loop_
 _symmetry_equiv_pos_site_id
 _symmetry_equiv_pos_as_xyz
  1  'x, y, z'
loop_
 _atom_site_type_symbol
 _atom_site_label
 _atom_site_symmetry_multiplicity
 _atom_site_fract_x
 _atom_site_fract_y
 _atom_site_fract_z
 _atom_site_occupancy
  Tb  Tb0  1  0.250000  0.139017  0.573456  1
  Tb  Tb1  1  0.250000  0.639017  0.926544  1
  Tb  Tb2  1  0.750000  0.861211  0.427023  1
  Tb  Tb3  1  0.750000  0.361211  0.072977  1
  Tb  Tb4  1  0.250000  0.637793  0.755568  1
  Tb  Tb5  1  0.250000  0.137793  0.744432  1
  Tb  Tb6  1  0.750000  0.362235  0.244163  1
  Tb  Tb7  1  0.750000  0.862235  0.255837  1
  Tb  Tb8  1  0.250000  0.100504  0.332506  1
  Tb  Tb9  1  0.250000  0.600504  0.167494  1
  Tb  Tb10  1  0.750000  0.899494  0.667987  1
  Tb  Tb11  1  0.750000  0.399494  0.832013  1
  Tb  Tb12  1  0.250000  0.123992  0.164213  1
  Tb  Tb13  1  0.250000  0.623992  0.335787  1
  Dy  Dy14  1  0.750000  0.875286  0.835383  1
  Dy  Dy15  1  0.750000  0.375286  0.664617  1
  C  C16  1  0.250000  0.863293  0.348130  1
  C  C17  1  0.250000  0.363293  0.151870  1
  C  C18  1  0.750000  0.137300  0.652442  1
  C  C19  1  0.750000  0.637300  0.847558  1
  C  C20  1  0.250000  0.388296  0.749777  1
  C  C21  1  0.250000  0.888296  0.750223  1
  C  C22  1  0.750000  0.611675  0.249729  1
  C  C23  1  0.750000  0.111675  0.250271  1
  Cl  Cl24  1  0.250000  0.378196  0.952067  1
  Cl  Cl25  1  0.250000  0.878196  0.547933  1
  Cl  Cl26  1  0.750000  0.622121  0.047620  1
  Cl  Cl27  1  0.750000  0.122121  0.452380  1
  Cl  Cl28  1  0.250000  0.887327  0.944386  1
  Cl  Cl29  1  0.250000  0.387327  0.555614  1
  Cl  Cl30  1  0.750000  0.113093  0.054332  1
  Cl  Cl31  1  0.750000  0.613093  0.445668  1
  Cl  Cl32  1  0.250000  0.360630  0.354497  1
  Cl  Cl33  1  0.250000  0.860630  0.145503  1
  Cl  Cl34  1  0.750000  0.638536  0.645505  1
  Cl  Cl35  1  0.750000  0.138536  0.854495  1
