# generated using pymatgen
data_Zr6Al(Si3Ni8)2
_symmetry_space_group_name_H-M   'P 1'
_cell_length_a   8.12912209
_cell_length_b   8.12986309
_cell_length_c   8.13086205
_cell_angle_alpha   60.00846611
_cell_angle_beta   60.00360067
_cell_angle_gamma   59.99863070
_symmetry_Int_Tables_number   1
_chemical_formula_structural   Zr6Al(Si3Ni8)2
_chemical_formula_sum   'Zr6 Al1 Si6 Ni16'
_cell_volume   379.99998148
_cell_formula_units_Z   1
loop_
 _symmetry_equiv_pos_site_id
 _symmetry_equiv_pos_as_xyz
  1  'x, y, z'
loop_
 _atom_site_type_symbol
 _atom_site_label
 _atom_site_symmetry_multiplicity
 _atom_site_fract_x
 _atom_site_fract_y
 _atom_site_fract_z
 _atom_site_occupancy
  Zr  Zr0  1  0.208152  0.791848  0.791827  1
  Zr  Zr1  1  0.208106  0.791805  0.208216  1
  Zr  Zr2  1  0.791848  0.208152  0.208173  1
  Zr  Zr3  1  0.791894  0.208195  0.791784  1
  Zr  Zr4  1  0.791883  0.791796  0.208201  1
  Zr  Zr5  1  0.208117  0.208204  0.791799  1
  Al  Al6  1  0.500000  0.500000  0.500000  1
  Si  Si7  1  0.000000  0.000000  0.500000  1
  Si  Si8  1  0.500000  0.000000  0.500000  1
  Si  Si9  1  0.000000  0.500000  0.000000  1
  Si  Si10  1  0.500000  0.500000  0.000000  1
  Si  Si11  1  0.500000  0.000000  0.000000  1
  Si  Si12  1  0.000000  0.500000  0.500000  1
  Ni  Ni13  1  0.379161  0.379149  0.379167  1
  Ni  Ni14  1  0.505281  0.831568  0.831559  1
  Ni  Ni15  1  0.620866  0.620893  0.137381  1
  Ni  Ni16  1  0.168458  0.168484  0.494584  1
  Ni  Ni17  1  0.831542  0.831516  0.505416  1
  Ni  Ni18  1  0.168415  0.168440  0.168455  1
  Ni  Ni19  1  0.831585  0.831560  0.831545  1
  Ni  Ni20  1  0.379134  0.379107  0.862619  1
  Ni  Ni21  1  0.831553  0.505366  0.831529  1
  Ni  Ni22  1  0.620839  0.620851  0.620833  1
  Ni  Ni23  1  0.379123  0.862644  0.379120  1
  Ni  Ni24  1  0.137483  0.620838  0.620827  1
  Ni  Ni25  1  0.620877  0.137356  0.620880  1
  Ni  Ni26  1  0.168447  0.494634  0.168471  1
  Ni  Ni27  1  0.862517  0.379162  0.379173  1
  Ni  Ni28  1  0.494719  0.168432  0.168441  1
