# generated using pymatgen
data_Nd4Er6Ga3Si5
_symmetry_space_group_name_H-M   'P 1'
_cell_length_a   7.51893640
_cell_length_b   14.89391400
_cell_length_c   7.85472083
_cell_angle_alpha   90.00000000
_cell_angle_beta   89.79238629
_cell_angle_gamma   90.00000000
_symmetry_Int_Tables_number   1
_chemical_formula_structural   Nd4Er6Ga3Si5
_chemical_formula_sum   'Nd8 Er12 Ga6 Si10'
_cell_volume   879.61607203
_cell_formula_units_Z   2
loop_
 _symmetry_equiv_pos_site_id
 _symmetry_equiv_pos_as_xyz
  1  'x, y, z'
loop_
 _atom_site_type_symbol
 _atom_site_label
 _atom_site_symmetry_multiplicity
 _atom_site_fract_x
 _atom_site_fract_y
 _atom_site_fract_z
 _atom_site_occupancy
  Nd  Nd0  1  0.021958  0.097613  0.176965  1
  Nd  Nd1  1  0.021958  0.402387  0.176965  1
  Nd  Nd2  1  0.520132  0.098100  0.323933  1
  Nd  Nd3  1  0.520132  0.401900  0.323933  1
  Nd  Nd4  1  0.479216  0.597935  0.679068  1
  Nd  Nd5  1  0.479216  0.902065  0.679068  1
  Nd  Nd6  1  0.979380  0.597175  0.819232  1
  Nd  Nd7  1  0.979380  0.902825  0.819232  1
  Er  Er8  1  0.342964  0.250000  0.010136  1
  Er  Er9  1  0.321994  0.622597  0.175943  1
  Er  Er10  1  0.321994  0.877402  0.175943  1
  Er  Er11  1  0.819032  0.622694  0.325630  1
  Er  Er12  1  0.819032  0.877305  0.325630  1
  Er  Er13  1  0.846367  0.250000  0.491824  1
  Er  Er14  1  0.155472  0.750000  0.513310  1
  Er  Er15  1  0.178050  0.124523  0.677885  1
  Er  Er16  1  0.178050  0.375476  0.677885  1
  Er  Er17  1  0.676771  0.124016  0.820582  1
  Er  Er18  1  0.676771  0.375983  0.820582  1
  Er  Er19  1  0.655125  0.750000  0.987759  1
  Ga  Ga20  1  0.652258  0.539124  0.033503  1
  Ga  Ga21  1  0.652258  0.960876  0.033503  1
  Ga  Ga22  1  0.025926  0.750000  0.111768  1
  Ga  Ga23  1  0.726464  0.250000  0.122058  1
  Ga  Ga24  1  0.152047  0.539187  0.467470  1
  Ga  Ga25  1  0.152047  0.960813  0.467470  1
  Si  Si26  1  0.227553  0.250000  0.379642  1
  Si  Si27  1  0.526577  0.750000  0.387885  1
  Si  Si28  1  0.850695  0.041025  0.532353  1
  Si  Si29  1  0.850695  0.458974  0.532353  1
  Si  Si30  1  0.472155  0.250000  0.612429  1
  Si  Si31  1  0.771678  0.750000  0.619853  1
  Si  Si32  1  0.273916  0.750000  0.880397  1
  Si  Si33  1  0.972989  0.250000  0.885051  1
  Si  Si34  1  0.349873  0.041069  0.966381  1
  Si  Si35  1  0.349873  0.458930  0.966381  1
