# generated using pymatgen
data_Tb3CeY4(CdPt)2
_symmetry_space_group_name_H-M   'P 1'
_cell_length_a   9.76845281
_cell_length_b   9.76845348
_cell_length_c   9.79579800
_cell_angle_alpha   59.90735769
_cell_angle_beta   59.90735541
_cell_angle_gamma   59.83706960
_symmetry_Int_Tables_number   1
_chemical_formula_structural   Tb3CeY4(CdPt)2
_chemical_formula_sum   'Tb6 Ce2 Y8 Cd4 Pt4'
_cell_volume   659.22053784
_cell_formula_units_Z   2
loop_
 _symmetry_equiv_pos_site_id
 _symmetry_equiv_pos_as_xyz
  1  'x, y, z'
loop_
 _atom_site_type_symbol
 _atom_site_label
 _atom_site_symmetry_multiplicity
 _atom_site_fract_x
 _atom_site_fract_y
 _atom_site_fract_z
 _atom_site_occupancy
  Tb  Tb0  1  0.937424  0.564285  0.565299  1
  Tb  Tb1  1  0.564285  0.937424  0.932991  1
  Tb  Tb2  1  0.564285  0.937424  0.565299  1
  Tb  Tb3  1  0.937424  0.564285  0.932991  1
  Tb  Tb4  1  0.564881  0.564881  0.935119  1
  Tb  Tb5  1  0.935319  0.935319  0.564681  1
  Ce  Ce6  1  0.350531  0.350531  0.352768  1
  Ce  Ce7  1  0.350531  0.350531  0.946168  1
  Y  Y8  1  0.353206  0.940868  0.352963  1
  Y  Y9  1  0.940868  0.353206  0.352963  1
  Y  Y10  1  0.810571  0.189911  0.189330  1
  Y  Y11  1  0.189911  0.810571  0.810187  1
  Y  Y12  1  0.189911  0.810571  0.189330  1
  Y  Y13  1  0.810571  0.189911  0.810187  1
  Y  Y14  1  0.189095  0.189095  0.810905  1
  Y  Y15  1  0.810042  0.810042  0.189958  1
  Cd  Cd16  1  0.581866  0.581866  0.582039  1
  Cd  Cd17  1  0.581866  0.581866  0.254228  1
  Cd  Cd18  1  0.582014  0.254071  0.581957  1
  Cd  Cd19  1  0.254071  0.582014  0.581957  1
  Pt  Pt20  1  0.143128  0.143128  0.143549  1
  Pt  Pt21  1  0.143128  0.143128  0.570197  1
  Pt  Pt22  1  0.145054  0.570016  0.142465  1
  Pt  Pt23  1  0.570016  0.145054  0.142465  1
