# generated using pymatgen
data_Yb4Ni13Pt
_symmetry_space_group_name_H-M   'P 1'
_cell_length_a   4.88898502
_cell_length_b   4.88898442
_cell_length_c   12.43439059
_cell_angle_alpha   78.66230528
_cell_angle_beta   78.66230551
_cell_angle_gamma   59.99999305
_symmetry_Int_Tables_number   1
_chemical_formula_structural   Yb4Ni13Pt
_chemical_formula_sum   'Yb4 Ni13 Pt1'
_cell_volume   250.67099154
_cell_formula_units_Z   1
loop_
 _symmetry_equiv_pos_site_id
 _symmetry_equiv_pos_as_xyz
  1  'x, y, z'
loop_
 _atom_site_type_symbol
 _atom_site_label
 _atom_site_symmetry_multiplicity
 _atom_site_fract_x
 _atom_site_fract_y
 _atom_site_fract_z
 _atom_site_occupancy
  Yb  Yb0  1  0.948679  0.948679  0.153963  1
  Yb  Yb1  1  0.051321  0.051321  0.846037  1
  Yb  Yb2  1  0.853243  0.853243  0.440269  1
  Yb  Yb3  1  0.146757  0.146757  0.559731  1
  Ni  Ni4  1  0.720993  0.720993  0.837019  1
  Ni  Ni5  1  0.279007  0.279007  0.162981  1
  Ni  Ni6  1  0.612768  0.612768  0.161695  1
  Ni  Ni7  1  0.387232  0.387232  0.838305  1
  Ni  Ni8  1  0.000000  0.500000  0.000000  1
  Ni  Ni9  1  0.500000  0.000000  0.000000  1
  Ni  Ni10  1  0.500000  0.500000  0.000000  1
  Ni  Ni11  1  0.390593  0.390593  0.323633  1
  Ni  Ni12  1  0.895180  0.390593  0.323633  1
  Ni  Ni13  1  0.390593  0.895180  0.323633  1
  Ni  Ni14  1  0.609407  0.609407  0.676367  1
  Ni  Ni15  1  0.104820  0.609407  0.676367  1
  Ni  Ni16  1  0.609407  0.104820  0.676367  1
  Pt  Pt17  1  0.500000  0.500000  0.500000  1
