# generated using pymatgen
data_Ti4Rh2O
_symmetry_space_group_name_H-M   'P 1'
_cell_length_a   8.22574240
_cell_length_b   8.22574206
_cell_length_c   8.22574200
_cell_angle_alpha   60.00000024
_cell_angle_beta   60.00000161
_cell_angle_gamma   59.99999505
_symmetry_Int_Tables_number   1
_chemical_formula_structural   Ti4Rh2O
_chemical_formula_sum   'Ti16 Rh8 O4'
_cell_volume   393.55937984
_cell_formula_units_Z   4
loop_
 _symmetry_equiv_pos_site_id
 _symmetry_equiv_pos_as_xyz
  1  'x, y, z'
loop_
 _atom_site_type_symbol
 _atom_site_label
 _atom_site_symmetry_multiplicity
 _atom_site_fract_x
 _atom_site_fract_y
 _atom_site_fract_z
 _atom_site_occupancy
  Ti  Ti0  1  0.125000  0.625000  0.625000  1
  Ti  Ti1  1  0.625000  0.125000  0.625000  1
  Ti  Ti2  1  0.625000  0.625000  0.125000  1
  Ti  Ti3  1  0.625000  0.625000  0.625000  1
  Ti  Ti4  1  0.817701  0.817701  0.182299  1
  Ti  Ti5  1  0.182299  0.182299  0.817701  1
  Ti  Ti6  1  0.817701  0.182299  0.817701  1
  Ti  Ti7  1  0.182299  0.817701  0.182299  1
  Ti  Ti8  1  0.182299  0.817701  0.817701  1
  Ti  Ti9  1  0.817701  0.182299  0.182299  1
  Ti  Ti10  1  0.432299  0.432299  0.067701  1
  Ti  Ti11  1  0.067701  0.067701  0.432299  1
  Ti  Ti12  1  0.432299  0.067701  0.432299  1
  Ti  Ti13  1  0.067701  0.432299  0.067701  1
  Ti  Ti14  1  0.067701  0.432299  0.432299  1
  Ti  Ti15  1  0.432299  0.067701  0.067701  1
  Rh  Rh16  1  0.773094  0.408968  0.408968  1
  Rh  Rh17  1  0.408968  0.773094  0.408968  1
  Rh  Rh18  1  0.408968  0.408968  0.773094  1
  Rh  Rh19  1  0.408968  0.408968  0.408968  1
  Rh  Rh20  1  0.476906  0.841032  0.841032  1
  Rh  Rh21  1  0.841032  0.476906  0.841032  1
  Rh  Rh22  1  0.841032  0.841032  0.476906  1
  Rh  Rh23  1  0.841032  0.841032  0.841032  1
  O  O24  1  0.625000  0.125000  0.125000  1
  O  O25  1  0.125000  0.625000  0.125000  1
  O  O26  1  0.125000  0.125000  0.625000  1
  O  O27  1  0.125000  0.125000  0.125000  1
