# generated using pymatgen
data_Ce3Al27Cr8Re
_symmetry_space_group_name_H-M   'P 1'
_cell_length_a   5.08172297
_cell_length_b   6.87840918
_cell_length_c   19.33898300
_cell_angle_alpha   87.12521253
_cell_angle_beta   97.80324402
_cell_angle_gamma   111.67840785
_symmetry_Int_Tables_number   1
_chemical_formula_structural   Ce3Al27Cr8Re
_chemical_formula_sum   'Ce3 Al27 Cr8 Re1'
_cell_volume   622.35068209
_cell_formula_units_Z   1
loop_
 _symmetry_equiv_pos_site_id
 _symmetry_equiv_pos_as_xyz
  1  'x, y, z'
loop_
 _atom_site_type_symbol
 _atom_site_label
 _atom_site_symmetry_multiplicity
 _atom_site_fract_x
 _atom_site_fract_y
 _atom_site_fract_z
 _atom_site_occupancy
  Ce  Ce0  1  0.333333  0.000000  0.666667  1
  Ce  Ce1  1  0.993924  0.000000  0.998543  1
  Ce  Ce2  1  0.672743  0.000000  0.334790  1
  Al  Al3  1  0.129617  0.353426  0.887555  1
  Al  Al4  1  0.774832  0.354638  0.221807  1
  Al  Al5  1  0.464332  0.353012  0.555147  1
  Al  Al6  1  0.202334  0.646988  0.778187  1
  Al  Al7  1  0.891835  0.645362  0.111526  1
  Al  Al8  1  0.537050  0.646574  0.445778  1
  Al  Al9  1  0.555348  0.353012  0.778187  1
  Al  Al10  1  0.246475  0.354638  0.111526  1
  Al  Al11  1  0.890476  0.353426  0.445778  1
  Al  Al12  1  0.776191  0.646574  0.887555  1
  Al  Al13  1  0.420192  0.645362  0.221807  1
  Al  Al14  1  0.111318  0.646988  0.555147  1
  Al  Al15  1  0.764608  0.773488  0.738122  1
  Al  Al16  1  0.412010  0.775064  0.069871  1
  Al  Al17  1  0.103163  0.774320  0.405470  1
  Al  Al18  1  0.563503  0.225680  0.927864  1
  Al  Al19  1  0.254657  0.224936  0.263462  1
  Al  Al20  1  0.902059  0.226512  0.595211  1
  Al  Al21  1  0.337822  0.774320  0.927864  1
  Al  Al22  1  0.029721  0.775064  0.263462  1
  Al  Al23  1  0.675546  0.773488  0.595211  1
  Al  Al24  1  0.991121  0.226512  0.738122  1
  Al  Al25  1  0.636946  0.224936  0.069871  1
  Al  Al26  1  0.328844  0.225680  0.405470  1
  Al  Al27  1  0.002183  0.000000  0.500944  1
  Al  Al28  1  0.664484  0.000000  0.832389  1
  Al  Al29  1  0.833333  0.000000  0.166667  1
  Cr  Cr30  1  0.501546  0.000000  0.500167  1
  Cr  Cr31  1  0.165121  0.000000  0.833166  1
  Cr  Cr32  1  0.996855  0.488313  0.999595  1
  Cr  Cr33  1  0.669812  0.511687  0.333738  1
  Cr  Cr34  1  0.333333  0.500000  0.666667  1
  Cr  Cr35  1  0.508542  0.511687  0.999595  1
  Cr  Cr36  1  0.158125  0.488313  0.333738  1
  Cr  Cr37  1  0.833333  0.500000  0.666667  1
  Re  Re38  1  0.333333  0.000000  0.166667  1
