# generated using pymatgen
data_Th2Al18IrPd5
_symmetry_space_group_name_H-M   'P 1'
_cell_length_a   10.37327874
_cell_length_b   10.38014839
_cell_length_c   10.36577100
_cell_angle_alpha   42.57635409
_cell_angle_beta   42.56092506
_cell_angle_gamma   42.57237142
_symmetry_Int_Tables_number   1
_chemical_formula_structural   Th2Al18IrPd5
_chemical_formula_sum   'Th2 Al18 Ir1 Pd5'
_cell_volume   462.57632712
_cell_formula_units_Z   1
loop_
 _symmetry_equiv_pos_site_id
 _symmetry_equiv_pos_as_xyz
  1  'x, y, z'
loop_
 _atom_site_type_symbol
 _atom_site_label
 _atom_site_symmetry_multiplicity
 _atom_site_fract_x
 _atom_site_fract_y
 _atom_site_fract_z
 _atom_site_occupancy
  Th  Th0  1  0.167426  0.166878  0.167363  1
  Th  Th1  1  0.833575  0.833925  0.833565  1
  Al  Al2  1  0.049636  0.048362  0.048987  1
  Al  Al3  1  0.699620  0.500808  0.299023  1
  Al  Al4  1  0.665819  0.334564  0.998226  1
  Al  Al5  1  0.108940  0.432723  0.756775  1
  Al  Al6  1  0.432217  0.756916  0.108677  1
  Al  Al7  1  0.382073  0.383360  0.383872  1
  Al  Al8  1  0.334181  0.999903  0.665142  1
  Al  Al9  1  0.615673  0.611959  0.619847  1
  Al  Al10  1  0.245469  0.566233  0.892869  1
  Al  Al11  1  0.568754  0.894026  0.242753  1
  Al  Al12  1  0.500711  0.300965  0.700019  1
  Al  Al13  1  0.756605  0.108844  0.433021  1
  Al  Al14  1  0.947253  0.953859  0.950911  1
  Al  Al15  1  0.300890  0.700378  0.498821  1
  Al  Al16  1  0.000443  0.664554  0.333816  1
  Al  Al17  1  0.715393  0.715964  0.714701  1
  Al  Al18  1  0.287469  0.284050  0.281295  1
  Al  Al19  1  0.890776  0.243826  0.570031  1
  Ir  Ir20  1  0.580810  0.237851  0.924112  1
  Pd  Pd21  1  0.238395  0.923347  0.581383  1
  Pd  Pd22  1  0.923242  0.580827  0.238587  1
  Pd  Pd23  1  0.760495  0.418093  0.075908  1
  Pd  Pd24  1  0.075474  0.761410  0.418945  1
  Pd  Pd25  1  0.418664  0.076377  0.761348  1
