# generated using pymatgen
data_Tb5Tm5(SnSb2)2
_symmetry_space_group_name_H-M   'P 1'
_cell_length_a   6.35493600
_cell_length_b   8.92741732
_cell_length_c   8.96998835
_cell_angle_alpha   120.18420112
_cell_angle_beta   89.99970731
_cell_angle_gamma   90.00007966
_symmetry_Int_Tables_number   1
_chemical_formula_structural   Tb5Tm5(SnSb2)2
_chemical_formula_sum   'Tb5 Tm5 Sn2 Sb4'
_cell_volume   439.89641655
_cell_formula_units_Z   1
loop_
 _symmetry_equiv_pos_site_id
 _symmetry_equiv_pos_as_xyz
  1  'x, y, z'
loop_
 _atom_site_type_symbol
 _atom_site_label
 _atom_site_symmetry_multiplicity
 _atom_site_fract_x
 _atom_site_fract_y
 _atom_site_fract_z
 _atom_site_occupancy
  Tb  Tb0  1  0.749999  0.241855  0.996889  1
  Tb  Tb1  1  0.749999  0.758045  0.754728  1
  Tb  Tb2  1  0.750000  0.000255  0.244247  1
  Tb  Tb3  1  0.250000  0.757599  0.002816  1
  Tb  Tb4  1  0.249999  0.242468  0.245519  1
  Tm  Tm5  1  0.499964  0.332646  0.666286  1
  Tm  Tm6  1  0.500004  0.667347  0.333415  1
  Tm  Tm7  1  0.999997  0.667350  0.333416  1
  Tm  Tm8  1  0.000036  0.332646  0.666285  1
  Tm  Tm9  1  0.249998  0.999792  0.756191  1
  Sn  Sn10  1  0.749987  0.000437  0.604616  1
  Sn  Sn11  1  0.250016  0.999522  0.396720  1
  Sb  Sb12  1  0.750001  0.608103  0.999066  1
  Sb  Sb13  1  0.750001  0.391895  0.390891  1
  Sb  Sb14  1  0.250000  0.389611  0.999226  1
  Sb  Sb15  1  0.250001  0.610432  0.609686  1
