# generated using pymatgen
data_DyMg(TaS2)6
_symmetry_space_group_name_H-M   'P 1'
_cell_length_a   5.79919600
_cell_length_b   5.79919558
_cell_length_c   13.34406700
_cell_angle_alpha   90.00000000
_cell_angle_beta   90.00000000
_cell_angle_gamma   120.00001378
_symmetry_Int_Tables_number   1
_chemical_formula_structural   DyMg(TaS2)6
_chemical_formula_sum   'Dy1 Mg1 Ta6 S12'
_cell_volume   388.64611298
_cell_formula_units_Z   1
loop_
 _symmetry_equiv_pos_site_id
 _symmetry_equiv_pos_as_xyz
  1  'x, y, z'
loop_
 _atom_site_type_symbol
 _atom_site_label
 _atom_site_symmetry_multiplicity
 _atom_site_fract_x
 _atom_site_fract_y
 _atom_site_fract_z
 _atom_site_occupancy
  Dy  Dy0  1  0.000000  0.000000  0.000000  1
  Mg  Mg1  1  0.000000  0.000000  0.500000  1
  Ta  Ta2  1  0.333333  0.666667  0.259166  1
  Ta  Ta3  1  0.666667  0.333333  0.740834  1
  Ta  Ta4  1  0.666667  0.333333  0.259166  1
  Ta  Ta5  1  0.333333  0.666667  0.740834  1
  Ta  Ta6  1  0.000000  0.000000  0.257818  1
  Ta  Ta7  1  0.000000  0.000000  0.742182  1
  S  S8  1  0.337897  0.000000  0.140696  1
  S  S9  1  0.000000  0.337897  0.140696  1
  S  S10  1  0.662103  0.662103  0.140696  1
  S  S11  1  0.336776  0.336776  0.623844  1
  S  S12  1  0.663224  0.663224  0.376156  1
  S  S13  1  0.663224  0.000000  0.623844  1
  S  S14  1  0.000000  0.663224  0.623844  1
  S  S15  1  0.000000  0.662103  0.859304  1
  S  S16  1  0.337897  0.337897  0.859304  1
  S  S17  1  0.000000  0.336776  0.376156  1
  S  S18  1  0.336776  0.000000  0.376156  1
  S  S19  1  0.662103  0.000000  0.859304  1
