# generated using pymatgen
data_Hf2Ti3NbRh10
_symmetry_space_group_name_H-M   'P 1'
_cell_length_a   4.18120800
_cell_length_b   5.51774526
_cell_length_c   10.73073019
_cell_angle_alpha   90.60389557
_cell_angle_beta   90.00000000
_cell_angle_gamma   90.00000000
_symmetry_Int_Tables_number   1
_chemical_formula_structural   Hf2Ti3NbRh10
_chemical_formula_sum   'Hf2 Ti3 Nb1 Rh10'
_cell_volume   247.55321509
_cell_formula_units_Z   1
loop_
 _symmetry_equiv_pos_site_id
 _symmetry_equiv_pos_as_xyz
  1  'x, y, z'
loop_
 _atom_site_type_symbol
 _atom_site_label
 _atom_site_symmetry_multiplicity
 _atom_site_fract_x
 _atom_site_fract_y
 _atom_site_fract_z
 _atom_site_occupancy
  Hf  Hf0  1  0.500000  0.662076  0.854955  1
  Hf  Hf1  1  0.500000  0.838727  0.359809  1
  Ti  Ti2  1  0.000000  0.005393  0.999712  1
  Ti  Ti3  1  0.000000  0.497025  0.503779  1
  Ti  Ti4  1  0.500000  0.158907  0.645929  1
  Nb  Nb5  1  0.500000  0.338288  0.145164  1
  Rh  Rh6  1  0.000000  0.011158  0.505725  1
  Rh  Rh7  1  0.000000  0.497557  0.000269  1
  Rh  Rh8  1  0.000000  0.095535  0.237298  1
  Rh  Rh9  1  0.000000  0.905600  0.760225  1
  Rh  Rh10  1  0.000000  0.589289  0.257542  1
  Rh  Rh11  1  0.000000  0.395385  0.733581  1
  Rh  Rh12  1  0.500000  0.324025  0.393677  1
  Rh  Rh13  1  0.500000  0.687060  0.604222  1
  Rh  Rh14  1  0.500000  0.814628  0.104205  1
  Rh  Rh15  1  0.500000  0.179346  0.893906  1
