# generated using pymatgen
data_TbNd5RuBr10
_symmetry_space_group_name_H-M   'P 1'
_cell_length_a   7.60341821
_cell_length_b   9.50450577
_cell_length_c   9.51710363
_cell_angle_alpha   108.63177156
_cell_angle_beta   96.42151794
_cell_angle_gamma   105.93705407
_symmetry_Int_Tables_number   1
_chemical_formula_structural   TbNd5RuBr10
_chemical_formula_sum   'Tb1 Nd5 Ru1 Br10'
_cell_volume   611.45938326
_cell_formula_units_Z   1
loop_
 _symmetry_equiv_pos_site_id
 _symmetry_equiv_pos_as_xyz
  1  'x, y, z'
loop_
 _atom_site_type_symbol
 _atom_site_label
 _atom_site_symmetry_multiplicity
 _atom_site_fract_x
 _atom_site_fract_y
 _atom_site_fract_z
 _atom_site_occupancy
  Tb  Tb0  1  0.636063  0.862398  0.818200  1
  Nd  Nd1  1  0.123679  0.044123  0.753450  1
  Nd  Nd2  1  0.871202  0.952518  0.244868  1
  Nd  Nd3  1  0.970528  0.295430  0.092241  1
  Nd  Nd4  1  0.025439  0.702813  0.904919  1
  Nd  Nd5  1  0.371806  0.142597  0.187745  1
  Ru  Ru6  1  0.999373  0.999311  0.000335  1
  Br  Br7  1  0.549150  0.169585  0.914691  1
  Br  Br8  1  0.452507  0.824298  0.075931  1
  Br  Br9  1  0.355874  0.457341  0.272216  1
  Br  Br10  1  0.637706  0.552314  0.725931  1
  Br  Br11  1  0.249848  0.082206  0.454797  1
  Br  Br12  1  0.741358  0.913022  0.549312  1
  Br  Br13  1  0.798862  0.259667  0.353333  1
  Br  Br14  1  0.218131  0.744458  0.654367  1
  Br  Br15  1  0.087941  0.365984  0.826601  1
  Br  Br16  1  0.910533  0.631935  0.171064  1
