# generated using pymatgen
data_ZrMn2Ga5
_symmetry_space_group_name_H-M   'P 1'
_cell_length_a   8.37831338
_cell_length_b   8.37831359
_cell_length_c   8.37831388
_cell_angle_alpha   152.77779439
_cell_angle_beta   152.77778713
_cell_angle_gamma   38.87854654
_symmetry_Int_Tables_number   1
_chemical_formula_structural   ZrMn2Ga5
_chemical_formula_sum   'Zr1 Mn2 Ga5'
_cell_volume   122.85575172
_cell_formula_units_Z   1
loop_
 _symmetry_equiv_pos_site_id
 _symmetry_equiv_pos_as_xyz
  1  'x, y, z'
loop_
 _atom_site_type_symbol
 _atom_site_label
 _atom_site_symmetry_multiplicity
 _atom_site_fract_x
 _atom_site_fract_y
 _atom_site_fract_z
 _atom_site_occupancy
  Zr  Zr0  1  0.000000  0.000000  0.000000  1
  Mn  Mn1  1  0.243233  0.243233  0.000000  1
  Mn  Mn2  1  0.756767  0.756767  0.000000  1
  Ga  Ga3  1  0.500000  0.500000  0.000000  1
  Ga  Ga4  1  0.640888  0.140888  0.500000  1
  Ga  Ga5  1  0.859112  0.359112  0.500000  1
  Ga  Ga6  1  0.140888  0.640888  0.500000  1
  Ga  Ga7  1  0.359112  0.859112  0.500000  1
