# generated using pymatgen
data_Tb2Tm4TcTe2
_symmetry_space_group_name_H-M   'P 1'
_cell_length_a   8.21279500
_cell_length_b   8.13143425
_cell_length_c   4.07558400
_cell_angle_alpha   90.00000000
_cell_angle_beta   90.00000000
_cell_angle_gamma   119.67284043
_symmetry_Int_Tables_number   1
_chemical_formula_structural   Tb2Tm4TcTe2
_chemical_formula_sum   'Tb2 Tm4 Tc1 Te2'
_cell_volume   236.48354499
_cell_formula_units_Z   1
loop_
 _symmetry_equiv_pos_site_id
 _symmetry_equiv_pos_as_xyz
  1  'x, y, z'
loop_
 _atom_site_type_symbol
 _atom_site_label
 _atom_site_symmetry_multiplicity
 _atom_site_fract_x
 _atom_site_fract_y
 _atom_site_fract_z
 _atom_site_occupancy
  Tb  Tb0  1  0.608397  0.608219  0.500000  1
  Tb  Tb1  1  0.391603  0.999822  0.500000  1
  Tm  Tm2  1  0.000000  0.387450  0.500000  1
  Tm  Tm3  1  0.000000  0.763482  0.000000  1
  Tm  Tm4  1  0.237381  0.237655  0.000000  1
  Tm  Tm5  1  0.762619  0.000274  0.000000  1
  Tc  Tc6  1  0.000000  0.005120  0.500000  1
  Te  Te7  1  0.332782  0.665380  0.000000  1
  Te  Te8  1  0.667218  0.332597  0.000000  1
