# generated using pymatgen
data_Ta5Be5NbSiRu6
_symmetry_space_group_name_H-M   'P 1'
_cell_length_a   7.35684975
_cell_length_b   7.35528023
_cell_length_c   7.35663228
_cell_angle_alpha   126.15685396
_cell_angle_beta   129.42585144
_cell_angle_gamma   76.99659504
_symmetry_Int_Tables_number   1
_chemical_formula_structural   Ta5Be5NbSiRu6
_chemical_formula_sum   'Ta5 Be5 Nb1 Si1 Ru6'
_cell_volume   241.01675468
_cell_formula_units_Z   1
loop_
 _symmetry_equiv_pos_site_id
 _symmetry_equiv_pos_as_xyz
  1  'x, y, z'
loop_
 _atom_site_type_symbol
 _atom_site_label
 _atom_site_symmetry_multiplicity
 _atom_site_fract_x
 _atom_site_fract_y
 _atom_site_fract_z
 _atom_site_occupancy
  Ta  Ta0  1  0.556690  0.089078  0.042552  1
  Ta  Ta1  1  0.458993  0.506908  0.558684  1
  Ta  Ta2  1  0.948252  0.505466  0.046407  1
  Ta  Ta3  1  0.045756  0.089350  0.533190  1
  Ta  Ta4  1  0.739357  0.894999  0.643276  1
  Be  Be5  1  0.750131  0.497337  0.247043  1
  Be  Be6  1  0.250151  0.496698  0.747199  1
  Be  Be7  1  0.331878  0.829817  0.498840  1
  Be  Be8  1  0.665167  0.163686  0.495461  1
  Be  Be9  1  0.834743  0.830384  0.994631  1
  Nb  Nb10  1  0.250682  0.894874  0.156052  1
  Si  Si11  1  0.167680  0.162968  0.997740  1
  Ru  Ru12  1  0.500225  0.245673  0.746568  1
  Ru  Ru13  1  0.999090  0.247045  0.247219  1
  Ru  Ru14  1  0.125371  0.746762  0.621033  1
  Ru  Ru15  1  0.873480  0.495456  0.620778  1
  Ru  Ru16  1  0.626633  0.747328  0.121479  1
  Ru  Ru17  1  0.375722  0.498370  0.124050  1
