# generated using pymatgen
data_Er4Si8Tc5Rh
_symmetry_space_group_name_H-M   'P 1'
_cell_length_a   6.77560109
_cell_length_b   6.80911094
_cell_length_c   6.73505436
_cell_angle_alpha   69.83909218
_cell_angle_beta   90.02067074
_cell_angle_gamma   89.94767572
_symmetry_Int_Tables_number   1
_chemical_formula_structural   Er4Si8Tc5Rh
_chemical_formula_sum   'Er4 Si8 Tc5 Rh1'
_cell_volume   291.68829848
_cell_formula_units_Z   1
loop_
 _symmetry_equiv_pos_site_id
 _symmetry_equiv_pos_as_xyz
  1  'x, y, z'
loop_
 _atom_site_type_symbol
 _atom_site_label
 _atom_site_symmetry_multiplicity
 _atom_site_fract_x
 _atom_site_fract_y
 _atom_site_fract_z
 _atom_site_occupancy
  Er  Er0  1  0.667293  0.438482  0.194572  1
  Er  Er1  1  0.166815  0.064775  0.806648  1
  Er  Er2  1  0.324351  0.553331  0.811357  1
  Er  Er3  1  0.826200  0.943050  0.190957  1
  Si  Si4  1  0.437013  0.111954  0.106694  1
  Si  Si5  1  0.932769  0.390246  0.892000  1
  Si  Si6  1  0.547519  0.868129  0.893718  1
  Si  Si7  1  0.050127  0.629519  0.104478  1
  Si  Si8  1  0.865083  0.135276  0.504870  1
  Si  Si9  1  0.359662  0.367567  0.490823  1
  Si  Si10  1  0.147744  0.873876  0.475034  1
  Si  Si11  1  0.656804  0.625362  0.542015  1
  Tc  Tc12  1  0.499609  0.982803  0.498390  1
  Tc  Tc13  1  0.997776  0.514466  0.499807  1
  Tc  Tc14  1  0.150678  0.255502  0.242795  1
  Tc  Tc15  1  0.644830  0.240352  0.751175  1
  Tc  Tc16  1  0.862633  0.780739  0.773060  1
  Rh  Rh17  1  0.363093  0.724571  0.221606  1
