# generated using pymatgen
data_Ba8MnTc3O16
_symmetry_space_group_name_H-M   'P 1'
_cell_length_a   5.78330134
_cell_length_b   9.32639340
_cell_length_c   9.32645460
_cell_angle_alpha   87.79532040
_cell_angle_beta   71.98055036
_cell_angle_gamma   108.01963390
_symmetry_Int_Tables_number   1
_chemical_formula_structural   Ba8MnTc3O16
_chemical_formula_sum   'Ba8 Mn1 Tc3 O16'
_cell_volume   449.87270504
_cell_formula_units_Z   1
loop_
 _symmetry_equiv_pos_site_id
 _symmetry_equiv_pos_as_xyz
  1  'x, y, z'
loop_
 _atom_site_type_symbol
 _atom_site_label
 _atom_site_symmetry_multiplicity
 _atom_site_fract_x
 _atom_site_fract_y
 _atom_site_fract_z
 _atom_site_occupancy
  Ba  Ba0  1  0.251021  0.395370  0.893201  1
  Ba  Ba1  1  0.000154  0.641825  0.641448  1
  Ba  Ba2  1  0.749069  0.893096  0.395349  1
  Ba  Ba3  1  0.499827  0.148370  0.148688  1
  Ba  Ba4  1  0.000162  0.358543  0.358172  1
  Ba  Ba5  1  0.749061  0.604644  0.106880  1
  Ba  Ba6  1  0.499817  0.851289  0.851646  1
  Ba  Ba7  1  0.251036  0.106829  0.604592  1
  Mn  Mn8  1  0.500314  0.500357  0.499822  1
  Tc  Tc9  1  0.254678  0.754060  0.245945  1
  Tc  Tc10  1  0.000141  0.000095  0.999887  1
  Tc  Tc11  1  0.745376  0.245969  0.754005  1
  O  O12  1  0.254891  0.600054  0.093003  1
  O  O13  1  0.000030  0.844612  0.844720  1
  O  O14  1  0.745006  0.093114  0.600136  1
  O  O15  1  0.499825  0.353270  0.353416  1
  O  O16  1  0.000217  0.155430  0.155206  1
  O  O17  1  0.744813  0.399707  0.906996  1
  O  O18  1  0.500033  0.646740  0.646647  1
  O  O19  1  0.254700  0.906842  0.400090  1
  O  O20  1  0.872793  0.122623  0.877285  1
  O  O21  1  0.622332  0.368492  0.631565  1
  O  O22  1  0.377288  0.631481  0.368446  1
  O  O23  1  0.127374  0.877318  0.122753  1
  O  O24  1  0.372636  0.122626  0.877256  1
  O  O25  1  0.105257  0.367108  0.633001  1
  O  O26  1  0.894854  0.632797  0.367090  1
  O  O27  1  0.627294  0.877337  0.122754  1
