# generated using pymatgen
data_Ba14CdBi11
_symmetry_space_group_name_H-M   'P 1'
_cell_length_a   18.29122655
_cell_length_b   18.29122711
_cell_length_c   18.29122700
_cell_angle_alpha   117.53088405
_cell_angle_beta   117.53088497
_cell_angle_gamma   94.33263014
_symmetry_Int_Tables_number   1
_chemical_formula_structural   Ba14CdBi11
_chemical_formula_sum   'Ba56 Cd4 Bi44'
_cell_volume   4474.91995289
_cell_formula_units_Z   4
loop_
 _symmetry_equiv_pos_site_id
 _symmetry_equiv_pos_as_xyz
  1  'x, y, z'
loop_
 _atom_site_type_symbol
 _atom_site_label
 _atom_site_symmetry_multiplicity
 _atom_site_fract_x
 _atom_site_fract_y
 _atom_site_fract_z
 _atom_site_occupancy
  Ba  Ba0  1  0.499777  0.602931  0.851960  1
  Ba  Ba1  1  0.625000  0.228731  0.103731  1
  Ba  Ba2  1  0.160097  0.026525  0.780660  1
  Ba  Ba3  1  0.897292  0.376295  0.837144  1
  Ba  Ba4  1  0.125000  0.021269  0.396269  1
  Ba  Ba5  1  0.771269  0.875000  0.396269  1
  Ba  Ba6  1  0.129437  0.410097  0.633573  1
  Ba  Ba7  1  0.750970  0.647816  0.148039  1
  Ba  Ba8  1  0.710849  0.373705  0.020997  1
  Ba  Ba9  1  0.439850  0.960848  0.837142  1
  Ba  Ba10  1  0.310150  0.289152  0.662858  1
  Ba  Ba11  1  0.039151  0.876295  0.479003  1
  Ba  Ba12  1  0.499028  0.147069  0.396846  1
  Ba  Ba13  1  0.352931  0.000970  0.603154  1
  Ba  Ba14  1  0.125000  0.521269  0.896269  1
  Ba  Ba15  1  0.999030  0.602184  0.351961  1
  Ba  Ba16  1  0.939851  0.102708  0.479003  1
  Ba  Ba17  1  0.626295  0.647292  0.337143  1
  Ba  Ba18  1  0.897069  0.000222  0.148040  1
  Ba  Ba19  1  0.352708  0.689851  0.979003  1
  Ba  Ba20  1  0.123705  0.602708  0.162857  1
  Ba  Ba21  1  0.999778  0.147816  0.896846  1
  Ba  Ba22  1  0.660097  0.879437  0.133572  1
  Ba  Ba23  1  0.504136  0.870563  0.280660  1
  Ba  Ba24  1  0.852708  0.873705  0.662856  1
  Ba  Ba25  1  0.210848  0.189851  0.337143  1
  Ba  Ba26  1  0.004136  0.723475  0.633573  1
  Ba  Ba27  1  0.745864  0.526525  0.866427  1
  Ba  Ba28  1  0.250972  0.102931  0.103154  1
  Ba  Ba29  1  0.245864  0.379437  0.219340  1
  Ba  Ba30  1  0.352183  0.500222  0.103154  1
  Ba  Ba31  1  0.250223  0.647069  0.648040  1
  Ba  Ba32  1  0.750222  0.102184  0.603154  1
  Ba  Ba33  1  0.625000  0.728731  0.603731  1
  Ba  Ba34  1  0.897816  0.500970  0.648039  1
  Ba  Ba35  1  0.852184  0.749030  0.851961  1
  Ba  Ba36  1  0.620563  0.839903  0.866427  1
  Ba  Ba37  1  0.276525  0.910097  0.280660  1
  Ba  Ba38  1  0.852931  0.249778  0.351960  1
  Ba  Ba39  1  0.126294  0.789152  0.979002  1
  Ba  Ba40  1  0.776525  0.495864  0.366428  1
  Ba  Ba41  1  0.973475  0.754136  0.133572  1
  Ba  Ba42  1  0.120564  0.254136  0.780660  1
  Ba  Ba43  1  0.589903  0.223475  0.719340  1
  Ba  Ba44  1  0.623706  0.460848  0.520998  1
  Ba  Ba45  1  0.978731  0.375000  0.103731  1
  Ba  Ba46  1  0.539152  0.060149  0.162857  1
  Ba  Ba47  1  0.397069  0.249030  0.896846  1
  Ba  Ba48  1  0.397817  0.749778  0.396846  1
  Ba  Ba49  1  0.478730  0.375000  0.603730  1
  Ba  Ba50  1  0.089903  0.370563  0.366428  1
  Ba  Ba51  1  0.810149  0.147292  0.020997  1
  Ba  Ba52  1  0.271270  0.875000  0.896270  1
  Ba  Ba53  1  0.473475  0.339903  0.219340  1
  Ba  Ba54  1  0.397292  0.560149  0.520997  1
  Ba  Ba55  1  0.629436  0.995864  0.719340  1
  Cd  Cd56  1  0.250000  0.750000  0.500000  1
  Cd  Cd57  1  0.750000  0.250000  0.500000  1
  Cd  Cd58  1  0.000000  0.000000  0.000000  1
  Cd  Cd59  1  0.500000  0.500000  0.000000  1
  Bi  Bi60  1  0.867947  0.367947  0.235894  1
  Bi  Bi61  1  0.289967  0.698328  0.144371  1
  Bi  Bi62  1  0.882053  0.882053  0.264106  1
  Bi  Bi63  1  0.553957  0.145596  0.855630  1
  Bi  Bi64  1  0.948328  0.039967  0.644371  1
  Bi  Bi65  1  0.367946  0.132051  0.499997  1
  Bi  Bi66  1  0.460033  0.551672  0.355629  1
  Bi  Bi67  1  0.354404  0.946043  0.144370  1
  Bi  Bi68  1  0.057683  0.201151  0.134726  1
  Bi  Bi69  1  0.053957  0.198328  0.408361  1
  Bi  Bi70  1  0.500000  0.000000  0.500000  1
  Bi  Bi71  1  0.196043  0.104404  0.644370  1
  Bi  Bi72  1  0.798848  0.933575  0.856532  1
  Bi  Bi73  1  0.683575  0.327043  0.634726  1
  Bi  Bi74  1  0.451152  0.807684  0.634726  1
  Bi  Bi75  1  0.172957  0.816425  0.365274  1
  Bi  Bi76  1  0.566425  0.701151  0.143468  1
  Bi  Bi77  1  0.672957  0.307684  0.356532  1
  Bi  Bi78  1  0.077043  0.942316  0.143468  1
  Bi  Bi79  1  0.750000  0.750000  0.000000  1
  Bi  Bi80  1  0.557684  0.422957  0.856532  1
  Bi  Bi81  1  0.382054  0.117949  0.000003  1
  Bi  Bi82  1  0.066425  0.922957  0.865274  1
  Bi  Bi83  1  0.000000  0.500000  0.500000  1
  Bi  Bi84  1  0.298848  0.442316  0.865274  1
  Bi  Bi85  1  0.801672  0.210033  0.855629  1
  Bi  Bi86  1  0.250000  0.250000  0.000000  1
  Bi  Bi87  1  0.395596  0.303957  0.355630  1
  Bi  Bi88  1  0.301673  0.446043  0.591639  1
  Bi  Bi89  1  0.696043  0.051672  0.091639  1
  Bi  Bi90  1  0.789967  0.645596  0.591640  1
  Bi  Bi91  1  0.192316  0.827043  0.643468  1
  Bi  Bi92  1  0.960033  0.604404  0.908360  1
  Bi  Bi93  1  0.117947  0.382053  0.000000  1
  Bi  Bi94  1  0.951152  0.316425  0.643468  1
  Bi  Bi95  1  0.632053  0.867947  0.500000  1
  Bi  Bi96  1  0.692317  0.048849  0.365274  1
  Bi  Bi97  1  0.577043  0.433575  0.134726  1
  Bi  Bi98  1  0.854403  0.710033  0.408360  1
  Bi  Bi99  1  0.895597  0.539967  0.091640  1
  Bi  Bi100  1  0.448327  0.803957  0.908361  1
  Bi  Bi101  1  0.132054  0.632051  0.764105  1
  Bi  Bi102  1  0.617946  0.617949  0.735895  1
  Bi  Bi103  1  0.183575  0.548849  0.356532  1
