# generated using pymatgen
data_Li6HfTa5Ir12
_symmetry_space_group_name_H-M   'P 1'
_cell_length_a   4.38077000
_cell_length_b   6.15461100
_cell_length_c   13.10701800
_cell_angle_alpha   90.00000000
_cell_angle_beta   90.00120051
_cell_angle_gamma   90.00000000
_symmetry_Int_Tables_number   1
_chemical_formula_structural   Li6HfTa5Ir12
_chemical_formula_sum   'Li6 Hf1 Ta5 Ir12'
_cell_volume   353.39057034
_cell_formula_units_Z   1
loop_
 _symmetry_equiv_pos_site_id
 _symmetry_equiv_pos_as_xyz
  1  'x, y, z'
loop_
 _atom_site_type_symbol
 _atom_site_label
 _atom_site_symmetry_multiplicity
 _atom_site_fract_x
 _atom_site_fract_y
 _atom_site_fract_z
 _atom_site_occupancy
  Li  Li0  1  0.000000  0.500000  0.000000  1
  Li  Li1  1  0.499842  0.000000  0.166700  1
  Li  Li2  1  0.999847  0.500000  0.333805  1
  Li  Li3  1  0.499999  0.000000  0.500000  1
  Li  Li4  1  0.000154  0.500000  0.666195  1
  Li  Li5  1  0.500159  0.000000  0.833300  1
  Hf  Hf6  1  0.000000  0.000000  0.000000  1
  Ta  Ta7  1  0.499860  0.500000  0.166785  1
  Ta  Ta8  1  0.999859  0.000000  0.333505  1
  Ta  Ta9  1  0.499999  0.500000  0.500000  1
  Ta  Ta10  1  0.000140  0.000000  0.666495  1
  Ta  Ta11  1  0.500142  0.500000  0.833215  1
  Ir  Ir12  1  0.499999  0.255776  0.000000  1
  Ir  Ir13  1  0.499999  0.744223  0.000000  1
  Ir  Ir14  1  0.999855  0.253569  0.170088  1
  Ir  Ir15  1  0.999855  0.746430  0.170088  1
  Ir  Ir16  1  0.499859  0.248931  0.334134  1
  Ir  Ir17  1  0.499859  0.751070  0.334134  1
  Ir  Ir18  1  0.000000  0.251031  0.500000  1
  Ir  Ir19  1  0.000000  0.748969  0.500000  1
  Ir  Ir20  1  0.500142  0.248931  0.665866  1
  Ir  Ir21  1  0.500142  0.751070  0.665866  1
  Ir  Ir22  1  0.000144  0.253569  0.829912  1
  Ir  Ir23  1  0.000144  0.746430  0.829912  1
