# generated using pymatgen
data_Ca2Co12Si3P4
_symmetry_space_group_name_H-M   'P 1'
_cell_length_a   8.98508500
_cell_length_b   9.01251581
_cell_length_c   3.56491400
_cell_angle_alpha   90.00000000
_cell_angle_beta   90.00000000
_cell_angle_gamma   120.03358340
_symmetry_Int_Tables_number   1
_chemical_formula_structural   Ca2Co12Si3P4
_chemical_formula_sum   'Ca2 Co12 Si3 P4'
_cell_volume   249.91990671
_cell_formula_units_Z   1
loop_
 _symmetry_equiv_pos_site_id
 _symmetry_equiv_pos_as_xyz
  1  'x, y, z'
loop_
 _atom_site_type_symbol
 _atom_site_label
 _atom_site_symmetry_multiplicity
 _atom_site_fract_x
 _atom_site_fract_y
 _atom_site_fract_z
 _atom_site_occupancy
  Ca  Ca0  1  0.334379  0.667176  0.000000  1
  Ca  Ca1  1  0.668817  0.335550  0.500000  1
  Co  Co2  1  0.432132  0.050226  0.000000  1
  Co  Co3  1  0.947608  0.386471  0.000000  1
  Co  Co4  1  0.624811  0.566228  0.000000  1
  Co  Co5  1  0.383191  0.437777  0.500000  1
  Co  Co6  1  0.563085  0.943912  0.500000  1
  Co  Co7  1  0.051245  0.617696  0.500000  1
  Co  Co8  1  0.151485  0.281894  0.000000  1
  Co  Co9  1  0.722036  0.872285  0.000000  1
  Co  Co10  1  0.122263  0.843450  0.000000  1
  Co  Co11  1  0.227359  0.100063  0.500000  1
  Co  Co12  1  0.899282  0.130494  0.500000  1
  Co  Co13  1  0.869578  0.764763  0.500000  1
  Si  Si14  1  0.001584  0.002598  0.000000  1
  Si  Si15  1  0.399757  0.285838  0.000000  1
  Si  Si16  1  0.713968  0.113796  0.000000  1
  P  P17  1  0.109782  0.402640  0.500000  1
  P  P18  1  0.598924  0.707816  0.500000  1
  P  P19  1  0.291481  0.890873  0.500000  1
  P  P20  1  0.887230  0.598457  0.000000  1
