# generated using pymatgen
data_Ce2CoSnPd
_symmetry_space_group_name_H-M   'P 1'
_cell_length_a   7.61265612
_cell_length_b   7.61265612
_cell_length_c   3.69078500
_cell_angle_alpha   90.00000000
_cell_angle_beta   90.00000000
_cell_angle_gamma   91.37636803
_symmetry_Int_Tables_number   1
_chemical_formula_structural   Ce2CoSnPd
_chemical_formula_sum   'Ce4 Co2 Sn2 Pd2'
_cell_volume   213.82862886
_cell_formula_units_Z   2
loop_
 _symmetry_equiv_pos_site_id
 _symmetry_equiv_pos_as_xyz
  1  'x, y, z'
loop_
 _atom_site_type_symbol
 _atom_site_label
 _atom_site_symmetry_multiplicity
 _atom_site_fract_x
 _atom_site_fract_y
 _atom_site_fract_z
 _atom_site_occupancy
  Ce  Ce0  1  0.690193  0.190193  0.500000  1
  Ce  Ce1  1  0.309807  0.809807  0.500000  1
  Ce  Ce2  1  0.162570  0.337430  0.500000  1
  Ce  Ce3  1  0.837430  0.662570  0.500000  1
  Co  Co4  1  0.130387  0.630387  0.000000  1
  Co  Co5  1  0.869613  0.369613  0.000000  1
  Sn  Sn6  1  0.000000  0.000000  0.000000  1
  Sn  Sn7  1  0.500000  0.500000  0.000000  1
  Pd  Pd8  1  0.629067  0.870933  0.000000  1
  Pd  Pd9  1  0.370933  0.129067  0.000000  1
