# generated using pymatgen
data_Lu5P12Ir9Ru10
_symmetry_space_group_name_H-M   'P 1'
_cell_length_a   12.57162160
_cell_length_b   12.53201970
_cell_length_c   3.94197200
_cell_angle_alpha   90.00000000
_cell_angle_beta   90.00000000
_cell_angle_gamma   119.78620974
_symmetry_Int_Tables_number   1
_chemical_formula_structural   Lu5P12Ir9Ru10
_chemical_formula_sum   'Lu5 P12 Ir9 Ru10'
_cell_volume   538.99918443
_cell_formula_units_Z   1
loop_
 _symmetry_equiv_pos_site_id
 _symmetry_equiv_pos_as_xyz
  1  'x, y, z'
loop_
 _atom_site_type_symbol
 _atom_site_label
 _atom_site_symmetry_multiplicity
 _atom_site_fract_x
 _atom_site_fract_y
 _atom_site_fract_z
 _atom_site_occupancy
  Lu  Lu0  1  0.667574  0.332386  0.000000  1
  Lu  Lu1  1  0.333365  0.666642  0.000000  1
  Lu  Lu2  1  0.812851  0.000873  0.500000  1
  Lu  Lu3  1  0.185020  0.187212  0.500000  1
  Lu  Lu4  1  0.000279  0.814190  0.500000  1
  P  P5  1  0.632549  0.997651  0.000000  1
  P  P6  1  0.364163  0.370085  0.000000  1
  P  P7  1  0.006113  0.635898  0.000000  1
  P  P8  1  0.689345  0.518820  0.500000  1
  P  P9  1  0.829499  0.306912  0.500000  1
  P  P10  1  0.313436  0.829713  0.500000  1
  P  P11  1  0.516249  0.686269  0.500000  1
  P  P12  1  0.180320  0.001686  0.000000  1
  P  P13  1  0.819595  0.819783  0.000000  1
  P  P14  1  0.996269  0.180553  0.000000  1
  P  P15  1  0.480543  0.168107  0.500000  1
  P  P16  1  0.170565  0.484173  0.500000  1
  Ir  Ir17  1  0.624855  0.805191  0.000000  1
  Ir  Ir18  1  0.181006  0.375625  0.000000  1
  Ir  Ir19  1  0.373367  0.185024  0.000000  1
  Ir  Ir20  1  0.194522  0.820731  0.000000  1
  Ir  Ir21  1  0.811675  0.626456  0.000000  1
  Ir  Ir22  1  0.867062  0.504042  0.500000  1
  Ir  Ir23  1  0.494956  0.360872  0.500000  1
  Ir  Ir24  1  0.637116  0.129612  0.500000  1
  Ir  Ir25  1  0.999393  0.000189  0.000000  1
  Ru  Ru26  1  0.128591  0.640535  0.500000  1
  Ru  Ru27  1  0.360992  0.488873  0.500000  1
  Ru  Ru28  1  0.509605  0.869492  0.500000  1
  Ru  Ru29  1  0.715867  0.714060  0.500000  1
  Ru  Ru30  1  0.000852  0.285309  0.500000  1
  Ru  Ru31  1  0.450923  0.001603  0.000000  1
  Ru  Ru32  1  0.551483  0.546969  0.000000  1
  Ru  Ru33  1  0.998600  0.450055  0.000000  1
  Ru  Ru34  1  0.815988  0.192409  0.000000  1
  Ru  Ru35  1  0.285409  0.002002  0.500000  1
