# generated using pymatgen
data_Dy12Ga3Tc2
_symmetry_space_group_name_H-M   'P 1'
_cell_length_a   8.37800505
_cell_length_b   8.37800536
_cell_length_c   8.37800528
_cell_angle_alpha   110.34971755
_cell_angle_beta   110.34972129
_cell_angle_gamma   107.72815774
_symmetry_Int_Tables_number   1
_chemical_formula_structural   Dy12Ga3Tc2
_chemical_formula_sum   'Dy12 Ga3 Tc2'
_cell_volume   452.37600828
_cell_formula_units_Z   1
loop_
 _symmetry_equiv_pos_site_id
 _symmetry_equiv_pos_as_xyz
  1  'x, y, z'
loop_
 _atom_site_type_symbol
 _atom_site_label
 _atom_site_symmetry_multiplicity
 _atom_site_fract_x
 _atom_site_fract_y
 _atom_site_fract_z
 _atom_site_occupancy
  Dy  Dy0  1  0.443368  0.188580  0.254789  1
  Dy  Dy1  1  0.556632  0.811420  0.745211  1
  Dy  Dy2  1  0.933790  0.188580  0.745211  1
  Dy  Dy3  1  0.188580  0.933790  0.745211  1
  Dy  Dy4  1  0.066210  0.811420  0.254789  1
  Dy  Dy5  1  0.811420  0.066210  0.254789  1
  Dy  Dy6  1  0.188580  0.443368  0.254789  1
  Dy  Dy7  1  0.811420  0.556632  0.745211  1
  Dy  Dy8  1  0.318884  0.318884  0.637767  1
  Dy  Dy9  1  0.681116  0.681116  0.362233  1
  Dy  Dy10  1  0.318884  0.681116  0.000000  1
  Dy  Dy11  1  0.681116  0.318884  0.000000  1
  Ga  Ga12  1  0.500000  0.000000  0.500000  1
  Ga  Ga13  1  0.000000  0.500000  0.500000  1
  Ga  Ga14  1  0.000000  0.000000  0.000000  1
  Tc  Tc15  1  0.335944  0.335944  0.000000  1
  Tc  Tc16  1  0.664056  0.664056  0.000000  1
