# generated using pymatgen
data_PrY3(Ir2O7)2
_symmetry_space_group_name_H-M   'P 1'
_cell_length_a   7.33307204
_cell_length_b   7.28185696
_cell_length_c   7.28185700
_cell_angle_alpha   59.99999525
_cell_angle_beta   60.23076059
_cell_angle_gamma   60.23076097
_symmetry_Int_Tables_number   1
_chemical_formula_structural   PrY3(Ir2O7)2
_chemical_formula_sum   'Pr1 Y3 Ir4 O14'
_cell_volume   275.90606721
_cell_formula_units_Z   1
loop_
 _symmetry_equiv_pos_site_id
 _symmetry_equiv_pos_as_xyz
  1  'x, y, z'
loop_
 _atom_site_type_symbol
 _atom_site_label
 _atom_site_symmetry_multiplicity
 _atom_site_fract_x
 _atom_site_fract_y
 _atom_site_fract_z
 _atom_site_occupancy
  Pr  Pr0  1  0.625000  0.125000  0.125000  1
  Y  Y1  1  0.125000  0.625000  0.125000  1
  Y  Y2  1  0.125000  0.125000  0.625000  1
  Y  Y3  1  0.125000  0.125000  0.125000  1
  Ir  Ir4  1  0.125000  0.625000  0.625000  1
  Ir  Ir5  1  0.625000  0.125000  0.625000  1
  Ir  Ir6  1  0.625000  0.625000  0.125000  1
  Ir  Ir7  1  0.625000  0.625000  0.625000  1
  O  O8  1  0.718674  0.702065  0.289630  1
  O  O9  1  0.288796  0.289736  0.710734  1
  O  O10  1  0.718674  0.289630  0.702065  1
  O  O11  1  0.288796  0.710734  0.289736  1
  O  O12  1  0.288796  0.710734  0.710734  1
  O  O13  1  0.718674  0.289630  0.289630  1
  O  O14  1  0.531326  0.547935  0.960370  1
  O  O15  1  0.961204  0.960264  0.539266  1
  O  O16  1  0.531326  0.960370  0.547935  1
  O  O17  1  0.961204  0.539266  0.960264  1
  O  O18  1  0.961204  0.539266  0.539266  1
  O  O19  1  0.531326  0.960370  0.960370  1
  O  O20  1  0.238467  0.253844  0.253844  1
  O  O21  1  0.011533  0.996156  0.996156  1
