# generated using pymatgen
data_Dy4AlTc6Os
_symmetry_space_group_name_H-M   'P 1'
_cell_length_a   5.29183700
_cell_length_b   5.29183701
_cell_length_c   9.14002400
_cell_angle_alpha   90.00000000
_cell_angle_beta   90.00000000
_cell_angle_gamma   120.00000618
_symmetry_Int_Tables_number   1
_chemical_formula_structural   Dy4AlTc6Os
_chemical_formula_sum   'Dy4 Al1 Tc6 Os1'
_cell_volume   221.66180164
_cell_formula_units_Z   1
loop_
 _symmetry_equiv_pos_site_id
 _symmetry_equiv_pos_as_xyz
  1  'x, y, z'
loop_
 _atom_site_type_symbol
 _atom_site_label
 _atom_site_symmetry_multiplicity
 _atom_site_fract_x
 _atom_site_fract_y
 _atom_site_fract_z
 _atom_site_occupancy
  Dy  Dy0  1  0.333333  0.666667  0.430897  1
  Dy  Dy1  1  0.666667  0.333333  0.569103  1
  Dy  Dy2  1  0.666667  0.333333  0.936031  1
  Dy  Dy3  1  0.333333  0.666667  0.063969  1
  Al  Al4  1  0.000000  0.000000  0.500000  1
  Tc  Tc5  1  0.829825  0.170175  0.251014  1
  Tc  Tc6  1  0.829825  0.659650  0.251014  1
  Tc  Tc7  1  0.340350  0.170175  0.251014  1
  Tc  Tc8  1  0.170175  0.829825  0.748986  1
  Tc  Tc9  1  0.170175  0.340350  0.748986  1
  Tc  Tc10  1  0.659650  0.829825  0.748986  1
  Os  Os11  1  0.000000  0.000000  0.000000  1
