# generated using pymatgen
data_Na3(ZrSe2)4
_symmetry_space_group_name_H-M   'P 1'
_cell_length_a   7.61792378
_cell_length_b   7.61792261
_cell_length_c   9.89199292
_cell_angle_alpha   54.91349838
_cell_angle_beta   54.91349378
_cell_angle_gamma   59.98583452
_symmetry_Int_Tables_number   1
_chemical_formula_structural   Na3(ZrSe2)4
_chemical_formula_sum   'Na3 Zr4 Se8'
_cell_volume   371.81955474
_cell_formula_units_Z   1
loop_
 _symmetry_equiv_pos_site_id
 _symmetry_equiv_pos_as_xyz
  1  'x, y, z'
loop_
 _atom_site_type_symbol
 _atom_site_label
 _atom_site_symmetry_multiplicity
 _atom_site_fract_x
 _atom_site_fract_y
 _atom_site_fract_z
 _atom_site_occupancy
  Na  Na0  1  0.000000  0.500000  0.500000  1
  Na  Na1  1  0.500000  0.000000  0.500000  1
  Na  Na2  1  0.500000  0.500000  0.500000  1
  Zr  Zr3  1  0.757064  0.242936  0.000000  1
  Zr  Zr4  1  0.242936  0.757064  0.000000  1
  Zr  Zr5  1  0.247082  0.247082  0.002399  1
  Zr  Zr6  1  0.752918  0.752918  0.997601  1
  Se  Se7  1  0.973787  0.472310  0.221066  1
  Se  Se8  1  0.472310  0.973787  0.221066  1
  Se  Se9  1  0.473881  0.473881  0.219309  1
  Se  Se10  1  0.971819  0.971819  0.226807  1
  Se  Se11  1  0.028181  0.028181  0.773193  1
  Se  Se12  1  0.526119  0.526119  0.780691  1
  Se  Se13  1  0.527690  0.026213  0.778934  1
  Se  Se14  1  0.026213  0.527690  0.778934  1
