# generated using pymatgen
data_Er3B6Ir7Os
_symmetry_space_group_name_H-M   'P 1'
_cell_length_a   9.96490244
_cell_length_b   9.15989479
_cell_length_c   5.53716800
_cell_angle_alpha   81.34528715
_cell_angle_beta   65.33299790
_cell_angle_gamma   33.32172633
_symmetry_Int_Tables_number   1
_chemical_formula_structural   Er3B6Ir7Os
_chemical_formula_sum   'Er3 B6 Ir7 Os1'
_cell_volume   231.56131092
_cell_formula_units_Z   1
loop_
 _symmetry_equiv_pos_site_id
 _symmetry_equiv_pos_as_xyz
  1  'x, y, z'
loop_
 _atom_site_type_symbol
 _atom_site_label
 _atom_site_symmetry_multiplicity
 _atom_site_fract_x
 _atom_site_fract_y
 _atom_site_fract_z
 _atom_site_occupancy
  Er  Er0  1  0.000000  0.000000  0.000000  1
  Er  Er1  1  0.178595  0.178595  0.821405  1
  Er  Er2  1  0.821405  0.821405  0.178595  1
  B  B3  1  0.819640  0.532131  0.480123  1
  B  B4  1  0.168106  0.480123  0.532131  1
  B  B5  1  0.480123  0.168106  0.819640  1
  B  B6  1  0.670668  0.329332  0.670668  1
  B  B7  1  0.532131  0.819640  0.168106  1
  B  B8  1  0.329332  0.670668  0.329332  1
  Ir  Ir9  1  0.414717  0.414717  0.585283  1
  Ir  Ir10  1  0.585792  0.585792  0.914208  1
  Ir  Ir11  1  0.086087  0.086087  0.413913  1
  Ir  Ir12  1  0.914208  0.914208  0.585792  1
  Ir  Ir13  1  0.585283  0.585283  0.414717  1
  Ir  Ir14  1  0.250000  0.250000  0.250000  1
  Ir  Ir15  1  0.413913  0.413913  0.086087  1
  Os  Os16  1  0.750000  0.750000  0.750000  1
