# generated using pymatgen
data_Dy3Tm(Mn2Br)2
_symmetry_space_group_name_H-M   'P 1'
_cell_length_a   3.81439200
_cell_length_b   3.81439254
_cell_length_c   16.98432700
_cell_angle_alpha   90.00000000
_cell_angle_beta   90.00000000
_cell_angle_gamma   119.99999528
_symmetry_Int_Tables_number   1
_chemical_formula_structural   Dy3Tm(Mn2Br)2
_chemical_formula_sum   'Dy3 Tm1 Mn4 Br2'
_cell_volume   214.00784940
_cell_formula_units_Z   1
loop_
 _symmetry_equiv_pos_site_id
 _symmetry_equiv_pos_as_xyz
  1  'x, y, z'
loop_
 _atom_site_type_symbol
 _atom_site_label
 _atom_site_symmetry_multiplicity
 _atom_site_fract_x
 _atom_site_fract_y
 _atom_site_fract_z
 _atom_site_occupancy
  Dy  Dy0  1  0.000000  0.000000  0.114414  1
  Dy  Dy1  1  0.000000  0.000000  0.384936  1
  Dy  Dy2  1  0.000000  0.000000  0.615424  1
  Tm  Tm3  1  0.000000  0.000000  0.886719  1
  Mn  Mn4  1  0.333334  0.666667  0.009137  1
  Mn  Mn5  1  0.333334  0.666667  0.489449  1
  Mn  Mn6  1  0.666667  0.333334  0.510542  1
  Mn  Mn7  1  0.666667  0.333334  0.988592  1
  Br  Br8  1  0.666667  0.333334  0.249870  1
  Br  Br9  1  0.333334  0.666667  0.750915  1
