# generated using pymatgen
data_Tb5Nb3Co16Si5P7
_symmetry_space_group_name_H-M   'P 1'
_cell_length_a   12.32747565
_cell_length_b   12.32162439
_cell_length_c   3.74580700
_cell_angle_alpha   90.00000000
_cell_angle_beta   90.00000000
_cell_angle_gamma   120.16641399
_symmetry_Int_Tables_number   1
_chemical_formula_structural   Tb5Nb3Co16Si5P7
_chemical_formula_sum   'Tb5 Nb3 Co16 Si5 P7'
_cell_volume   491.91202015
_cell_formula_units_Z   1
loop_
 _symmetry_equiv_pos_site_id
 _symmetry_equiv_pos_as_xyz
  1  'x, y, z'
loop_
 _atom_site_type_symbol
 _atom_site_label
 _atom_site_symmetry_multiplicity
 _atom_site_fract_x
 _atom_site_fract_y
 _atom_site_fract_z
 _atom_site_occupancy
  Tb  Tb0  1  0.816164  0.998904  0.500000  1
  Tb  Tb1  1  0.000163  0.814806  0.500000  1
  Tb  Tb2  1  0.183596  0.184198  0.500000  1
  Tb  Tb3  1  0.333362  0.666943  0.000000  1
  Tb  Tb4  1  0.669281  0.333140  0.000000  1
  Nb  Nb5  1  0.440508  0.001250  0.000000  1
  Nb  Nb6  1  0.998199  0.438541  0.000000  1
  Nb  Nb7  1  0.560415  0.560436  0.000000  1
  Co  Co8  1  0.276357  0.000073  0.500000  1
  Co  Co9  1  0.996497  0.276199  0.500000  1
  Co  Co10  1  0.723988  0.723062  0.500000  1
  Co  Co11  1  0.629872  0.807909  0.000000  1
  Co  Co12  1  0.192690  0.821659  0.000000  1
  Co  Co13  1  0.176805  0.370365  0.000000  1
  Co  Co14  1  0.370646  0.179105  0.000000  1
  Co  Co15  1  0.807725  0.627347  0.000000  1
  Co  Co16  1  0.821529  0.194443  0.000000  1
  Co  Co17  1  0.525023  0.881580  0.500000  1
  Co  Co18  1  0.119637  0.643295  0.500000  1
  Co  Co19  1  0.355621  0.476937  0.500000  1
  Co  Co20  1  0.476128  0.356599  0.500000  1
  Co  Co21  1  0.877107  0.518146  0.500000  1
  Co  Co22  1  0.647551  0.125700  0.500000  1
  Co  Co23  1  0.000159  0.000003  0.000000  1
  Si  Si24  1  0.522869  0.691988  0.500000  1
  Si  Si25  1  0.308737  0.831679  0.500000  1
  Si  Si26  1  0.168749  0.477755  0.500000  1
  Si  Si27  1  0.477092  0.169932  0.500000  1
  Si  Si28  1  0.690576  0.521556  0.500000  1
  P  P29  1  0.180546  0.999952  0.000000  1
  P  P30  1  0.999563  0.179476  0.000000  1
  P  P31  1  0.820216  0.818713  0.000000  1
  P  P32  1  0.831680  0.308679  0.500000  1
  P  P33  1  0.642473  0.999958  0.000000  1
  P  P34  1  0.000681  0.641246  0.000000  1
  P  P35  1  0.357794  0.358428  0.000000  1
