# generated using pymatgen
data_Tb17Mg2SnIr12
_symmetry_space_group_name_H-M   'P 1'
_cell_length_a   10.83293000
_cell_length_b   10.83293000
_cell_length_c   6.28513500
_cell_angle_alpha   90.00000000
_cell_angle_beta   90.00000000
_cell_angle_gamma   90.00000000
_symmetry_Int_Tables_number   1
_chemical_formula_structural   Tb17Mg2SnIr12
_chemical_formula_sum   'Tb17 Mg2 Sn1 Ir12'
_cell_volume   737.57550301
_cell_formula_units_Z   1
loop_
 _symmetry_equiv_pos_site_id
 _symmetry_equiv_pos_as_xyz
  1  'x, y, z'
loop_
 _atom_site_type_symbol
 _atom_site_label
 _atom_site_symmetry_multiplicity
 _atom_site_fract_x
 _atom_site_fract_y
 _atom_site_fract_z
 _atom_site_occupancy
  Tb  Tb0  1  0.283464  0.087108  0.383336  1
  Tb  Tb1  1  0.283540  0.914259  0.879703  1
  Tb  Tb2  1  0.716460  0.085741  0.879703  1
  Tb  Tb3  1  0.716536  0.912892  0.383336  1
  Tb  Tb4  1  0.587296  0.785591  0.878285  1
  Tb  Tb5  1  0.590625  0.207072  0.379670  1
  Tb  Tb6  1  0.409375  0.792928  0.379670  1
  Tb  Tb7  1  0.412704  0.214409  0.878285  1
  Tb  Tb8  1  0.207072  0.409375  0.620330  1
  Tb  Tb9  1  0.214409  0.587296  0.121715  1
  Tb  Tb10  1  0.785591  0.412704  0.121715  1
  Tb  Tb11  1  0.792928  0.590625  0.620330  1
  Tb  Tb12  1  0.914259  0.716460  0.120297  1
  Tb  Tb13  1  0.912892  0.283464  0.616664  1
  Tb  Tb14  1  0.087108  0.716536  0.616664  1
  Tb  Tb15  1  0.085741  0.283540  0.120297  1
  Tb  Tb16  1  0.500000  0.500000  0.500000  1
  Mg  Mg17  1  0.000000  0.000000  0.500000  1
  Mg  Mg18  1  0.000000  0.000000  0.000000  1
  Sn  Sn19  1  0.500000  0.500000  0.000000  1
  Ir  Ir20  1  0.848305  0.152506  0.247109  1
  Ir  Ir21  1  0.847494  0.848305  0.752891  1
  Ir  Ir22  1  0.152506  0.151695  0.752891  1
  Ir  Ir23  1  0.151695  0.847494  0.247109  1
  Ir  Ir24  1  0.655648  0.345994  0.748514  1
  Ir  Ir25  1  0.654006  0.655648  0.251486  1
  Ir  Ir26  1  0.345994  0.344352  0.251486  1
  Ir  Ir27  1  0.344352  0.654006  0.748514  1
  Ir  Ir28  1  0.500000  0.000000  0.118594  1
  Ir  Ir29  1  0.500000  0.000000  0.624598  1
  Ir  Ir30  1  0.000000  0.500000  0.881406  1
  Ir  Ir31  1  0.000000  0.500000  0.375402  1
