# generated using pymatgen
data_Sm8P(PdPt5)4
_symmetry_space_group_name_H-M   'P 1'
_cell_length_a   8.44019400
_cell_length_b   8.44019400
_cell_length_c   8.48453600
_cell_angle_alpha   90.00000000
_cell_angle_beta   90.00000000
_cell_angle_gamma   90.00000000
_symmetry_Int_Tables_number   1
_chemical_formula_structural   Sm8P(PdPt5)4
_chemical_formula_sum   'Sm8 P1 Pd4 Pt20'
_cell_volume   604.41182841
_cell_formula_units_Z   1
loop_
 _symmetry_equiv_pos_site_id
 _symmetry_equiv_pos_as_xyz
  1  'x, y, z'
loop_
 _atom_site_type_symbol
 _atom_site_label
 _atom_site_symmetry_multiplicity
 _atom_site_fract_x
 _atom_site_fract_y
 _atom_site_fract_z
 _atom_site_occupancy
  Sm  Sm0  1  0.254646  0.254646  0.255213  1
  Sm  Sm1  1  0.745354  0.745354  0.744787  1
  Sm  Sm2  1  0.745354  0.745354  0.255213  1
  Sm  Sm3  1  0.745354  0.254646  0.744787  1
  Sm  Sm4  1  0.254646  0.254646  0.744787  1
  Sm  Sm5  1  0.254646  0.745354  0.255213  1
  Sm  Sm6  1  0.254646  0.745354  0.744787  1
  Sm  Sm7  1  0.745354  0.254646  0.255213  1
  P  P8  1  0.000000  0.000000  0.000000  1
  Pd  Pd9  1  0.500000  0.500000  0.251339  1
  Pd  Pd10  1  0.500000  0.500000  0.748661  1
  Pd  Pd11  1  0.000000  0.000000  0.275250  1
  Pd  Pd12  1  0.000000  0.000000  0.724750  1
  Pt  Pt13  1  0.254964  0.500000  0.000000  1
  Pt  Pt14  1  0.745036  0.500000  0.000000  1
  Pt  Pt15  1  0.000000  0.255231  0.500000  1
  Pt  Pt16  1  0.500000  0.254964  0.000000  1
  Pt  Pt17  1  0.000000  0.744769  0.500000  1
  Pt  Pt18  1  0.500000  0.745036  0.000000  1
  Pt  Pt19  1  0.500000  0.000000  0.254929  1
  Pt  Pt20  1  0.255231  0.000000  0.500000  1
  Pt  Pt21  1  0.500000  0.000000  0.745071  1
  Pt  Pt22  1  0.744769  0.000000  0.500000  1
  Pt  Pt23  1  0.000000  0.500000  0.254929  1
  Pt  Pt24  1  0.000000  0.500000  0.745071  1
  Pt  Pt25  1  0.250331  0.500000  0.500000  1
  Pt  Pt26  1  0.749669  0.500000  0.500000  1
  Pt  Pt27  1  0.500000  0.250331  0.500000  1
  Pt  Pt28  1  0.500000  0.749669  0.500000  1
  Pt  Pt29  1  0.274537  0.000000  0.000000  1
  Pt  Pt30  1  0.725463  0.000000  0.000000  1
  Pt  Pt31  1  0.000000  0.274537  0.000000  1
  Pt  Pt32  1  0.000000  0.725463  0.000000  1
