# generated using pymatgen
data_Ho3Er5B24Ir3Ru
_symmetry_space_group_name_H-M   'P 1'
_cell_length_a   3.63103600
_cell_length_b   9.16106290
_cell_length_c   11.47817600
_cell_angle_alpha   90.02539114
_cell_angle_beta   90.00000000
_cell_angle_gamma   90.00000000
_symmetry_Int_Tables_number   1
_chemical_formula_structural   Ho3Er5B24Ir3Ru
_chemical_formula_sum   'Ho3 Er5 B24 Ir3 Ru1'
_cell_volume   381.81172142
_cell_formula_units_Z   1
loop_
 _symmetry_equiv_pos_site_id
 _symmetry_equiv_pos_as_xyz
  1  'x, y, z'
loop_
 _atom_site_type_symbol
 _atom_site_label
 _atom_site_symmetry_multiplicity
 _atom_site_fract_x
 _atom_site_fract_y
 _atom_site_fract_z
 _atom_site_occupancy
  Ho  Ho0  1  0.000000  0.320807  0.413248  1
  Ho  Ho1  1  0.000000  0.680311  0.588065  1
  Ho  Ho2  1  0.000000  0.821091  0.085066  1
  Er  Er3  1  0.000000  0.177265  0.912887  1
  Er  Er4  1  0.000000  0.944366  0.373983  1
  Er  Er5  1  0.000000  0.054120  0.627027  1
  Er  Er6  1  0.000000  0.444336  0.125745  1
  Er  Er7  1  0.000000  0.557352  0.874137  1
  B  B8  1  0.500000  0.553768  0.434551  1
  B  B9  1  0.500000  0.446308  0.565704  1
  B  B10  1  0.500000  0.053509  0.065546  1
  B  B11  1  0.500000  0.945958  0.933532  1
  B  B12  1  0.500000  0.750030  0.420989  1
  B  B13  1  0.500000  0.250080  0.579211  1
  B  B14  1  0.500000  0.249527  0.078890  1
  B  B15  1  0.500000  0.751618  0.919945  1
  B  B16  1  0.500000  0.793466  0.265045  1
  B  B17  1  0.500000  0.206562  0.734536  1
  B  B18  1  0.500000  0.293831  0.234885  1
  B  B19  1  0.500000  0.707562  0.765939  1
  B  B20  1  0.500000  0.632083  0.183971  1
  B  B21  1  0.500000  0.367767  0.816069  1
  B  B22  1  0.500000  0.132525  0.315921  1
  B  B23  1  0.500000  0.868063  0.685235  1
  B  B24  1  0.500000  0.981906  0.213326  1
  B  B25  1  0.500000  0.016751  0.786525  1
  B  B26  1  0.500000  0.482037  0.286330  1
  B  B27  1  0.500000  0.517889  0.714045  1
  B  B28  1  0.500000  0.609855  0.030435  1
  B  B29  1  0.500000  0.389348  0.969799  1
  B  B30  1  0.500000  0.109917  0.469802  1
  B  B31  1  0.500000  0.890126  0.529837  1
  Ir  Ir32  1  0.000000  0.638475  0.321717  1
  Ir  Ir33  1  0.000000  0.361668  0.678838  1
  Ir  Ir34  1  0.000000  0.138028  0.178055  1
  Ru  Ru35  1  0.000000  0.861692  0.821165  1
