# generated using pymatgen
data_ZnNi(S2O7)2
_symmetry_space_group_name_H-M   'P 1'
_cell_length_a   4.94007110
_cell_length_b   7.03587958
_cell_length_c   8.34501450
_cell_angle_alpha   92.82268387
_cell_angle_beta   93.99746528
_cell_angle_gamma   105.83633056
_symmetry_Int_Tables_number   1
_chemical_formula_structural   ZnNi(S2O7)2
_chemical_formula_sum   'Zn1 Ni1 S4 O14'
_cell_volume   277.66086393
_cell_formula_units_Z   1
loop_
 _symmetry_equiv_pos_site_id
 _symmetry_equiv_pos_as_xyz
  1  'x, y, z'
loop_
 _atom_site_type_symbol
 _atom_site_label
 _atom_site_symmetry_multiplicity
 _atom_site_fract_x
 _atom_site_fract_y
 _atom_site_fract_z
 _atom_site_occupancy
  Zn  Zn0  1  0.500000  0.000000  0.500000  1
  Ni  Ni1  1  0.000000  0.500000  0.000000  1
  S  S2  1  0.505422  0.645807  0.770603  1
  S  S3  1  0.494578  0.354193  0.229397  1
  S  S4  1  0.130469  0.251033  0.689509  1
  S  S5  1  0.869531  0.748967  0.310491  1
  O  O6  1  0.732091  0.559641  0.818377  1
  O  O7  1  0.267909  0.440359  0.181623  1
  O  O8  1  0.338569  0.684077  0.899842  1
  O  O9  1  0.661431  0.315923  0.100158  1
  O  O10  1  0.594828  0.809995  0.670215  1
  O  O11  1  0.405172  0.190005  0.329785  1
  O  O12  1  0.286159  0.478196  0.640823  1
  O  O13  1  0.713841  0.521804  0.359177  1
  O  O14  1  0.902465  0.194884  0.561860  1
  O  O15  1  0.097535  0.805116  0.438140  1
  O  O16  1  0.339890  0.140127  0.682187  1
  O  O17  1  0.660110  0.859873  0.317813  1
  O  O18  1  0.047556  0.268357  0.852846  1
  O  O19  1  0.952444  0.731643  0.147154  1
