# generated using pymatgen
data_TbDyAs2Cl2O5
_symmetry_space_group_name_H-M   'P 1'
_cell_length_a   7.05365920
_cell_length_b   7.70175978
_cell_length_c   9.49832325
_cell_angle_alpha   110.33395739
_cell_angle_beta   103.29460828
_cell_angle_gamma   102.12495420
_symmetry_Int_Tables_number   1
_chemical_formula_structural   TbDyAs2Cl2O5
_chemical_formula_sum   'Tb2 Dy2 As4 Cl4 O10'
_cell_volume   446.47790840
_cell_formula_units_Z   2
loop_
 _symmetry_equiv_pos_site_id
 _symmetry_equiv_pos_as_xyz
  1  'x, y, z'
loop_
 _atom_site_type_symbol
 _atom_site_label
 _atom_site_symmetry_multiplicity
 _atom_site_fract_x
 _atom_site_fract_y
 _atom_site_fract_z
 _atom_site_occupancy
  Tb  Tb0  1  0.395260  0.701988  0.521963  1
  Tb  Tb1  1  0.604740  0.298012  0.478037  1
  Dy  Dy2  1  0.842573  0.761993  0.334370  1
  Dy  Dy3  1  0.157427  0.238007  0.665630  1
  As  As4  1  0.886129  0.848371  0.738525  1
  As  As5  1  0.113871  0.151629  0.261475  1
  As  As6  1  0.710240  0.235011  0.798176  1
  As  As7  1  0.289760  0.764989  0.201824  1
  Cl  Cl8  1  0.239072  0.632213  0.739049  1
  Cl  Cl9  1  0.760928  0.367787  0.260951  1
  Cl  Cl10  1  0.786124  0.727988  0.042547  1
  Cl  Cl11  1  0.213876  0.272012  0.957453  1
  O  O12  1  0.847090  0.278246  0.667559  1
  O  O13  1  0.152910  0.721754  0.332441  1
  O  O14  1  0.530613  0.787596  0.339817  1
  O  O15  1  0.469387  0.212404  0.660183  1
  O  O16  1  0.668703  0.964707  0.722714  1
  O  O17  1  0.331297  0.035293  0.277286  1
  O  O18  1  0.693199  0.623694  0.583692  1
  O  O19  1  0.306801  0.376306  0.416308  1
  O  O20  1  0.996060  0.918108  0.604611  1
  O  O21  1  0.003940  0.081892  0.395389  1
