# generated using pymatgen
data_Y9Er3Co4SnRh
_symmetry_space_group_name_H-M   'P 1'
_cell_length_a   8.30415373
_cell_length_b   8.30858920
_cell_length_c   8.30858878
_cell_angle_alpha   110.86737878
_cell_angle_beta   110.65592444
_cell_angle_gamma   106.94075873
_symmetry_Int_Tables_number   1
_chemical_formula_structural   Y9Er3Co4SnRh
_chemical_formula_sum   'Y9 Er3 Co4 Sn1 Rh1'
_cell_volume   440.53304416
_cell_formula_units_Z   1
loop_
 _symmetry_equiv_pos_site_id
 _symmetry_equiv_pos_as_xyz
  1  'x, y, z'
loop_
 _atom_site_type_symbol
 _atom_site_label
 _atom_site_symmetry_multiplicity
 _atom_site_fract_x
 _atom_site_fract_y
 _atom_site_fract_z
 _atom_site_occupancy
  Y  Y0  1  0.984257  0.788768  0.195490  1
  Y  Y1  1  0.188563  0.292998  0.480800  1
  Y  Y2  1  0.811986  0.708183  0.521180  1
  Y  Y3  1  0.188563  0.707763  0.895565  1
  Y  Y4  1  0.811986  0.290806  0.103803  1
  Y  Y5  1  0.312744  0.616054  0.304203  1
  Y  Y6  1  0.687033  0.382892  0.694934  1
  Y  Y7  1  0.312744  0.008541  0.696690  1
  Y  Y8  1  0.687033  0.992099  0.304141  1
  Er  Er9  1  0.404814  0.209414  0.195399  1
  Er  Er10  1  0.594563  0.790900  0.803664  1
  Er  Er11  1  0.013516  0.209462  0.804053  1
  Co  Co12  1  0.380848  0.000740  0.380108  1
  Co  Co13  1  0.621507  0.999832  0.621675  1
  Co  Co14  1  0.111801  0.611174  0.500627  1
  Co  Co15  1  0.888630  0.389081  0.499549  1
  Sn  Sn16  1  0.499185  0.499857  0.999328  1
  Rh  Rh17  1  0.000227  0.001437  0.998789  1
