# generated using pymatgen
data_Y2Tm4Al23VOs8
_symmetry_space_group_name_H-M   'P 1'
_cell_length_a   8.82919300
_cell_length_b   8.82888556
_cell_length_c   9.51897519
_cell_angle_alpha   90.01953159
_cell_angle_beta   90.00000000
_cell_angle_gamma   120.00115564
_symmetry_Int_Tables_number   1
_chemical_formula_structural   Y2Tm4Al23VOs8
_chemical_formula_sum   'Y2 Tm4 Al23 V1 Os8'
_cell_volume   642.60282929
_cell_formula_units_Z   1
loop_
 _symmetry_equiv_pos_site_id
 _symmetry_equiv_pos_as_xyz
  1  'x, y, z'
loop_
 _atom_site_type_symbol
 _atom_site_label
 _atom_site_symmetry_multiplicity
 _atom_site_fract_x
 _atom_site_fract_y
 _atom_site_fract_z
 _atom_site_occupancy
  Y  Y0  1  0.193347  0.386694  0.247579  1
  Y  Y1  1  0.807971  0.615943  0.749932  1
  Tm  Tm2  1  0.607645  0.804644  0.245956  1
  Tm  Tm3  1  0.389218  0.194409  0.749984  1
  Tm  Tm4  1  0.196999  0.804644  0.245956  1
  Tm  Tm5  1  0.805191  0.194409  0.749984  1
  Al  Al6  1  0.666642  0.333285  0.976759  1
  Al  Al7  1  0.666668  0.333337  0.522871  1
  Al  Al8  1  0.333270  0.666541  0.480529  1
  Al  Al9  1  0.162583  0.325165  0.576391  1
  Al  Al10  1  0.836561  0.673124  0.423195  1
  Al  Al11  1  0.674253  0.837440  0.574834  1
  Al  Al12  1  0.835760  0.671521  0.078626  1
  Al  Al13  1  0.326861  0.163118  0.425174  1
  Al  Al14  1  0.160564  0.321128  0.923890  1
  Al  Al15  1  0.163187  0.837440  0.574834  1
  Al  Al16  1  0.329008  0.164341  0.076651  1
  Al  Al17  1  0.836257  0.163118  0.425174  1
  Al  Al18  1  0.678377  0.839730  0.925582  1
  Al  Al19  1  0.835333  0.164341  0.076651  1
  Al  Al20  1  0.161353  0.839730  0.925582  1
  Al  Al21  1  0.561899  0.123798  0.252513  1
  Al  Al22  1  0.441164  0.882328  0.751311  1
  Al  Al23  1  0.876550  0.439045  0.252478  1
  Al  Al24  1  0.118089  0.558859  0.751109  1
  Al  Al25  1  0.562495  0.439045  0.252478  1
  Al  Al26  1  0.440770  0.558859  0.751109  1
  Al  Al27  1  0.997906  0.995812  0.250224  1
  Al  Al28  1  0.002060  0.004120  0.749972  1
  V  V29  1  0.332941  0.665882  0.987923  1
  Os  Os30  1  0.494233  0.988465  0.006298  1
  Os  Os31  1  0.010955  0.505550  0.005133  1
  Os  Os32  1  0.498958  0.997916  0.501788  1
  Os  Os33  1  0.494595  0.505550  0.005133  1
  Os  Os34  1  0.001640  0.500401  0.502818  1
  Os  Os35  1  0.498761  0.500401  0.502818  1
  Os  Os36  1  0.000034  0.000068  0.001592  1
  Os  Os37  1  0.999901  0.999802  0.499172  1
