# generated using pymatgen
data_Na2Ni12As6P
_symmetry_space_group_name_H-M   'P 1'
_cell_length_a   9.36394000
_cell_length_b   9.36394094
_cell_length_c   3.73211700
_cell_angle_alpha   90.00000000
_cell_angle_beta   90.00000000
_cell_angle_gamma   119.99999669
_symmetry_Int_Tables_number   1
_chemical_formula_structural   Na2Ni12As6P
_chemical_formula_sum   'Na2 Ni12 As6 P1'
_cell_volume   283.40217848
_cell_formula_units_Z   1
loop_
 _symmetry_equiv_pos_site_id
 _symmetry_equiv_pos_as_xyz
  1  'x, y, z'
loop_
 _atom_site_type_symbol
 _atom_site_label
 _atom_site_symmetry_multiplicity
 _atom_site_fract_x
 _atom_site_fract_y
 _atom_site_fract_z
 _atom_site_occupancy
  Na  Na0  1  0.666667  0.333333  0.000000  1
  Na  Na1  1  0.000000  0.000000  0.500000  1
  Ni  Ni2  1  0.708060  0.088526  0.500000  1
  Ni  Ni3  1  0.911474  0.619532  0.500000  1
  Ni  Ni4  1  0.380468  0.291940  0.500000  1
  Ni  Ni5  1  0.770320  0.718137  0.000000  1
  Ni  Ni6  1  0.281863  0.052182  0.000000  1
  Ni  Ni7  1  0.947818  0.229680  0.000000  1
  Ni  Ni8  1  0.524701  0.752532  0.500000  1
  Ni  Ni9  1  0.247468  0.772168  0.500000  1
  Ni  Ni10  1  0.227832  0.475299  0.500000  1
  Ni  Ni11  1  0.480777  0.933999  0.000000  1
  Ni  Ni12  1  0.066001  0.546778  0.000000  1
  Ni  Ni13  1  0.453222  0.519223  0.000000  1
  As  As14  1  0.443706  0.073551  0.500000  1
  As  As15  1  0.926449  0.370154  0.500000  1
  As  As16  1  0.629846  0.556294  0.500000  1
  As  As17  1  0.740041  0.950509  0.000000  1
  As  As18  1  0.049491  0.789533  0.000000  1
  As  As19  1  0.210467  0.259959  0.000000  1
  P  P20  1  0.333333  0.666667  0.000000  1
