# generated using pymatgen
data_Ho3ScMn4O14
_symmetry_space_group_name_H-M   'P 1'
_cell_length_a   7.03650381
_cell_length_b   7.00716021
_cell_length_c   7.03650400
_cell_angle_alpha   59.86137547
_cell_angle_beta   59.99999911
_cell_angle_gamma   59.86137304
_symmetry_Int_Tables_number   1
_chemical_formula_structural   Ho3ScMn4O14
_chemical_formula_sum   'Ho3 Sc1 Mn4 O14'
_cell_volume   244.80920201
_cell_formula_units_Z   1
loop_
 _symmetry_equiv_pos_site_id
 _symmetry_equiv_pos_as_xyz
  1  'x, y, z'
loop_
 _atom_site_type_symbol
 _atom_site_label
 _atom_site_symmetry_multiplicity
 _atom_site_fract_x
 _atom_site_fract_y
 _atom_site_fract_z
 _atom_site_occupancy
  Ho  Ho0  1  0.625000  0.625000  0.625000  1
  Ho  Ho1  1  0.125000  0.625000  0.625000  1
  Ho  Ho2  1  0.625000  0.625000  0.125000  1
  Sc  Sc3  1  0.625000  0.125000  0.625000  1
  Mn  Mn4  1  0.125000  0.625000  0.125000  1
  Mn  Mn5  1  0.125000  0.125000  0.625000  1
  Mn  Mn6  1  0.625000  0.125000  0.125000  1
  Mn  Mn7  1  0.125000  0.125000  0.125000  1
  O  O8  1  0.743803  0.768592  0.743803  1
  O  O9  1  0.207084  0.792759  0.793074  1
  O  O10  1  0.207084  0.792759  0.207084  1
  O  O11  1  0.793074  0.792759  0.207084  1
  O  O12  1  0.793213  0.203706  0.793213  1
  O  O13  1  0.209868  0.203706  0.793213  1
  O  O14  1  0.456787  0.046294  0.040132  1
  O  O15  1  0.793213  0.203706  0.209868  1
  O  O16  1  0.042916  0.457241  0.042916  1
  O  O17  1  0.040132  0.046294  0.456787  1
  O  O18  1  0.456926  0.457241  0.042916  1
  O  O19  1  0.456787  0.046294  0.456787  1
  O  O20  1  0.042916  0.457241  0.456926  1
  O  O21  1  0.506197  0.481408  0.506197  1
