# generated using pymatgen
data_Tb7SmHf11Si16Ag
_symmetry_space_group_name_H-M   'P 1'
_cell_length_a   7.30727661
_cell_length_b   7.30879069
_cell_length_c   13.32102599
_cell_angle_alpha   89.80957226
_cell_angle_beta   90.14491418
_cell_angle_gamma   89.80652288
_symmetry_Int_Tables_number   1
_chemical_formula_structural   Tb7SmHf11Si16Ag
_chemical_formula_sum   'Tb7 Sm1 Hf11 Si16 Ag1'
_cell_volume   711.43048618
_cell_formula_units_Z   1
loop_
 _symmetry_equiv_pos_site_id
 _symmetry_equiv_pos_as_xyz
  1  'x, y, z'
loop_
 _atom_site_type_symbol
 _atom_site_label
 _atom_site_symmetry_multiplicity
 _atom_site_fract_x
 _atom_site_fract_y
 _atom_site_fract_z
 _atom_site_occupancy
  Tb  Tb0  1  0.004706  0.655869  0.716282  1
  Tb  Tb1  1  0.155692  0.495775  0.465008  1
  Tb  Tb2  1  0.498660  0.847700  0.032968  1
  Tb  Tb3  1  0.847614  0.498991  0.966617  1
  Tb  Tb4  1  0.495739  0.155343  0.535327  1
  Tb  Tb5  1  0.345016  0.997727  0.788642  1
  Tb  Tb6  1  0.655570  0.004450  0.283818  1
  Sm  Sm7  1  0.996979  0.344173  0.211092  1
  Hf  Hf8  1  0.824637  0.824917  0.500175  1
  Hf  Hf9  1  0.324174  0.676679  0.249465  1
  Hf  Hf10  1  0.676270  0.323617  0.750579  1
  Hf  Hf11  1  0.146856  0.995649  0.374465  1
  Hf  Hf12  1  0.856003  0.003041  0.877970  1
  Hf  Hf13  1  0.504278  0.647358  0.626131  1
  Hf  Hf14  1  0.354723  0.491737  0.877478  1
  Hf  Hf15  1  0.491480  0.354652  0.122247  1
  Hf  Hf16  1  0.647264  0.504781  0.374250  1
  Hf  Hf17  1  0.995704  0.146195  0.625872  1
  Hf  Hf18  1  0.003154  0.855666  0.121804  1
  Si  Si19  1  0.361816  0.295612  0.316927  1
  Si  Si20  1  0.638700  0.704548  0.819364  1
  Si  Si21  1  0.206569  0.861757  0.568408  1
  Si  Si22  1  0.131965  0.777965  0.928295  1
  Si  Si23  1  0.776347  0.130622  0.070863  1
  Si  Si24  1  0.861748  0.206302  0.432031  1
  Si  Si25  1  0.295993  0.360325  0.683435  1
  Si  Si26  1  0.703442  0.639722  0.180667  1
  Si  Si27  1  0.296322  0.049875  0.189725  1
  Si  Si28  1  0.704966  0.951044  0.686528  1
  Si  Si29  1  0.450705  0.795155  0.435811  1
  Si  Si30  1  0.210918  0.565814  0.063997  1
  Si  Si31  1  0.564348  0.209949  0.935480  1
  Si  Si32  1  0.795110  0.450680  0.564359  1
  Si  Si33  1  0.050796  0.295458  0.810367  1
  Si  Si34  1  0.950584  0.706390  0.313945  1
  Ag  Ag35  1  0.175150  0.174463  0.999610  1
