# generated using pymatgen
data_DyHo3(Pd2Pb)2
_symmetry_space_group_name_H-M   'P 1'
_cell_length_a   7.91079037
_cell_length_b   7.91079037
_cell_length_c   3.62011500
_cell_angle_alpha   90.00000000
_cell_angle_beta   90.00000000
_cell_angle_gamma   89.93259908
_symmetry_Int_Tables_number   1
_chemical_formula_structural   DyHo3(Pd2Pb)2
_chemical_formula_sum   'Dy1 Ho3 Pd4 Pb2'
_cell_volume   226.54882741
_cell_formula_units_Z   1
loop_
 _symmetry_equiv_pos_site_id
 _symmetry_equiv_pos_as_xyz
  1  'x, y, z'
loop_
 _atom_site_type_symbol
 _atom_site_label
 _atom_site_symmetry_multiplicity
 _atom_site_fract_x
 _atom_site_fract_y
 _atom_site_fract_z
 _atom_site_occupancy
  Dy  Dy0  1  0.671245  0.171245  0.500000  1
  Ho  Ho1  1  0.170964  0.329062  0.500000  1
  Ho  Ho2  1  0.829062  0.670964  0.500000  1
  Ho  Ho3  1  0.328803  0.828803  0.500000  1
  Pd  Pd4  1  0.374305  0.124904  0.000000  1
  Pd  Pd5  1  0.125264  0.625264  0.000000  1
  Pd  Pd6  1  0.624904  0.874305  0.000000  1
  Pd  Pd7  1  0.875358  0.375358  0.000000  1
  Pb  Pb8  1  0.000265  0.999830  0.000000  1
  Pb  Pb9  1  0.499830  0.500265  0.000000  1
