# generated using pymatgen
data_LiTb16In3OsRh3
_symmetry_space_group_name_H-M   'P 1'
_cell_length_a   9.68862723
_cell_length_b   9.74357070
_cell_length_c   9.68862618
_cell_angle_alpha   59.98040625
_cell_angle_beta   59.67888285
_cell_angle_gamma   59.98040286
_symmetry_Int_Tables_number   1
_chemical_formula_structural   LiTb16In3OsRh3
_chemical_formula_sum   'Li1 Tb16 In3 Os1 Rh3'
_cell_volume   644.96248762
_cell_formula_units_Z   1
loop_
 _symmetry_equiv_pos_site_id
 _symmetry_equiv_pos_as_xyz
  1  'x, y, z'
loop_
 _atom_site_type_symbol
 _atom_site_label
 _atom_site_symmetry_multiplicity
 _atom_site_fract_x
 _atom_site_fract_y
 _atom_site_fract_z
 _atom_site_occupancy
  Li  Li0  1  0.428671  0.427839  0.428671  1
  Tb  Tb1  1  0.809095  0.806398  0.192252  1
  Tb  Tb2  1  0.808471  0.193090  0.808471  1
  Tb  Tb3  1  0.186649  0.189846  0.813872  1
  Tb  Tb4  1  0.649968  0.046979  0.649968  1
  Tb  Tb5  1  0.061236  0.061436  0.438408  1
  Tb  Tb6  1  0.444581  0.435736  0.059777  1
  Tb  Tb7  1  0.650545  0.650361  0.650545  1
  Tb  Tb8  1  0.813872  0.189846  0.186649  1
  Tb  Tb9  1  0.192252  0.806398  0.809095  1
  Tb  Tb10  1  0.043399  0.651187  0.652106  1
  Tb  Tb11  1  0.438408  0.061436  0.061236  1
  Tb  Tb12  1  0.437169  0.060203  0.437169  1
  Tb  Tb13  1  0.059855  0.436993  0.059855  1
  Tb  Tb14  1  0.652106  0.651187  0.043399  1
  Tb  Tb15  1  0.188715  0.812452  0.188715  1
  Tb  Tb16  1  0.059777  0.435736  0.444581  1
  In  In17  1  0.418287  0.417659  0.745215  1
  In  In18  1  0.418317  0.744670  0.418317  1
  In  In19  1  0.745215  0.417659  0.418287  1
  Os  Os20  1  0.856069  0.424173  0.856069  1
  Rh  Rh21  1  0.856688  0.860326  0.856688  1
  Rh  Rh22  1  0.857148  0.859191  0.423508  1
  Rh  Rh23  1  0.423508  0.859191  0.857148  1
