# generated using pymatgen
data_Y2Er2Sc3AlPt4
_symmetry_space_group_name_H-M   'P 1'
_cell_length_a   4.50675400
_cell_length_b   7.03064546
_cell_length_c   8.29110656
_cell_angle_alpha   86.90006359
_cell_angle_beta   90.00000000
_cell_angle_gamma   90.00000000
_symmetry_Int_Tables_number   1
_chemical_formula_structural   Y2Er2Sc3AlPt4
_chemical_formula_sum   'Y2 Er2 Sc3 Al1 Pt4'
_cell_volume   262.32253004
_cell_formula_units_Z   1
loop_
 _symmetry_equiv_pos_site_id
 _symmetry_equiv_pos_as_xyz
  1  'x, y, z'
loop_
 _atom_site_type_symbol
 _atom_site_label
 _atom_site_symmetry_multiplicity
 _atom_site_fract_x
 _atom_site_fract_y
 _atom_site_fract_z
 _atom_site_occupancy
  Y  Y0  1  0.750000  0.518617  0.813542  1
  Y  Y1  1  0.750000  0.040286  0.671695  1
  Er  Er2  1  0.250000  0.466390  0.183324  1
  Er  Er3  1  0.250000  0.991316  0.341335  1
  Sc  Sc4  1  0.250000  0.860058  0.930092  1
  Sc  Sc5  1  0.750000  0.130871  0.072448  1
  Sc  Sc6  1  0.750000  0.642436  0.433885  1
  Al  Al7  1  0.250000  0.362794  0.567700  1
  Pt  Pt8  1  0.250000  0.733010  0.612861  1
  Pt  Pt9  1  0.750000  0.267156  0.381502  1
  Pt  Pt10  1  0.750000  0.744761  0.101556  1
  Pt  Pt11  1  0.250000  0.242307  0.890061  1
