# generated using pymatgen
data_Ho6Er10Cd4PdRu3
_symmetry_space_group_name_H-M   'P 1'
_cell_length_a   9.51415689
_cell_length_b   9.62255376
_cell_length_c   9.62255400
_cell_angle_alpha   59.99999919
_cell_angle_beta   59.62239340
_cell_angle_gamma   59.62239693
_symmetry_Int_Tables_number   1
_chemical_formula_structural   Ho6Er10Cd4PdRu3
_chemical_formula_sum   'Ho6 Er10 Cd4 Pd1 Ru3'
_cell_volume   619.34630940
_cell_formula_units_Z   1
loop_
 _symmetry_equiv_pos_site_id
 _symmetry_equiv_pos_as_xyz
  1  'x, y, z'
loop_
 _atom_site_type_symbol
 _atom_site_label
 _atom_site_symmetry_multiplicity
 _atom_site_fract_x
 _atom_site_fract_y
 _atom_site_fract_z
 _atom_site_occupancy
  Ho  Ho0  1  0.935454  0.562932  0.562932  1
  Ho  Ho1  1  0.558650  0.937683  0.937683  1
  Ho  Ho2  1  0.558650  0.937683  0.565984  1
  Ho  Ho3  1  0.935454  0.562932  0.938683  1
  Ho  Ho4  1  0.558650  0.565984  0.937683  1
  Ho  Ho5  1  0.935454  0.938683  0.562932  1
  Er  Er6  1  0.345411  0.351484  0.351484  1
  Er  Er7  1  0.345411  0.351484  0.951622  1
  Er  Er8  1  0.345411  0.951622  0.351484  1
  Er  Er9  1  0.964498  0.345167  0.345167  1
  Er  Er10  1  0.816330  0.188921  0.188921  1
  Er  Er11  1  0.186393  0.812111  0.812111  1
  Er  Er12  1  0.186393  0.812111  0.189385  1
  Er  Er13  1  0.816330  0.188921  0.805827  1
  Er  Er14  1  0.186393  0.189385  0.812111  1
  Er  Er15  1  0.816330  0.805827  0.188921  1
  Cd  Cd16  1  0.580274  0.579877  0.579877  1
  Cd  Cd17  1  0.580274  0.579877  0.259972  1
  Cd  Cd18  1  0.580274  0.259972  0.579877  1
  Cd  Cd19  1  0.256906  0.581031  0.581031  1
  Pd  Pd20  1  0.572307  0.142564  0.142564  1
  Ru  Ru21  1  0.146252  0.139130  0.139130  1
  Ru  Ru22  1  0.146252  0.139130  0.575489  1
  Ru  Ru23  1  0.146252  0.575489  0.139130  1
