# generated using pymatgen
data_Ce2NdIn2SnPd3
_symmetry_space_group_name_H-M   'P 1'
_cell_length_a   7.75016200
_cell_length_b   7.72958383
_cell_length_c   4.11055300
_cell_angle_alpha   90.00000000
_cell_angle_beta   90.00000000
_cell_angle_gamma   120.08810603
_symmetry_Int_Tables_number   1
_chemical_formula_structural   Ce2NdIn2SnPd3
_chemical_formula_sum   'Ce2 Nd1 In2 Sn1 Pd3'
_cell_volume   213.06470743
_cell_formula_units_Z   1
loop_
 _symmetry_equiv_pos_site_id
 _symmetry_equiv_pos_as_xyz
  1  'x, y, z'
loop_
 _atom_site_type_symbol
 _atom_site_label
 _atom_site_symmetry_multiplicity
 _atom_site_fract_x
 _atom_site_fract_y
 _atom_site_fract_z
 _atom_site_occupancy
  Ce  Ce0  1  0.999990  0.588084  0.000000  1
  Ce  Ce1  1  0.411905  0.411916  0.000000  1
  Nd  Nd2  1  0.589506  0.000000  0.000000  1
  In  In3  1  0.746066  0.747873  0.500000  1
  In  In4  1  0.998192  0.252127  0.500000  1
  Sn  Sn5  1  0.252502  0.000000  0.500000  1
  Pd  Pd6  1  0.667796  0.339404  0.500000  1
  Pd  Pd7  1  0.005653  0.000000  0.000000  1
  Pd  Pd8  1  0.328392  0.660596  0.500000  1
