# generated using pymatgen
data_Zr6Ti4Al12Pt4Rh3
_symmetry_space_group_name_H-M   'P 1'
_cell_length_a   8.81626926
_cell_length_b   8.81626810
_cell_length_c   8.82311700
_cell_angle_alpha   59.97429499
_cell_angle_beta   59.97429936
_cell_angle_gamma   60.05140911
_symmetry_Int_Tables_number   1
_chemical_formula_structural   Zr6Ti4Al12Pt4Rh3
_chemical_formula_sum   'Zr6 Ti4 Al12 Pt4 Rh3'
_cell_volume   484.92677190
_cell_formula_units_Z   1
loop_
 _symmetry_equiv_pos_site_id
 _symmetry_equiv_pos_as_xyz
  1  'x, y, z'
loop_
 _atom_site_type_symbol
 _atom_site_label
 _atom_site_symmetry_multiplicity
 _atom_site_fract_x
 _atom_site_fract_y
 _atom_site_fract_z
 _atom_site_occupancy
  Zr  Zr0  1  0.691710  0.691710  0.308290  1
  Zr  Zr1  1  0.311751  0.688249  0.311751  1
  Zr  Zr2  1  0.688249  0.311751  0.311751  1
  Zr  Zr3  1  0.308290  0.308290  0.691710  1
  Zr  Zr4  1  0.688249  0.311751  0.688249  1
  Zr  Zr5  1  0.311751  0.688249  0.688249  1
  Ti  Ti6  1  0.882739  0.882739  0.356595  1
  Ti  Ti7  1  0.877926  0.356595  0.882739  1
  Ti  Ti8  1  0.356595  0.877926  0.882739  1
  Ti  Ti9  1  0.882739  0.882739  0.877926  1
  Al  Al10  1  0.118368  0.118368  0.640514  1
  Al  Al11  1  0.122751  0.640514  0.118368  1
  Al  Al12  1  0.640514  0.122751  0.118368  1
  Al  Al13  1  0.118368  0.118368  0.122751  1
  Al  Al14  1  0.663351  0.663351  0.006689  1
  Al  Al15  1  0.666609  0.006689  0.663351  1
  Al  Al16  1  0.006689  0.666609  0.663351  1
  Al  Al17  1  0.663351  0.663351  0.666609  1
  Al  Al18  1  0.336724  0.336724  0.994439  1
  Al  Al19  1  0.332113  0.994439  0.336724  1
  Al  Al20  1  0.994439  0.332113  0.336724  1
  Al  Al21  1  0.336724  0.336724  0.332113  1
  Pt  Pt22  1  0.501318  0.998682  0.501318  1
  Pt  Pt23  1  0.998682  0.501318  0.501318  1
  Pt  Pt24  1  0.998682  0.501318  0.998682  1
  Pt  Pt25  1  0.501318  0.998682  0.998682  1
  Rh  Rh26  1  0.000000  0.000000  0.000000  1
  Rh  Rh27  1  0.998215  0.998215  0.501785  1
  Rh  Rh28  1  0.501785  0.501785  0.998215  1
