# generated using pymatgen
data_Ba2H6Au
_symmetry_space_group_name_H-M   'P 1'
_cell_length_a   7.86584700
_cell_length_b   7.86584685
_cell_length_c   6.08426600
_cell_angle_alpha   90.00000000
_cell_angle_beta   90.00000000
_cell_angle_gamma   134.63920601
_symmetry_Int_Tables_number   1
_chemical_formula_structural   Ba2H6Au
_chemical_formula_sum   'Ba4 H12 Au2'
_cell_volume   267.85625828
_cell_formula_units_Z   2
loop_
 _symmetry_equiv_pos_site_id
 _symmetry_equiv_pos_as_xyz
  1  'x, y, z'
loop_
 _atom_site_type_symbol
 _atom_site_label
 _atom_site_symmetry_multiplicity
 _atom_site_fract_x
 _atom_site_fract_y
 _atom_site_fract_z
 _atom_site_occupancy
  Ba  Ba0  1  0.354655  0.645345  0.000000  1
  Ba  Ba1  1  0.854655  0.145345  0.500000  1
  Ba  Ba2  1  0.645345  0.354655  0.000000  1
  Ba  Ba3  1  0.145345  0.854655  0.500000  1
  H  H4  1  0.001497  0.501497  0.250000  1
  H  H5  1  0.498503  0.998503  0.750000  1
  H  H6  1  0.998503  0.498503  0.750000  1
  H  H7  1  0.501497  0.001497  0.250000  1
  H  H8  1  0.117319  0.882681  0.000000  1
  H  H9  1  0.617319  0.382681  0.500000  1
  H  H10  1  0.882681  0.117319  0.000000  1
  H  H11  1  0.382681  0.617319  0.500000  1
  H  H12  1  0.789241  0.789241  0.207595  1
  H  H13  1  0.210759  0.210759  0.792405  1
  H  H14  1  0.710759  0.710759  0.707595  1
  H  H15  1  0.289241  0.289241  0.292405  1
  Au  Au16  1  0.000000  0.000000  0.000000  1
  Au  Au17  1  0.500000  0.500000  0.500000  1
