# generated using pymatgen
data_CsLiThS3
_symmetry_space_group_name_H-M   'P 1'
_cell_length_a   7.92845958
_cell_length_b   7.92845921
_cell_length_c   10.84828500
_cell_angle_alpha   90.00000000
_cell_angle_beta   90.00000000
_cell_angle_gamma   148.91530706
_symmetry_Int_Tables_number   1
_chemical_formula_structural   CsLiThS3
_chemical_formula_sum   'Cs2 Li2 Th2 S6'
_cell_volume   352.08267291
_cell_formula_units_Z   2
loop_
 _symmetry_equiv_pos_site_id
 _symmetry_equiv_pos_as_xyz
  1  'x, y, z'
loop_
 _atom_site_type_symbol
 _atom_site_label
 _atom_site_symmetry_multiplicity
 _atom_site_fract_x
 _atom_site_fract_y
 _atom_site_fract_z
 _atom_site_occupancy
  Cs  Cs0  1  0.259384  0.740614  0.250000  1
  Cs  Cs1  1  0.740614  0.259384  0.750000  1
  Li  Li2  1  0.532933  0.467065  0.250000  1
  Li  Li3  1  0.467065  0.532933  0.750000  1
  Th  Th4  1  0.000000  0.000000  0.000000  1
  Th  Th5  1  0.000000  0.000000  0.500000  1
  S  S6  1  0.612298  0.387700  0.056227  1
  S  S7  1  0.950850  0.049148  0.250000  1
  S  S8  1  0.612298  0.387700  0.443774  1
  S  S9  1  0.387700  0.612298  0.556227  1
  S  S10  1  0.049148  0.950850  0.750000  1
  S  S11  1  0.387700  0.612298  0.943773  1
