# generated using pymatgen
data_Er12CdFe4Bi
_symmetry_space_group_name_H-M   'P 1'
_cell_length_a   8.34859116
_cell_length_b   8.34859025
_cell_length_c   8.34859193
_cell_angle_alpha   109.96671907
_cell_angle_beta   111.43841840
_cell_angle_gamma   107.03913307
_symmetry_Int_Tables_number   1
_chemical_formula_structural   Er12CdFe4Bi
_chemical_formula_sum   'Er12 Cd1 Fe4 Bi1'
_cell_volume   447.25840831
_cell_formula_units_Z   1
loop_
 _symmetry_equiv_pos_site_id
 _symmetry_equiv_pos_as_xyz
  1  'x, y, z'
loop_
 _atom_site_type_symbol
 _atom_site_label
 _atom_site_symmetry_multiplicity
 _atom_site_fract_x
 _atom_site_fract_y
 _atom_site_fract_z
 _atom_site_occupancy
  Er  Er0  1  0.288127  0.185583  0.473711  1
  Er  Er1  1  0.711873  0.814417  0.526289  1
  Er  Er2  1  0.288127  0.814417  0.102544  1
  Er  Er3  1  0.711873  0.185583  0.897456  1
  Er  Er4  1  0.610659  0.309437  0.301221  1
  Er  Er5  1  0.389341  0.690563  0.698779  1
  Er  Er6  1  0.008218  0.309437  0.698779  1
  Er  Er7  1  0.991782  0.690563  0.301221  1
  Er  Er8  1  0.223331  0.439684  0.216353  1
  Er  Er9  1  0.776669  0.560316  0.783647  1
  Er  Er10  1  0.223331  0.006978  0.783647  1
  Er  Er11  1  0.776669  0.993022  0.216353  1
  Cd  Cd12  1  0.000000  0.000000  0.000000  1
  Fe  Fe13  1  0.000000  0.386223  0.386223  1
  Fe  Fe14  1  0.000000  0.613777  0.613777  1
  Fe  Fe15  1  0.391606  0.891606  0.500000  1
  Fe  Fe16  1  0.608394  0.108394  0.500000  1
  Bi  Bi17  1  0.500000  0.500000  0.000000  1
