# generated using pymatgen
data_La2AlN3
_symmetry_space_group_name_H-M   'P 1'
_cell_length_a   6.13308251
_cell_length_b   6.13308179
_cell_length_c   11.97671694
_cell_angle_alpha   88.61402723
_cell_angle_beta   88.61402752
_cell_angle_gamma   124.71062047
_symmetry_Int_Tables_number   1
_chemical_formula_structural   La2AlN3
_chemical_formula_sum   'La8 Al4 N12'
_cell_volume   369.82529435
_cell_formula_units_Z   4
loop_
 _symmetry_equiv_pos_site_id
 _symmetry_equiv_pos_as_xyz
  1  'x, y, z'
loop_
 _atom_site_type_symbol
 _atom_site_label
 _atom_site_symmetry_multiplicity
 _atom_site_fract_x
 _atom_site_fract_y
 _atom_site_fract_z
 _atom_site_occupancy
  La  La0  1  0.962576  0.550162  0.849982  1
  La  La1  1  0.449838  0.037424  0.650018  1
  La  La2  1  0.653246  0.863857  0.925385  1
  La  La3  1  0.136143  0.346754  0.574615  1
  La  La4  1  0.037424  0.449838  0.150018  1
  La  La5  1  0.863857  0.653246  0.425385  1
  La  La6  1  0.550162  0.962576  0.349982  1
  La  La7  1  0.346754  0.136143  0.074615  1
  Al  Al8  1  0.736133  0.734530  0.665044  1
  Al  Al9  1  0.265470  0.263867  0.834956  1
  Al  Al10  1  0.734530  0.736133  0.165044  1
  Al  Al11  1  0.263867  0.265470  0.334956  1
  N  N12  1  0.120204  0.317414  0.966964  1
  N  N13  1  0.997011  0.002989  0.250000  1
  N  N14  1  0.002989  0.997011  0.750000  1
  N  N15  1  0.411705  0.588295  0.750000  1
  N  N16  1  0.588295  0.411705  0.250000  1
  N  N17  1  0.682586  0.879796  0.533036  1
  N  N18  1  0.879796  0.682586  0.033036  1
  N  N19  1  0.152275  0.497397  0.369736  1
  N  N20  1  0.497397  0.152275  0.869736  1
  N  N21  1  0.847725  0.502603  0.630264  1
  N  N22  1  0.317414  0.120204  0.466964  1
  N  N23  1  0.502603  0.847725  0.130264  1
