# generated using pymatgen
data_SrTb5PrCoI12
_symmetry_space_group_name_H-M   'P 1'
_cell_length_a   9.87103348
_cell_length_b   9.87438423
_cell_length_c   9.79990654
_cell_angle_alpha   106.51473628
_cell_angle_beta   106.02815197
_cell_angle_gamma   106.16972545
_symmetry_Int_Tables_number   1
_chemical_formula_structural   SrTb5PrCoI12
_chemical_formula_sum   'Sr1 Tb5 Pr1 Co1 I12'
_cell_volume   811.46554120
_cell_formula_units_Z   1
loop_
 _symmetry_equiv_pos_site_id
 _symmetry_equiv_pos_as_xyz
  1  'x, y, z'
loop_
 _atom_site_type_symbol
 _atom_site_label
 _atom_site_symmetry_multiplicity
 _atom_site_fract_x
 _atom_site_fract_y
 _atom_site_fract_z
 _atom_site_occupancy
  Sr  Sr0  1  0.500290  0.499977  0.499664  1
  Tb  Tb1  1  0.093310  0.292762  0.019931  1
  Tb  Tb2  1  0.292657  0.019754  0.091652  1
  Tb  Tb3  1  0.980790  0.910837  0.722044  1
  Tb  Tb4  1  0.906692  0.706723  0.979560  1
  Tb  Tb5  1  0.706880  0.979331  0.905116  1
  Pr  Pr6  1  0.019048  0.091356  0.287232  1
  Co  Co7  1  0.999463  0.999998  0.000448  1
  I  I8  1  0.140966  0.456557  0.368149  1
  I  I9  1  0.446351  0.366420  0.134117  1
  I  I10  1  0.375389  0.137955  0.449190  1
  I  I11  1  0.864141  0.554125  0.632223  1
  I  I12  1  0.553286  0.633728  0.865046  1
  I  I13  1  0.634588  0.863109  0.551933  1
  I  I14  1  0.669211  0.071737  0.218170  1
  I  I15  1  0.073063  0.221092  0.681691  1
  I  I16  1  0.221741  0.678481  0.072408  1
  I  I17  1  0.319604  0.925888  0.774853  1
  I  I18  1  0.924384  0.768719  0.319665  1
  I  I19  1  0.778144  0.321453  0.926908  1
