# generated using pymatgen
data_Li4Pr2ErSn4
_symmetry_space_group_name_H-M   'P 1'
_cell_length_a   8.74799626
_cell_length_b   8.74799614
_cell_length_c   8.74799700
_cell_angle_alpha   148.63876414
_cell_angle_beta   133.17738493
_cell_angle_gamma   57.44136386
_symmetry_Int_Tables_number   1
_chemical_formula_structural   Li4Pr2ErSn4
_chemical_formula_sum   'Li4 Pr2 Er1 Sn4'
_cell_volume   252.18988832
_cell_formula_units_Z   1
loop_
 _symmetry_equiv_pos_site_id
 _symmetry_equiv_pos_as_xyz
  1  'x, y, z'
loop_
 _atom_site_type_symbol
 _atom_site_label
 _atom_site_symmetry_multiplicity
 _atom_site_fract_x
 _atom_site_fract_y
 _atom_site_fract_z
 _atom_site_occupancy
  Li  Li0  1  0.637380  0.328143  0.309235  1
  Li  Li1  1  0.362620  0.671857  0.690765  1
  Li  Li2  1  0.018907  0.328143  0.690765  1
  Li  Li3  1  0.981093  0.671857  0.309235  1
  Pr  Pr4  1  0.369771  0.869771  0.500000  1
  Pr  Pr5  1  0.630229  0.130229  0.500000  1
  Er  Er6  1  0.000000  0.000000  0.000000  1
  Sn  Sn7  1  0.209011  0.209011  0.000000  1
  Sn  Sn8  1  0.790989  0.790989  0.000000  1
  Sn  Sn9  1  0.707318  0.500000  0.207318  1
  Sn  Sn10  1  0.292682  0.500000  0.792682  1
