# generated using pymatgen
data_HoAlCu3Ag
_symmetry_space_group_name_H-M   'P 1'
_cell_length_a   5.11693695
_cell_length_b   5.11693797
_cell_length_c   5.06398000
_cell_angle_alpha   59.65346380
_cell_angle_beta   59.65345707
_cell_angle_gamma   59.99998757
_symmetry_Int_Tables_number   1
_chemical_formula_structural   HoAlCu3Ag
_chemical_formula_sum   'Ho1 Al1 Cu3 Ag1'
_cell_volume   93.26149659
_cell_formula_units_Z   1
loop_
 _symmetry_equiv_pos_site_id
 _symmetry_equiv_pos_as_xyz
  1  'x, y, z'
loop_
 _atom_site_type_symbol
 _atom_site_label
 _atom_site_symmetry_multiplicity
 _atom_site_fract_x
 _atom_site_fract_y
 _atom_site_fract_z
 _atom_site_occupancy
  Ho  Ho0  1  0.003237  0.003237  0.990290  1
  Al  Al1  1  0.621010  0.621010  0.136968  1
  Cu  Cu2  1  0.623706  0.125494  0.627091  1
  Cu  Cu3  1  0.125494  0.623706  0.627091  1
  Cu  Cu4  1  0.623706  0.623706  0.627091  1
  Ag  Ag5  1  0.252845  0.252845  0.241467  1
