# generated using pymatgen
data_NaYb3SbO6
_symmetry_space_group_name_H-M   'P 1'
_cell_length_a   6.53937874
_cell_length_b   6.53937980
_cell_length_c   6.53937911
_cell_angle_alpha   90.56622469
_cell_angle_beta   90.56622649
_cell_angle_gamma   90.56623951
_symmetry_Int_Tables_number   1
_chemical_formula_structural   NaYb3SbO6
_chemical_formula_sum   'Na2 Yb6 Sb2 O12'
_cell_volume   279.60537612
_cell_formula_units_Z   2
loop_
 _symmetry_equiv_pos_site_id
 _symmetry_equiv_pos_as_xyz
  1  'x, y, z'
loop_
 _atom_site_type_symbol
 _atom_site_label
 _atom_site_symmetry_multiplicity
 _atom_site_fract_x
 _atom_site_fract_y
 _atom_site_fract_z
 _atom_site_occupancy
  Na  Na0  1  0.750000  0.750000  0.750000  1
  Na  Na1  1  0.250000  0.250000  0.250000  1
  Yb  Yb2  1  0.098280  0.750000  0.401720  1
  Yb  Yb3  1  0.401720  0.098280  0.750000  1
  Yb  Yb4  1  0.250000  0.598280  0.901720  1
  Yb  Yb5  1  0.901720  0.250000  0.598280  1
  Yb  Yb6  1  0.598280  0.901720  0.250000  1
  Yb  Yb7  1  0.750000  0.401720  0.098280  1
  Sb  Sb8  1  0.500000  0.500000  0.500000  1
  Sb  Sb9  1  0.000000  0.000000  0.000000  1
  O  O10  1  0.067083  0.294383  0.940597  1
  O  O11  1  0.940597  0.067083  0.294383  1
  O  O12  1  0.294383  0.940597  0.067083  1
  O  O13  1  0.432917  0.559403  0.205617  1
  O  O14  1  0.205617  0.432917  0.559403  1
  O  O15  1  0.559403  0.205617  0.432917  1
  O  O16  1  0.932917  0.705617  0.059403  1
  O  O17  1  0.059403  0.932917  0.705617  1
  O  O18  1  0.705617  0.059403  0.932917  1
  O  O19  1  0.567083  0.440597  0.794383  1
  O  O20  1  0.440597  0.794383  0.567083  1
  O  O21  1  0.794383  0.567083  0.440597  1
