# generated using pymatgen
data_Y3MgCd2Sn2Pd
_symmetry_space_group_name_H-M   'P 1'
_cell_length_a   7.48765592
_cell_length_b   7.42055773
_cell_length_c   4.50712600
_cell_angle_alpha   90.00000000
_cell_angle_beta   90.00000000
_cell_angle_gamma   119.70399510
_symmetry_Int_Tables_number   1
_chemical_formula_structural   Y3MgCd2Sn2Pd
_chemical_formula_sum   'Y3 Mg1 Cd2 Sn2 Pd1'
_cell_volume   217.52062067
_cell_formula_units_Z   1
loop_
 _symmetry_equiv_pos_site_id
 _symmetry_equiv_pos_as_xyz
  1  'x, y, z'
loop_
 _atom_site_type_symbol
 _atom_site_label
 _atom_site_symmetry_multiplicity
 _atom_site_fract_x
 _atom_site_fract_y
 _atom_site_fract_z
 _atom_site_occupancy
  Y  Y0  1  0.405646  0.404871  0.500000  1
  Y  Y1  1  0.000000  0.598866  0.500000  1
  Y  Y2  1  0.594354  0.999225  0.500000  1
  Mg  Mg3  1  0.000000  0.226446  0.000000  1
  Cd  Cd4  1  0.762511  0.764739  0.000000  1
  Cd  Cd5  1  0.237489  0.002228  0.000000  1
  Sn  Sn6  1  0.671510  0.332369  0.000000  1
  Sn  Sn7  1  0.328490  0.660860  0.000000  1
  Pd  Pd8  1  0.000000  0.010396  0.500000  1
