# generated using pymatgen
data_Y2ThMgIn2Pt3
_symmetry_space_group_name_H-M   'P 1'
_cell_length_a   7.66223100
_cell_length_b   7.71076936
_cell_length_c   3.94276400
_cell_angle_alpha   90.00000000
_cell_angle_beta   90.00000000
_cell_angle_gamma   119.79198892
_symmetry_Int_Tables_number   1
_chemical_formula_structural   Y2ThMgIn2Pt3
_chemical_formula_sum   'Y2 Th1 Mg1 In2 Pt3'
_cell_volume   202.15796794
_cell_formula_units_Z   1
loop_
 _symmetry_equiv_pos_site_id
 _symmetry_equiv_pos_as_xyz
  1  'x, y, z'
loop_
 _atom_site_type_symbol
 _atom_site_label
 _atom_site_symmetry_multiplicity
 _atom_site_fract_x
 _atom_site_fract_y
 _atom_site_fract_z
 _atom_site_occupancy
  Y  Y0  1  0.994632  0.405093  0.500000  1
  Y  Y1  1  0.589540  0.594907  0.500000  1
  Th  Th2  1  0.413027  0.000000  0.500000  1
  Mg  Mg3  1  0.761392  0.000000  0.000000  1
  In  In4  1  0.253511  0.266930  0.000000  1
  In  In5  1  0.986581  0.733070  0.000000  1
  Pt  Pt6  1  0.000280  0.000000  0.500000  1
  Pt  Pt7  1  0.659268  0.317499  0.000000  1
  Pt  Pt8  1  0.341768  0.682501  0.000000  1
