# generated using pymatgen
data_Nb3GaCuN
_symmetry_space_group_name_H-M   'P 1'
_cell_length_a   7.00197000
_cell_length_b   7.00197000
_cell_length_c   7.00197000
_cell_angle_alpha   90.00000000
_cell_angle_beta   90.00000000
_cell_angle_gamma   90.00000000
_symmetry_Int_Tables_number   1
_chemical_formula_structural   Nb3GaCuN
_chemical_formula_sum   'Nb12 Ga4 Cu4 N4'
_cell_volume   343.28967151
_cell_formula_units_Z   4
loop_
 _symmetry_equiv_pos_site_id
 _symmetry_equiv_pos_as_xyz
  1  'x, y, z'
loop_
 _atom_site_type_symbol
 _atom_site_label
 _atom_site_symmetry_multiplicity
 _atom_site_fract_x
 _atom_site_fract_y
 _atom_site_fract_z
 _atom_site_occupancy
  Nb  Nb0  1  0.790829  0.956957  0.375993  1
  Nb  Nb1  1  0.709171  0.043043  0.875993  1
  Nb  Nb2  1  0.209171  0.456957  0.124007  1
  Nb  Nb3  1  0.290829  0.543043  0.624007  1
  Nb  Nb4  1  0.956957  0.375993  0.790829  1
  Nb  Nb5  1  0.043043  0.875993  0.709171  1
  Nb  Nb6  1  0.456957  0.124007  0.209171  1
  Nb  Nb7  1  0.543043  0.624007  0.290829  1
  Nb  Nb8  1  0.375993  0.790829  0.956957  1
  Nb  Nb9  1  0.875993  0.709171  0.043043  1
  Nb  Nb10  1  0.124007  0.209171  0.456957  1
  Nb  Nb11  1  0.624007  0.290829  0.543043  1
  Ga  Ga12  1  0.573241  0.426759  0.926759  1
  Ga  Ga13  1  0.426759  0.926759  0.573241  1
  Ga  Ga14  1  0.926759  0.573241  0.426759  1
  Ga  Ga15  1  0.073241  0.073241  0.073241  1
  Cu  Cu16  1  0.179377  0.820623  0.320623  1
  Cu  Cu17  1  0.320623  0.179377  0.820623  1
  Cu  Cu18  1  0.820623  0.320623  0.179377  1
  Cu  Cu19  1  0.679377  0.679377  0.679377  1
  N  N20  1  0.876223  0.123777  0.623777  1
  N  N21  1  0.623777  0.876223  0.123777  1
  N  N22  1  0.123777  0.623777  0.876223  1
  N  N23  1  0.376223  0.376223  0.376223  1
