# generated using pymatgen
data_Nd3Th(HgAu2)2
_symmetry_space_group_name_H-M   'P 1'
_cell_length_a   8.21651906
_cell_length_b   8.21651866
_cell_length_c   3.81330100
_cell_angle_alpha   90.00000000
_cell_angle_beta   90.00000000
_cell_angle_gamma   90.48317506
_symmetry_Int_Tables_number   1
_chemical_formula_structural   Nd3Th(HgAu2)2
_chemical_formula_sum   'Nd3 Th1 Hg2 Au4'
_cell_volume   257.43130468
_cell_formula_units_Z   1
loop_
 _symmetry_equiv_pos_site_id
 _symmetry_equiv_pos_as_xyz
  1  'x, y, z'
loop_
 _atom_site_type_symbol
 _atom_site_label
 _atom_site_symmetry_multiplicity
 _atom_site_fract_x
 _atom_site_fract_y
 _atom_site_fract_z
 _atom_site_occupancy
  Nd  Nd0  1  0.324878  0.824878  0.500000  1
  Nd  Nd1  1  0.174080  0.326822  0.500000  1
  Nd  Nd2  1  0.826822  0.674080  0.500000  1
  Th  Th3  1  0.672598  0.172598  0.500000  1
  Hg  Hg4  1  0.001864  0.999518  0.000000  1
  Hg  Hg5  1  0.499518  0.501864  0.000000  1
  Au  Au6  1  0.124537  0.624537  0.000000  1
  Au  Au7  1  0.871234  0.371234  0.000000  1
  Au  Au8  1  0.627856  0.876613  0.000000  1
  Au  Au9  1  0.376613  0.127856  0.000000  1
