# generated using pymatgen
data_Ti2Ga2Ru3Rh
_symmetry_space_group_name_H-M   'P 1'
_cell_length_a   4.32682700
_cell_length_b   6.13443301
_cell_length_c   12.92518703
_cell_angle_alpha   90.00767272
_cell_angle_beta   89.99838546
_cell_angle_gamma   89.99980462
_symmetry_Int_Tables_number   1
_chemical_formula_structural   Ti2Ga2Ru3Rh
_chemical_formula_sum   'Ti6 Ga6 Ru9 Rh3'
_cell_volume   343.06845893
_cell_formula_units_Z   3
loop_
 _symmetry_equiv_pos_site_id
 _symmetry_equiv_pos_as_xyz
  1  'x, y, z'
loop_
 _atom_site_type_symbol
 _atom_site_label
 _atom_site_symmetry_multiplicity
 _atom_site_fract_x
 _atom_site_fract_y
 _atom_site_fract_z
 _atom_site_occupancy
  Ti  Ti0  1  0.000013  0.502332  0.997578  1
  Ti  Ti1  1  0.499805  0.994894  0.171178  1
  Ti  Ti2  1  0.999828  0.502724  0.335724  1
  Ti  Ti3  1  0.499999  0.000440  0.500169  1
  Ti  Ti4  1  0.000177  0.498693  0.666548  1
  Ti  Ti5  1  0.500190  0.000320  0.828884  1
  Ga  Ga6  1  0.000006  0.999201  0.999398  1
  Ga  Ga7  1  0.499781  0.501159  0.168116  1
  Ga  Ga8  1  0.999787  0.999107  0.333954  1
  Ga  Ga9  1  0.500000  0.499874  0.499866  1
  Ga  Ga10  1  0.000204  0.000372  0.666892  1
  Ga  Ga11  1  0.500216  0.500085  0.831793  1
  Ru  Ru12  1  0.999813  0.751227  0.165092  1
  Ru  Ru13  1  0.499808  0.249965  0.331896  1
  Ru  Ru14  1  0.499812  0.750138  0.331840  1
  Ru  Ru15  1  0.999981  0.249454  0.499500  1
  Ru  Ru16  1  0.000003  0.750427  0.499921  1
  Ru  Ru17  1  0.500186  0.250190  0.667296  1
  Ru  Ru18  1  0.500159  0.749766  0.667132  1
  Ru  Ru19  1  0.000216  0.249506  0.835614  1
  Ru  Ru20  1  0.000192  0.750098  0.835026  1
  Rh  Rh21  1  0.500011  0.251498  0.000864  1
  Rh  Rh22  1  0.500007  0.748781  0.000431  1
  Rh  Rh23  1  0.999809  0.249750  0.165291  1
