# generated using pymatgen
data_Pa2Pd5Ru
_symmetry_space_group_name_H-M   'P 1'
_cell_length_a   5.84882943
_cell_length_b   5.84882897
_cell_length_c   4.85369600
_cell_angle_alpha   90.00000000
_cell_angle_beta   90.00000000
_cell_angle_gamma   121.94493315
_symmetry_Int_Tables_number   1
_chemical_formula_structural   Pa2Pd5Ru
_chemical_formula_sum   'Pa2 Pd5 Ru1'
_cell_volume   140.89366786
_cell_formula_units_Z   1
loop_
 _symmetry_equiv_pos_site_id
 _symmetry_equiv_pos_as_xyz
  1  'x, y, z'
loop_
 _atom_site_type_symbol
 _atom_site_label
 _atom_site_symmetry_multiplicity
 _atom_site_fract_x
 _atom_site_fract_y
 _atom_site_fract_z
 _atom_site_occupancy
  Pa  Pa0  1  0.674665  0.325335  0.250000  1
  Pa  Pa1  1  0.331377  0.668623  0.750000  1
  Pd  Pd2  1  0.324904  0.166822  0.750000  1
  Pd  Pd3  1  0.833178  0.675096  0.750000  1
  Pd  Pd4  1  0.162137  0.837863  0.250000  1
  Pd  Pd5  1  0.675469  0.833106  0.250000  1
  Pd  Pd6  1  0.166894  0.324531  0.250000  1
  Ru  Ru7  1  0.831376  0.168624  0.750000  1
