# generated using pymatgen
data_Ho16Cd4Os3Pt
_symmetry_space_group_name_H-M   'P 1'
_cell_length_a   9.54047107
_cell_length_b   9.69213244
_cell_length_c   9.69213300
_cell_angle_alpha   60.00000149
_cell_angle_beta   59.47273701
_cell_angle_gamma   59.47273765
_symmetry_Int_Tables_number   1
_chemical_formula_structural   Ho16Cd4Os3Pt
_chemical_formula_sum   'Ho16 Cd4 Os3 Pt1'
_cell_volume   628.61685320
_cell_formula_units_Z   1
loop_
 _symmetry_equiv_pos_site_id
 _symmetry_equiv_pos_as_xyz
  1  'x, y, z'
loop_
 _atom_site_type_symbol
 _atom_site_label
 _atom_site_symmetry_multiplicity
 _atom_site_fract_x
 _atom_site_fract_y
 _atom_site_fract_z
 _atom_site_occupancy
  Ho  Ho0  1  0.596720  0.600765  0.600765  1
  Ho  Ho1  1  0.596720  0.600765  0.201751  1
  Ho  Ho2  1  0.596720  0.201751  0.600765  1
  Ho  Ho3  1  0.220524  0.593159  0.593159  1
  Ho  Ho4  1  0.063811  0.439932  0.439932  1
  Ho  Ho5  1  0.435455  0.061136  0.061136  1
  Ho  Ho6  1  0.435455  0.061136  0.442273  1
  Ho  Ho7  1  0.063811  0.439932  0.056324  1
  Ho  Ho8  1  0.435455  0.442273  0.061136  1
  Ho  Ho9  1  0.063811  0.056324  0.439932  1
  Ho  Ho10  1  0.185495  0.812488  0.812488  1
  Ho  Ho11  1  0.805030  0.189542  0.189542  1
  Ho  Ho12  1  0.805030  0.189542  0.815886  1
  Ho  Ho13  1  0.185495  0.812488  0.189530  1
  Ho  Ho14  1  0.805030  0.815886  0.189542  1
  Ho  Ho15  1  0.185495  0.189530  0.812488  1
  Cd  Cd16  1  0.829976  0.829318  0.829318  1
  Cd  Cd17  1  0.829976  0.829318  0.511387  1
  Cd  Cd18  1  0.829976  0.511387  0.829318  1
  Cd  Cd19  1  0.505947  0.831351  0.831351  1
  Os  Os20  1  0.399711  0.386444  0.386444  1
  Os  Os21  1  0.399711  0.386444  0.827401  1
  Os  Os22  1  0.399711  0.827401  0.386444  1
  Pt  Pt23  1  0.824935  0.391688  0.391688  1
