# generated using pymatgen
data_Tb5DyYRhI12
_symmetry_space_group_name_H-M   'P 1'
_cell_length_a   9.82051579
_cell_length_b   9.82142493
_cell_length_c   9.81907010
_cell_angle_alpha   106.91757296
_cell_angle_beta   106.90254172
_cell_angle_gamma   106.92914619
_symmetry_Int_Tables_number   1
_chemical_formula_structural   Tb5DyYRhI12
_chemical_formula_sum   'Tb5 Dy1 Y1 Rh1 I12'
_cell_volume   790.51498984
_cell_formula_units_Z   1
loop_
 _symmetry_equiv_pos_site_id
 _symmetry_equiv_pos_as_xyz
  1  'x, y, z'
loop_
 _atom_site_type_symbol
 _atom_site_label
 _atom_site_symmetry_multiplicity
 _atom_site_fract_x
 _atom_site_fract_y
 _atom_site_fract_z
 _atom_site_occupancy
  Tb  Tb0  1  0.977096  0.703867  0.904851  1
  Tb  Tb1  1  0.703823  0.905078  0.976977  1
  Tb  Tb2  1  0.094955  0.022846  0.296274  1
  Tb  Tb3  1  0.022739  0.296060  0.094579  1
  Tb  Tb4  1  0.296056  0.094923  0.022566  1
  Dy  Dy5  1  0.905615  0.977317  0.705108  1
  Y  Y6  1  0.499986  0.499998  0.499932  1
  Rh  Rh7  1  0.999926  0.999982  0.999724  1
  I  I8  1  0.536747  0.837274  0.613046  1
  I  I9  1  0.837105  0.613636  0.536145  1
  I  I10  1  0.613103  0.536089  0.837083  1
  I  I11  1  0.463864  0.162847  0.386883  1
  I  I12  1  0.162825  0.386821  0.463886  1
  I  I13  1  0.386895  0.463891  0.162865  1
  I  I14  1  0.675913  0.224556  0.070584  1
  I  I15  1  0.223653  0.070330  0.675749  1
  I  I16  1  0.070593  0.676032  0.224557  1
  I  I17  1  0.324085  0.775441  0.929435  1
  I  I18  1  0.775714  0.929555  0.324688  1
  I  I19  1  0.929308  0.323457  0.775069  1
