# generated using pymatgen
data_U2Co5Sn2H
_symmetry_space_group_name_H-M   'P 1'
_cell_length_a   5.13631300
_cell_length_b   7.15165800
_cell_length_c   8.26481300
_cell_angle_alpha   90.00000000
_cell_angle_beta   90.00000000
_cell_angle_gamma   90.00000000
_symmetry_Int_Tables_number   1
_chemical_formula_structural   U2Co5Sn2H
_chemical_formula_sum   'U4 Co10 Sn4 H2'
_cell_volume   303.59264835
_cell_formula_units_Z   2
loop_
 _symmetry_equiv_pos_site_id
 _symmetry_equiv_pos_as_xyz
  1  'x, y, z'
loop_
 _atom_site_type_symbol
 _atom_site_label
 _atom_site_symmetry_multiplicity
 _atom_site_fract_x
 _atom_site_fract_y
 _atom_site_fract_z
 _atom_site_occupancy
  U  U0  1  0.750000  0.932550  0.829743  1
  U  U1  1  0.750000  0.432550  0.670257  1
  U  U2  1  0.250000  0.128425  0.152514  1
  U  U3  1  0.250000  0.628425  0.347486  1
  Co  Co4  1  0.250000  0.448146  0.591042  1
  Co  Co5  1  0.250000  0.948146  0.908958  1
  Co  Co6  1  0.000305  0.271970  0.369156  1
  Co  Co7  1  0.499695  0.771970  0.130844  1
  Co  Co8  1  0.499109  0.750948  0.626604  1
  Co  Co9  1  0.000891  0.250948  0.873396  1
  Co  Co10  1  0.000891  0.750948  0.626604  1
  Co  Co11  1  0.499109  0.250948  0.873396  1
  Co  Co12  1  0.499695  0.271970  0.369156  1
  Co  Co13  1  0.000305  0.771970  0.130844  1
  Sn  Sn14  1  0.750000  0.937586  0.392507  1
  Sn  Sn15  1  0.750000  0.437586  0.107493  1
  Sn  Sn16  1  0.250000  0.084764  0.605502  1
  Sn  Sn17  1  0.250000  0.584764  0.894498  1
  H  H18  1  0.750000  0.422692  0.396843  1
  H  H19  1  0.750000  0.922692  0.103157  1
