# generated using pymatgen
data_Li4TbNd3Si8
_symmetry_space_group_name_H-M   'P 1'
_cell_length_a   3.86003600
_cell_length_b   7.69659798
_cell_length_c   10.42117712
_cell_angle_alpha   89.88467651
_cell_angle_beta   90.00000000
_cell_angle_gamma   90.00000000
_symmetry_Int_Tables_number   1
_chemical_formula_structural   Li4TbNd3Si8
_chemical_formula_sum   'Li4 Tb1 Nd3 Si8'
_cell_volume   309.60363782
_cell_formula_units_Z   1
loop_
 _symmetry_equiv_pos_site_id
 _symmetry_equiv_pos_as_xyz
  1  'x, y, z'
loop_
 _atom_site_type_symbol
 _atom_site_label
 _atom_site_symmetry_multiplicity
 _atom_site_fract_x
 _atom_site_fract_y
 _atom_site_fract_z
 _atom_site_occupancy
  Li  Li0  1  0.250000  0.993889  0.389674  1
  Li  Li1  1  0.750000  0.004516  0.610231  1
  Li  Li2  1  0.250000  0.494804  0.107876  1
  Li  Li3  1  0.750000  0.509105  0.890457  1
  Tb  Tb4  1  0.250000  0.135964  0.864699  1
  Nd  Nd5  1  0.750000  0.862555  0.135244  1
  Nd  Nd6  1  0.250000  0.637655  0.636458  1
  Nd  Nd7  1  0.750000  0.359769  0.364853  1
  Si  Si8  1  0.750000  0.271721  0.065339  1
  Si  Si9  1  0.250000  0.732289  0.929654  1
  Si  Si10  1  0.750000  0.772192  0.430146  1
  Si  Si11  1  0.250000  0.223367  0.574139  1
  Si  Si12  1  0.750000  0.842813  0.822410  1
  Si  Si13  1  0.250000  0.163521  0.174608  1
  Si  Si14  1  0.750000  0.333489  0.682063  1
  Si  Si15  1  0.250000  0.662350  0.322149  1
