# generated using pymatgen
data_Sr8YEr3(GaO5)4
_symmetry_space_group_name_H-M   'P 1'
_cell_length_a   5.95265323
_cell_length_b   7.62463395
_cell_length_c   12.45430478
_cell_angle_alpha   91.53792472
_cell_angle_beta   90.02279154
_cell_angle_gamma   90.02148358
_symmetry_Int_Tables_number   1
_chemical_formula_structural   Sr8YEr3(GaO5)4
_chemical_formula_sum   'Sr8 Y1 Er3 Ga4 O20'
_cell_volume   565.05735815
_cell_formula_units_Z   1
loop_
 _symmetry_equiv_pos_site_id
 _symmetry_equiv_pos_as_xyz
  1  'x, y, z'
loop_
 _atom_site_type_symbol
 _atom_site_label
 _atom_site_symmetry_multiplicity
 _atom_site_fract_x
 _atom_site_fract_y
 _atom_site_fract_z
 _atom_site_occupancy
  Sr  Sr0  1  0.771061  0.487018  0.331011  1
  Sr  Sr1  1  0.728357  0.985848  0.830092  1
  Sr  Sr2  1  0.229053  0.513543  0.668815  1
  Sr  Sr3  1  0.271412  0.012880  0.169956  1
  Sr  Sr4  1  0.770497  0.985230  0.368296  1
  Sr  Sr5  1  0.728755  0.485825  0.867738  1
  Sr  Sr6  1  0.229484  0.014567  0.631103  1
  Sr  Sr7  1  0.270675  0.515459  0.132711  1
  Y  Y8  1  0.255394  0.229093  0.879750  1
  Er  Er9  1  0.756295  0.269979  0.620695  1
  Er  Er10  1  0.743435  0.770027  0.121248  1
  Er  Er11  1  0.243537  0.730078  0.378983  1
  Ga  Ga12  1  0.719708  0.741687  0.579228  1
  Ga  Ga13  1  0.780544  0.241845  0.080297  1
  Ga  Ga14  1  0.280480  0.258431  0.420567  1
  Ga  Ga15  1  0.219544  0.758333  0.920729  1
  O  O16  1  0.787286  0.971902  0.627556  1
  O  O17  1  0.712015  0.472164  0.128235  1
  O  O18  1  0.212793  0.027952  0.372316  1
  O  O19  1  0.288298  0.529404  0.871598  1
  O  O20  1  0.717004  0.065859  0.176812  1
  O  O21  1  0.782253  0.566329  0.676158  1
  O  O22  1  0.282850  0.931287  0.822315  1
  O  O23  1  0.217736  0.434256  0.323886  1
  O  O24  1  0.537988  0.746919  0.274859  1
  O  O25  1  0.958957  0.247006  0.774210  1
  O  O26  1  0.461438  0.253078  0.723689  1
  O  O27  1  0.037976  0.753058  0.225279  1
  O  O28  1  0.597813  0.212926  0.959554  1
  O  O29  1  0.906504  0.713538  0.459555  1
  O  O30  1  0.406105  0.787154  0.040499  1
  O  O31  1  0.093639  0.286599  0.540115  1
  O  O32  1  0.090254  0.236757  0.046837  1
  O  O33  1  0.410744  0.736162  0.543585  1
  O  O34  1  0.910447  0.764128  0.956153  1
  O  O35  1  0.589670  0.263680  0.455571  1
