# generated using pymatgen
data_Nd2PaIn3Ir2Rh
_symmetry_space_group_name_H-M   'P 1'
_cell_length_a   7.91936200
_cell_length_b   7.70986008
_cell_length_c   3.86742200
_cell_angle_alpha   90.00000000
_cell_angle_beta   90.00000000
_cell_angle_gamma   120.90302959
_symmetry_Int_Tables_number   1
_chemical_formula_structural   Nd2PaIn3Ir2Rh
_chemical_formula_sum   'Nd2 Pa1 In3 Ir2 Rh1'
_cell_volume   202.61176082
_cell_formula_units_Z   1
loop_
 _symmetry_equiv_pos_site_id
 _symmetry_equiv_pos_as_xyz
  1  'x, y, z'
loop_
 _atom_site_type_symbol
 _atom_site_label
 _atom_site_symmetry_multiplicity
 _atom_site_fract_x
 _atom_site_fract_y
 _atom_site_fract_z
 _atom_site_occupancy
  Nd  Nd0  1  0.409637  0.408853  0.500000  1
  Nd  Nd1  1  0.000784  0.591147  0.500000  1
  Pa  Pa2  1  0.578680  0.000000  0.500000  1
  In  In3  1  0.241346  0.000000  0.000000  1
  In  In4  1  0.746231  0.740837  0.000000  1
  In  In5  1  0.005394  0.259163  0.000000  1
  Ir  Ir6  1  0.369442  0.708821  0.000000  1
  Ir  Ir7  1  0.660622  0.291179  0.000000  1
  Rh  Rh8  1  0.987864  0.000000  0.500000  1
