# generated using pymatgen
data_Dy3Tm2Fe11Co5(MoP4)3
_symmetry_space_group_name_H-M   'P 1'
_cell_length_a   12.03715800
_cell_length_b   12.04486523
_cell_length_c   3.69550300
_cell_angle_alpha   90.00000000
_cell_angle_beta   90.00000000
_cell_angle_gamma   120.02117343
_symmetry_Int_Tables_number   1
_chemical_formula_structural   Dy3Tm2Fe11Co5(MoP4)3
_chemical_formula_sum   'Dy3 Tm2 Fe11 Co5 Mo3 P12'
_cell_volume   463.91391327
_cell_formula_units_Z   1
loop_
 _symmetry_equiv_pos_site_id
 _symmetry_equiv_pos_as_xyz
  1  'x, y, z'
loop_
 _atom_site_type_symbol
 _atom_site_label
 _atom_site_symmetry_multiplicity
 _atom_site_fract_x
 _atom_site_fract_y
 _atom_site_fract_z
 _atom_site_occupancy
  Dy  Dy0  1  0.665631  0.333544  0.000000  1
  Dy  Dy1  1  0.333215  0.666837  0.000000  1
  Dy  Dy2  1  0.001348  0.818608  0.500000  1
  Tm  Tm3  1  0.182446  0.183599  0.500000  1
  Tm  Tm4  1  0.816782  0.998484  0.500000  1
  Fe  Fe5  1  0.817909  0.195076  0.000000  1
  Fe  Fe6  1  0.804237  0.621652  0.000000  1
  Fe  Fe7  1  0.646261  0.122210  0.500000  1
  Fe  Fe8  1  0.877631  0.523451  0.500000  1
  Fe  Fe9  1  0.479076  0.355108  0.500000  1
  Fe  Fe10  1  0.125707  0.645561  0.500000  1
  Fe  Fe11  1  0.520139  0.874469  0.500000  1
  Fe  Fe12  1  0.354059  0.478425  0.500000  1
  Fe  Fe13  1  0.718465  0.718937  0.500000  1
  Fe  Fe14  1  0.281685  0.001136  0.500000  1
  Fe  Fe15  1  0.000510  0.280697  0.500000  1
  Co  Co16  1  0.373685  0.180333  0.000000  1
  Co  Co17  1  0.197532  0.823162  0.000000  1
  Co  Co18  1  0.625477  0.803868  0.000000  1
  Co  Co19  1  0.178712  0.374110  0.000000  1
  Co  Co20  1  0.999998  0.000958  0.000000  1
  Mo  Mo21  1  0.558090  0.557872  0.000000  1
  Mo  Mo22  1  0.443119  0.001916  0.000000  1
  Mo  Mo23  1  0.998887  0.441211  0.000000  1
  P  P24  1  0.359510  0.361089  0.000000  1
  P  P25  1  0.638169  0.996143  0.000000  1
  P  P26  1  0.004729  0.641928  0.000000  1
  P  P27  1  0.834078  0.311859  0.500000  1
  P  P28  1  0.685834  0.520917  0.500000  1
  P  P29  1  0.478587  0.167140  0.500000  1
  P  P30  1  0.313676  0.834136  0.500000  1
  P  P31  1  0.519956  0.686138  0.500000  1
  P  P32  1  0.166173  0.479342  0.500000  1
  P  P33  1  0.818722  0.817566  0.000000  1
  P  P34  1  0.181959  0.001931  0.000000  1
  P  P35  1  0.998007  0.180589  0.000000  1
