# generated using pymatgen
data_Y6Er10Cd4Ir3Rh
_symmetry_space_group_name_H-M   'P 1'
_cell_length_a   9.61749854
_cell_length_b   9.61749812
_cell_length_c   9.61749890
_cell_angle_alpha   59.94119082
_cell_angle_beta   59.94119071
_cell_angle_gamma   59.94119047
_symmetry_Int_Tables_number   1
_chemical_formula_structural   Y6Er10Cd4Ir3Rh
_chemical_formula_sum   'Y6 Er10 Cd4 Ir3 Rh1'
_cell_volume   628.19101047
_cell_formula_units_Z   1
loop_
 _symmetry_equiv_pos_site_id
 _symmetry_equiv_pos_as_xyz
  1  'x, y, z'
loop_
 _atom_site_type_symbol
 _atom_site_label
 _atom_site_symmetry_multiplicity
 _atom_site_fract_x
 _atom_site_fract_y
 _atom_site_fract_z
 _atom_site_occupancy
  Y  Y0  1  0.940369  0.560909  0.560909  1
  Y  Y1  1  0.561871  0.938490  0.938490  1
  Y  Y2  1  0.560909  0.940369  0.560909  1
  Y  Y3  1  0.938490  0.561871  0.938490  1
  Y  Y4  1  0.560909  0.560909  0.940369  1
  Y  Y5  1  0.938490  0.938490  0.561871  1
  Er  Er6  1  0.348059  0.348059  0.348059  1
  Er  Er7  1  0.349603  0.349603  0.954976  1
  Er  Er8  1  0.349603  0.954976  0.349603  1
  Er  Er9  1  0.954976  0.349603  0.349603  1
  Er  Er10  1  0.809819  0.188896  0.188896  1
  Er  Er11  1  0.187084  0.810773  0.810773  1
  Er  Er12  1  0.188896  0.809819  0.188896  1
  Er  Er13  1  0.810773  0.187084  0.810773  1
  Er  Er14  1  0.188896  0.188896  0.809819  1
  Er  Er15  1  0.810773  0.810773  0.187084  1
  Cd  Cd16  1  0.579131  0.579131  0.579131  1
  Cd  Cd17  1  0.580816  0.580816  0.256853  1
  Cd  Cd18  1  0.580816  0.256853  0.580816  1
  Cd  Cd19  1  0.256853  0.580816  0.580816  1
  Ir  Ir20  1  0.142696  0.142696  0.575466  1
  Ir  Ir21  1  0.142696  0.575466  0.142696  1
  Ir  Ir22  1  0.575466  0.142696  0.142696  1
  Rh  Rh23  1  0.142007  0.142007  0.142007  1
