# generated using pymatgen
data_DyTm7Ti7Si16W5
_symmetry_space_group_name_H-M   'P 1'
_cell_length_a   6.92734884
_cell_length_b   6.92103349
_cell_length_c   12.76329848
_cell_angle_alpha   90.11204095
_cell_angle_beta   90.01159848
_cell_angle_gamma   90.02848963
_symmetry_Int_Tables_number   1
_chemical_formula_structural   DyTm7Ti7Si16W5
_chemical_formula_sum   'Dy1 Tm7 Ti7 Si16 W5'
_cell_volume   611.92759890
_cell_formula_units_Z   1
loop_
 _symmetry_equiv_pos_site_id
 _symmetry_equiv_pos_as_xyz
  1  'x, y, z'
loop_
 _atom_site_type_symbol
 _atom_site_label
 _atom_site_symmetry_multiplicity
 _atom_site_fract_x
 _atom_site_fract_y
 _atom_site_fract_z
 _atom_site_occupancy
  Dy  Dy0  1  0.340086  0.000315  0.468492  1
  Tm  Tm1  1  0.000152  0.659553  0.032188  1
  Tm  Tm2  1  0.000528  0.340887  0.530507  1
  Tm  Tm3  1  0.659317  0.999672  0.968178  1
  Tm  Tm4  1  0.158207  0.499804  0.782102  1
  Tm  Tm5  1  0.841353  0.499880  0.281158  1
  Tm  Tm6  1  0.500602  0.159941  0.219668  1
  Tm  Tm7  1  0.499962  0.840375  0.717934  1
  Ti  Ti8  1  0.846834  0.990715  0.375828  1
  Ti  Ti9  1  0.008438  0.154307  0.125345  1
  Ti  Ti10  1  0.993306  0.846707  0.623446  1
  Ti  Ti11  1  0.507940  0.346817  0.625063  1
  Ti  Ti12  1  0.152819  0.008056  0.875617  1
  Ti  Ti13  1  0.493920  0.652432  0.124807  1
  Ti  Ti14  1  0.653302  0.492359  0.874952  1
  Si  Si15  1  0.046591  0.706552  0.434441  1
  Si  Si16  1  0.954246  0.293545  0.935041  1
  Si  Si17  1  0.707992  0.046800  0.566269  1
  Si  Si18  1  0.206040  0.455271  0.184931  1
  Si  Si19  1  0.792218  0.545654  0.684693  1
  Si  Si20  1  0.454000  0.206787  0.815474  1
  Si  Si21  1  0.545667  0.791539  0.314861  1
  Si  Si22  1  0.293707  0.954328  0.065440  1
  Si  Si23  1  0.799000  0.868873  0.182420  1
  Si  Si24  1  0.297509  0.629471  0.567248  1
  Si  Si25  1  0.701685  0.368074  0.067130  1
  Si  Si26  1  0.631627  0.299194  0.431239  1
  Si  Si27  1  0.368475  0.702103  0.932735  1
  Si  Si28  1  0.129280  0.204333  0.317912  1
  Si  Si29  1  0.199581  0.131933  0.683216  1
  Si  Si30  1  0.868716  0.799074  0.816409  1
  W  W31  1  0.347020  0.505943  0.374527  1
  W  W32  1  0.671576  0.670450  0.499622  1
  W  W33  1  0.826311  0.172727  0.750407  1
  W  W34  1  0.173487  0.827453  0.250031  1
  W  W35  1  0.328504  0.328078  0.000671  1
