# generated using pymatgen
data_SmY3(B4W)4
_symmetry_space_group_name_H-M   'P 1'
_cell_length_a   6.05507882
_cell_length_b   11.70229858
_cell_length_c   3.63775400
_cell_angle_alpha   90.00000000
_cell_angle_beta   90.00000000
_cell_angle_gamma   89.94047717
_symmetry_Int_Tables_number   1
_chemical_formula_structural   SmY3(B4W)4
_chemical_formula_sum   'Sm1 Y3 B16 W4'
_cell_volume   257.76507152
_cell_formula_units_Z   1
loop_
 _symmetry_equiv_pos_site_id
 _symmetry_equiv_pos_as_xyz
  1  'x, y, z'
loop_
 _atom_site_type_symbol
 _atom_site_label
 _atom_site_symmetry_multiplicity
 _atom_site_fract_x
 _atom_site_fract_y
 _atom_site_fract_z
 _atom_site_occupancy
  Sm  Sm0  1  0.626619  0.349893  0.000000  1
  Y  Y1  1  0.373292  0.649916  0.000000  1
  Y  Y2  1  0.126677  0.149325  0.000000  1
  Y  Y3  1  0.873385  0.850327  0.000000  1
  B  B4  1  0.786939  0.185252  0.500000  1
  B  B5  1  0.213391  0.813741  0.500000  1
  B  B6  1  0.284799  0.313393  0.500000  1
  B  B7  1  0.713484  0.686733  0.500000  1
  B  B8  1  0.866331  0.031561  0.500000  1
  B  B9  1  0.133898  0.967747  0.500000  1
  B  B10  1  0.365480  0.468792  0.500000  1
  B  B11  1  0.634371  0.533080  0.500000  1
  B  B12  1  0.887784  0.453834  0.500000  1
  B  B13  1  0.114011  0.547976  0.500000  1
  B  B14  1  0.385982  0.046716  0.500000  1
  B  B15  1  0.613573  0.952430  0.500000  1
  B  B16  1  0.977118  0.306950  0.500000  1
  B  B17  1  0.023848  0.693517  0.500000  1
  B  B18  1  0.475058  0.191845  0.500000  1
  B  B19  1  0.523744  0.806845  0.500000  1
  W  W20  1  0.630291  0.083557  0.000000  1
  W  W21  1  0.369465  0.915354  0.000000  1
  W  W22  1  0.130433  0.416102  0.000000  1
  W  W23  1  0.870026  0.585115  0.000000  1
