# generated using pymatgen
data_NdEu3Ti4O12
_symmetry_space_group_name_H-M   'P 1'
_cell_length_a   5.55284941
_cell_length_b   5.55285050
_cell_length_c   9.57255299
_cell_angle_alpha   73.43278740
_cell_angle_beta   73.43278113
_cell_angle_gamma   60.51971601
_symmetry_Int_Tables_number   1
_chemical_formula_structural   NdEu3Ti4O12
_chemical_formula_sum   'Nd1 Eu3 Ti4 O12'
_cell_volume   242.54091595
_cell_formula_units_Z   1
loop_
 _symmetry_equiv_pos_site_id
 _symmetry_equiv_pos_as_xyz
  1  'x, y, z'
loop_
 _atom_site_type_symbol
 _atom_site_label
 _atom_site_symmetry_multiplicity
 _atom_site_fract_x
 _atom_site_fract_y
 _atom_site_fract_z
 _atom_site_occupancy
  Nd  Nd0  1  0.613979  0.386021  0.000000  1
  Eu  Eu1  1  0.116660  0.883340  0.500000  1
  Eu  Eu2  1  0.381497  0.118906  0.748480  1
  Eu  Eu3  1  0.881094  0.618503  0.251520  1
  Ti  Ti4  1  0.248091  0.000973  0.127259  1
  Ti  Ti5  1  0.751254  0.500023  0.623168  1
  Ti  Ti6  1  0.999027  0.751909  0.872741  1
  Ti  Ti7  1  0.499977  0.248746  0.376832  1
  O  O8  1  0.937961  0.554843  0.754799  1
  O  O9  1  0.445157  0.062039  0.245201  1
  O  O10  1  0.043173  0.956827  0.000000  1
  O  O11  1  0.559729  0.440271  0.500000  1
  O  O12  1  0.644268  0.890270  0.516079  1
  O  O13  1  0.160336  0.391461  0.016488  1
  O  O14  1  0.608539  0.839664  0.983512  1
  O  O15  1  0.109730  0.355732  0.483921  1
  O  O16  1  0.395770  0.641572  0.772882  1
  O  O17  1  0.892441  0.147109  0.264839  1
  O  O18  1  0.358428  0.604230  0.227118  1
  O  O19  1  0.852891  0.107559  0.735161  1
