# generated using pymatgen
data_Tb2Th2(Al8Pd3)3
_symmetry_space_group_name_H-M   'P 1'
_cell_length_a   7.58649606
_cell_length_b   7.59498807
_cell_length_c   13.29782843
_cell_angle_alpha   84.70143009
_cell_angle_beta   100.80592640
_cell_angle_gamma   119.79617142
_symmetry_Int_Tables_number   1
_chemical_formula_structural   Tb2Th2(Al8Pd3)3
_chemical_formula_sum   'Tb2 Th2 Al24 Pd9'
_cell_volume   653.12719762
_cell_formula_units_Z   1
loop_
 _symmetry_equiv_pos_site_id
 _symmetry_equiv_pos_as_xyz
  1  'x, y, z'
loop_
 _atom_site_type_symbol
 _atom_site_label
 _atom_site_symmetry_multiplicity
 _atom_site_fract_x
 _atom_site_fract_y
 _atom_site_fract_z
 _atom_site_occupancy
  Tb  Tb0  1  0.768383  0.502363  0.807579  1
  Tb  Tb1  1  0.231617  0.497637  0.192421  1
  Th  Th2  1  0.437308  0.831788  0.807053  1
  Th  Th3  1  0.562692  0.168212  0.192947  1
  Al  Al4  1  0.480639  0.169085  0.945158  1
  Al  Al5  1  0.519361  0.830915  0.054842  1
  Al  Al6  1  0.021703  0.165800  0.560592  1
  Al  Al7  1  0.978297  0.834200  0.439408  1
  Al  Al8  1  0.353179  0.832853  0.557971  1
  Al  Al9  1  0.646821  0.167147  0.442029  1
  Al  Al10  1  0.618154  0.831961  0.333326  1
  Al  Al11  1  0.381846  0.168039  0.666674  1
  Al  Al12  1  0.053263  0.489857  0.666971  1
  Al  Al13  1  0.946737  0.510143  0.333029  1
  Al  Al14  1  0.733731  0.840474  0.665707  1
  Al  Al15  1  0.266269  0.159526  0.334293  1
  Al  Al16  1  0.145753  0.496777  0.947241  1
  Al  Al17  1  0.854247  0.503223  0.052759  1
  Al  Al18  1  0.820032  0.833709  0.955533  1
  Al  Al19  1  0.179968  0.166291  0.044467  1
  Al  Al20  1  0.312055  0.498776  0.440463  1
  Al  Al21  1  0.687945  0.501224  0.559537  1
  Al  Al22  1  0.099532  0.833511  0.184112  1
  Al  Al23  1  0.900468  0.166489  0.815888  1
  Al  Al24  1  0.305623  0.365902  0.814159  1
  Al  Al25  1  0.694377  0.634098  0.185841  1
  Al  Al26  1  0.099217  0.959521  0.815472  1
  Al  Al27  1  0.900783  0.040479  0.184528  1
  Pd  Pd28  1  0.386818  0.506740  0.637487  1
  Pd  Pd29  1  0.613182  0.493260  0.362513  1
  Pd  Pd30  1  0.172852  0.829495  0.999460  1
  Pd  Pd31  1  0.827148  0.170505  0.000540  1
  Pd  Pd32  1  0.293905  0.833646  0.362261  1
  Pd  Pd33  1  0.706095  0.166354  0.637739  1
  Pd  Pd34  1  0.047546  0.825514  0.637928  1
  Pd  Pd35  1  0.952454  0.174486  0.362072  1
  Pd  Pd36  1  0.500000  0.500000  0.000000  1
