# generated using pymatgen
data_HoGaNi3Pt
_symmetry_space_group_name_H-M   'P 1'
_cell_length_a   5.15024064
_cell_length_b   4.80290852
_cell_length_c   4.05631400
_cell_angle_alpha   90.00000000
_cell_angle_beta   90.00000000
_cell_angle_gamma   116.95363137
_symmetry_Int_Tables_number   1
_chemical_formula_structural   HoGaNi3Pt
_chemical_formula_sum   'Ho1 Ga1 Ni3 Pt1'
_cell_volume   89.43822857
_cell_formula_units_Z   1
loop_
 _symmetry_equiv_pos_site_id
 _symmetry_equiv_pos_as_xyz
  1  'x, y, z'
loop_
 _atom_site_type_symbol
 _atom_site_label
 _atom_site_symmetry_multiplicity
 _atom_site_fract_x
 _atom_site_fract_y
 _atom_site_fract_z
 _atom_site_occupancy
  Ho  Ho0  1  0.000000  0.000000  0.000000  1
  Ga  Ga1  1  0.500000  0.500000  0.500000  1
  Ni  Ni2  1  0.635814  0.312350  0.000000  1
  Ni  Ni3  1  0.364186  0.687650  0.000000  1
  Ni  Ni4  1  0.500000  0.000000  0.500000  1
  Pt  Pt5  1  0.000000  0.500000  0.500000  1
