# generated using pymatgen
data_Ho11Tm(TcRu)2
_symmetry_space_group_name_H-M   'P 1'
_cell_length_a   6.26931790
_cell_length_b   7.35687141
_cell_length_c   9.09176409
_cell_angle_alpha   90.02032735
_cell_angle_beta   89.94768401
_cell_angle_gamma   89.96756024
_symmetry_Int_Tables_number   1
_chemical_formula_structural   Ho11Tm(TcRu)2
_chemical_formula_sum   'Ho11 Tm1 Tc2 Ru2'
_cell_volume   419.33521774
_cell_formula_units_Z   1
loop_
 _symmetry_equiv_pos_site_id
 _symmetry_equiv_pos_as_xyz
  1  'x, y, z'
loop_
 _atom_site_type_symbol
 _atom_site_label
 _atom_site_symmetry_multiplicity
 _atom_site_fract_x
 _atom_site_fract_y
 _atom_site_fract_z
 _atom_site_occupancy
  Ho  Ho0  1  0.165723  0.176087  0.436504  1
  Ho  Ho1  1  0.664442  0.324188  0.562652  1
  Ho  Ho2  1  0.835690  0.824199  0.937550  1
  Ho  Ho3  1  0.663891  0.324671  0.937578  1
  Ho  Ho4  1  0.835521  0.824368  0.562674  1
  Ho  Ho5  1  0.334585  0.676167  0.436036  1
  Ho  Ho6  1  0.166014  0.176113  0.063436  1
  Ho  Ho7  1  0.874656  0.540151  0.249615  1
  Ho  Ho8  1  0.625232  0.039652  0.249704  1
  Ho  Ho9  1  0.132145  0.457180  0.750378  1
  Ho  Ho10  1  0.367906  0.956582  0.750317  1
  Tm  Tm11  1  0.334508  0.675814  0.063630  1
  Tc  Tc12  1  0.038604  0.885433  0.249573  1
  Tc  Tc13  1  0.461526  0.386397  0.249759  1
  Ru  Ru14  1  0.960811  0.116515  0.749885  1
  Ru  Ru15  1  0.538747  0.616484  0.750710  1
