# generated using pymatgen
data_YHo3P3Se
_symmetry_space_group_name_H-M   'P 1'
_cell_length_a   6.93891435
_cell_length_b   6.93891327
_cell_length_c   6.93308200
_cell_angle_alpha   80.26780752
_cell_angle_beta   80.26780904
_cell_angle_gamma   33.58677279
_symmetry_Int_Tables_number   1
_chemical_formula_structural   YHo3P3Se
_chemical_formula_sum   'Y1 Ho3 P3 Se1'
_cell_volume   181.76608470
_cell_formula_units_Z   1
loop_
 _symmetry_equiv_pos_site_id
 _symmetry_equiv_pos_as_xyz
  1  'x, y, z'
loop_
 _atom_site_type_symbol
 _atom_site_label
 _atom_site_symmetry_multiplicity
 _atom_site_fract_x
 _atom_site_fract_y
 _atom_site_fract_z
 _atom_site_occupancy
  Y  Y0  1  0.006994  0.006994  0.009067  1
  Ho  Ho1  1  0.248553  0.248553  0.260783  1
  Ho  Ho2  1  0.501617  0.501617  0.489233  1
  Ho  Ho3  1  0.742729  0.742729  0.740770  1
  P  P4  1  0.628704  0.628704  0.123691  1
  P  P5  1  0.874706  0.874706  0.376246  1
  P  P6  1  0.122420  0.122420  0.626172  1
  Se  Se7  1  0.374277  0.374277  0.874039  1
