# generated using pymatgen
data_Lu12Th4MnCd4Co3
_symmetry_space_group_name_H-M   'P 1'
_cell_length_a   9.45307292
_cell_length_b   9.45307248
_cell_length_c   9.45307327
_cell_angle_alpha   59.71463716
_cell_angle_beta   59.71463842
_cell_angle_gamma   59.71464137
_symmetry_Int_Tables_number   1
_chemical_formula_structural   Lu12Th4MnCd4Co3
_chemical_formula_sum   'Lu12 Th4 Mn1 Cd4 Co3'
_cell_volume   593.44440693
_cell_formula_units_Z   1
loop_
 _symmetry_equiv_pos_site_id
 _symmetry_equiv_pos_as_xyz
  1  'x, y, z'
loop_
 _atom_site_type_symbol
 _atom_site_label
 _atom_site_symmetry_multiplicity
 _atom_site_fract_x
 _atom_site_fract_y
 _atom_site_fract_z
 _atom_site_occupancy
  Lu  Lu0  1  0.816110  0.186275  0.186275  1
  Lu  Lu1  1  0.187072  0.812377  0.812377  1
  Lu  Lu2  1  0.186275  0.816110  0.186275  1
  Lu  Lu3  1  0.812377  0.187072  0.812377  1
  Lu  Lu4  1  0.186275  0.186275  0.816110  1
  Lu  Lu5  1  0.812377  0.812377  0.187072  1
  Lu  Lu6  1  0.934982  0.564323  0.564323  1
  Lu  Lu7  1  0.562692  0.934155  0.934155  1
  Lu  Lu8  1  0.564323  0.934982  0.564323  1
  Lu  Lu9  1  0.934155  0.562692  0.934155  1
  Lu  Lu10  1  0.564323  0.564323  0.934982  1
  Lu  Lu11  1  0.934155  0.934155  0.562692  1
  Th  Th12  1  0.348491  0.348491  0.348491  1
  Th  Th13  1  0.344903  0.344903  0.960150  1
  Th  Th14  1  0.344903  0.960150  0.344903  1
  Th  Th15  1  0.960150  0.344903  0.344903  1
  Mn  Mn16  1  0.146604  0.146604  0.146604  1
  Cd  Cd17  1  0.581281  0.581281  0.581281  1
  Cd  Cd18  1  0.582516  0.582516  0.249559  1
  Cd  Cd19  1  0.582516  0.249559  0.582516  1
  Cd  Cd20  1  0.249559  0.582516  0.582516  1
  Co  Co21  1  0.144710  0.144710  0.574536  1
  Co  Co22  1  0.144710  0.574536  0.144710  1
  Co  Co23  1  0.574536  0.144710  0.144710  1
