# generated using pymatgen
data_Ho4Mg3Sc(B6Rh)4
_symmetry_space_group_name_H-M   'P 1'
_cell_length_a   3.55327200
_cell_length_b   8.92895808
_cell_length_c   11.30822809
_cell_angle_alpha   89.94530570
_cell_angle_beta   90.00000000
_cell_angle_gamma   90.00000000
_symmetry_Int_Tables_number   1
_chemical_formula_structural   Ho4Mg3Sc(B6Rh)4
_chemical_formula_sum   'Ho4 Mg3 Sc1 B24 Rh4'
_cell_volume   358.77617814
_cell_formula_units_Z   1
loop_
 _symmetry_equiv_pos_site_id
 _symmetry_equiv_pos_as_xyz
  1  'x, y, z'
loop_
 _atom_site_type_symbol
 _atom_site_label
 _atom_site_symmetry_multiplicity
 _atom_site_fract_x
 _atom_site_fract_y
 _atom_site_fract_z
 _atom_site_occupancy
  Ho  Ho0  1  0.000000  0.179712  0.913414  1
  Ho  Ho1  1  0.000000  0.819639  0.085023  1
  Ho  Ho2  1  0.000000  0.680741  0.586419  1
  Ho  Ho3  1  0.000000  0.319145  0.415197  1
  Mg  Mg4  1  0.000000  0.947855  0.380038  1
  Mg  Mg5  1  0.000000  0.052547  0.620671  1
  Mg  Mg6  1  0.000000  0.553584  0.877117  1
  Sc  Sc7  1  0.000000  0.445736  0.123708  1
  B  B8  1  0.500000  0.371214  0.818082  1
  B  B9  1  0.500000  0.981514  0.215207  1
  B  B10  1  0.500000  0.555941  0.433792  1
  B  B11  1  0.500000  0.293792  0.235507  1
  B  B12  1  0.500000  0.205280  0.734784  1
  B  B13  1  0.500000  0.100236  0.473076  1
  B  B14  1  0.500000  0.795406  0.264982  1
  B  B15  1  0.500000  0.444893  0.566731  1
  B  B16  1  0.500000  0.244265  0.580394  1
  B  B17  1  0.500000  0.481703  0.285048  1
  B  B18  1  0.500000  0.705873  0.764540  1
  B  B19  1  0.500000  0.756157  0.420523  1
  B  B20  1  0.500000  0.518654  0.714517  1
  B  B21  1  0.500000  0.899865  0.527242  1
  B  B22  1  0.500000  0.054776  0.066092  1
  B  B23  1  0.500000  0.601416  0.026946  1
  B  B24  1  0.500000  0.745466  0.919070  1
  B  B25  1  0.500000  0.018028  0.784979  1
  B  B26  1  0.500000  0.398970  0.972585  1
  B  B27  1  0.500000  0.944833  0.932906  1
  B  B28  1  0.500000  0.629527  0.180886  1
  B  B29  1  0.500000  0.254134  0.079419  1
  B  B30  1  0.500000  0.872201  0.680715  1
  B  B31  1  0.500000  0.127913  0.319953  1
  Rh  Rh32  1  0.000000  0.139016  0.181167  1
  Rh  Rh33  1  0.000000  0.359049  0.682625  1
  Rh  Rh34  1  0.000000  0.858322  0.818542  1
  Rh  Rh35  1  0.000000  0.642596  0.318104  1
