# generated using pymatgen
data_Yb3Sm(Mo2C3)2
_symmetry_space_group_name_H-M   'P 1'
_cell_length_a   6.55671800
_cell_length_b   5.93244105
_cell_length_c   11.90075241
_cell_angle_alpha   66.75848490
_cell_angle_beta   90.00000000
_cell_angle_gamma   90.00000000
_symmetry_Int_Tables_number   1
_chemical_formula_structural   Yb3Sm(Mo2C3)2
_chemical_formula_sum   'Yb6 Sm2 Mo8 C12'
_cell_volume   425.34253455
_cell_formula_units_Z   2
loop_
 _symmetry_equiv_pos_site_id
 _symmetry_equiv_pos_as_xyz
  1  'x, y, z'
loop_
 _atom_site_type_symbol
 _atom_site_label
 _atom_site_symmetry_multiplicity
 _atom_site_fract_x
 _atom_site_fract_y
 _atom_site_fract_z
 _atom_site_occupancy
  Yb  Yb0  1  0.796056  0.676162  0.903856  1
  Yb  Yb1  1  0.296056  0.323838  0.596144  1
  Yb  Yb2  1  0.205137  0.311367  0.089271  1
  Yb  Yb3  1  0.705137  0.688633  0.410729  1
  Yb  Yb4  1  0.993192  0.731411  0.636560  1
  Yb  Yb5  1  0.493192  0.268589  0.863440  1
  Sm  Sm6  1  0.002325  0.270166  0.363771  1
  Sm  Sm7  1  0.502325  0.729834  0.136229  1
  Mo  Mo8  1  0.989369  0.825092  0.121597  1
  Mo  Mo9  1  0.489369  0.174908  0.378403  1
  Mo  Mo10  1  0.010513  0.179957  0.875931  1
  Mo  Mo11  1  0.510513  0.820043  0.624069  1
  Mo  Mo12  1  0.764265  0.182707  0.656542  1
  Mo  Mo13  1  0.234089  0.814486  0.343637  1
  Mo  Mo14  1  0.734089  0.185514  0.156363  1
  Mo  Mo15  1  0.264265  0.817293  0.843458  1
  C  C16  1  0.643580  0.506582  0.651365  1
  C  C17  1  0.143580  0.493418  0.848635  1
  C  C18  1  0.359415  0.489859  0.353785  1
  C  C19  1  0.859415  0.510141  0.146215  1
  C  C20  1  0.217991  0.925543  0.988932  1
  C  C21  1  0.717991  0.074457  0.511068  1
  C  C22  1  0.785967  0.091875  0.008403  1
  C  C23  1  0.285967  0.908125  0.491597  1
  C  C24  1  0.471739  0.031762  0.243326  1
  C  C25  1  0.026362  0.033154  0.742850  1
  C  C26  1  0.971739  0.968238  0.256674  1
  C  C27  1  0.526362  0.966846  0.757150  1
