# generated using pymatgen
data_Y10Cd3Os
_symmetry_space_group_name_H-M   'P 1'
_cell_length_a   9.63767800
_cell_length_b   9.63767802
_cell_length_c   9.90073400
_cell_angle_alpha   90.00000000
_cell_angle_beta   90.00000000
_cell_angle_gamma   119.99999994
_symmetry_Int_Tables_number   1
_chemical_formula_structural   Y10Cd3Os
_chemical_formula_sum   'Y20 Cd6 Os2'
_cell_volume   796.42126901
_cell_formula_units_Z   2
loop_
 _symmetry_equiv_pos_site_id
 _symmetry_equiv_pos_as_xyz
  1  'x, y, z'
loop_
 _atom_site_type_symbol
 _atom_site_label
 _atom_site_symmetry_multiplicity
 _atom_site_fract_x
 _atom_site_fract_y
 _atom_site_fract_z
 _atom_site_occupancy
  Y  Y0  1  0.000000  0.000000  0.500000  1
  Y  Y1  1  0.000000  0.000000  0.000000  1
  Y  Y2  1  0.209684  0.790316  0.440131  1
  Y  Y3  1  0.209684  0.419368  0.440131  1
  Y  Y4  1  0.580632  0.790316  0.440131  1
  Y  Y5  1  0.790316  0.209684  0.559869  1
  Y  Y6  1  0.790316  0.580632  0.559869  1
  Y  Y7  1  0.419368  0.209684  0.559869  1
  Y  Y8  1  0.790316  0.209684  0.940131  1
  Y  Y9  1  0.790316  0.580632  0.940131  1
  Y  Y10  1  0.419368  0.209684  0.940131  1
  Y  Y11  1  0.209684  0.790316  0.059869  1
  Y  Y12  1  0.209684  0.419368  0.059869  1
  Y  Y13  1  0.580632  0.790316  0.059869  1
  Y  Y14  1  0.540370  0.459630  0.250000  1
  Y  Y15  1  0.540370  0.080740  0.250000  1
  Y  Y16  1  0.919260  0.459630  0.250000  1
  Y  Y17  1  0.459630  0.540370  0.750000  1
  Y  Y18  1  0.459630  0.919260  0.750000  1
  Y  Y19  1  0.080740  0.540370  0.750000  1
  Cd  Cd20  1  0.885444  0.114556  0.250000  1
  Cd  Cd21  1  0.885444  0.770890  0.250000  1
  Cd  Cd22  1  0.229110  0.114556  0.250000  1
  Cd  Cd23  1  0.114556  0.885444  0.750000  1
  Cd  Cd24  1  0.114556  0.229110  0.750000  1
  Cd  Cd25  1  0.770890  0.885444  0.750000  1
  Os  Os26  1  0.333333  0.666667  0.250000  1
  Os  Os27  1  0.666667  0.333333  0.750000  1
