# generated using pymatgen
data_LaTb5HoMnBr12
_symmetry_space_group_name_H-M   'P 1'
_cell_length_a   9.39215476
_cell_length_b   9.43196561
_cell_length_c   9.14039768
_cell_angle_alpha   106.42921035
_cell_angle_beta   107.49166207
_cell_angle_gamma   106.89755493
_symmetry_Int_Tables_number   1
_chemical_formula_structural   LaTb5HoMnBr12
_chemical_formula_sum   'La1 Tb5 Ho1 Mn1 Br12'
_cell_volume   675.40401898
_cell_formula_units_Z   1
loop_
 _symmetry_equiv_pos_site_id
 _symmetry_equiv_pos_as_xyz
  1  'x, y, z'
loop_
 _atom_site_type_symbol
 _atom_site_label
 _atom_site_symmetry_multiplicity
 _atom_site_fract_x
 _atom_site_fract_y
 _atom_site_fract_z
 _atom_site_occupancy
  La  La0  1  0.595448  0.521389  0.790842  1
  Tb  Tb1  1  0.520096  0.804108  0.600457  1
  Tb  Tb2  1  0.809025  0.600729  0.525355  1
  Tb  Tb3  1  0.403582  0.477208  0.212396  1
  Tb  Tb4  1  0.478925  0.192411  0.399697  1
  Tb  Tb5  1  0.190830  0.397520  0.481549  1
  Ho  Ho6  1  0.001000  0.005054  0.994755  1
  Mn  Mn7  1  0.508815  0.499840  0.527746  1
  Br  Br8  1  0.567475  0.164638  0.712334  1
  Br  Br9  1  0.177000  0.713464  0.561866  1
  Br  Br10  1  0.712638  0.567125  0.182619  1
  Br  Br11  1  0.424214  0.806995  0.273909  1
  Br  Br12  1  0.816602  0.281351  0.422797  1
  Br  Br13  1  0.262280  0.422579  0.817358  1
  Br  Br14  1  0.679502  0.902397  0.967277  1
  Br  Br15  1  0.881665  0.959796  0.658954  1
  Br  Br16  1  0.980483  0.688008  0.889602  1
  Br  Br17  1  0.330668  0.123853  0.037122  1
  Br  Br18  1  0.116576  0.039435  0.328422  1
  Br  Br19  1  0.043178  0.332099  0.114945  1
