# generated using pymatgen
data_Nd10Sn20Pd7Rh
_symmetry_space_group_name_H-M   'P 1'
_cell_length_a   14.30265314
_cell_length_b   14.32673314
_cell_length_c   4.66787300
_cell_angle_alpha   90.00000000
_cell_angle_beta   90.00000000
_cell_angle_gamma   90.01601836
_symmetry_Int_Tables_number   1
_chemical_formula_structural   Nd10Sn20Pd7Rh
_chemical_formula_sum   'Nd10 Sn20 Pd7 Rh1'
_cell_volume   956.49519480
_cell_formula_units_Z   1
loop_
 _symmetry_equiv_pos_site_id
 _symmetry_equiv_pos_as_xyz
  1  'x, y, z'
loop_
 _atom_site_type_symbol
 _atom_site_label
 _atom_site_symmetry_multiplicity
 _atom_site_fract_x
 _atom_site_fract_y
 _atom_site_fract_z
 _atom_site_occupancy
  Nd  Nd0  1  0.500377  0.499484  0.000000  1
  Nd  Nd1  1  0.999896  0.996819  0.000000  1
  Nd  Nd2  1  0.679140  0.178992  0.500000  1
  Nd  Nd3  1  0.320677  0.820674  0.500000  1
  Nd  Nd4  1  0.178661  0.321379  0.500000  1
  Nd  Nd5  1  0.822637  0.679763  0.500000  1
  Nd  Nd6  1  0.891236  0.391727  0.500000  1
  Nd  Nd7  1  0.107422  0.609890  0.500000  1
  Nd  Nd8  1  0.390818  0.108962  0.500000  1
  Nd  Nd9  1  0.609911  0.891222  0.500000  1
  Sn  Sn10  1  0.568656  0.068514  0.000000  1
  Sn  Sn11  1  0.430997  0.931358  0.000000  1
  Sn  Sn12  1  0.068141  0.432057  0.000000  1
  Sn  Sn13  1  0.932112  0.571808  0.000000  1
  Sn  Sn14  1  0.654380  0.700142  0.000000  1
  Sn  Sn15  1  0.346285  0.300012  0.000000  1
  Sn  Sn16  1  0.151954  0.799137  0.000000  1
  Sn  Sn17  1  0.846471  0.199581  0.000000  1
  Sn  Sn18  1  0.299867  0.654314  0.000000  1
  Sn  Sn19  1  0.699941  0.346040  0.000000  1
  Sn  Sn20  1  0.199606  0.153416  0.000000  1
  Sn  Sn21  1  0.802638  0.845950  0.000000  1
  Sn  Sn22  1  0.661848  0.503522  0.500000  1
  Sn  Sn23  1  0.337936  0.497082  0.500000  1
  Sn  Sn24  1  0.161127  0.995375  0.500000  1
  Sn  Sn25  1  0.838287  0.002423  0.500000  1
  Sn  Sn26  1  0.496897  0.661373  0.500000  1
  Sn  Sn27  1  0.503411  0.338559  0.500000  1
  Sn  Sn28  1  0.003413  0.161193  0.500000  1
  Sn  Sn29  1  0.995453  0.836431  0.500000  1
  Pd  Pd30  1  0.746238  0.529063  0.000000  1
  Pd  Pd31  1  0.254156  0.470409  0.000000  1
  Pd  Pd32  1  0.245653  0.970596  0.000000  1
  Pd  Pd33  1  0.754055  0.029209  0.000000  1
  Pd  Pd34  1  0.470934  0.746358  0.000000  1
  Pd  Pd35  1  0.529671  0.253874  0.000000  1
  Pd  Pd36  1  0.029495  0.246722  0.000000  1
  Rh  Rh37  1  0.969604  0.756569  0.000000  1
