# generated using pymatgen
data_NaNpCuTe3
_symmetry_space_group_name_H-M   'P 1'
_cell_length_a   7.65689040
_cell_length_b   7.65689117
_cell_length_c   11.30443500
_cell_angle_alpha   90.00000000
_cell_angle_beta   90.00000000
_cell_angle_gamma   147.37183273
_symmetry_Int_Tables_number   1
_chemical_formula_structural   NaNpCuTe3
_chemical_formula_sum   'Na2 Np2 Cu2 Te6'
_cell_volume   357.34809424
_cell_formula_units_Z   2
loop_
 _symmetry_equiv_pos_site_id
 _symmetry_equiv_pos_as_xyz
  1  'x, y, z'
loop_
 _atom_site_type_symbol
 _atom_site_label
 _atom_site_symmetry_multiplicity
 _atom_site_fract_x
 _atom_site_fract_y
 _atom_site_fract_z
 _atom_site_occupancy
  Na  Na0  1  0.244248  0.755754  0.250000  1
  Na  Na1  1  0.755754  0.244248  0.750000  1
  Np  Np2  1  0.000000  0.000000  0.000000  1
  Np  Np3  1  0.000000  0.000000  0.500000  1
  Cu  Cu4  1  0.528436  0.471566  0.250000  1
  Cu  Cu5  1  0.471566  0.528436  0.750000  1
  Te  Te6  1  0.638043  0.361959  0.068828  1
  Te  Te7  1  0.920468  0.079534  0.250000  1
  Te  Te8  1  0.638043  0.361959  0.431172  1
  Te  Te9  1  0.361959  0.638043  0.568828  1
  Te  Te10  1  0.079534  0.920468  0.750000  1
  Te  Te11  1  0.361959  0.638043  0.931172  1
