# generated using pymatgen
data_Tb4Y11Th(CdNi)4
_symmetry_space_group_name_H-M   'P 1'
_cell_length_a   9.60762157
_cell_length_b   9.61758067
_cell_length_c   9.61758041
_cell_angle_alpha   60.08544942
_cell_angle_beta   60.10709915
_cell_angle_gamma   60.10710750
_symmetry_Int_Tables_number   1
_chemical_formula_structural   Tb4Y11Th(CdNi)4
_chemical_formula_sum   'Tb4 Y11 Th1 Cd4 Ni4'
_cell_volume   629.81689611
_cell_formula_units_Z   1
loop_
 _symmetry_equiv_pos_site_id
 _symmetry_equiv_pos_as_xyz
  1  'x, y, z'
loop_
 _atom_site_type_symbol
 _atom_site_label
 _atom_site_symmetry_multiplicity
 _atom_site_fract_x
 _atom_site_fract_y
 _atom_site_fract_z
 _atom_site_occupancy
  Tb  Tb0  1  0.598790  0.598838  0.200803  1
  Tb  Tb1  1  0.598790  0.200803  0.598838  1
  Tb  Tb2  1  0.200830  0.598807  0.598807  1
  Tb  Tb3  1  0.062386  0.439318  0.439318  1
  Y  Y4  1  0.439525  0.062193  0.062193  1
  Y  Y5  1  0.439606  0.061804  0.439473  1
  Y  Y6  1  0.062257  0.439615  0.062108  1
  Y  Y7  1  0.439606  0.439473  0.061804  1
  Y  Y8  1  0.062257  0.062108  0.439615  1
  Y  Y9  1  0.187982  0.814223  0.814223  1
  Y  Y10  1  0.813121  0.186422  0.186422  1
  Y  Y11  1  0.814249  0.188045  0.814225  1
  Y  Y12  1  0.186511  0.812990  0.186541  1
  Y  Y13  1  0.814249  0.814225  0.188045  1
  Y  Y14  1  0.186511  0.186541  0.812990  1
  Th  Th15  1  0.593959  0.594228  0.594228  1
  Cd  Cd16  1  0.830753  0.830701  0.830701  1
  Cd  Cd17  1  0.831541  0.831758  0.505618  1
  Cd  Cd18  1  0.831541  0.505618  0.831758  1
  Cd  Cd19  1  0.505519  0.831654  0.831654  1
  Ni  Ni20  1  0.392494  0.393443  0.393443  1
  Ni  Ni21  1  0.393881  0.393838  0.819435  1
  Ni  Ni22  1  0.393881  0.819435  0.393838  1
  Ni  Ni23  1  0.819761  0.393921  0.393921  1
