# generated using pymatgen
data_La17Pr3Sn11Sb5
_symmetry_space_group_name_H-M   'P 1'
_cell_length_a   8.58204342
_cell_length_b   8.61591787
_cell_length_c   16.34912800
_cell_angle_alpha   90.08182152
_cell_angle_beta   90.40877628
_cell_angle_gamma   89.79454809
_symmetry_Int_Tables_number   1
_chemical_formula_structural   La17Pr3Sn11Sb5
_chemical_formula_sum   'La17 Pr3 Sn11 Sb5'
_cell_volume   1208.85045753
_cell_formula_units_Z   1
loop_
 _symmetry_equiv_pos_site_id
 _symmetry_equiv_pos_as_xyz
  1  'x, y, z'
loop_
 _atom_site_type_symbol
 _atom_site_label
 _atom_site_symmetry_multiplicity
 _atom_site_fract_x
 _atom_site_fract_y
 _atom_site_fract_z
 _atom_site_occupancy
  La  La0  1  0.388478  0.837310  0.884542  1
  La  La1  1  0.884775  0.661899  0.617403  1
  La  La2  1  0.615344  0.161082  0.382659  1
  La  La3  1  0.112331  0.337658  0.116468  1
  La  La4  1  0.613436  0.162135  0.116053  1
  La  La5  1  0.115586  0.337470  0.382461  1
  La  La6  1  0.383823  0.838784  0.617783  1
  La  La7  1  0.886499  0.662396  0.883418  1
  La  La8  1  0.543340  0.326980  0.894444  1
  La  La9  1  0.038527  0.176101  0.604539  1
  La  La10  1  0.461278  0.675840  0.395083  1
  La  La11  1  0.958408  0.823708  0.104655  1
  La  La12  1  0.459491  0.673528  0.105859  1
  La  La13  1  0.967774  0.820464  0.397954  1
  La  La14  1  0.532457  0.320843  0.602718  1
  La  La15  1  0.038027  0.179406  0.896330  1
  La  La16  1  0.213402  0.499002  0.746939  1
  Pr  Pr17  1  0.714072  0.002628  0.748939  1
  Pr  Pr18  1  0.786057  0.500678  0.248957  1
  Pr  Pr19  1  0.285905  0.997070  0.252771  1
  Sn  Sn20  1  0.223596  0.529372  0.544295  1
  Sn  Sn21  1  0.277135  0.027113  0.454213  1
  Sn  Sn22  1  0.772200  0.476614  0.046371  1
  Sn  Sn23  1  0.584246  0.621711  0.750509  1
  Sn  Sn24  1  0.083364  0.880975  0.752513  1
  Sn  Sn25  1  0.416419  0.377798  0.249117  1
  Sn  Sn26  1  0.916777  0.119802  0.249520  1
  Sn  Sn27  1  0.340720  0.137144  0.751627  1
  Sn  Sn28  1  0.839035  0.361868  0.749973  1
  Sn  Sn29  1  0.660834  0.861241  0.250169  1
  Sn  Sn30  1  0.159062  0.637667  0.249397  1
  Sb  Sb31  1  0.270860  0.019843  0.048400  1
  Sb  Sb32  1  0.772981  0.474855  0.453383  1
  Sb  Sb33  1  0.726903  0.975881  0.547015  1
  Sb  Sb34  1  0.228329  0.522434  0.952810  1
  Sb  Sb35  1  0.728524  0.980698  0.950710  1
