# generated using pymatgen
data_EuFe3NiAs12
_symmetry_space_group_name_H-M   'P 1'
_cell_length_a   7.25195372
_cell_length_b   7.25145371
_cell_length_c   7.25780113
_cell_angle_alpha   109.48925219
_cell_angle_beta   109.48785460
_cell_angle_gamma   109.45591450
_symmetry_Int_Tables_number   1
_chemical_formula_structural   EuFe3NiAs12
_chemical_formula_sum   'Eu1 Fe3 Ni1 As12'
_cell_volume   293.73752730
_cell_formula_units_Z   1
loop_
 _symmetry_equiv_pos_site_id
 _symmetry_equiv_pos_as_xyz
  1  'x, y, z'
loop_
 _atom_site_type_symbol
 _atom_site_label
 _atom_site_symmetry_multiplicity
 _atom_site_fract_x
 _atom_site_fract_y
 _atom_site_fract_z
 _atom_site_occupancy
  Eu  Eu0  1  0.000000  0.000000  0.000000  1
  Fe  Fe1  1  0.500000  0.000000  0.000000  1
  Fe  Fe2  1  0.000000  0.500000  0.000000  1
  Fe  Fe3  1  0.500000  0.500000  0.500000  1
  Ni  Ni4  1  0.000000  0.000000  0.500000  1
  As  As5  1  0.350145  0.192004  0.851051  1
  As  As6  1  0.649855  0.807996  0.148949  1
  As  As7  1  0.657284  0.501468  0.843517  1
  As  As8  1  0.342716  0.498532  0.156483  1
  As  As9  1  0.191996  0.841809  0.340918  1
  As  As10  1  0.808004  0.158191  0.659082  1
  As  As11  1  0.501436  0.844163  0.657932  1
  As  As12  1  0.498564  0.155837  0.342068  1
  As  As13  1  0.844157  0.342680  0.186200  1
  As  As14  1  0.155843  0.657320  0.813800  1
  As  As15  1  0.841859  0.649842  0.500901  1
  As  As16  1  0.158141  0.350158  0.499099  1
