# generated using pymatgen
data_Hf2Zr(V2Fe)2
_symmetry_space_group_name_H-M   'P 1'
_cell_length_a   5.03542066
_cell_length_b   5.09783756
_cell_length_c   12.47419494
_cell_angle_alpha   90.70403287
_cell_angle_beta   88.82352327
_cell_angle_gamma   119.36177526
_symmetry_Int_Tables_number   1
_chemical_formula_structural   Hf2Zr(V2Fe)2
_chemical_formula_sum   'Hf4 Zr2 V8 Fe4'
_cell_volume   279.01605264
_cell_formula_units_Z   2
loop_
 _symmetry_equiv_pos_site_id
 _symmetry_equiv_pos_as_xyz
  1  'x, y, z'
loop_
 _atom_site_type_symbol
 _atom_site_label
 _atom_site_symmetry_multiplicity
 _atom_site_fract_x
 _atom_site_fract_y
 _atom_site_fract_z
 _atom_site_occupancy
  Hf  Hf0  1  0.334776  0.664274  0.919225  1
  Hf  Hf1  1  0.004286  0.002663  0.246405  1
  Hf  Hf2  1  0.667715  0.332344  0.582837  1
  Hf  Hf3  1  0.332272  0.667797  0.667842  1
  Zr  Zr4  1  0.995466  0.997495  0.003644  1
  Zr  Zr5  1  0.664904  0.335792  0.330206  1
  V  V6  1  0.167925  0.335373  0.457019  1
  V  V7  1  0.832384  0.664510  0.793224  1
  V  V8  1  0.337181  0.673329  0.287113  1
  V  V9  1  0.999898  0.999804  0.625298  1
  V  V10  1  0.663526  0.327030  0.962329  1
  V  V11  1  0.000230  0.500057  0.124745  1
  V  V12  1  0.665558  0.832865  0.457523  1
  V  V13  1  0.335021  0.167189  0.792695  1
  Fe  Fe14  1  0.499875  0.500178  0.124781  1
  Fe  Fe15  1  0.166133  0.833484  0.457244  1
  Fe  Fe16  1  0.833254  0.166137  0.793026  1
  Fe  Fe17  1  0.499597  0.999681  0.124843  1
