# generated using pymatgen
data_Li3Pr3AgSn4
_symmetry_space_group_name_H-M   'P 1'
_cell_length_a   8.92461108
_cell_length_b   8.93918007
_cell_length_c   8.93917944
_cell_angle_alpha   149.38583545
_cell_angle_beta   131.95005094
_cell_angle_gamma   58.07079017
_symmetry_Int_Tables_number   1
_chemical_formula_structural   Li3Pr3AgSn4
_chemical_formula_sum   'Li3 Pr3 Ag1 Sn4'
_cell_volume   268.06767063
_cell_formula_units_Z   1
loop_
 _symmetry_equiv_pos_site_id
 _symmetry_equiv_pos_as_xyz
  1  'x, y, z'
loop_
 _atom_site_type_symbol
 _atom_site_label
 _atom_site_symmetry_multiplicity
 _atom_site_fract_x
 _atom_site_fract_y
 _atom_site_fract_z
 _atom_site_occupancy
  Li  Li0  1  0.480470  0.671521  0.808950  1
  Li  Li1  1  0.861236  0.671548  0.189687  1
  Li  Li2  1  0.140030  0.330046  0.809983  1
  Pr  Pr3  1  0.498906  0.998482  0.500424  1
  Pr  Pr4  1  0.869317  0.869163  0.000154  1
  Pr  Pr5  1  0.134197  0.130989  0.003209  1
  Ag  Ag6  1  0.518987  0.328478  0.190508  1
  Sn  Sn7  1  0.278034  0.785355  0.492679  1
  Sn  Sn8  1  0.714612  0.212183  0.502429  1
  Sn  Sn9  1  0.806347  0.501845  0.304502  1
  Sn  Sn10  1  0.197865  0.500390  0.697475  1
