# generated using pymatgen
data_AcHo(Si7Ir3)2
_symmetry_space_group_name_H-M   'P 1'
_cell_length_a   8.13400626
_cell_length_b   8.13400763
_cell_length_c   8.13400825
_cell_angle_alpha   56.46595871
_cell_angle_beta   56.46595414
_cell_angle_gamma   56.46595923
_symmetry_Int_Tables_number   1
_chemical_formula_structural   AcHo(Si7Ir3)2
_chemical_formula_sum   'Ac1 Ho1 Si14 Ir6'
_cell_volume   349.44953710
_cell_formula_units_Z   1
loop_
 _symmetry_equiv_pos_site_id
 _symmetry_equiv_pos_as_xyz
  1  'x, y, z'
loop_
 _atom_site_type_symbol
 _atom_site_label
 _atom_site_symmetry_multiplicity
 _atom_site_fract_x
 _atom_site_fract_y
 _atom_site_fract_z
 _atom_site_occupancy
  Ac  Ac0  1  0.500000  0.500000  0.500000  1
  Ho  Ho1  1  0.000000  0.000000  0.000000  1
  Si  Si2  1  0.059891  0.853463  0.674941  1
  Si  Si3  1  0.674941  0.059891  0.853463  1
  Si  Si4  1  0.853463  0.674941  0.059891  1
  Si  Si5  1  0.171006  0.347817  0.565370  1
  Si  Si6  1  0.565370  0.171006  0.347817  1
  Si  Si7  1  0.347817  0.565370  0.171006  1
  Si  Si8  1  0.940109  0.146537  0.325059  1
  Si  Si9  1  0.325059  0.940109  0.146537  1
  Si  Si10  1  0.146537  0.325059  0.940109  1
  Si  Si11  1  0.828994  0.652183  0.434630  1
  Si  Si12  1  0.434630  0.828994  0.652183  1
  Si  Si13  1  0.652183  0.434630  0.828994  1
  Si  Si14  1  0.749596  0.749596  0.749596  1
  Si  Si15  1  0.250404  0.250404  0.250404  1
  Ir  Ir16  1  0.064822  0.754170  0.428582  1
  Ir  Ir17  1  0.428582  0.064822  0.754170  1
  Ir  Ir18  1  0.754170  0.428582  0.064822  1
  Ir  Ir19  1  0.935178  0.245830  0.571418  1
  Ir  Ir20  1  0.571418  0.935178  0.245830  1
  Ir  Ir21  1  0.245830  0.571418  0.935178  1
