# generated using pymatgen
data_Li3As4PdRh4
_symmetry_space_group_name_H-M   'P 1'
_cell_length_a   3.95378000
_cell_length_b   6.60051463
_cell_length_c   7.16942521
_cell_angle_alpha   88.81883954
_cell_angle_beta   90.00000000
_cell_angle_gamma   90.00000000
_symmetry_Int_Tables_number   1
_chemical_formula_structural   Li3As4PdRh4
_chemical_formula_sum   'Li3 As4 Pd1 Rh4'
_cell_volume   187.06060986
_cell_formula_units_Z   1
loop_
 _symmetry_equiv_pos_site_id
 _symmetry_equiv_pos_as_xyz
  1  'x, y, z'
loop_
 _atom_site_type_symbol
 _atom_site_label
 _atom_site_symmetry_multiplicity
 _atom_site_fract_x
 _atom_site_fract_y
 _atom_site_fract_z
 _atom_site_occupancy
  Li  Li0  1  0.250000  0.020321  0.326089  1
  Li  Li1  1  0.250000  0.523751  0.167556  1
  Li  Li2  1  0.750000  0.972372  0.671565  1
  As  As3  1  0.250000  0.271066  0.622028  1
  As  As4  1  0.250000  0.773850  0.875383  1
  As  As5  1  0.750000  0.727279  0.375757  1
  As  As6  1  0.750000  0.229406  0.127039  1
  Pd  Pd7  1  0.750000  0.470926  0.835599  1
  Rh  Rh8  1  0.250000  0.151337  0.943388  1
  Rh  Rh9  1  0.250000  0.641775  0.562728  1
  Rh  Rh10  1  0.750000  0.860931  0.052333  1
  Rh  Rh11  1  0.750000  0.356988  0.440534  1
