# generated using pymatgen
data_BeCr9(B2P)2
_symmetry_space_group_name_H-M   'P 1'
_cell_length_a   5.47923106
_cell_length_b   5.47923054
_cell_length_c   6.45986047
_cell_angle_alpha   115.09359996
_cell_angle_beta   115.09359722
_cell_angle_gamma   90.00000325
_symmetry_Int_Tables_number   1
_chemical_formula_structural   BeCr9(B2P)2
_chemical_formula_sum   'Be1 Cr9 B4 P2'
_cell_volume   155.18428807
_cell_formula_units_Z   1
loop_
 _symmetry_equiv_pos_site_id
 _symmetry_equiv_pos_as_xyz
  1  'x, y, z'
loop_
 _atom_site_type_symbol
 _atom_site_label
 _atom_site_symmetry_multiplicity
 _atom_site_fract_x
 _atom_site_fract_y
 _atom_site_fract_z
 _atom_site_occupancy
  Be  Be0  1  0.000000  0.000000  0.000000  1
  Cr  Cr1  1  0.500000  0.500000  0.000000  1
  Cr  Cr2  1  0.027900  0.531522  0.722075  1
  Cr  Cr3  1  0.694175  0.190553  0.722075  1
  Cr  Cr4  1  0.190553  0.027900  0.722075  1
  Cr  Cr5  1  0.531522  0.694175  0.722075  1
  Cr  Cr6  1  0.972100  0.468478  0.277925  1
  Cr  Cr7  1  0.305825  0.809447  0.277925  1
  Cr  Cr8  1  0.809447  0.972100  0.277925  1
  Cr  Cr9  1  0.468478  0.305825  0.277925  1
  B  B10  1  0.377237  0.884234  0.000000  1
  B  B11  1  0.622763  0.115766  0.000000  1
  B  B12  1  0.115766  0.377237  0.000000  1
  B  B13  1  0.884234  0.622763  0.000000  1
  P  P14  1  0.249538  0.249538  0.499076  1
  P  P15  1  0.750462  0.750462  0.500924  1
