# generated using pymatgen
data_TmSc2Pa(Al3Rh)6
_symmetry_space_group_name_H-M   'P 1'
_cell_length_a   7.52727726
_cell_length_b   7.52461663
_cell_length_c   9.33220100
_cell_angle_alpha   90.00000000
_cell_angle_beta   90.00000000
_cell_angle_gamma   119.53116336
_symmetry_Int_Tables_number   1
_chemical_formula_structural   TmSc2Pa(Al3Rh)6
_chemical_formula_sum   'Tm1 Sc2 Pa1 Al18 Rh6'
_cell_volume   459.90636791
_cell_formula_units_Z   1
loop_
 _symmetry_equiv_pos_site_id
 _symmetry_equiv_pos_as_xyz
  1  'x, y, z'
loop_
 _atom_site_type_symbol
 _atom_site_label
 _atom_site_symmetry_multiplicity
 _atom_site_fract_x
 _atom_site_fract_y
 _atom_site_fract_z
 _atom_site_occupancy
  Tm  Tm0  1  0.673655  0.994093  0.250000  1
  Sc  Sc1  1  0.005003  0.327676  0.750000  1
  Sc  Sc2  1  0.328369  0.004668  0.750000  1
  Pa  Pa3  1  0.994548  0.672401  0.250000  1
  Al  Al4  1  0.133334  0.132236  0.250000  1
  Al  Al5  1  0.879605  0.880886  0.750000  1
  Al  Al6  1  0.000897  0.332969  0.071115  1
  Al  Al7  1  0.002795  0.664239  0.914023  1
  Al  Al8  1  0.002795  0.664239  0.585977  1
  Al  Al9  1  0.339017  0.003605  0.428635  1
  Al  Al10  1  0.000897  0.332969  0.428885  1
  Al  Al11  1  0.664544  0.003915  0.583625  1
  Al  Al12  1  0.664544  0.003915  0.916375  1
  Al  Al13  1  0.339017  0.003605  0.071365  1
  Al  Al14  1  0.328683  0.328928  0.564351  1
  Al  Al15  1  0.662812  0.665441  0.454709  1
  Al  Al16  1  0.662812  0.665441  0.045291  1
  Al  Al17  1  0.328683  0.328928  0.935649  1
  Al  Al18  1  0.339548  0.548591  0.250000  1
  Al  Al19  1  0.658658  0.442065  0.750000  1
  Al  Al20  1  0.547909  0.341115  0.250000  1
  Al  Al21  1  0.443740  0.660046  0.750000  1
  Rh  Rh22  1  0.673557  0.328697  0.000668  1
  Rh  Rh23  1  0.325968  0.672467  0.000475  1
  Rh  Rh24  1  0.325968  0.672467  0.499525  1
  Rh  Rh25  1  0.673557  0.328697  0.499332  1
  Rh  Rh26  1  0.999545  0.997851  0.001843  1
  Rh  Rh27  1  0.999545  0.997851  0.498157  1
