# generated using pymatgen
data_Ho3Sc2P12Ir11Ru8
_symmetry_space_group_name_H-M   'P 1'
_cell_length_a   12.63306810
_cell_length_b   12.57171024
_cell_length_c   3.92943000
_cell_angle_alpha   90.00000000
_cell_angle_beta   90.00000000
_cell_angle_gamma   120.05227879
_symmetry_Int_Tables_number   1
_chemical_formula_structural   Ho3Sc2P12Ir11Ru8
_chemical_formula_sum   'Ho3 Sc2 P12 Ir11 Ru8'
_cell_volume   540.17485329
_cell_formula_units_Z   1
loop_
 _symmetry_equiv_pos_site_id
 _symmetry_equiv_pos_as_xyz
  1  'x, y, z'
loop_
 _atom_site_type_symbol
 _atom_site_label
 _atom_site_symmetry_multiplicity
 _atom_site_fract_x
 _atom_site_fract_y
 _atom_site_fract_z
 _atom_site_occupancy
  Ho  Ho0  1  0.813524  0.999451  0.500000  1
  Ho  Ho1  1  0.998558  0.812707  0.500000  1
  Ho  Ho2  1  0.183643  0.185372  0.500000  1
  Sc  Sc3  1  0.333229  0.666784  0.000000  1
  Sc  Sc4  1  0.669532  0.334678  0.000000  1
  P  P5  1  0.177794  0.996969  0.000000  1
  P  P6  1  0.999168  0.180984  0.000000  1
  P  P7  1  0.817673  0.818482  0.000000  1
  P  P8  1  0.174926  0.483293  0.500000  1
  P  P9  1  0.516979  0.691327  0.500000  1
  P  P10  1  0.308563  0.825935  0.500000  1
  P  P11  1  0.692335  0.517122  0.500000  1
  P  P12  1  0.827033  0.309095  0.500000  1
  P  P13  1  0.485901  0.173026  0.500000  1
  P  P14  1  0.637760  0.999654  0.000000  1
  P  P15  1  0.000258  0.637872  0.000000  1
  P  P16  1  0.360593  0.365065  0.000000  1
  Ir  Ir17  1  0.363939  0.493721  0.500000  1
  Ir  Ir18  1  0.504053  0.868213  0.500000  1
  Ir  Ir19  1  0.132149  0.637032  0.500000  1
  Ir  Ir20  1  0.868969  0.505370  0.500000  1
  Ir  Ir21  1  0.638431  0.131675  0.500000  1
  Ir  Ir22  1  0.496611  0.361461  0.500000  1
  Ir  Ir23  1  0.375442  0.183672  0.000000  1
  Ir  Ir24  1  0.289190  0.002305  0.500000  1
  Ir  Ir25  1  0.000293  0.287925  0.500000  1
  Ir  Ir26  1  0.711714  0.711853  0.500000  1
  Ir  Ir27  1  0.999435  0.999510  0.000000  1
  Ru  Ru28  1  0.454698  0.002449  0.000000  1
  Ru  Ru29  1  0.000175  0.453513  0.000000  1
  Ru  Ru30  1  0.546993  0.544655  0.000000  1
  Ru  Ru31  1  0.181870  0.379648  0.000000  1
  Ru  Ru32  1  0.619796  0.802293  0.000000  1
  Ru  Ru33  1  0.197580  0.819266  0.000000  1
  Ru  Ru34  1  0.803182  0.620832  0.000000  1
  Ru  Ru35  1  0.818007  0.196788  0.000000  1
