# generated using pymatgen
data_Li2Tb2Nd6Sc9Si16Tc
_symmetry_space_group_name_H-M   'P 1'
_cell_length_a   7.05575356
_cell_length_b   7.45793569
_cell_length_c   14.13556818
_cell_angle_alpha   89.78352397
_cell_angle_beta   90.11240688
_cell_angle_gamma   89.99221880
_symmetry_Int_Tables_number   1
_chemical_formula_structural   Li2Tb2Nd6Sc9Si16Tc
_chemical_formula_sum   'Li2 Tb2 Nd6 Sc9 Si16 Tc1'
_cell_volume   743.82602176
_cell_formula_units_Z   1
loop_
 _symmetry_equiv_pos_site_id
 _symmetry_equiv_pos_as_xyz
  1  'x, y, z'
loop_
 _atom_site_type_symbol
 _atom_site_label
 _atom_site_symmetry_multiplicity
 _atom_site_fract_x
 _atom_site_fract_y
 _atom_site_fract_z
 _atom_site_occupancy
  Li  Li0  1  0.844125  0.501146  0.251393  1
  Li  Li1  1  0.343295  0.000050  0.251343  1
  Tb  Tb2  1  0.518918  0.317120  0.399241  1
  Tb  Tb3  1  0.485450  0.671426  0.599274  1
  Nd  Nd4  1  0.017858  0.181789  0.100345  1
  Nd  Nd5  1  0.992642  0.823067  0.898772  1
  Nd  Nd6  1  0.486312  0.668945  0.900808  1
  Nd  Nd7  1  0.991252  0.823163  0.599269  1
  Nd  Nd8  1  0.517554  0.319574  0.100820  1
  Nd  Nd9  1  0.017917  0.182443  0.401364  1
  Sc  Sc10  1  0.658881  0.000273  0.748970  1
  Sc  Sc11  1  0.324701  0.181011  0.625643  1
  Sc  Sc12  1  0.667712  0.821267  0.375416  1
  Sc  Sc13  1  0.172078  0.677211  0.377280  1
  Sc  Sc14  1  0.668530  0.822352  0.126161  1
  Sc  Sc15  1  0.825995  0.329292  0.626593  1
  Sc  Sc16  1  0.324793  0.180306  0.872144  1
  Sc  Sc17  1  0.827572  0.329025  0.871383  1
  Sc  Sc18  1  0.170806  0.677718  0.125226  1
  Si  Si19  1  0.031496  0.131287  0.748839  1
  Si  Si20  1  0.966357  0.884726  0.251246  1
  Si  Si21  1  0.468165  0.610735  0.251974  1
  Si  Si22  1  0.519429  0.389367  0.747786  1
  Si  Si23  1  0.290564  0.877080  0.748110  1
  Si  Si24  1  0.719551  0.107602  0.251657  1
  Si  Si25  1  0.221282  0.391635  0.252316  1
  Si  Si26  1  0.794044  0.619231  0.748272  1
  Si  Si27  1  0.149890  0.466019  0.547628  1
  Si  Si28  1  0.840212  0.538046  0.465708  1
  Si  Si29  1  0.348708  0.960719  0.466484  1
  Si  Si30  1  0.845310  0.540065  0.033694  1
  Si  Si31  1  0.651282  0.034313  0.539701  1
  Si  Si32  1  0.147744  0.462570  0.953985  1
  Si  Si33  1  0.652275  0.034751  0.959762  1
  Si  Si34  1  0.347560  0.960050  0.033040  1
  Tc  Tc35  1  0.149741  0.484629  0.748355  1
