# generated using pymatgen
data_LaTb2Ho3Ta2O14
_symmetry_space_group_name_H-M   'P 1'
_cell_length_a   6.51056445
_cell_length_b   6.51422416
_cell_length_c   7.54731441
_cell_angle_alpha   89.89504194
_cell_angle_beta   90.14273366
_cell_angle_gamma   108.64891914
_symmetry_Int_Tables_number   1
_chemical_formula_structural   LaTb2Ho3Ta2O14
_chemical_formula_sum   'La1 Tb2 Ho3 Ta2 O14'
_cell_volume   303.28395923
_cell_formula_units_Z   1
loop_
 _symmetry_equiv_pos_site_id
 _symmetry_equiv_pos_as_xyz
  1  'x, y, z'
loop_
 _atom_site_type_symbol
 _atom_site_label
 _atom_site_symmetry_multiplicity
 _atom_site_fract_x
 _atom_site_fract_y
 _atom_site_fract_z
 _atom_site_occupancy
  La  La0  1  0.508562  0.509092  0.500416  1
  Tb  Tb1  1  0.461646  0.461666  0.999614  1
  Tb  Tb2  1  0.999191  0.535654  0.240744  1
  Ho  Ho3  1  0.998144  0.466233  0.746484  1
  Ho  Ho4  1  0.534429  0.000009  0.759434  1
  Ho  Ho5  1  0.466816  0.998100  0.253431  1
  Ta  Ta6  1  0.000773  0.000589  0.500494  1
  Ta  Ta7  1  0.997289  0.997337  0.999503  1
  O  O8  1  0.933011  0.066872  0.749673  1
  O  O9  1  0.067120  0.934538  0.250285  1
  O  O10  1  0.359634  0.643673  0.239159  1
  O  O11  1  0.643526  0.356524  0.760756  1
  O  O12  1  0.365336  0.634082  0.760030  1
  O  O13  1  0.630486  0.363641  0.240103  1
  O  O14  1  0.326354  0.078792  0.973845  1
  O  O15  1  0.677207  0.929633  0.471941  1
  O  O16  1  0.314679  0.060554  0.541429  1
  O  O17  1  0.692776  0.952092  0.042139  1
  O  O18  1  0.062046  0.314633  0.460511  1
  O  O19  1  0.951450  0.692943  0.956441  1
  O  O20  1  0.929001  0.677161  0.529268  1
  O  O21  1  0.080526  0.326183  0.024299  1
