# generated using pymatgen
data_Ho10Si5Te
_symmetry_space_group_name_H-M   'P 1'
_cell_length_a   8.45327100
_cell_length_b   8.50185642
_cell_length_c   6.28188900
_cell_angle_alpha   90.00000000
_cell_angle_beta   90.00000000
_cell_angle_gamma   119.81113526
_symmetry_Int_Tables_number   1
_chemical_formula_structural   Ho10Si5Te
_chemical_formula_sum   'Ho10 Si5 Te1'
_cell_volume   391.72638416
_cell_formula_units_Z   1
loop_
 _symmetry_equiv_pos_site_id
 _symmetry_equiv_pos_as_xyz
  1  'x, y, z'
loop_
 _atom_site_type_symbol
 _atom_site_label
 _atom_site_symmetry_multiplicity
 _atom_site_fract_x
 _atom_site_fract_y
 _atom_site_fract_z
 _atom_site_occupancy
  Ho  Ho0  1  0.985842  0.745285  0.750000  1
  Ho  Ho1  1  0.999876  0.244924  0.250000  1
  Ho  Ho2  1  0.754953  0.755076  0.250000  1
  Ho  Ho3  1  0.765193  0.000000  0.750000  1
  Ho  Ho4  1  0.240557  0.254715  0.750000  1
  Ho  Ho5  1  0.241259  0.000000  0.250000  1
  Ho  Ho6  1  0.331154  0.655668  0.496748  1
  Ho  Ho7  1  0.675486  0.344332  0.003252  1
  Ho  Ho8  1  0.675486  0.344332  0.496748  1
  Ho  Ho9  1  0.331154  0.655668  0.003252  1
  Si  Si10  1  0.393769  0.391078  0.250000  1
  Si  Si11  1  0.002691  0.608922  0.250000  1
  Si  Si12  1  0.999394  0.394831  0.750000  1
  Si  Si13  1  0.604562  0.605169  0.750000  1
  Si  Si14  1  0.606846  0.000000  0.250000  1
  Te  Te15  1  0.391779  0.000000  0.750000  1
