# generated using pymatgen
data_Y4Ga4Ir3Pt
_symmetry_space_group_name_H-M   'P 1'
_cell_length_a   4.42081615
_cell_length_b   6.83983328
_cell_length_c   7.72573862
_cell_angle_alpha   90.12507320
_cell_angle_beta   89.99395903
_cell_angle_gamma   90.02878985
_symmetry_Int_Tables_number   1
_chemical_formula_structural   Y4Ga4Ir3Pt
_chemical_formula_sum   'Y4 Ga4 Ir3 Pt1'
_cell_volume   233.60755758
_cell_formula_units_Z   1
loop_
 _symmetry_equiv_pos_site_id
 _symmetry_equiv_pos_as_xyz
  1  'x, y, z'
loop_
 _atom_site_type_symbol
 _atom_site_label
 _atom_site_symmetry_multiplicity
 _atom_site_fract_x
 _atom_site_fract_y
 _atom_site_fract_z
 _atom_site_occupancy
  Y  Y0  1  0.249926  0.982655  0.307415  1
  Y  Y1  1  0.249958  0.484660  0.196368  1
  Y  Y2  1  0.750007  0.016886  0.690097  1
  Y  Y3  1  0.750091  0.522009  0.806877  1
  Ga  Ga4  1  0.250100  0.337795  0.569895  1
  Ga  Ga5  1  0.250072  0.831555  0.927508  1
  Ga  Ga6  1  0.749918  0.663537  0.426464  1
  Ga  Ga7  1  0.749910  0.162063  0.074621  1
  Ir  Ir8  1  0.249948  0.726974  0.603553  1
  Ir  Ir9  1  0.750028  0.773231  0.103069  1
  Ir  Ir10  1  0.750049  0.273043  0.396973  1
  Pt  Pt11  1  0.249993  0.225591  0.897159  1
