# generated using pymatgen
data_SmY2Sc(Co4P3)2
_symmetry_space_group_name_H-M   'P 1'
_cell_length_a   3.72832700
_cell_length_b   10.67270700
_cell_length_c   12.36940600
_cell_angle_alpha   90.00000000
_cell_angle_beta   90.00000000
_cell_angle_gamma   90.00000000
_symmetry_Int_Tables_number   1
_chemical_formula_structural   SmY2Sc(Co4P3)2
_chemical_formula_sum   'Sm2 Y4 Sc2 Co16 P12'
_cell_volume   492.19526042
_cell_formula_units_Z   2
loop_
 _symmetry_equiv_pos_site_id
 _symmetry_equiv_pos_as_xyz
  1  'x, y, z'
loop_
 _atom_site_type_symbol
 _atom_site_label
 _atom_site_symmetry_multiplicity
 _atom_site_fract_x
 _atom_site_fract_y
 _atom_site_fract_z
 _atom_site_occupancy
  Sm  Sm0  1  0.000000  0.500000  0.528278  1
  Sm  Sm1  1  0.500000  0.000000  0.471722  1
  Y  Y2  1  0.500000  0.822015  0.205310  1
  Y  Y3  1  0.500000  0.177985  0.205310  1
  Y  Y4  1  0.000000  0.677985  0.794690  1
  Y  Y5  1  0.000000  0.322015  0.794690  1
  Sc  Sc6  1  0.500000  0.500000  0.155813  1
  Sc  Sc7  1  0.000000  0.000000  0.844187  1
  Co  Co8  1  0.500000  0.500000  0.706781  1
  Co  Co9  1  0.000000  0.000000  0.293219  1
  Co  Co10  1  0.000000  0.500000  0.987573  1
  Co  Co11  1  0.500000  0.000000  0.012427  1
  Co  Co12  1  0.500000  0.331185  0.994602  1
  Co  Co13  1  0.500000  0.668815  0.994602  1
  Co  Co14  1  0.000000  0.168815  0.005398  1
  Co  Co15  1  0.000000  0.831185  0.005398  1
  Co  Co16  1  0.500000  0.295479  0.432351  1
  Co  Co17  1  0.500000  0.704521  0.432351  1
  Co  Co18  1  0.000000  0.204521  0.567649  1
  Co  Co19  1  0.000000  0.795479  0.567649  1
  Co  Co20  1  0.500000  0.878322  0.703973  1
  Co  Co21  1  0.500000  0.121678  0.703973  1
  Co  Co22  1  0.000000  0.621678  0.296027  1
  Co  Co23  1  0.000000  0.378322  0.296027  1
  P  P24  1  0.500000  0.500000  0.886099  1
  P  P25  1  0.000000  0.000000  0.113901  1
  P  P26  1  0.500000  0.500000  0.357784  1
  P  P27  1  0.000000  0.000000  0.642216  1
  P  P28  1  0.500000  0.307658  0.615940  1
  P  P29  1  0.500000  0.692342  0.615940  1
  P  P30  1  0.000000  0.192342  0.384060  1
  P  P31  1  0.000000  0.807658  0.384060  1
  P  P32  1  0.500000  0.839706  0.893214  1
  P  P33  1  0.500000  0.160294  0.893214  1
  P  P34  1  0.000000  0.660294  0.106786  1
  P  P35  1  0.000000  0.339706  0.106786  1
