# generated using pymatgen
data_Pa14(PtRh3)5
_symmetry_space_group_name_H-M   'P 1'
_cell_length_a   8.43284532
_cell_length_b   8.39363745
_cell_length_c   10.02353321
_cell_angle_alpha   89.94369435
_cell_angle_beta   90.02469506
_cell_angle_gamma   107.89063046
_symmetry_Int_Tables_number   1
_chemical_formula_structural   Pa14(PtRh3)5
_chemical_formula_sum   'Pa14 Pt5 Rh15'
_cell_volume   675.18031685
_cell_formula_units_Z   1
loop_
 _symmetry_equiv_pos_site_id
 _symmetry_equiv_pos_as_xyz
  1  'x, y, z'
loop_
 _atom_site_type_symbol
 _atom_site_label
 _atom_site_symmetry_multiplicity
 _atom_site_fract_x
 _atom_site_fract_y
 _atom_site_fract_z
 _atom_site_occupancy
  Pa  Pa0  1  0.690995  0.309703  0.000027  1
  Pa  Pa1  1  0.307057  0.689051  0.000819  1
  Pa  Pa2  1  0.809535  0.191691  0.500839  1
  Pa  Pa3  1  0.188254  0.807189  0.499937  1
  Pa  Pa4  1  0.008989  0.003046  0.000381  1
  Pa  Pa5  1  0.500990  0.501250  0.499690  1
  Pa  Pa6  1  0.994321  0.493042  0.250385  1
  Pa  Pa7  1  0.006839  0.502421  0.750841  1
  Pa  Pa8  1  0.502368  0.006140  0.747169  1
  Pa  Pa9  1  0.490513  0.998129  0.255793  1
  Pa  Pa10  1  0.312675  0.312998  0.189640  1
  Pa  Pa11  1  0.688899  0.685976  0.809495  1
  Pa  Pa12  1  0.186793  0.188526  0.686849  1
  Pa  Pa13  1  0.809397  0.811334  0.310233  1
  Pt  Pt14  1  0.649897  0.939010  0.998711  1
  Pt  Pt15  1  0.107160  0.107413  0.391210  1
  Pt  Pt16  1  0.891467  0.891534  0.605474  1
  Pt  Pt17  1  0.388033  0.387625  0.892154  1
  Pt  Pt18  1  0.604568  0.603900  0.102857  1
  Rh  Rh19  1  0.847506  0.138778  0.214035  1
  Rh  Rh20  1  0.153203  0.861467  0.787088  1
  Rh  Rh21  1  0.649728  0.358320  0.711482  1
  Rh  Rh22  1  0.639588  0.350832  0.288748  1
  Rh  Rh23  1  0.350206  0.640726  0.288260  1
  Rh  Rh24  1  0.367228  0.654735  0.713018  1
  Rh  Rh25  1  0.862987  0.150981  0.788926  1
  Rh  Rh26  1  0.133689  0.843847  0.210527  1
  Rh  Rh27  1  0.933496  0.644389  0.989152  1
  Rh  Rh28  1  0.065192  0.357204  0.008589  1
  Rh  Rh29  1  0.565244  0.859273  0.493079  1
  Rh  Rh30  1  0.144444  0.436482  0.507761  1
  Rh  Rh31  1  0.431347  0.145467  0.504939  1
  Rh  Rh32  1  0.856653  0.564764  0.493901  1
  Rh  Rh33  1  0.360736  0.062758  0.007988  1
