# generated using pymatgen
data_Ce10Sn6HgBr
_symmetry_space_group_name_H-M   'P 1'
_cell_length_a   6.65237900
_cell_length_b   9.55747016
_cell_length_c   9.55746900
_cell_angle_alpha   119.99999945
_cell_angle_beta   90.00000000
_cell_angle_gamma   90.00000000
_symmetry_Int_Tables_number   1
_chemical_formula_structural   Ce10Sn6HgBr
_chemical_formula_sum   'Ce10 Sn6 Hg1 Br1'
_cell_volume   526.25164549
_cell_formula_units_Z   1
loop_
 _symmetry_equiv_pos_site_id
 _symmetry_equiv_pos_as_xyz
  1  'x, y, z'
loop_
 _atom_site_type_symbol
 _atom_site_label
 _atom_site_symmetry_multiplicity
 _atom_site_fract_x
 _atom_site_fract_y
 _atom_site_fract_z
 _atom_site_occupancy
  Ce  Ce0  1  0.753692  0.719298  0.719298  1
  Ce  Ce1  1  0.246308  0.280702  0.280702  1
  Ce  Ce2  1  0.753692  0.000000  0.280702  1
  Ce  Ce3  1  0.246308  0.000000  0.719298  1
  Ce  Ce4  1  0.753692  0.280702  0.000000  1
  Ce  Ce5  1  0.246308  0.719298  0.000000  1
  Ce  Ce6  1  0.000000  0.666667  0.333333  1
  Ce  Ce7  1  0.000000  0.333333  0.666667  1
  Ce  Ce8  1  0.500000  0.333333  0.666667  1
  Ce  Ce9  1  0.500000  0.666667  0.333333  1
  Sn  Sn10  1  0.747433  0.377285  0.377285  1
  Sn  Sn11  1  0.252567  0.622715  0.622715  1
  Sn  Sn12  1  0.747433  0.000000  0.622715  1
  Sn  Sn13  1  0.252567  0.000000  0.377285  1
  Sn  Sn14  1  0.747433  0.622715  0.000000  1
  Sn  Sn15  1  0.252567  0.377285  0.000000  1
  Hg  Hg16  1  0.500000  0.000000  0.000000  1
  Br  Br17  1  0.000000  0.000000  0.000000  1
