# generated using pymatgen
data_Tb12Co4HgIr
_symmetry_space_group_name_H-M   'P 1'
_cell_length_a   8.34598671
_cell_length_b   8.34598724
_cell_length_c   8.34598711
_cell_angle_alpha   111.23211347
_cell_angle_beta   109.56079181
_cell_angle_gamma   107.64065618
_symmetry_Int_Tables_number   1
_chemical_formula_structural   Tb12Co4HgIr
_chemical_formula_sum   'Tb12 Co4 Hg1 Ir1'
_cell_volume   447.07901185
_cell_formula_units_Z   1
loop_
 _symmetry_equiv_pos_site_id
 _symmetry_equiv_pos_as_xyz
  1  'x, y, z'
loop_
 _atom_site_type_symbol
 _atom_site_label
 _atom_site_symmetry_multiplicity
 _atom_site_fract_x
 _atom_site_fract_y
 _atom_site_fract_z
 _atom_site_occupancy
  Tb  Tb0  1  0.819059  0.711872  0.530931  1
  Tb  Tb1  1  0.180941  0.288128  0.469069  1
  Tb  Tb2  1  0.180941  0.711872  0.892815  1
  Tb  Tb3  1  0.819059  0.288128  0.107185  1
  Tb  Tb4  1  0.681701  0.378271  0.696569  1
  Tb  Tb5  1  0.318299  0.621729  0.303431  1
  Tb  Tb6  1  0.681701  0.985133  0.303431  1
  Tb  Tb7  1  0.318299  0.014867  0.696569  1
  Tb  Tb8  1  0.590761  0.786331  0.804431  1
  Tb  Tb9  1  0.409239  0.213669  0.195569  1
  Tb  Tb10  1  0.981899  0.786331  0.195569  1
  Tb  Tb11  1  0.018101  0.213669  0.804431  1
  Co  Co12  1  0.622397  0.000000  0.622397  1
  Co  Co13  1  0.377603  0.000000  0.377603  1
  Co  Co14  1  0.112861  0.612861  0.500000  1
  Co  Co15  1  0.887139  0.387139  0.500000  1
  Hg  Hg16  1  0.500000  0.500000  0.000000  1
  Ir  Ir17  1  0.000000  0.000000  0.000000  1
