# generated using pymatgen
data_CsTb(TaBr3)6
_symmetry_space_group_name_H-M   'P 1'
_cell_length_a   10.84459374
_cell_length_b   10.84459325
_cell_length_c   10.84459316
_cell_angle_alpha   55.81303972
_cell_angle_beta   55.81304690
_cell_angle_gamma   55.81304791
_symmetry_Int_Tables_number   1
_chemical_formula_structural   CsTb(TaBr3)6
_chemical_formula_sum   'Cs1 Tb1 Ta6 Br18'
_cell_volume   814.28000138
_cell_formula_units_Z   1
loop_
 _symmetry_equiv_pos_site_id
 _symmetry_equiv_pos_as_xyz
  1  'x, y, z'
loop_
 _atom_site_type_symbol
 _atom_site_label
 _atom_site_symmetry_multiplicity
 _atom_site_fract_x
 _atom_site_fract_y
 _atom_site_fract_z
 _atom_site_occupancy
  Cs  Cs0  1  0.223799  0.223799  0.223799  1
  Tb  Tb1  1  0.498136  0.498136  0.498136  1
  Ta  Ta2  1  0.816556  0.139778  0.913482  1
  Ta  Ta3  1  0.913482  0.816556  0.139778  1
  Ta  Ta4  1  0.139778  0.913482  0.816556  1
  Ta  Ta5  1  0.184422  0.860728  0.084971  1
  Ta  Ta6  1  0.084971  0.184422  0.860728  1
  Ta  Ta7  1  0.860728  0.084971  0.184422  1
  Br  Br8  1  0.874647  0.404291  0.723221  1
  Br  Br9  1  0.723221  0.874647  0.404291  1
  Br  Br10  1  0.404291  0.723221  0.874647  1
  Br  Br11  1  0.124344  0.596067  0.278828  1
  Br  Br12  1  0.278828  0.124344  0.596067  1
  Br  Br13  1  0.596067  0.278828  0.124344  1
  Br  Br14  1  0.549268  0.336425  0.794428  1
  Br  Br15  1  0.794428  0.549268  0.336425  1
  Br  Br16  1  0.336425  0.794428  0.549268  1
  Br  Br17  1  0.450866  0.665675  0.205039  1
  Br  Br18  1  0.205039  0.450866  0.665675  1
  Br  Br19  1  0.665675  0.205039  0.450866  1
  Br  Br20  1  0.665443  0.943858  0.064733  1
  Br  Br21  1  0.064733  0.665443  0.943858  1
  Br  Br22  1  0.943858  0.064733  0.665443  1
  Br  Br23  1  0.338792  0.054863  0.928477  1
  Br  Br24  1  0.928477  0.338792  0.054863  1
  Br  Br25  1  0.054863  0.928477  0.338792  1
