# generated using pymatgen
data_Ho5Zr3Pt4
_symmetry_space_group_name_H-M   'P 1'
_cell_length_a   4.73042800
_cell_length_b   7.10070315
_cell_length_c   8.34314388
_cell_angle_alpha   89.52536859
_cell_angle_beta   90.00000000
_cell_angle_gamma   90.00000000
_symmetry_Int_Tables_number   1
_chemical_formula_structural   Ho5Zr3Pt4
_chemical_formula_sum   'Ho5 Zr3 Pt4'
_cell_volume   280.23128972
_cell_formula_units_Z   1
loop_
 _symmetry_equiv_pos_site_id
 _symmetry_equiv_pos_as_xyz
  1  'x, y, z'
loop_
 _atom_site_type_symbol
 _atom_site_label
 _atom_site_symmetry_multiplicity
 _atom_site_fract_x
 _atom_site_fract_y
 _atom_site_fract_z
 _atom_site_occupancy
  Ho  Ho0  1  0.750000  0.647301  0.417383  1
  Ho  Ho1  1  0.250000  0.990018  0.325254  1
  Ho  Ho2  1  0.250000  0.481380  0.170662  1
  Ho  Ho3  1  0.750000  0.017552  0.681025  1
  Ho  Ho4  1  0.750000  0.514282  0.822763  1
  Zr  Zr5  1  0.250000  0.855387  0.922191  1
  Zr  Zr6  1  0.250000  0.353623  0.579940  1
  Zr  Zr7  1  0.750000  0.147849  0.080142  1
  Pt  Pt8  1  0.250000  0.231261  0.906287  1
  Pt  Pt9  1  0.250000  0.736467  0.603720  1
  Pt  Pt10  1  0.750000  0.770289  0.082392  1
  Pt  Pt11  1  0.750000  0.254592  0.408241  1
