# generated using pymatgen
data_La5Yb3(AlIr)2
_symmetry_space_group_name_H-M   'P 1'
_cell_length_a   10.01300948
_cell_length_b   10.01300996
_cell_length_c   10.01301000
_cell_angle_alpha   60.00000648
_cell_angle_beta   60.00000487
_cell_angle_gamma   60.00000486
_symmetry_Int_Tables_number   1
_chemical_formula_structural   La5Yb3(AlIr)2
_chemical_formula_sum   'La10 Yb6 Al4 Ir4'
_cell_volume   709.87025825
_cell_formula_units_Z   2
loop_
 _symmetry_equiv_pos_site_id
 _symmetry_equiv_pos_as_xyz
  1  'x, y, z'
loop_
 _atom_site_type_symbol
 _atom_site_label
 _atom_site_symmetry_multiplicity
 _atom_site_fract_x
 _atom_site_fract_y
 _atom_site_fract_z
 _atom_site_occupancy
  La  La0  1  0.349951  0.349951  0.349951  1
  La  La1  1  0.349951  0.349951  0.950150  1
  La  La2  1  0.349951  0.950150  0.349951  1
  La  La3  1  0.950150  0.349951  0.349951  1
  La  La4  1  0.801992  0.198008  0.198008  1
  La  La5  1  0.198008  0.801992  0.801992  1
  La  La6  1  0.198008  0.801992  0.198008  1
  La  La7  1  0.801992  0.198008  0.801992  1
  La  La8  1  0.198008  0.198008  0.801992  1
  La  La9  1  0.801992  0.801992  0.198008  1
  Yb  Yb10  1  0.936833  0.563167  0.563167  1
  Yb  Yb11  1  0.563167  0.936833  0.936833  1
  Yb  Yb12  1  0.563167  0.936833  0.563167  1
  Yb  Yb13  1  0.936833  0.563167  0.936833  1
  Yb  Yb14  1  0.563167  0.563167  0.936833  1
  Yb  Yb15  1  0.936833  0.936833  0.563167  1
  Al  Al16  1  0.573297  0.573297  0.573297  1
  Al  Al17  1  0.573297  0.573297  0.280110  1
  Al  Al18  1  0.573297  0.280110  0.573297  1
  Al  Al19  1  0.280110  0.573297  0.573297  1
  Ir  Ir20  1  0.139756  0.139756  0.139756  1
  Ir  Ir21  1  0.139756  0.139756  0.580730  1
  Ir  Ir22  1  0.139756  0.580730  0.139756  1
  Ir  Ir23  1  0.580730  0.139756  0.139756  1
