# generated using pymatgen
data_Ca2Sm2Ru3RhO14
_symmetry_space_group_name_H-M   'P 1'
_cell_length_a   7.27286650
_cell_length_b   7.23399648
_cell_length_c   7.27286659
_cell_angle_alpha   60.55862933
_cell_angle_beta   60.73344024
_cell_angle_gamma   60.55863085
_symmetry_Int_Tables_number   1
_chemical_formula_structural   Ca2Sm2Ru3RhO14
_chemical_formula_sum   'Ca2 Sm2 Ru3 Rh1 O14'
_cell_volume   274.33446111
_cell_formula_units_Z   1
loop_
 _symmetry_equiv_pos_site_id
 _symmetry_equiv_pos_as_xyz
  1  'x, y, z'
loop_
 _atom_site_type_symbol
 _atom_site_label
 _atom_site_symmetry_multiplicity
 _atom_site_fract_x
 _atom_site_fract_y
 _atom_site_fract_z
 _atom_site_occupancy
  Ca  Ca0  1  0.625000  0.125000  0.625000  1
  Ca  Ca1  1  0.625000  0.625000  0.625000  1
  Sm  Sm2  1  0.625000  0.625000  0.125000  1
  Sm  Sm3  1  0.125000  0.625000  0.625000  1
  Ru  Ru4  1  0.625000  0.125000  0.125000  1
  Ru  Ru5  1  0.125000  0.625000  0.125000  1
  Ru  Ru6  1  0.125000  0.125000  0.625000  1
  Rh  Rh7  1  0.125000  0.125000  0.125000  1
  O  O8  1  0.200860  0.207067  0.793758  1
  O  O9  1  0.207908  0.789874  0.207908  1
  O  O10  1  0.456242  0.042933  0.049140  1
  O  O11  1  0.197908  0.802332  0.804539  1
  O  O12  1  0.052092  0.447668  0.445461  1
  O  O13  1  0.804539  0.802332  0.197908  1
  O  O14  1  0.445461  0.447668  0.052092  1
  O  O15  1  0.499509  0.501450  0.499509  1
  O  O16  1  0.049140  0.042933  0.456242  1
  O  O17  1  0.441399  0.053889  0.441399  1
  O  O18  1  0.042092  0.460126  0.042092  1
  O  O19  1  0.750491  0.748550  0.750491  1
  O  O20  1  0.808601  0.196111  0.808601  1
  O  O21  1  0.793758  0.207067  0.200860  1
