# generated using pymatgen
data_Hf12Al8Co4CN3
_symmetry_space_group_name_H-M   'P 1'
_cell_length_a   8.44408836
_cell_length_b   8.44411010
_cell_length_c   8.44403740
_cell_angle_alpha   59.87193933
_cell_angle_beta   59.87201496
_cell_angle_gamma   59.87208000
_symmetry_Int_Tables_number   1
_chemical_formula_structural   Hf12Al8Co4CN3
_chemical_formula_sum   'Hf12 Al8 Co4 C1 N3'
_cell_volume   424.50099826
_cell_formula_units_Z   1
loop_
 _symmetry_equiv_pos_site_id
 _symmetry_equiv_pos_as_xyz
  1  'x, y, z'
loop_
 _atom_site_type_symbol
 _atom_site_label
 _atom_site_symmetry_multiplicity
 _atom_site_fract_x
 _atom_site_fract_y
 _atom_site_fract_z
 _atom_site_occupancy
  Hf  Hf0  1  0.556681  0.944008  0.556670  1
  Hf  Hf1  1  0.305992  0.693318  0.693331  1
  Hf  Hf2  1  0.692345  0.307677  0.307673  1
  Hf  Hf3  1  0.307678  0.692345  0.307674  1
  Hf  Hf4  1  0.693333  0.693331  0.305984  1
  Hf  Hf5  1  0.307684  0.307683  0.692343  1
  Hf  Hf6  1  0.556667  0.556669  0.944016  1
  Hf  Hf7  1  0.944007  0.556682  0.556669  1
  Hf  Hf8  1  0.557654  0.942323  0.942327  1
  Hf  Hf9  1  0.942317  0.942317  0.557657  1
  Hf  Hf10  1  0.693319  0.305992  0.693330  1
  Hf  Hf11  1  0.942322  0.557655  0.942326  1
  Al  Al12  1  0.920649  0.920612  0.920641  1
  Al  Al13  1  0.010819  0.329795  0.329769  1
  Al  Al14  1  0.329773  0.010813  0.329785  1
  Al  Al15  1  0.329761  0.329795  0.010829  1
  Al  Al16  1  0.920227  0.239187  0.920215  1
  Al  Al17  1  0.920239  0.920206  0.239171  1
  Al  Al18  1  0.239181  0.920205  0.920230  1
  Al  Al19  1  0.329351  0.329388  0.329359  1
  Co  Co20  1  0.125000  0.125000  0.125000  1
  Co  Co21  1  0.625000  0.125000  0.125000  1
  Co  Co22  1  0.125000  0.625000  0.125000  1
  Co  Co23  1  0.125000  0.125000  0.625000  1
  C  C24  1  0.625000  0.625000  0.625000  1
  N  N25  1  0.125000  0.625000  0.625000  1
  N  N26  1  0.625000  0.125000  0.625000  1
  N  N27  1  0.625000  0.625000  0.125000  1
