# generated using pymatgen
data_Y7HoSc11Si16Ru
_symmetry_space_group_name_H-M   'P 1'
_cell_length_a   7.01298601
_cell_length_b   7.37008875
_cell_length_c   13.90713405
_cell_angle_alpha   89.99026756
_cell_angle_beta   90.00032800
_cell_angle_gamma   90.09540018
_symmetry_Int_Tables_number   1
_chemical_formula_structural   Y7HoSc11Si16Ru
_chemical_formula_sum   'Y7 Ho1 Sc11 Si16 Ru1'
_cell_volume   718.80770247
_cell_formula_units_Z   1
loop_
 _symmetry_equiv_pos_site_id
 _symmetry_equiv_pos_as_xyz
  1  'x, y, z'
loop_
 _atom_site_type_symbol
 _atom_site_label
 _atom_site_symmetry_multiplicity
 _atom_site_fract_x
 _atom_site_fract_y
 _atom_site_fract_z
 _atom_site_occupancy
  Y  Y0  1  0.011973  0.177991  0.093370  1
  Y  Y1  1  0.992622  0.818368  0.901083  1
  Y  Y2  1  0.488757  0.673017  0.902473  1
  Y  Y3  1  0.992581  0.818306  0.598848  1
  Y  Y4  1  0.511139  0.323633  0.094817  1
  Y  Y5  1  0.012019  0.178024  0.406672  1
  Y  Y6  1  0.511105  0.323731  0.405296  1
  Ho  Ho7  1  0.488612  0.673190  0.597778  1
  Sc  Sc8  1  0.841641  0.496569  0.250011  1
  Sc  Sc9  1  0.341994  0.002966  0.250004  1
  Sc  Sc10  1  0.657140  0.996347  0.749905  1
  Sc  Sc11  1  0.325963  0.177074  0.627256  1
  Sc  Sc12  1  0.672086  0.824565  0.374367  1
  Sc  Sc13  1  0.172824  0.674030  0.376510  1
  Sc  Sc14  1  0.672176  0.824660  0.125717  1
  Sc  Sc15  1  0.825943  0.331056  0.628333  1
  Sc  Sc16  1  0.325947  0.177042  0.872705  1
  Sc  Sc17  1  0.826109  0.330895  0.871586  1
  Sc  Sc18  1  0.172783  0.674043  0.123539  1
  Si  Si19  1  0.028983  0.117136  0.749981  1
  Si  Si20  1  0.973013  0.885257  0.250004  1
  Si  Si21  1  0.469098  0.615866  0.250005  1
  Si  Si22  1  0.515708  0.395108  0.749816  1
  Si  Si23  1  0.285242  0.863889  0.749766  1
  Si  Si24  1  0.716654  0.128896  0.250009  1
  Si  Si25  1  0.214937  0.371523  0.249998  1
  Si  Si26  1  0.793974  0.628966  0.749843  1
  Si  Si27  1  0.157176  0.465409  0.547188  1
  Si  Si28  1  0.843309  0.536140  0.463342  1
  Si  Si29  1  0.345467  0.964126  0.463194  1
  Si  Si30  1  0.843449  0.536071  0.036723  1
  Si  Si31  1  0.658298  0.034283  0.539934  1
  Si  Si32  1  0.156572  0.465041  0.952907  1
  Si  Si33  1  0.658456  0.034697  0.960138  1
  Si  Si34  1  0.345387  0.964471  0.036950  1
  Ru  Ru35  1  0.150864  0.497617  0.749931  1
