# generated using pymatgen
data_Hf6CoSi6Ni
_symmetry_space_group_name_H-M   'P 1'
_cell_length_a   5.27146980
_cell_length_b   5.27147018
_cell_length_c   12.79023304
_cell_angle_alpha   71.23462618
_cell_angle_beta   71.23462597
_cell_angle_gamma   42.57651050
_symmetry_Int_Tables_number   1
_chemical_formula_structural   Hf6CoSi6Ni
_chemical_formula_sum   'Hf6 Co1 Si6 Ni1'
_cell_volume   225.68168528
_cell_formula_units_Z   1
loop_
 _symmetry_equiv_pos_site_id
 _symmetry_equiv_pos_as_xyz
  1  'x, y, z'
loop_
 _atom_site_type_symbol
 _atom_site_label
 _atom_site_symmetry_multiplicity
 _atom_site_fract_x
 _atom_site_fract_y
 _atom_site_fract_z
 _atom_site_occupancy
  Hf  Hf0  1  0.480881  0.480881  0.376577  1
  Hf  Hf1  1  0.521746  0.521746  0.620974  1
  Hf  Hf2  1  0.606149  0.606149  0.080107  1
  Hf  Hf3  1  0.391258  0.391258  0.920542  1
  Hf  Hf4  1  0.251992  0.251992  0.227300  1
  Hf  Hf5  1  0.746859  0.746859  0.773349  1
  Co  Co6  1  0.764326  0.764326  0.403451  1
  Si  Si7  1  0.962944  0.962944  0.236263  1
  Si  Si8  1  0.032832  0.032832  0.764659  1
  Si  Si9  1  0.883843  0.883843  0.075626  1
  Si  Si10  1  0.113873  0.113873  0.923991  1
  Si  Si11  1  0.868288  0.868288  0.544604  1
  Si  Si12  1  0.136161  0.136161  0.453243  1
  Ni  Ni13  1  0.238848  0.238848  0.599314  1
