# generated using pymatgen
data_La5Pr5InSi4Ge
_symmetry_space_group_name_H-M   'P 1'
_cell_length_a   7.89796146
_cell_length_b   9.30657038
_cell_length_c   7.90455728
_cell_angle_alpha   115.11683390
_cell_angle_beta   90.06267692
_cell_angle_gamma   115.05143561
_symmetry_Int_Tables_number   1
_chemical_formula_structural   La5Pr5InSi4Ge
_chemical_formula_sum   'La5 Pr5 In1 Si4 Ge1'
_cell_volume   464.85744523
_cell_formula_units_Z   1
loop_
 _symmetry_equiv_pos_site_id
 _symmetry_equiv_pos_as_xyz
  1  'x, y, z'
loop_
 _atom_site_type_symbol
 _atom_site_label
 _atom_site_symmetry_multiplicity
 _atom_site_fract_x
 _atom_site_fract_y
 _atom_site_fract_z
 _atom_site_occupancy
  La  La0  1  0.973852  0.948327  0.974830  1
  La  La1  1  0.525620  0.051784  0.526062  1
  La  La2  1  0.524794  0.721125  0.672868  1
  La  La3  1  0.196123  0.720914  0.047993  1
  La  La4  1  0.673500  0.720821  0.196454  1
  Pr  Pr5  1  0.049178  0.722404  0.525124  1
  Pr  Pr6  1  0.451362  0.278316  0.303111  1
  Pr  Pr7  1  0.827158  0.278311  0.975311  1
  Pr  Pr8  1  0.303133  0.278207  0.827173  1
  Pr  Pr9  1  0.974355  0.277681  0.450502  1
  In  In10  1  0.749511  0.498402  0.748416  1
  Si  Si11  1  0.886655  0.001474  0.615698  1
  Si  Si12  1  0.115673  0.001214  0.386239  1
  Si  Si13  1  0.615540  0.001675  0.115136  1
  Si  Si14  1  0.385560  0.001740  0.885769  1
  Ge  Ge15  1  0.247985  0.497605  0.249314  1
