# generated using pymatgen
data_Nd6Ho10Cd3HgIr4
_symmetry_space_group_name_H-M   'P 1'
_cell_length_a   9.70711720
_cell_length_b   9.70711784
_cell_length_c   9.70711739
_cell_angle_alpha   60.10735180
_cell_angle_beta   60.10735040
_cell_angle_gamma   60.10735793
_symmetry_Int_Tables_number   1
_chemical_formula_structural   Nd6Ho10Cd3HgIr4
_chemical_formula_sum   'Nd6 Ho10 Cd3 Hg1 Ir4'
_cell_volume   648.35209390
_cell_formula_units_Z   1
loop_
 _symmetry_equiv_pos_site_id
 _symmetry_equiv_pos_as_xyz
  1  'x, y, z'
loop_
 _atom_site_type_symbol
 _atom_site_label
 _atom_site_symmetry_multiplicity
 _atom_site_fract_x
 _atom_site_fract_y
 _atom_site_fract_z
 _atom_site_occupancy
  Nd  Nd0  1  0.940729  0.558822  0.558822  1
  Nd  Nd1  1  0.557485  0.941632  0.941632  1
  Nd  Nd2  1  0.558822  0.940729  0.558822  1
  Nd  Nd3  1  0.941632  0.557485  0.941632  1
  Nd  Nd4  1  0.558822  0.558822  0.940729  1
  Nd  Nd5  1  0.941632  0.941632  0.557485  1
  Ho  Ho6  1  0.347153  0.347153  0.347153  1
  Ho  Ho7  1  0.348611  0.348611  0.956633  1
  Ho  Ho8  1  0.348611  0.956633  0.348611  1
  Ho  Ho9  1  0.956633  0.348611  0.348611  1
  Ho  Ho10  1  0.811726  0.187405  0.187405  1
  Ho  Ho11  1  0.185650  0.811970  0.811970  1
  Ho  Ho12  1  0.187405  0.811726  0.187405  1
  Ho  Ho13  1  0.811970  0.185650  0.811970  1
  Ho  Ho14  1  0.187405  0.187405  0.811726  1
  Ho  Ho15  1  0.811970  0.811970  0.185650  1
  Cd  Cd16  1  0.579504  0.579504  0.261164  1
  Cd  Cd17  1  0.579504  0.261164  0.579504  1
  Cd  Cd18  1  0.261164  0.579504  0.579504  1
  Hg  Hg19  1  0.581857  0.581857  0.581857  1
  Ir  Ir20  1  0.141596  0.141596  0.141596  1
  Ir  Ir21  1  0.141869  0.141869  0.576377  1
  Ir  Ir22  1  0.141869  0.576377  0.141869  1
  Ir  Ir23  1  0.576377  0.141869  0.141869  1
