# generated using pymatgen
data_Y3Er17(Cd3Pt)2
_symmetry_space_group_name_H-M   'P 1'
_cell_length_a   9.60527300
_cell_length_b   9.60527361
_cell_length_c   9.74596500
_cell_angle_alpha   90.00000000
_cell_angle_beta   90.00000000
_cell_angle_gamma   119.99998756
_symmetry_Int_Tables_number   1
_chemical_formula_structural   Y3Er17(Cd3Pt)2
_chemical_formula_sum   'Y3 Er17 Cd6 Pt2'
_cell_volume   778.70862832
_cell_formula_units_Z   1
loop_
 _symmetry_equiv_pos_site_id
 _symmetry_equiv_pos_as_xyz
  1  'x, y, z'
loop_
 _atom_site_type_symbol
 _atom_site_label
 _atom_site_symmetry_multiplicity
 _atom_site_fract_x
 _atom_site_fract_y
 _atom_site_fract_z
 _atom_site_occupancy
  Y  Y0  1  0.457628  0.542372  0.750000  1
  Y  Y1  1  0.457628  0.915255  0.750000  1
  Y  Y2  1  0.084745  0.542372  0.750000  1
  Er  Er3  1  0.000000  0.000000  0.499845  1
  Er  Er4  1  0.000000  0.000000  0.000155  1
  Er  Er5  1  0.543100  0.456900  0.250000  1
  Er  Er6  1  0.543100  0.086201  0.250000  1
  Er  Er7  1  0.913799  0.456900  0.250000  1
  Er  Er8  1  0.208081  0.791919  0.440625  1
  Er  Er9  1  0.208081  0.416161  0.440625  1
  Er  Er10  1  0.583839  0.791919  0.440625  1
  Er  Er11  1  0.791474  0.208526  0.557435  1
  Er  Er12  1  0.791474  0.582947  0.557435  1
  Er  Er13  1  0.417053  0.208526  0.557435  1
  Er  Er14  1  0.791474  0.208526  0.942565  1
  Er  Er15  1  0.791474  0.582947  0.942565  1
  Er  Er16  1  0.417053  0.208526  0.942565  1
  Er  Er17  1  0.208081  0.791919  0.059375  1
  Er  Er18  1  0.208081  0.416161  0.059375  1
  Er  Er19  1  0.583839  0.791919  0.059375  1
  Cd  Cd20  1  0.884578  0.115422  0.250000  1
  Cd  Cd21  1  0.884578  0.769158  0.250000  1
  Cd  Cd22  1  0.230842  0.115422  0.250000  1
  Cd  Cd23  1  0.114298  0.885702  0.750000  1
  Cd  Cd24  1  0.114298  0.228596  0.750000  1
  Cd  Cd25  1  0.771404  0.885702  0.750000  1
  Pt  Pt26  1  0.333333  0.666667  0.250000  1
  Pt  Pt27  1  0.666667  0.333333  0.750000  1
