# generated using pymatgen
data_Ba3TbEr2TmO9
_symmetry_space_group_name_H-M   'P 1'
_cell_length_a   9.16172775
_cell_length_b   9.16172694
_cell_length_c   9.16172600
_cell_angle_alpha   38.98725252
_cell_angle_beta   38.98725775
_cell_angle_gamma   38.98726062
_symmetry_Int_Tables_number   1
_chemical_formula_structural   Ba3TbEr2TmO9
_chemical_formula_sum   'Ba3 Tb1 Er2 Tm1 O9'
_cell_volume   273.74032638
_cell_formula_units_Z   1
loop_
 _symmetry_equiv_pos_site_id
 _symmetry_equiv_pos_as_xyz
  1  'x, y, z'
loop_
 _atom_site_type_symbol
 _atom_site_label
 _atom_site_symmetry_multiplicity
 _atom_site_fract_x
 _atom_site_fract_y
 _atom_site_fract_z
 _atom_site_occupancy
  Ba  Ba0  1  0.000833  0.000833  0.000833  1
  Ba  Ba1  1  0.834978  0.834978  0.834978  1
  Ba  Ba2  1  0.415423  0.415423  0.415423  1
  Tb  Tb3  1  0.574610  0.574610  0.574610  1
  Er  Er4  1  0.136018  0.136018  0.136018  1
  Er  Er5  1  0.261906  0.261906  0.261906  1
  Tm  Tm6  1  0.700166  0.700166  0.700166  1
  O  O7  1  0.532430  0.429954  0.964853  1
  O  O8  1  0.429954  0.964853  0.532430  1
  O  O9  1  0.964853  0.532430  0.429954  1
  O  O10  1  0.410987  0.295516  0.879501  1
  O  O11  1  0.295516  0.879501  0.410987  1
  O  O12  1  0.879501  0.410987  0.295516  1
  O  O13  1  0.972607  0.418640  0.862078  1
  O  O14  1  0.862078  0.972607  0.418640  1
  O  O15  1  0.418640  0.862078  0.972607  1
