# generated using pymatgen
data_Y3Tm3Al19Si5Os8
_symmetry_space_group_name_H-M   'P 1'
_cell_length_a   8.70112100
_cell_length_b   8.68614174
_cell_length_c   9.59344700
_cell_angle_alpha   90.00000000
_cell_angle_beta   90.00000000
_cell_angle_gamma   120.05706627
_symmetry_Int_Tables_number   1
_chemical_formula_structural   Y3Tm3Al19Si5Os8
_chemical_formula_sum   'Y3 Tm3 Al19 Si5 Os8'
_cell_volume   627.56311367
_cell_formula_units_Z   1
loop_
 _symmetry_equiv_pos_site_id
 _symmetry_equiv_pos_as_xyz
  1  'x, y, z'
loop_
 _atom_site_type_symbol
 _atom_site_label
 _atom_site_symmetry_multiplicity
 _atom_site_fract_x
 _atom_site_fract_y
 _atom_site_fract_z
 _atom_site_occupancy
  Y  Y0  1  0.806401  0.612802  0.750000  1
  Y  Y1  1  0.388397  0.194489  0.750000  1
  Y  Y2  1  0.806092  0.194489  0.750000  1
  Tm  Tm3  1  0.195718  0.391437  0.250000  1
  Tm  Tm4  1  0.606014  0.805422  0.250000  1
  Tm  Tm5  1  0.199408  0.805422  0.250000  1
  Al  Al6  1  0.164944  0.329889  0.577183  1
  Al  Al7  1  0.834839  0.669678  0.421045  1
  Al  Al8  1  0.669375  0.835118  0.575812  1
  Al  Al9  1  0.834839  0.669678  0.078955  1
  Al  Al10  1  0.328789  0.165336  0.421201  1
  Al  Al11  1  0.164944  0.329889  0.922817  1
  Al  Al12  1  0.165743  0.835118  0.575812  1
  Al  Al13  1  0.328789  0.165336  0.078799  1
  Al  Al14  1  0.836547  0.165336  0.421201  1
  Al  Al15  1  0.669375  0.835118  0.924188  1
  Al  Al16  1  0.836547  0.165336  0.078799  1
  Al  Al17  1  0.165743  0.835118  0.924188  1
  Al  Al18  1  0.436996  0.873993  0.750000  1
  Al  Al19  1  0.873411  0.433821  0.250000  1
  Al  Al20  1  0.127989  0.564682  0.750000  1
  Al  Al21  1  0.560411  0.433821  0.250000  1
  Al  Al22  1  0.436693  0.564682  0.750000  1
  Al  Al23  1  0.999757  0.999515  0.250000  1
  Al  Al24  1  0.000415  0.000829  0.750000  1
  Si  Si25  1  0.332537  0.665075  0.039743  1
  Si  Si26  1  0.667341  0.334682  0.961883  1
  Si  Si27  1  0.667341  0.334682  0.538117  1
  Si  Si28  1  0.332537  0.665075  0.460257  1
  Si  Si29  1  0.563541  0.127083  0.250000  1
  Os  Os30  1  0.500267  0.000533  0.007823  1
  Os  Os31  1  0.000030  0.499444  0.001766  1
  Os  Os32  1  0.500267  0.000533  0.492177  1
  Os  Os33  1  0.499414  0.499444  0.001766  1
  Os  Os34  1  0.000030  0.499444  0.498234  1
  Os  Os35  1  0.499414  0.499444  0.498234  1
  Os  Os36  1  0.999552  0.999102  0.000098  1
  Os  Os37  1  0.999552  0.999102  0.499902  1
