# generated using pymatgen
data_DyEr3OsRu7
_symmetry_space_group_name_H-M   'P 1'
_cell_length_a   5.32915344
_cell_length_b   5.21182100
_cell_length_c   8.92719001
_cell_angle_alpha   90.00245900
_cell_angle_beta   90.00384890
_cell_angle_gamma   120.33773404
_symmetry_Int_Tables_number   1
_chemical_formula_structural   DyEr3OsRu7
_chemical_formula_sum   'Dy1 Er3 Os1 Ru7'
_cell_volume   213.99569467
_cell_formula_units_Z   1
loop_
 _symmetry_equiv_pos_site_id
 _symmetry_equiv_pos_as_xyz
  1  'x, y, z'
loop_
 _atom_site_type_symbol
 _atom_site_label
 _atom_site_symmetry_multiplicity
 _atom_site_fract_x
 _atom_site_fract_y
 _atom_site_fract_z
 _atom_site_occupancy
  Dy  Dy0  1  0.669055  0.336439  0.933599  1
  Er  Er1  1  0.669185  0.336658  0.566571  1
  Er  Er2  1  0.332557  0.666282  0.432685  1
  Er  Er3  1  0.332566  0.666302  0.067480  1
  Os  Os4  1  0.164305  0.329102  0.749460  1
  Ru  Ru5  1  0.004788  0.008332  0.499878  1
  Ru  Ru6  1  0.004875  0.008487  0.000335  1
  Ru  Ru7  1  0.168891  0.822013  0.749542  1
  Ru  Ru8  1  0.649798  0.820288  0.749528  1
  Ru  Ru9  1  0.831481  0.662247  0.250323  1
  Ru  Ru10  1  0.827906  0.170748  0.250325  1
  Ru  Ru11  1  0.344593  0.173102  0.250273  1
