# generated using pymatgen
data_ErBeBOs
_symmetry_space_group_name_H-M   'P 1'
_cell_length_a   5.42857100
_cell_length_b   6.06095600
_cell_length_c   6.40474000
_cell_angle_alpha   90.00000000
_cell_angle_beta   90.00000000
_cell_angle_gamma   90.00000000
_symmetry_Int_Tables_number   1
_chemical_formula_structural   ErBeBOs
_chemical_formula_sum   'Er4 Be4 B4 Os4'
_cell_volume   210.73086888
_cell_formula_units_Z   4
loop_
 _symmetry_equiv_pos_site_id
 _symmetry_equiv_pos_as_xyz
  1  'x, y, z'
loop_
 _atom_site_type_symbol
 _atom_site_label
 _atom_site_symmetry_multiplicity
 _atom_site_fract_x
 _atom_site_fract_y
 _atom_site_fract_z
 _atom_site_occupancy
  Er  Er0  1  0.257084  0.001975  0.348072  1
  Er  Er1  1  0.242916  0.501975  0.151928  1
  Er  Er2  1  0.757084  0.998025  0.651928  1
  Er  Er3  1  0.742916  0.498025  0.848072  1
  Be  Be4  1  0.063606  0.363063  0.541719  1
  Be  Be5  1  0.436394  0.863063  0.958281  1
  Be  Be6  1  0.563606  0.636937  0.458281  1
  Be  Be7  1  0.936394  0.136937  0.041719  1
  B  B8  1  0.932701  0.643606  0.447401  1
  B  B9  1  0.567299  0.143606  0.052599  1
  B  B10  1  0.432701  0.356394  0.552599  1
  B  B11  1  0.067299  0.856394  0.947401  1
  Os  Os12  1  0.266261  0.175310  0.813530  1
  Os  Os13  1  0.233739  0.675310  0.686470  1
  Os  Os14  1  0.766261  0.824690  0.186470  1
  Os  Os15  1  0.733739  0.324690  0.313530  1
