# generated using pymatgen
data_Nd3AgPtRh3O14
_symmetry_space_group_name_H-M   'P 1'
_cell_length_a   7.24783209
_cell_length_b   7.24783307
_cell_length_c   7.24783155
_cell_angle_alpha   61.98004048
_cell_angle_beta   61.98003447
_cell_angle_gamma   61.98003656
_symmetry_Int_Tables_number   1
_chemical_formula_structural   Nd3AgPtRh3O14
_chemical_formula_sum   'Nd3 Ag1 Pt1 Rh3 O14'
_cell_volume   281.14645194
_cell_formula_units_Z   1
loop_
 _symmetry_equiv_pos_site_id
 _symmetry_equiv_pos_as_xyz
  1  'x, y, z'
loop_
 _atom_site_type_symbol
 _atom_site_label
 _atom_site_symmetry_multiplicity
 _atom_site_fract_x
 _atom_site_fract_y
 _atom_site_fract_z
 _atom_site_occupancy
  Nd  Nd0  1  0.625000  0.625000  0.125000  1
  Nd  Nd1  1  0.625000  0.125000  0.625000  1
  Nd  Nd2  1  0.125000  0.625000  0.625000  1
  Ag  Ag3  1  0.625000  0.625000  0.625000  1
  Pt  Pt4  1  0.125000  0.125000  0.125000  1
  Rh  Rh5  1  0.125000  0.125000  0.625000  1
  Rh  Rh6  1  0.125000  0.625000  0.125000  1
  Rh  Rh7  1  0.625000  0.125000  0.125000  1
  O  O8  1  0.506368  0.506368  0.506368  1
  O  O9  1  0.743632  0.743632  0.743632  1
  O  O10  1  0.447352  0.056088  0.447352  1
  O  O11  1  0.211483  0.791453  0.211483  1
  O  O12  1  0.447352  0.447352  0.056088  1
  O  O13  1  0.056088  0.447352  0.447352  1
  O  O14  1  0.458547  0.038517  0.038517  1
  O  O15  1  0.038517  0.038517  0.458547  1
  O  O16  1  0.038517  0.458547  0.038517  1
  O  O17  1  0.791453  0.211483  0.211483  1
  O  O18  1  0.193912  0.802648  0.802648  1
  O  O19  1  0.802648  0.193912  0.802648  1
  O  O20  1  0.211483  0.211483  0.791453  1
  O  O21  1  0.802648  0.802648  0.193912  1
