# generated using pymatgen
data_Mg3Ta(ZnPd5)2
_symmetry_space_group_name_H-M   'P 1'
_cell_length_a   4.09149300
_cell_length_b   5.53680806
_cell_length_c   10.93803491
_cell_angle_alpha   89.35576792
_cell_angle_beta   90.00000000
_cell_angle_gamma   90.00000000
_symmetry_Int_Tables_number   1
_chemical_formula_structural   Mg3Ta(ZnPd5)2
_chemical_formula_sum   'Mg3 Ta1 Zn2 Pd10'
_cell_volume   247.77251697
_cell_formula_units_Z   1
loop_
 _symmetry_equiv_pos_site_id
 _symmetry_equiv_pos_as_xyz
  1  'x, y, z'
loop_
 _atom_site_type_symbol
 _atom_site_label
 _atom_site_symmetry_multiplicity
 _atom_site_fract_x
 _atom_site_fract_y
 _atom_site_fract_z
 _atom_site_occupancy
  Mg  Mg0  1  0.500000  0.805133  0.858891  1
  Mg  Mg1  1  0.500000  0.306888  0.637301  1
  Mg  Mg2  1  0.500000  0.690172  0.368991  1
  Ta  Ta3  1  0.500000  0.194080  0.137017  1
  Zn  Zn4  1  0.000000  0.998540  0.501044  1
  Zn  Zn5  1  0.000000  0.506560  0.998308  1
  Pd  Pd6  1  0.500000  0.194400  0.382919  1
  Pd  Pd7  1  0.500000  0.801247  0.611314  1
  Pd  Pd8  1  0.500000  0.297747  0.894670  1
  Pd  Pd9  1  0.500000  0.701974  0.112297  1
  Pd  Pd10  1  0.000000  0.440312  0.241469  1
  Pd  Pd11  1  0.000000  0.555750  0.756896  1
  Pd  Pd12  1  0.000000  0.059007  0.744330  1
  Pd  Pd13  1  0.000000  0.946128  0.251918  1
  Pd  Pd14  1  0.000000  0.007032  0.002130  1
  Pd  Pd15  1  0.000000  0.495030  0.500505  1
