# generated using pymatgen
data_Li2SmEr3(Si4Pd)2
_symmetry_space_group_name_H-M   'P 1'
_cell_length_a   3.84511200
_cell_length_b   7.35168065
_cell_length_c   10.11249930
_cell_angle_alpha   89.98069390
_cell_angle_beta   90.00000000
_cell_angle_gamma   90.00000000
_symmetry_Int_Tables_number   1
_chemical_formula_structural   Li2SmEr3(Si4Pd)2
_chemical_formula_sum   'Li2 Sm1 Er3 Si8 Pd2'
_cell_volume   285.86047272
_cell_formula_units_Z   1
loop_
 _symmetry_equiv_pos_site_id
 _symmetry_equiv_pos_as_xyz
  1  'x, y, z'
loop_
 _atom_site_type_symbol
 _atom_site_label
 _atom_site_symmetry_multiplicity
 _atom_site_fract_x
 _atom_site_fract_y
 _atom_site_fract_z
 _atom_site_occupancy
  Li  Li0  1  0.750000  0.003408  0.605207  1
  Li  Li1  1  0.750000  0.506297  0.895800  1
  Sm  Sm2  1  0.250000  0.646147  0.630735  1
  Er  Er3  1  0.250000  0.143466  0.871241  1
  Er  Er4  1  0.750000  0.863707  0.133808  1
  Er  Er5  1  0.750000  0.360343  0.365782  1
  Si  Si6  1  0.250000  0.221629  0.569024  1
  Si  Si7  1  0.250000  0.729858  0.934803  1
  Si  Si8  1  0.750000  0.769837  0.426750  1
  Si  Si9  1  0.750000  0.268472  0.068410  1
  Si  Si10  1  0.250000  0.656538  0.315949  1
  Si  Si11  1  0.250000  0.157942  0.181068  1
  Si  Si12  1  0.750000  0.337762  0.678740  1
  Si  Si13  1  0.750000  0.846136  0.825380  1
  Pd  Pd14  1  0.250000  0.994532  0.388674  1
  Pd  Pd15  1  0.250000  0.493925  0.108629  1
