# generated using pymatgen
data_RbNbP4O13
_symmetry_space_group_name_H-M   'P 1'
_cell_length_a   7.18496900
_cell_length_b   8.54390800
_cell_length_c   18.52335000
_cell_angle_alpha   90.00000000
_cell_angle_beta   90.00000000
_cell_angle_gamma   90.00000000
_symmetry_Int_Tables_number   1
_chemical_formula_structural   RbNbP4O13
_chemical_formula_sum   'Rb4 Nb4 P16 O52'
_cell_volume   1137.10611432
_cell_formula_units_Z   4
loop_
 _symmetry_equiv_pos_site_id
 _symmetry_equiv_pos_as_xyz
  1  'x, y, z'
loop_
 _atom_site_type_symbol
 _atom_site_label
 _atom_site_symmetry_multiplicity
 _atom_site_fract_x
 _atom_site_fract_y
 _atom_site_fract_z
 _atom_site_occupancy
  Rb  Rb0  1  0.242978  0.793748  0.976619  1
  Rb  Rb1  1  0.742978  0.706252  0.023381  1
  Rb  Rb2  1  0.757022  0.293748  0.523381  1
  Rb  Rb3  1  0.257022  0.206252  0.476619  1
  Nb  Nb4  1  0.267560  0.780423  0.708061  1
  Nb  Nb5  1  0.767560  0.719577  0.291939  1
  Nb  Nb6  1  0.732440  0.280423  0.791939  1
  Nb  Nb7  1  0.232440  0.219577  0.208061  1
  P  P8  1  0.098284  0.158316  0.680567  1
  P  P9  1  0.598284  0.341684  0.319433  1
  P  P10  1  0.901716  0.658316  0.819433  1
  P  P11  1  0.401716  0.841684  0.180567  1
  P  P12  1  0.400480  0.399034  0.669677  1
  P  P13  1  0.900480  0.100966  0.330323  1
  P  P14  1  0.599520  0.899034  0.830323  1
  P  P15  1  0.099520  0.600966  0.169677  1
  P  P16  1  0.434892  0.787565  0.426213  1
  P  P17  1  0.934892  0.712435  0.573787  1
  P  P18  1  0.565108  0.287565  0.073787  1
  P  P19  1  0.065108  0.212435  0.926213  1
  P  P20  1  0.571674  0.884616  0.570811  1
  P  P21  1  0.071674  0.615384  0.429189  1
  P  P22  1  0.428326  0.384616  0.929189  1
  P  P23  1  0.928326  0.115384  0.070811  1
  O  O24  1  0.051903  0.159636  0.603030  1
  O  O25  1  0.551903  0.340364  0.396970  1
  O  O26  1  0.948097  0.659636  0.896970  1
  O  O27  1  0.448097  0.840364  0.103030  1
  O  O28  1  0.180441  0.002255  0.709571  1
  O  O29  1  0.680441  0.497745  0.290429  1
  O  O30  1  0.819559  0.502255  0.790429  1
  O  O31  1  0.319559  0.997745  0.209571  1
  O  O32  1  0.067819  0.702268  0.768912  1
  O  O33  1  0.567819  0.797732  0.231088  1
  O  O34  1  0.932181  0.202268  0.731088  1
  O  O35  1  0.432181  0.297732  0.268912  1
  O  O36  1  0.406982  0.396208  0.590237  1
  O  O37  1  0.906982  0.103792  0.409763  1
  O  O38  1  0.593018  0.896208  0.909763  1
  O  O39  1  0.093018  0.603792  0.090237  1
  O  O40  1  0.421388  0.835154  0.791610  1
  O  O41  1  0.921388  0.664846  0.208390  1
  O  O42  1  0.244084  0.289087  0.705824  1
  O  O43  1  0.578612  0.335154  0.708390  1
  O  O44  1  0.356701  0.560660  0.704200  1
  O  O45  1  0.856701  0.939340  0.295800  1
  O  O46  1  0.643299  0.060660  0.795800  1
  O  O47  1  0.143299  0.439340  0.204200  1
  O  O48  1  0.016779  0.177337  0.140653  1
  O  O49  1  0.516779  0.322663  0.859347  1
  O  O50  1  0.983221  0.677337  0.359347  1
  O  O51  1  0.483221  0.822663  0.640653  1
  O  O52  1  0.707466  0.142021  0.078336  1
  O  O53  1  0.207466  0.357979  0.921664  1
  O  O54  1  0.292534  0.642021  0.421664  1
  O  O55  1  0.792534  0.857979  0.578336  1
  O  O56  1  0.992978  0.235553  0.008681  1
  O  O57  1  0.492978  0.264447  0.991319  1
  O  O58  1  0.007022  0.735553  0.491319  1
  O  O59  1  0.507022  0.764447  0.508681  1
  O  O60  1  0.966569  0.950624  0.054070  1
  O  O61  1  0.466569  0.549376  0.945930  1
  O  O62  1  0.033431  0.450624  0.445930  1
  O  O63  1  0.533431  0.049376  0.554070  1
  O  O64  1  0.395641  0.239293  0.119126  1
  O  O65  1  0.895641  0.260707  0.880874  1
  O  O66  1  0.604359  0.739293  0.380874  1
  O  O67  1  0.104359  0.760707  0.619126  1
  O  O68  1  0.153605  0.062224  0.908896  1
  O  O69  1  0.653605  0.437776  0.091104  1
  O  O70  1  0.846395  0.562224  0.591104  1
  O  O71  1  0.346395  0.937776  0.408896  1
  O  O72  1  0.255916  0.710913  0.205824  1
  O  O73  1  0.755916  0.789087  0.794176  1
  O  O74  1  0.744084  0.210913  0.294176  1
  O  O75  1  0.078612  0.164846  0.291610  1
