# generated using pymatgen
data_Ce2Sm3AgPb3
_symmetry_space_group_name_H-M   'P 1'
_cell_length_a   9.67629300
_cell_length_b   9.67629414
_cell_length_c   6.58287900
_cell_angle_alpha   90.00000000
_cell_angle_beta   90.00000000
_cell_angle_gamma   120.00000637
_symmetry_Int_Tables_number   1
_chemical_formula_structural   Ce2Sm3AgPb3
_chemical_formula_sum   'Ce4 Sm6 Ag2 Pb6'
_cell_volume   533.78276635
_cell_formula_units_Z   2
loop_
 _symmetry_equiv_pos_site_id
 _symmetry_equiv_pos_as_xyz
  1  'x, y, z'
loop_
 _atom_site_type_symbol
 _atom_site_label
 _atom_site_symmetry_multiplicity
 _atom_site_fract_x
 _atom_site_fract_y
 _atom_site_fract_z
 _atom_site_occupancy
  Ce  Ce0  1  0.666667  0.333333  0.500000  1
  Ce  Ce1  1  0.333333  0.666667  0.500000  1
  Ce  Ce2  1  0.333333  0.666667  0.000000  1
  Ce  Ce3  1  0.666667  0.333333  0.000000  1
  Sm  Sm4  1  0.723412  0.723412  0.250000  1
  Sm  Sm5  1  0.276588  0.000000  0.250000  1
  Sm  Sm6  1  0.000000  0.276588  0.250000  1
  Sm  Sm7  1  0.276588  0.276588  0.750000  1
  Sm  Sm8  1  0.723412  0.000000  0.750000  1
  Sm  Sm9  1  0.000000  0.723412  0.750000  1
  Ag  Ag10  1  0.000000  0.000000  0.500000  1
  Ag  Ag11  1  0.000000  0.000000  0.000000  1
  Pb  Pb12  1  0.373011  0.373011  0.250000  1
  Pb  Pb13  1  0.626989  0.000000  0.250000  1
  Pb  Pb14  1  0.000000  0.626989  0.250000  1
  Pb  Pb15  1  0.626989  0.626989  0.750000  1
  Pb  Pb16  1  0.373011  0.000000  0.750000  1
  Pb  Pb17  1  0.000000  0.373011  0.750000  1
