# generated using pymatgen
data_Cs2CaHf(ZnAs2)2
_symmetry_space_group_name_H-M   'P 1'
_cell_length_a   8.34417389
_cell_length_b   8.34417545
_cell_length_c   6.30489700
_cell_angle_alpha   90.00000000
_cell_angle_beta   90.00000000
_cell_angle_gamma   135.58426716
_symmetry_Int_Tables_number   1
_chemical_formula_structural   Cs2CaHf(ZnAs2)2
_chemical_formula_sum   'Cs2 Ca1 Hf1 Zn2 As4'
_cell_volume   307.22434891
_cell_formula_units_Z   1
loop_
 _symmetry_equiv_pos_site_id
 _symmetry_equiv_pos_as_xyz
  1  'x, y, z'
loop_
 _atom_site_type_symbol
 _atom_site_label
 _atom_site_symmetry_multiplicity
 _atom_site_fract_x
 _atom_site_fract_y
 _atom_site_fract_z
 _atom_site_occupancy
  Cs  Cs0  1  0.500000  0.000000  0.252576  1
  Cs  Cs1  1  0.000000  0.500000  0.747424  1
  Ca  Ca2  1  0.500000  0.500000  0.500000  1
  Hf  Hf3  1  0.000000  0.000000  0.000000  1
  Zn  Zn4  1  0.500000  0.500000  0.000000  1
  Zn  Zn5  1  0.000000  0.000000  0.500000  1
  As  As6  1  0.666818  0.864211  0.766163  1
  As  As7  1  0.135789  0.333182  0.233837  1
  As  As8  1  0.864211  0.666818  0.233837  1
  As  As9  1  0.333182  0.135789  0.766163  1
