# generated using pymatgen
data_Tb18YLuPb16
_symmetry_space_group_name_H-M   'P 1'
_cell_length_a   8.22268324
_cell_length_b   8.31461978
_cell_length_c   15.70250300
_cell_angle_alpha   90.00000000
_cell_angle_beta   90.00000000
_cell_angle_gamma   89.91849801
_symmetry_Int_Tables_number   1
_chemical_formula_structural   Tb18YLuPb16
_chemical_formula_sum   'Tb18 Y1 Lu1 Pb16'
_cell_volume   1073.55525074
_cell_formula_units_Z   1
loop_
 _symmetry_equiv_pos_site_id
 _symmetry_equiv_pos_as_xyz
  1  'x, y, z'
loop_
 _atom_site_type_symbol
 _atom_site_label
 _atom_site_symmetry_multiplicity
 _atom_site_fract_x
 _atom_site_fract_y
 _atom_site_fract_z
 _atom_site_occupancy
  Tb  Tb0  1  0.376278  0.840720  0.879512  1
  Tb  Tb1  1  0.877494  0.658522  0.620537  1
  Tb  Tb2  1  0.623192  0.158959  0.379632  1
  Tb  Tb3  1  0.123342  0.340939  0.120057  1
  Tb  Tb4  1  0.623192  0.158959  0.120368  1
  Tb  Tb5  1  0.123342  0.340939  0.379943  1
  Tb  Tb6  1  0.376278  0.840720  0.620488  1
  Tb  Tb7  1  0.877494  0.658522  0.879463  1
  Tb  Tb8  1  0.533644  0.323722  0.899754  1
  Tb  Tb9  1  0.034370  0.177236  0.600233  1
  Tb  Tb10  1  0.465982  0.676660  0.399969  1
  Tb  Tb11  1  0.965919  0.823362  0.100261  1
  Tb  Tb12  1  0.465982  0.676660  0.100031  1
  Tb  Tb13  1  0.965919  0.823362  0.399739  1
  Tb  Tb14  1  0.533644  0.323722  0.600246  1
  Tb  Tb15  1  0.034370  0.177236  0.899767  1
  Tb  Tb16  1  0.708636  0.996425  0.750000  1
  Tb  Tb17  1  0.291264  0.003742  0.250000  1
  Y  Y18  1  0.791133  0.496423  0.250000  1
  Lu  Lu19  1  0.209188  0.504093  0.750000  1
  Pb  Pb20  1  0.281166  0.033141  0.042768  1
  Pb  Pb21  1  0.781046  0.466581  0.457226  1
  Pb  Pb22  1  0.718941  0.966696  0.542937  1
  Pb  Pb23  1  0.218809  0.532915  0.956179  1
  Pb  Pb24  1  0.718941  0.966696  0.957063  1
  Pb  Pb25  1  0.218809  0.532915  0.543821  1
  Pb  Pb26  1  0.281166  0.033141  0.457232  1
  Pb  Pb27  1  0.781046  0.466581  0.042774  1
  Pb  Pb28  1  0.571038  0.625153  0.750000  1
  Pb  Pb29  1  0.073130  0.872908  0.750000  1
  Pb  Pb30  1  0.427320  0.374045  0.250000  1
  Pb  Pb31  1  0.927274  0.126339  0.250000  1
  Pb  Pb32  1  0.345002  0.154284  0.750000  1
  Pb  Pb33  1  0.845938  0.348417  0.750000  1
  Pb  Pb34  1  0.654641  0.847686  0.250000  1
  Pb  Pb35  1  0.155076  0.651579  0.250000  1
