# generated using pymatgen
data_ReHg2F6
_symmetry_space_group_name_H-M   'P 1'
_cell_length_a   11.84348800
_cell_length_b   5.78896083
_cell_length_c   10.34851970
_cell_angle_alpha   84.88455400
_cell_angle_beta   90.00000000
_cell_angle_gamma   90.00000000
_symmetry_Int_Tables_number   1
_chemical_formula_structural   ReHg2F6
_chemical_formula_sum   'Re4 Hg8 F24'
_cell_volume   706.68397820
_cell_formula_units_Z   4
loop_
 _symmetry_equiv_pos_site_id
 _symmetry_equiv_pos_as_xyz
  1  'x, y, z'
loop_
 _atom_site_type_symbol
 _atom_site_label
 _atom_site_symmetry_multiplicity
 _atom_site_fract_x
 _atom_site_fract_y
 _atom_site_fract_z
 _atom_site_occupancy
  Re  Re0  1  0.699074  0.501691  0.836727  1
  Re  Re1  1  0.199074  0.498309  0.663273  1
  Re  Re2  1  0.300926  0.498309  0.163273  1
  Re  Re3  1  0.800926  0.501691  0.336727  1
  Hg  Hg4  1  0.925040  0.997230  0.612518  1
  Hg  Hg5  1  0.425040  0.002770  0.887482  1
  Hg  Hg6  1  0.074960  0.002770  0.387482  1
  Hg  Hg7  1  0.574960  0.997230  0.112518  1
  Hg  Hg8  1  0.982512  0.999258  0.870525  1
  Hg  Hg9  1  0.482512  0.000742  0.629475  1
  Hg  Hg10  1  0.017488  0.000742  0.129475  1
  Hg  Hg11  1  0.517488  0.999258  0.370525  1
  F  F12  1  0.686519  0.788954  0.725948  1
  F  F13  1  0.186519  0.211046  0.774052  1
  F  F14  1  0.313481  0.211046  0.274052  1
  F  F15  1  0.813481  0.788954  0.225948  1
  F  F16  1  0.714217  0.211089  0.946361  1
  F  F17  1  0.214217  0.788911  0.553639  1
  F  F18  1  0.285783  0.788911  0.053639  1
  F  F19  1  0.785783  0.211089  0.446361  1
  F  F20  1  0.717061  0.677589  0.982318  1
  F  F21  1  0.217061  0.322411  0.517682  1
  F  F22  1  0.282939  0.322411  0.017682  1
  F  F23  1  0.782939  0.677589  0.482318  1
  F  F24  1  0.676049  0.327427  0.691831  1
  F  F25  1  0.176049  0.672573  0.808169  1
  F  F26  1  0.323951  0.672573  0.308169  1
  F  F27  1  0.823951  0.327427  0.191831  1
  F  F28  1  0.858937  0.503570  0.811637  1
  F  F29  1  0.358937  0.496430  0.688363  1
  F  F30  1  0.141063  0.496430  0.188363  1
  F  F31  1  0.641063  0.503570  0.311637  1
  F  F32  1  0.540095  0.500232  0.867047  1
  F  F33  1  0.040095  0.499768  0.632953  1
  F  F34  1  0.459905  0.499768  0.132953  1
  F  F35  1  0.959905  0.500232  0.367047  1
