# generated using pymatgen
data_PrY3(Lu4Bi3)4
_symmetry_space_group_name_H-M   'P 1'
_cell_length_a   8.17315202
_cell_length_b   9.39179700
_cell_length_c   11.87492700
_cell_angle_alpha   90.00000000
_cell_angle_beta   89.99584293
_cell_angle_gamma   90.00000000
_symmetry_Int_Tables_number   1
_chemical_formula_structural   PrY3(Lu4Bi3)4
_chemical_formula_sum   'Pr1 Y3 Lu16 Bi12'
_cell_volume   911.52633663
_cell_formula_units_Z   1
loop_
 _symmetry_equiv_pos_site_id
 _symmetry_equiv_pos_as_xyz
  1  'x, y, z'
loop_
 _atom_site_type_symbol
 _atom_site_label
 _atom_site_symmetry_multiplicity
 _atom_site_fract_x
 _atom_site_fract_y
 _atom_site_fract_z
 _atom_site_occupancy
  Pr  Pr0  1  0.184529  0.750000  0.718676  1
  Y  Y1  1  0.314031  0.250000  0.217387  1
  Y  Y2  1  0.814299  0.250000  0.282775  1
  Y  Y3  1  0.685205  0.750000  0.782142  1
  Lu  Lu4  1  0.353091  0.750000  0.219082  1
  Lu  Lu5  1  0.852363  0.750000  0.280354  1
  Lu  Lu6  1  0.647695  0.250000  0.781722  1
  Lu  Lu7  1  0.147446  0.250000  0.718894  1
  Lu  Lu8  1  0.692453  0.567164  0.061142  1
  Lu  Lu9  1  0.191119  0.932598  0.438816  1
  Lu  Lu10  1  0.308085  0.067640  0.939435  1
  Lu  Lu11  1  0.809019  0.432386  0.560843  1
  Lu  Lu12  1  0.308085  0.432360  0.939435  1
  Lu  Lu13  1  0.809019  0.067614  0.560843  1
  Lu  Lu14  1  0.692453  0.932836  0.061142  1
  Lu  Lu15  1  0.191119  0.567402  0.438816  1
  Lu  Lu16  1  0.478436  0.250000  0.488883  1
  Lu  Lu17  1  0.977552  0.250000  0.010899  1
  Lu  Lu18  1  0.521487  0.750000  0.509611  1
  Lu  Lu19  1  0.022712  0.750000  0.989443  1
  Bi  Bi20  1  0.404867  0.750000  0.961934  1
  Bi  Bi21  1  0.897944  0.750000  0.537009  1
  Bi  Bi22  1  0.597537  0.250000  0.040389  1
  Bi  Bi23  1  0.098342  0.250000  0.460022  1
  Bi  Bi24  1  0.565674  0.994708  0.325975  1
  Bi  Bi25  1  0.066238  0.505785  0.173249  1
  Bi  Bi26  1  0.438200  0.491852  0.672880  1
  Bi  Bi27  1  0.930443  0.007999  0.828048  1
  Bi  Bi28  1  0.438200  0.008148  0.672880  1
  Bi  Bi29  1  0.930443  0.492001  0.828048  1
  Bi  Bi30  1  0.565674  0.505292  0.325975  1
  Bi  Bi31  1  0.066238  0.994215  0.173249  1
