# generated using pymatgen
data_LaNdGa2PtRh
_symmetry_space_group_name_H-M   'P 1'
_cell_length_a   4.50938500
_cell_length_b   7.12583900
_cell_length_c   7.88967200
_cell_angle_alpha   90.00000000
_cell_angle_beta   90.00000000
_cell_angle_gamma   90.00000000
_symmetry_Int_Tables_number   1
_chemical_formula_structural   LaNdGa2PtRh
_chemical_formula_sum   'La2 Nd2 Ga4 Pt2 Rh2'
_cell_volume   253.52002565
_cell_formula_units_Z   2
loop_
 _symmetry_equiv_pos_site_id
 _symmetry_equiv_pos_as_xyz
  1  'x, y, z'
loop_
 _atom_site_type_symbol
 _atom_site_label
 _atom_site_symmetry_multiplicity
 _atom_site_fract_x
 _atom_site_fract_y
 _atom_site_fract_z
 _atom_site_occupancy
  La  La0  1  0.250000  0.032070  0.681497  1
  La  La1  1  0.250000  0.532070  0.818503  1
  Nd  Nd2  1  0.750000  0.974372  0.305755  1
  Nd  Nd3  1  0.750000  0.474372  0.194245  1
  Ga  Ga4  1  0.250000  0.152350  0.075351  1
  Ga  Ga5  1  0.250000  0.652350  0.424649  1
  Ga  Ga6  1  0.750000  0.842114  0.935878  1
  Ga  Ga7  1  0.750000  0.342114  0.564122  1
  Pt  Pt8  1  0.750000  0.720825  0.609768  1
  Pt  Pt9  1  0.750000  0.220825  0.890232  1
  Rh  Rh10  1  0.250000  0.278270  0.392060  1
  Rh  Rh11  1  0.250000  0.778270  0.107940  1
