# generated using pymatgen
data_Sr6Zn2RuRhO12
_symmetry_space_group_name_H-M   'P 1'
_cell_length_a   6.75610064
_cell_length_b   6.75609907
_cell_length_c   6.75610053
_cell_angle_alpha   91.96578311
_cell_angle_beta   91.96576745
_cell_angle_gamma   91.96577391
_symmetry_Int_Tables_number   1
_chemical_formula_structural   Sr6Zn2RuRhO12
_chemical_formula_sum   'Sr6 Zn2 Ru1 Rh1 O12'
_cell_volume   307.82419161
_cell_formula_units_Z   1
loop_
 _symmetry_equiv_pos_site_id
 _symmetry_equiv_pos_as_xyz
  1  'x, y, z'
loop_
 _atom_site_type_symbol
 _atom_site_label
 _atom_site_symmetry_multiplicity
 _atom_site_fract_x
 _atom_site_fract_y
 _atom_site_fract_z
 _atom_site_occupancy
  Sr  Sr0  1  0.744299  0.389288  0.117862  1
  Sr  Sr1  1  0.610712  0.882138  0.255701  1
  Sr  Sr2  1  0.117862  0.744299  0.389288  1
  Sr  Sr3  1  0.882138  0.255702  0.610712  1
  Sr  Sr4  1  0.389288  0.117863  0.744299  1
  Sr  Sr5  1  0.255701  0.610713  0.882138  1
  Zn  Zn6  1  0.255959  0.255959  0.255959  1
  Zn  Zn7  1  0.744041  0.744042  0.744041  1
  Ru  Ru8  1  0.000000  0.000000  0.000000  1
  Rh  Rh9  1  0.500000  0.500000  0.500000  1
  O  O10  1  0.913190  0.719212  0.043307  1
  O  O11  1  0.280788  0.956693  0.086808  1
  O  O12  1  0.403429  0.538606  0.209889  1
  O  O13  1  0.956692  0.086809  0.280788  1
  O  O14  1  0.538606  0.209888  0.403429  1
  O  O15  1  0.790112  0.596571  0.461394  1
  O  O16  1  0.209888  0.403430  0.538606  1
  O  O17  1  0.461395  0.790111  0.596571  1
  O  O18  1  0.043307  0.913191  0.719211  1
  O  O19  1  0.596571  0.461394  0.790111  1
  O  O20  1  0.719211  0.043307  0.913191  1
  O  O21  1  0.086809  0.280788  0.956692  1
