# generated using pymatgen
data_NdDyB4(IrOs)2
_symmetry_space_group_name_H-M   'P 1'
_cell_length_a   6.88176332
_cell_length_b   6.04953382
_cell_length_c   5.58531034
_cell_angle_alpha   72.39943520
_cell_angle_beta   56.92075181
_cell_angle_gamma   50.67981989
_symmetry_Int_Tables_number   1
_chemical_formula_structural   NdDyB4(IrOs)2
_chemical_formula_sum   'Nd1 Dy1 B4 Ir2 Os2'
_cell_volume   150.38935509
_cell_formula_units_Z   1
loop_
 _symmetry_equiv_pos_site_id
 _symmetry_equiv_pos_as_xyz
  1  'x, y, z'
loop_
 _atom_site_type_symbol
 _atom_site_label
 _atom_site_symmetry_multiplicity
 _atom_site_fract_x
 _atom_site_fract_y
 _atom_site_fract_z
 _atom_site_occupancy
  Nd  Nd0  1  0.500000  0.500000  0.500000  1
  Dy  Dy1  1  0.750000  0.750000  0.750000  1
  B  B2  1  0.176905  0.823095  0.176905  1
  B  B3  1  0.058754  0.441246  0.058754  1
  B  B4  1  0.823095  0.176905  0.823095  1
  B  B5  1  0.441246  0.058754  0.441246  1
  Ir  Ir6  1  0.383400  0.383400  0.116600  1
  Ir  Ir7  1  0.116600  0.116600  0.383400  1
  Os  Os8  1  0.864006  0.864006  0.135994  1
  Os  Os9  1  0.135994  0.135994  0.864006  1
