# generated using pymatgen
data_Ba10Si17Pd
_symmetry_space_group_name_H-M   'P 1'
_cell_length_a   6.68022441
_cell_length_b   6.68022529
_cell_length_c   17.88406493
_cell_angle_alpha   81.67847522
_cell_angle_beta   81.67847544
_cell_angle_gamma   100.30334777
_symmetry_Int_Tables_number   1
_chemical_formula_structural   Ba10Si17Pd
_chemical_formula_sum   'Ba10 Si17 Pd1'
_cell_volume   764.92225074
_cell_formula_units_Z   1
loop_
 _symmetry_equiv_pos_site_id
 _symmetry_equiv_pos_as_xyz
  1  'x, y, z'
loop_
 _atom_site_type_symbol
 _atom_site_label
 _atom_site_symmetry_multiplicity
 _atom_site_fract_x
 _atom_site_fract_y
 _atom_site_fract_z
 _atom_site_occupancy
  Ba  Ba0  1  0.751706  0.257083  0.998148  1
  Ba  Ba1  1  0.114104  0.579147  0.791178  1
  Ba  Ba2  1  0.284295  0.708735  0.500196  1
  Ba  Ba3  1  0.755746  0.755746  0.648477  1
  Ba  Ba4  1  0.242874  0.242874  0.347865  1
  Ba  Ba5  1  0.579147  0.114104  0.791178  1
  Ba  Ba6  1  0.257083  0.751706  0.998148  1
  Ba  Ba7  1  0.708735  0.284295  0.500196  1
  Ba  Ba8  1  0.423158  0.889069  0.209349  1
  Ba  Ba9  1  0.889069  0.423158  0.209349  1
  Si  Si10  1  0.911247  0.911247  0.259328  1
  Si  Si11  1  0.074083  0.074083  0.736281  1
  Si  Si12  1  0.780463  0.780463  0.931667  1
  Si  Si13  1  0.346672  0.346672  0.646261  1
  Si  Si14  1  0.291244  0.291244  0.939112  1
  Si  Si15  1  0.939339  0.939339  0.126811  1
  Si  Si16  1  0.646421  0.646421  0.356630  1
  Si  Si17  1  0.438650  0.438650  0.141943  1
  Si  Si18  1  0.066885  0.066885  0.869104  1
  Si  Si19  1  0.820054  0.820054  0.450084  1
  Si  Si20  1  0.327556  0.970507  0.643527  1
  Si  Si21  1  0.670159  0.022177  0.355481  1
  Si  Si22  1  0.180290  0.180290  0.549355  1
  Si  Si23  1  0.970507  0.327556  0.643527  1
  Si  Si24  1  0.022177  0.670159  0.355481  1
  Si  Si25  1  0.709395  0.709395  0.069850  1
  Si  Si26  1  0.576663  0.576663  0.854725  1
  Pd  Pd27  1  0.222276  0.222276  0.076750  1
