# generated using pymatgen
data_Tb4Tm(TcO6)2
_symmetry_space_group_name_H-M   'P 1'
_cell_length_a   6.83428200
_cell_length_b   6.83428298
_cell_length_c   7.52481200
_cell_angle_alpha   73.73387559
_cell_angle_beta   73.73387059
_cell_angle_gamma   49.15369651
_symmetry_Int_Tables_number   1
_chemical_formula_structural   Tb4Tm(TcO6)2
_chemical_formula_sum   'Tb4 Tm1 Tc2 O12'
_cell_volume   252.94600569
_cell_formula_units_Z   1
loop_
 _symmetry_equiv_pos_site_id
 _symmetry_equiv_pos_as_xyz
  1  'x, y, z'
loop_
 _atom_site_type_symbol
 _atom_site_label
 _atom_site_symmetry_multiplicity
 _atom_site_fract_x
 _atom_site_fract_y
 _atom_site_fract_z
 _atom_site_occupancy
  Tb  Tb0  1  0.804409  0.804409  0.357410  1
  Tb  Tb1  1  0.195591  0.195591  0.642590  1
  Tb  Tb2  1  0.183308  0.183308  0.176764  1
  Tb  Tb3  1  0.816692  0.816692  0.823236  1
  Tm  Tm4  1  0.500000  0.500000  0.500000  1
  Tc  Tc5  1  0.286525  0.713475  0.000000  1
  Tc  Tc6  1  0.713475  0.286525  0.000000  1
  O  O7  1  0.413965  0.915126  0.915398  1
  O  O8  1  0.084874  0.586035  0.084602  1
  O  O9  1  0.586035  0.084874  0.084602  1
  O  O10  1  0.915126  0.413965  0.915398  1
  O  O11  1  0.598482  0.099229  0.571701  1
  O  O12  1  0.900771  0.401518  0.428299  1
  O  O13  1  0.401518  0.900771  0.428299  1
  O  O14  1  0.001378  0.001378  0.823377  1
  O  O15  1  0.998622  0.998622  0.176623  1
  O  O16  1  0.498114  0.498114  0.794732  1
  O  O17  1  0.501886  0.501886  0.205268  1
  O  O18  1  0.099229  0.598482  0.571701  1
