# generated using pymatgen
data_Na5MnFe2S4(O4F)4
_symmetry_space_group_name_H-M   'P 1'
_cell_length_a   9.10611023
_cell_length_b   9.36763333
_cell_length_c   9.75668100
_cell_angle_alpha   89.56197902
_cell_angle_beta   88.50582951
_cell_angle_gamma   98.44075880
_symmetry_Int_Tables_number   1
_chemical_formula_structural   Na5MnFe2S4(O4F)4
_chemical_formula_sum   'Na10 Mn2 Fe4 S8 O32 F8'
_cell_volume   822.92091164
_cell_formula_units_Z   2
loop_
 _symmetry_equiv_pos_site_id
 _symmetry_equiv_pos_as_xyz
  1  'x, y, z'
loop_
 _atom_site_type_symbol
 _atom_site_label
 _atom_site_symmetry_multiplicity
 _atom_site_fract_x
 _atom_site_fract_y
 _atom_site_fract_z
 _atom_site_occupancy
  Na  Na0  1  0.000312  0.251204  0.748709  1
  Na  Na1  1  0.999776  0.748820  0.251259  1
  Na  Na2  1  0.016375  0.850763  0.882336  1
  Na  Na3  1  0.015821  0.350627  0.383375  1
  Na  Na4  1  0.983665  0.149247  0.117639  1
  Na  Na5  1  0.984070  0.649424  0.616595  1
  Na  Na6  1  0.339045  0.375742  0.117248  1
  Na  Na7  1  0.339700  0.875165  0.617054  1
  Na  Na8  1  0.660952  0.624221  0.882760  1
  Na  Na9  1  0.660265  0.124872  0.382941  1
  Mn  Mn10  1  0.359116  0.781819  0.055504  1
  Mn  Mn11  1  0.641057  0.218215  0.944474  1
  Fe  Fe12  1  0.999993  0.500023  0.999992  1
  Fe  Fe13  1  0.357229  0.281680  0.555000  1
  Fe  Fe14  1  0.642743  0.718432  0.445048  1
  Fe  Fe15  1  0.000054  0.000060  0.499979  1
  S  S16  1  0.300575  0.586028  0.368802  1
  S  S17  1  0.297700  0.090110  0.863987  1
  S  S18  1  0.699327  0.413878  0.631261  1
  S  S19  1  0.702391  0.909891  0.136043  1
  S  S20  1  0.282894  0.543828  0.795934  1
  S  S21  1  0.282794  0.045292  0.297186  1
  S  S22  1  0.717075  0.456220  0.204093  1
  S  S23  1  0.717234  0.954683  0.702749  1
  O  O24  1  0.220379  0.659305  0.726057  1
  O  O25  1  0.219716  0.159851  0.226297  1
  O  O26  1  0.779562  0.340714  0.273994  1
  O  O27  1  0.780232  0.840069  0.773602  1
  O  O28  1  0.315839  0.430887  0.398477  1
  O  O29  1  0.314260  0.935577  0.890894  1
  O  O30  1  0.683857  0.568919  0.601495  1
  O  O31  1  0.685767  0.064411  0.109126  1
  O  O32  1  0.337113  0.612949  0.220026  1
  O  O33  1  0.336797  0.120894  0.715573  1
  O  O34  1  0.662881  0.387032  0.780072  1
  O  O35  1  0.663327  0.879155  0.284465  1
  O  O36  1  0.599759  0.810799  0.049876  1
  O  O37  1  0.595210  0.313445  0.547869  1
  O  O38  1  0.400347  0.189162  0.950185  1
  O  O39  1  0.404728  0.686244  0.452351  1
  O  O40  1  0.354870  0.452390  0.702024  1
  O  O41  1  0.355100  0.953805  0.202799  1
  O  O42  1  0.645104  0.547685  0.297946  1
  O  O43  1  0.644871  0.046118  0.797151  1
  O  O44  1  0.156900  0.444576  0.870539  1
  O  O45  1  0.157485  0.944880  0.370906  1
  O  O46  1  0.843110  0.555431  0.129480  1
  O  O47  1  0.842584  0.055128  0.629112  1
  O  O48  1  0.389932  0.604971  0.902708  1
  O  O49  1  0.389661  0.107084  0.403429  1
  O  O50  1  0.610083  0.395013  0.097314  1
  O  O51  1  0.610390  0.893005  0.596397  1
  O  O52  1  0.141001  0.108960  0.896030  1
  O  O53  1  0.144232  0.606202  0.401261  1
  O  O54  1  0.859086  0.891076  0.103983  1
  O  O55  1  0.855697  0.393808  0.598760  1
  F  F56  1  0.917335  0.603424  0.856071  1
  F  F57  1  0.916581  0.103212  0.356043  1
  F  F58  1  0.082659  0.396576  0.143946  1
  F  F59  1  0.083406  0.896835  0.643909  1
  F  F60  1  0.117162  0.695504  0.045672  1
  F  F61  1  0.115547  0.195555  0.545561  1
  F  F62  1  0.882917  0.304488  0.954336  1
  F  F63  1  0.884346  0.804616  0.454294  1
