# generated using pymatgen
data_Nb12Al9Zn13Cu2
_symmetry_space_group_name_H-M   'P 1'
_cell_length_a   8.82265900
_cell_length_b   8.82265840
_cell_length_c   8.15373700
_cell_angle_alpha   90.00000000
_cell_angle_beta   90.00000000
_cell_angle_gamma   119.99999099
_symmetry_Int_Tables_number   1
_chemical_formula_structural   Nb12Al9Zn13Cu2
_chemical_formula_sum   'Nb12 Al9 Zn13 Cu2'
_cell_volume   549.65012186
_cell_formula_units_Z   1
loop_
 _symmetry_equiv_pos_site_id
 _symmetry_equiv_pos_as_xyz
  1  'x, y, z'
loop_
 _atom_site_type_symbol
 _atom_site_label
 _atom_site_symmetry_multiplicity
 _atom_site_fract_x
 _atom_site_fract_y
 _atom_site_fract_z
 _atom_site_occupancy
  Nb  Nb0  1  0.331906  0.999815  0.066565  1
  Nb  Nb1  1  0.667910  0.999815  0.933435  1
  Nb  Nb2  1  0.000185  0.332090  0.066565  1
  Nb  Nb3  1  0.669088  0.000755  0.567192  1
  Nb  Nb4  1  0.999245  0.330912  0.432808  1
  Nb  Nb5  1  0.000185  0.668094  0.933435  1
  Nb  Nb6  1  0.331667  0.000755  0.432808  1
  Nb  Nb7  1  0.999245  0.668333  0.567192  1
  Nb  Nb8  1  0.667910  0.668094  0.066565  1
  Nb  Nb9  1  0.331906  0.332090  0.933435  1
  Nb  Nb10  1  0.331667  0.330912  0.567192  1
  Nb  Nb11  1  0.669088  0.668333  0.432808  1
  Al  Al12  1  0.666667  0.333333  0.500000  1
  Al  Al13  1  0.666667  0.333333  0.000000  1
  Al  Al14  1  0.333333  0.666667  0.000000  1
  Al  Al15  1  0.172760  0.999722  0.750063  1
  Al  Al16  1  0.826963  0.999722  0.249937  1
  Al  Al17  1  0.000278  0.173037  0.750063  1
  Al  Al18  1  0.000278  0.827240  0.249937  1
  Al  Al19  1  0.826963  0.827240  0.750063  1
  Al  Al20  1  0.172760  0.173037  0.249937  1
  Zn  Zn21  1  0.161482  0.495808  0.747206  1
  Zn  Zn22  1  0.839334  0.504827  0.249967  1
  Zn  Zn23  1  0.504192  0.665674  0.747206  1
  Zn  Zn24  1  0.495173  0.160666  0.750033  1
  Zn  Zn25  1  0.495173  0.334507  0.249967  1
  Zn  Zn26  1  0.504192  0.838518  0.252794  1
  Zn  Zn27  1  0.334326  0.838518  0.747206  1
  Zn  Zn28  1  0.665493  0.504827  0.750033  1
  Zn  Zn29  1  0.665493  0.160666  0.249967  1
  Zn  Zn30  1  0.334326  0.495808  0.252794  1
  Zn  Zn31  1  0.839334  0.334507  0.750033  1
  Zn  Zn32  1  0.161482  0.665674  0.252794  1
  Zn  Zn33  1  0.333333  0.666667  0.500000  1
  Cu  Cu34  1  0.000000  0.000000  0.500000  1
  Cu  Cu35  1  0.000000  0.000000  0.000000  1
