# generated using pymatgen
data_Nb4Si4IrRh3
_symmetry_space_group_name_H-M   'P 1'
_cell_length_a   3.79130600
_cell_length_b   6.45833610
_cell_length_c   7.35785241
_cell_angle_alpha   89.90741954
_cell_angle_beta   90.00000000
_cell_angle_gamma   90.00000000
_symmetry_Int_Tables_number   1
_chemical_formula_structural   Nb4Si4IrRh3
_chemical_formula_sum   'Nb4 Si4 Ir1 Rh3'
_cell_volume   180.16066900
_cell_formula_units_Z   1
loop_
 _symmetry_equiv_pos_site_id
 _symmetry_equiv_pos_as_xyz
  1  'x, y, z'
loop_
 _atom_site_type_symbol
 _atom_site_label
 _atom_site_symmetry_multiplicity
 _atom_site_fract_x
 _atom_site_fract_y
 _atom_site_fract_z
 _atom_site_occupancy
  Nb  Nb0  1  0.750000  0.474871  0.326502  1
  Nb  Nb1  1  0.250000  0.025731  0.827454  1
  Nb  Nb2  1  0.750000  0.974344  0.172390  1
  Nb  Nb3  1  0.250000  0.525147  0.673508  1
  Si  Si4  1  0.250000  0.268540  0.124635  1
  Si  Si5  1  0.250000  0.769239  0.376154  1
  Si  Si6  1  0.750000  0.731579  0.874710  1
  Si  Si7  1  0.750000  0.231108  0.624602  1
  Ir  Ir8  1  0.250000  0.645541  0.062610  1
  Rh  Rh9  1  0.250000  0.145143  0.437272  1
  Rh  Rh10  1  0.750000  0.854396  0.562949  1
  Rh  Rh11  1  0.750000  0.354360  0.937214  1
