# generated using pymatgen
data_Ba6YLuGa4O15
_symmetry_space_group_name_H-M   'P 1'
_cell_length_a   6.01574692
_cell_length_b   8.03476924
_cell_length_c   18.63832295
_cell_angle_alpha   88.69872885
_cell_angle_beta   90.10904391
_cell_angle_gamma   90.03031899
_symmetry_Int_Tables_number   1
_chemical_formula_structural   Ba6YLuGa4O15
_chemical_formula_sum   'Ba12 Y2 Lu2 Ga8 O30'
_cell_volume   900.65184573
_cell_formula_units_Z   2
loop_
 _symmetry_equiv_pos_site_id
 _symmetry_equiv_pos_as_xyz
  1  'x, y, z'
loop_
 _atom_site_type_symbol
 _atom_site_label
 _atom_site_symmetry_multiplicity
 _atom_site_fract_x
 _atom_site_fract_y
 _atom_site_fract_z
 _atom_site_occupancy
  Ba  Ba0  1  0.754977  0.499513  0.078054  1
  Ba  Ba1  1  0.245023  0.500487  0.921946  1
  Ba  Ba2  1  0.754373  0.499560  0.420621  1
  Ba  Ba3  1  0.245627  0.500440  0.579379  1
  Ba  Ba4  1  0.749144  0.975044  0.087796  1
  Ba  Ba5  1  0.250856  0.024956  0.912204  1
  Ba  Ba6  1  0.749641  0.027513  0.409025  1
  Ba  Ba7  1  0.250359  0.972487  0.590975  1
  Ba  Ba8  1  0.723973  0.000110  0.752476  1
  Ba  Ba9  1  0.276027  0.999890  0.247524  1
  Ba  Ba10  1  0.670991  0.501053  0.751296  1
  Ba  Ba11  1  0.329009  0.498947  0.248704  1
  Y  Y12  1  0.747382  0.246480  0.590472  1
  Y  Y13  1  0.252618  0.753520  0.409528  1
  Lu  Lu14  1  0.746816  0.750977  0.911041  1
  Lu  Lu15  1  0.253184  0.249023  0.088959  1
  Ga  Ga16  1  0.747351  0.754891  0.558529  1
  Ga  Ga17  1  0.252649  0.245109  0.441471  1
  Ga  Ga18  1  0.746754  0.246148  0.943506  1
  Ga  Ga19  1  0.253246  0.753852  0.056494  1
  Ga  Ga20  1  0.773766  0.770196  0.265568  1
  Ga  Ga21  1  0.226234  0.229804  0.734432  1
  Ga  Ga22  1  0.772861  0.229764  0.231011  1
  Ga  Ga23  1  0.227139  0.770236  0.768989  1
  O  O24  1  0.197862  0.999445  0.750850  1
  O  O25  1  0.802138  0.000555  0.249150  1
  O  O26  1  0.511623  0.765076  0.999384  1
  O  O27  1  0.488377  0.234924  0.000616  1
  O  O28  1  0.512221  0.233252  0.497749  1
  O  O29  1  0.487779  0.766748  0.502251  1
  O  O30  1  0.765350  0.951987  0.609974  1
  O  O31  1  0.234650  0.048013  0.390026  1
  O  O32  1  0.762567  0.043289  0.895360  1
  O  O33  1  0.237433  0.956711  0.104640  1
  O  O34  1  0.009764  0.764784  0.990923  1
  O  O35  1  0.990236  0.235216  0.009077  1
  O  O36  1  0.013643  0.232849  0.507796  1
  O  O37  1  0.986357  0.767151  0.492204  1
  O  O38  1  0.326856  0.686081  0.684910  1
  O  O39  1  0.673144  0.313919  0.315090  1
  O  O40  1  0.334362  0.310569  0.818016  1
  O  O41  1  0.665638  0.689431  0.181984  1
  O  O42  1  0.458507  0.752419  0.837754  1
  O  O43  1  0.541493  0.247581  0.162246  1
  O  O44  1  0.448347  0.248586  0.663296  1
  O  O45  1  0.551653  0.751414  0.336704  1
  O  O46  1  0.959059  0.726057  0.814739  1
  O  O47  1  0.040941  0.273943  0.185261  1
  O  O48  1  0.954029  0.276187  0.692189  1
  O  O49  1  0.045971  0.723813  0.307811  1
  O  O50  1  0.756390  0.533162  0.591640  1
  O  O51  1  0.243610  0.466838  0.408360  1
  O  O52  1  0.754135  0.470356  0.911660  1
  O  O53  1  0.245865  0.529644  0.088340  1
