# generated using pymatgen
data_Ba4NaIr4I
_symmetry_space_group_name_H-M   'P 1'
_cell_length_a   4.43802300
_cell_length_b   4.43802304
_cell_length_c   20.85604700
_cell_angle_alpha   90.00000000
_cell_angle_beta   90.00000000
_cell_angle_gamma   119.99999222
_symmetry_Int_Tables_number   1
_chemical_formula_structural   Ba4NaIr4I
_chemical_formula_sum   'Ba4 Na1 Ir4 I1'
_cell_volume   355.74742414
_cell_formula_units_Z   1
loop_
 _symmetry_equiv_pos_site_id
 _symmetry_equiv_pos_as_xyz
  1  'x, y, z'
loop_
 _atom_site_type_symbol
 _atom_site_label
 _atom_site_symmetry_multiplicity
 _atom_site_fract_x
 _atom_site_fract_y
 _atom_site_fract_z
 _atom_site_occupancy
  Ba  Ba0  1  0.000000  0.000000  0.082454  1
  Ba  Ba1  1  0.000000  0.000000  0.878434  1
  Ba  Ba2  1  0.000000  0.000000  0.621566  1
  Ba  Ba3  1  0.000000  0.000000  0.417546  1
  Na  Na4  1  0.333333  0.666667  0.250000  1
  Ir  Ir5  1  0.333333  0.666667  0.517036  1
  Ir  Ir6  1  0.666667  0.333333  0.517256  1
  Ir  Ir7  1  0.666667  0.333333  0.982744  1
  Ir  Ir8  1  0.333333  0.666667  0.982964  1
  I  I9  1  0.666667  0.333333  0.750000  1
