# generated using pymatgen
data_La20Si4Bi7Pb
_symmetry_space_group_name_H-M   'P 1'
_cell_length_a   8.45125562
_cell_length_b   9.65208141
_cell_length_c   12.68770400
_cell_angle_alpha   89.96884138
_cell_angle_beta   90.03551811
_cell_angle_gamma   89.93622992
_symmetry_Int_Tables_number   1
_chemical_formula_structural   La20Si4Bi7Pb
_chemical_formula_sum   'La20 Si4 Bi7 Pb1'
_cell_volume   1034.96302741
_cell_formula_units_Z   1
loop_
 _symmetry_equiv_pos_site_id
 _symmetry_equiv_pos_as_xyz
  1  'x, y, z'
loop_
 _atom_site_type_symbol
 _atom_site_label
 _atom_site_symmetry_multiplicity
 _atom_site_fract_x
 _atom_site_fract_y
 _atom_site_fract_z
 _atom_site_occupancy
  La  La0  1  0.818391  0.551089  0.061322  1
  La  La1  1  0.681424  0.949168  0.559341  1
  La  La2  1  0.181736  0.050913  0.939744  1
  La  La3  1  0.316671  0.451696  0.439965  1
  La  La4  1  0.182408  0.448649  0.940606  1
  La  La5  1  0.318535  0.049705  0.440184  1
  La  La6  1  0.817920  0.949412  0.059268  1
  La  La7  1  0.681926  0.551771  0.560269  1
  La  La8  1  0.165156  0.748630  0.214995  1
  La  La9  1  0.334515  0.749869  0.714385  1
  La  La10  1  0.834682  0.249815  0.785375  1
  La  La11  1  0.667128  0.251182  0.285208  1
  La  La12  1  0.467728  0.750298  0.003019  1
  La  La13  1  0.031454  0.747043  0.501634  1
  La  La14  1  0.531307  0.249983  0.997025  1
  La  La15  1  0.964198  0.253865  0.496965  1
  La  La16  1  0.640468  0.747420  0.293410  1
  La  La17  1  0.863429  0.750199  0.793582  1
  La  La18  1  0.362489  0.249825  0.706764  1
  La  La19  1  0.135588  0.250875  0.206780  1
  Si  Si20  1  0.412067  0.750304  0.477066  1
  Si  Si21  1  0.089883  0.749946  0.976737  1
  Si  Si22  1  0.587753  0.250033  0.523284  1
  Si  Si23  1  0.910157  0.249836  0.022345  1
  Bi  Bi24  1  0.571786  0.989841  0.824388  1
  Bi  Bi25  1  0.071746  0.009762  0.674099  1
  Bi  Bi26  1  0.427824  0.489697  0.175162  1
  Bi  Bi27  1  0.072148  0.490113  0.676383  1
  Bi  Bi28  1  0.428943  0.009926  0.175898  1
  Bi  Bi29  1  0.928710  0.990724  0.325259  1
  Bi  Bi30  1  0.571702  0.509703  0.824892  1
  Pb  Pb31  1  0.930129  0.508708  0.324643  1
