# generated using pymatgen
data_Dy8Si12AgIr3
_symmetry_space_group_name_H-M   'P 1'
_cell_length_a   8.21037800
_cell_length_b   8.21037757
_cell_length_c   7.93201400
_cell_angle_alpha   90.00000000
_cell_angle_beta   90.00000000
_cell_angle_gamma   119.99999369
_symmetry_Int_Tables_number   1
_chemical_formula_structural   Dy8Si12AgIr3
_chemical_formula_sum   'Dy8 Si12 Ag1 Ir3'
_cell_volume   463.06335378
_cell_formula_units_Z   1
loop_
 _symmetry_equiv_pos_site_id
 _symmetry_equiv_pos_as_xyz
  1  'x, y, z'
loop_
 _atom_site_type_symbol
 _atom_site_label
 _atom_site_symmetry_multiplicity
 _atom_site_fract_x
 _atom_site_fract_y
 _atom_site_fract_z
 _atom_site_occupancy
  Dy  Dy0  1  0.000000  0.000000  0.248306  1
  Dy  Dy1  1  0.000000  0.000000  0.747075  1
  Dy  Dy2  1  0.513264  0.486736  0.255385  1
  Dy  Dy3  1  0.513264  0.026527  0.255385  1
  Dy  Dy4  1  0.973473  0.486736  0.255385  1
  Dy  Dy5  1  0.492883  0.507117  0.746626  1
  Dy  Dy6  1  0.492883  0.985766  0.746626  1
  Dy  Dy7  1  0.014234  0.507117  0.746626  1
  Si  Si8  1  0.166991  0.833009  0.495886  1
  Si  Si9  1  0.166991  0.333983  0.495886  1
  Si  Si10  1  0.666017  0.833009  0.495886  1
  Si  Si11  1  0.834168  0.165832  0.503079  1
  Si  Si12  1  0.834168  0.668335  0.503079  1
  Si  Si13  1  0.331665  0.165832  0.503079  1
  Si  Si14  1  0.831671  0.168329  0.000734  1
  Si  Si15  1  0.831671  0.663340  0.000734  1
  Si  Si16  1  0.336660  0.168329  0.000734  1
  Si  Si17  1  0.160767  0.839233  0.995364  1
  Si  Si18  1  0.160767  0.321535  0.995364  1
  Si  Si19  1  0.678465  0.839233  0.995364  1
  Ag  Ag20  1  0.333333  0.666667  0.045347  1
  Ir  Ir21  1  0.333333  0.666667  0.475349  1
  Ir  Ir22  1  0.666667  0.333333  0.532424  1
  Ir  Ir23  1  0.666667  0.333333  0.960278  1
