# generated using pymatgen
data_TbYb2Lu(Ga3Ir)6
_symmetry_space_group_name_H-M   'P 1'
_cell_length_a   7.54644721
_cell_length_b   7.54058623
_cell_length_c   9.56997500
_cell_angle_alpha   90.00000000
_cell_angle_beta   90.00000000
_cell_angle_gamma   119.70430022
_symmetry_Int_Tables_number   1
_chemical_formula_structural   TbYb2Lu(Ga3Ir)6
_chemical_formula_sum   'Tb1 Yb2 Lu1 Ga18 Ir6'
_cell_volume   473.01557488
_cell_formula_units_Z   1
loop_
 _symmetry_equiv_pos_site_id
 _symmetry_equiv_pos_as_xyz
  1  'x, y, z'
loop_
 _atom_site_type_symbol
 _atom_site_label
 _atom_site_symmetry_multiplicity
 _atom_site_fract_x
 _atom_site_fract_y
 _atom_site_fract_z
 _atom_site_occupancy
  Tb  Tb0  1  0.330539  0.002185  0.750000  1
  Yb  Yb1  1  0.996861  0.669944  0.250000  1
  Yb  Yb2  1  0.003204  0.330094  0.750000  1
  Lu  Lu3  1  0.669492  0.998258  0.250000  1
  Ga  Ga4  1  0.126387  0.129004  0.250000  1
  Ga  Ga5  1  0.872068  0.870240  0.750000  1
  Ga  Ga6  1  0.999569  0.335414  0.079144  1
  Ga  Ga7  1  0.998934  0.663225  0.922733  1
  Ga  Ga8  1  0.998934  0.663225  0.577267  1
  Ga  Ga9  1  0.333885  0.998571  0.418890  1
  Ga  Ga10  1  0.999569  0.335414  0.420856  1
  Ga  Ga11  1  0.667401  0.001204  0.578128  1
  Ga  Ga12  1  0.667401  0.001204  0.921872  1
  Ga  Ga13  1  0.333885  0.998571  0.081110  1
  Ga  Ga14  1  0.331951  0.333387  0.562821  1
  Ga  Ga15  1  0.668372  0.668022  0.434464  1
  Ga  Ga16  1  0.668372  0.668022  0.065536  1
  Ga  Ga17  1  0.331951  0.333387  0.937179  1
  Ga  Ga18  1  0.339726  0.547982  0.250000  1
  Ga  Ga19  1  0.660970  0.453594  0.750000  1
  Ga  Ga20  1  0.546823  0.336798  0.250000  1
  Ga  Ga21  1  0.453796  0.662832  0.750000  1
  Ir  Ir22  1  0.671016  0.328000  0.000770  1
  Ir  Ir23  1  0.329129  0.671888  0.000411  1
  Ir  Ir24  1  0.329129  0.671888  0.499589  1
  Ir  Ir25  1  0.671016  0.328000  0.499230  1
  Ir  Ir26  1  0.999810  0.999824  0.000514  1
  Ir  Ir27  1  0.999810  0.999824  0.499486  1
