# generated using pymatgen
data_DyAl2Pd4Au
_symmetry_space_group_name_H-M   'P 1'
_cell_length_a   4.26289528
_cell_length_b   4.26289404
_cell_length_c   7.88984100
_cell_angle_alpha   105.67323723
_cell_angle_beta   105.67326050
_cell_angle_gamma   90.00001210
_symmetry_Int_Tables_number   1
_chemical_formula_structural   DyAl2Pd4Au
_chemical_formula_sum   'Dy1 Al2 Pd4 Au1'
_cell_volume   132.49996787
_cell_formula_units_Z   1
loop_
 _symmetry_equiv_pos_site_id
 _symmetry_equiv_pos_as_xyz
  1  'x, y, z'
loop_
 _atom_site_type_symbol
 _atom_site_label
 _atom_site_symmetry_multiplicity
 _atom_site_fract_x
 _atom_site_fract_y
 _atom_site_fract_z
 _atom_site_occupancy
  Dy  Dy0  1  0.000000  0.000000  0.000000  1
  Al  Al1  1  0.747395  0.747395  0.494790  1
  Al  Al2  1  0.252605  0.252605  0.505210  1
  Pd  Pd3  1  0.645293  0.145294  0.290588  1
  Pd  Pd4  1  0.145294  0.645293  0.290588  1
  Pd  Pd5  1  0.854706  0.354706  0.709411  1
  Pd  Pd6  1  0.354706  0.854706  0.709411  1
  Au  Au7  1  0.500000  0.500000  0.000000  1
