# generated using pymatgen
data_CeDyY2(Si3Rh)2
_symmetry_space_group_name_H-M   'P 1'
_cell_length_a   8.18985723
_cell_length_b   8.18985789
_cell_length_c   8.03249900
_cell_angle_alpha   90.00000000
_cell_angle_beta   90.00000000
_cell_angle_gamma   120.06268962
_symmetry_Int_Tables_number   1
_chemical_formula_structural   CeDyY2(Si3Rh)2
_chemical_formula_sum   'Ce2 Dy2 Y4 Si12 Rh4'
_cell_volume   466.29345230
_cell_formula_units_Z   2
loop_
 _symmetry_equiv_pos_site_id
 _symmetry_equiv_pos_as_xyz
  1  'x, y, z'
loop_
 _atom_site_type_symbol
 _atom_site_label
 _atom_site_symmetry_multiplicity
 _atom_site_fract_x
 _atom_site_fract_y
 _atom_site_fract_z
 _atom_site_occupancy
  Ce  Ce0  1  0.000080  0.999920  0.250000  1
  Ce  Ce1  1  0.999910  0.000090  0.750000  1
  Dy  Dy2  1  0.491765  0.983540  0.750000  1
  Dy  Dy3  1  0.016460  0.508235  0.750000  1
  Y  Y4  1  0.508324  0.491676  0.250000  1
  Y  Y5  1  0.508347  0.016695  0.250000  1
  Y  Y6  1  0.983305  0.491653  0.250000  1
  Y  Y7  1  0.491540  0.508460  0.750000  1
  Si  Si8  1  0.167243  0.832757  0.501167  1
  Si  Si9  1  0.167269  0.334532  0.500946  1
  Si  Si10  1  0.665468  0.832731  0.500946  1
  Si  Si11  1  0.832743  0.167257  0.499659  1
  Si  Si12  1  0.832703  0.665360  0.499472  1
  Si  Si13  1  0.334640  0.167297  0.499472  1
  Si  Si14  1  0.832743  0.167257  0.000341  1
  Si  Si15  1  0.832703  0.665360  0.000528  1
  Si  Si16  1  0.334640  0.167297  0.000528  1
  Si  Si17  1  0.167243  0.832757  0.998833  1
  Si  Si18  1  0.167269  0.334532  0.999054  1
  Si  Si19  1  0.665468  0.832731  0.999054  1
  Rh  Rh20  1  0.333193  0.666807  0.468743  1
  Rh  Rh21  1  0.666877  0.333123  0.532609  1
  Rh  Rh22  1  0.666877  0.333123  0.967391  1
  Rh  Rh23  1  0.333193  0.666807  0.031257  1
