# generated using pymatgen
data_Np3Be(SiPd4)5
_symmetry_space_group_name_H-M   'P 1'
_cell_length_a   8.78235082
_cell_length_b   8.73820717
_cell_length_c   8.73820600
_cell_angle_alpha   60.33450982
_cell_angle_beta   59.83274472
_cell_angle_gamma   59.83274380
_symmetry_Int_Tables_number   1
_chemical_formula_structural   Np3Be(SiPd4)5
_chemical_formula_sum   'Np3 Be1 Si5 Pd20'
_cell_volume   474.15257439
_cell_formula_units_Z   1
loop_
 _symmetry_equiv_pos_site_id
 _symmetry_equiv_pos_as_xyz
  1  'x, y, z'
loop_
 _atom_site_type_symbol
 _atom_site_label
 _atom_site_symmetry_multiplicity
 _atom_site_fract_x
 _atom_site_fract_y
 _atom_site_fract_z
 _atom_site_occupancy
  Np  Np0  1  0.248445  0.251555  0.251555  1
  Np  Np1  1  0.748445  0.751555  0.751555  1
  Np  Np2  1  0.995095  0.004905  0.004905  1
  Be  Be3  1  0.729227  0.270773  0.270773  1
  Si  Si4  1  0.266828  0.733172  0.733172  1
  Si  Si5  1  0.268894  0.731106  0.268791  1
  Si  Si6  1  0.731209  0.268791  0.731106  1
  Si  Si7  1  0.268894  0.268791  0.731106  1
  Si  Si8  1  0.731209  0.731106  0.268791  1
  Pd  Pd9  1  0.388194  0.381284  0.381284  1
  Pd  Pd10  1  0.616529  0.616022  0.616022  1
  Pd  Pd11  1  0.383978  0.383471  0.848574  1
  Pd  Pd12  1  0.383978  0.848574  0.383471  1
  Pd  Pd13  1  0.618716  0.611806  0.150759  1
  Pd  Pd14  1  0.618716  0.150759  0.611806  1
  Pd  Pd15  1  0.849241  0.381284  0.381284  1
  Pd  Pd16  1  0.151426  0.616022  0.616022  1
  Pd  Pd17  1  0.345369  0.000102  0.000102  1
  Pd  Pd18  1  0.654429  0.000102  0.000102  1
  Pd  Pd19  1  0.999898  0.345571  0.654631  1
  Pd  Pd20  1  0.999898  0.654631  0.345571  1
  Pd  Pd21  1  0.995817  0.341937  0.004183  1
  Pd  Pd22  1  0.658063  0.004183  0.341937  1
  Pd  Pd23  1  0.000126  0.653315  0.999874  1
  Pd  Pd24  1  0.346685  0.999874  0.653315  1
  Pd  Pd25  1  0.995817  0.004183  0.341937  1
  Pd  Pd26  1  0.000126  0.999874  0.653315  1
  Pd  Pd27  1  0.658063  0.341937  0.004183  1
  Pd  Pd28  1  0.346685  0.653315  0.999874  1
