# generated using pymatgen
data_Zr10BeGa2Sb5
_symmetry_space_group_name_H-M   'P 1'
_cell_length_a   8.59668443
_cell_length_b   8.59668391
_cell_length_c   5.83809221
_cell_angle_alpha   89.95016384
_cell_angle_beta   89.95016837
_cell_angle_gamma   120.11413733
_symmetry_Int_Tables_number   1
_chemical_formula_structural   Zr10BeGa2Sb5
_chemical_formula_sum   'Zr10 Be1 Ga2 Sb5'
_cell_volume   373.21769298
_cell_formula_units_Z   1
loop_
 _symmetry_equiv_pos_site_id
 _symmetry_equiv_pos_as_xyz
  1  'x, y, z'
loop_
 _atom_site_type_symbol
 _atom_site_label
 _atom_site_symmetry_multiplicity
 _atom_site_fract_x
 _atom_site_fract_y
 _atom_site_fract_z
 _atom_site_occupancy
  Zr  Zr0  1  0.268378  0.268378  0.740364  1
  Zr  Zr1  1  0.741817  0.741817  0.263433  1
  Zr  Zr2  1  0.733330  0.990567  0.739023  1
  Zr  Zr3  1  0.000608  0.259422  0.260152  1
  Zr  Zr4  1  0.335700  0.666034  0.502548  1
  Zr  Zr5  1  0.666034  0.335700  0.502548  1
  Zr  Zr6  1  0.990567  0.733330  0.739023  1
  Zr  Zr7  1  0.335536  0.665952  0.997463  1
  Zr  Zr8  1  0.259422  0.000608  0.260152  1
  Zr  Zr9  1  0.665952  0.335536  0.997463  1
  Be  Be10  1  0.001001  0.001001  0.508040  1
  Ga  Ga11  1  0.612483  0.612483  0.750710  1
  Ga  Ga12  1  0.000565  0.000565  0.993272  1
  Sb  Sb13  1  0.385708  0.998340  0.752592  1
  Sb  Sb14  1  0.610064  0.000221  0.246941  1
  Sb  Sb15  1  0.394273  0.394273  0.246741  1
  Sb  Sb16  1  0.998340  0.385708  0.752592  1
  Sb  Sb17  1  0.000221  0.610064  0.246941  1
