# generated using pymatgen
data_Pr4Cd3Ni2
_symmetry_space_group_name_H-M   'P 1'
_cell_length_a   3.77789500
_cell_length_b   7.60095480
_cell_length_c   8.31406654
_cell_angle_alpha   107.39905751
_cell_angle_beta   90.00000000
_cell_angle_gamma   90.00000000
_symmetry_Int_Tables_number   1
_chemical_formula_structural   Pr4Cd3Ni2
_chemical_formula_sum   'Pr4 Cd3 Ni2'
_cell_volume   227.81983600
_cell_formula_units_Z   1
loop_
 _symmetry_equiv_pos_site_id
 _symmetry_equiv_pos_as_xyz
  1  'x, y, z'
loop_
 _atom_site_type_symbol
 _atom_site_label
 _atom_site_symmetry_multiplicity
 _atom_site_fract_x
 _atom_site_fract_y
 _atom_site_fract_z
 _atom_site_occupancy
  Pr  Pr0  1  0.500000  0.913987  0.781015  1
  Pr  Pr1  1  0.500000  0.086013  0.218985  1
  Pr  Pr2  1  0.500000  0.392101  0.687911  1
  Pr  Pr3  1  0.500000  0.607899  0.312089  1
  Cd  Cd4  1  0.000000  0.698981  0.993234  1
  Cd  Cd5  1  0.000000  0.301019  0.006766  1
  Cd  Cd6  1  0.000000  0.000000  0.500000  1
  Ni  Ni7  1  0.000000  0.651922  0.607097  1
  Ni  Ni8  1  0.000000  0.348078  0.392903  1
