# generated using pymatgen
data_CeSm3Tm4(ReB6)4
_symmetry_space_group_name_H-M   'P 1'
_cell_length_a   3.69744700
_cell_length_b   9.18072187
_cell_length_c   11.59562211
_cell_angle_alpha   90.05008357
_cell_angle_beta   90.00000000
_cell_angle_gamma   90.00000000
_symmetry_Int_Tables_number   1
_chemical_formula_structural   CeSm3Tm4(ReB6)4
_chemical_formula_sum   'Ce1 Sm3 Tm4 Re4 B24'
_cell_volume   393.61593876
_cell_formula_units_Z   1
loop_
 _symmetry_equiv_pos_site_id
 _symmetry_equiv_pos_as_xyz
  1  'x, y, z'
loop_
 _atom_site_type_symbol
 _atom_site_label
 _atom_site_symmetry_multiplicity
 _atom_site_fract_x
 _atom_site_fract_y
 _atom_site_fract_z
 _atom_site_occupancy
  Ce  Ce0  1  0.000000  0.322949  0.414341  1
  Sm  Sm1  1  0.000000  0.677854  0.586078  1
  Sm  Sm2  1  0.000000  0.822665  0.085426  1
  Sm  Sm3  1  0.000000  0.176791  0.914143  1
  Tm  Tm4  1  0.000000  0.942926  0.369774  1
  Tm  Tm5  1  0.000000  0.056589  0.630377  1
  Tm  Tm6  1  0.000000  0.443240  0.129732  1
  Tm  Tm7  1  0.000000  0.556835  0.869700  1
  Re  Re8  1  0.000000  0.637914  0.320067  1
  Re  Re9  1  0.000000  0.360771  0.679110  1
  Re  Re10  1  0.000000  0.140545  0.181663  1
  Re  Re11  1  0.000000  0.860681  0.819513  1
  B  B12  1  0.500000  0.553706  0.431184  1
  B  B13  1  0.500000  0.444783  0.568098  1
  B  B14  1  0.500000  0.054702  0.068716  1
  B  B15  1  0.500000  0.945781  0.931505  1
  B  B16  1  0.500000  0.750749  0.416729  1
  B  B17  1  0.500000  0.249631  0.582599  1
  B  B18  1  0.500000  0.250453  0.083132  1
  B  B19  1  0.500000  0.749356  0.916822  1
  B  B20  1  0.500000  0.792039  0.265797  1
  B  B21  1  0.500000  0.208057  0.734292  1
  B  B22  1  0.500000  0.292283  0.234918  1
  B  B23  1  0.500000  0.707790  0.765512  1
  B  B24  1  0.500000  0.629948  0.185360  1
  B  B25  1  0.500000  0.370321  0.814470  1
  B  B26  1  0.500000  0.130659  0.315063  1
  B  B27  1  0.500000  0.870118  0.685443  1
  B  B28  1  0.500000  0.983449  0.213076  1
  B  B29  1  0.500000  0.016783  0.786960  1
  B  B30  1  0.500000  0.482963  0.287282  1
  B  B31  1  0.500000  0.516739  0.713359  1
  B  B32  1  0.500000  0.597188  0.026805  1
  B  B33  1  0.500000  0.402763  0.972866  1
  B  B34  1  0.500000  0.098162  0.472876  1
  B  B35  1  0.500000  0.901817  0.527215  1
