# generated using pymatgen
data_Y11Ho5Cd4OsPt3
_symmetry_space_group_name_H-M   'P 1'
_cell_length_a   9.70599723
_cell_length_b   9.71968513
_cell_length_c   9.71968424
_cell_angle_alpha   59.55048248
_cell_angle_beta   59.60499113
_cell_angle_gamma   59.60498815
_symmetry_Int_Tables_number   1
_chemical_formula_structural   Y11Ho5Cd4OsPt3
_chemical_formula_sum   'Y11 Ho5 Cd4 Os1 Pt3'
_cell_volume   642.28998761
_cell_formula_units_Z   1
loop_
 _symmetry_equiv_pos_site_id
 _symmetry_equiv_pos_as_xyz
  1  'x, y, z'
loop_
 _atom_site_type_symbol
 _atom_site_label
 _atom_site_symmetry_multiplicity
 _atom_site_fract_x
 _atom_site_fract_y
 _atom_site_fract_z
 _atom_site_occupancy
  Y  Y0  1  0.189409  0.809277  0.809277  1
  Y  Y1  1  0.189107  0.814273  0.189448  1
  Y  Y2  1  0.809491  0.189362  0.809389  1
  Y  Y3  1  0.189107  0.189448  0.814273  1
  Y  Y4  1  0.809491  0.809389  0.189362  1
  Y  Y5  1  0.936188  0.564690  0.564690  1
  Y  Y6  1  0.558526  0.937916  0.937916  1
  Y  Y7  1  0.564965  0.936367  0.564405  1
  Y  Y8  1  0.937918  0.557836  0.938321  1
  Y  Y9  1  0.564965  0.564405  0.936367  1
  Y  Y10  1  0.937918  0.938321  0.557836  1
  Ho  Ho11  1  0.351866  0.351413  0.351413  1
  Ho  Ho12  1  0.349656  0.349318  0.949132  1
  Ho  Ho13  1  0.349656  0.949132  0.349318  1
  Ho  Ho14  1  0.948399  0.349640  0.349640  1
  Ho  Ho15  1  0.814436  0.189258  0.189258  1
  Cd  Cd16  1  0.580290  0.580275  0.580275  1
  Cd  Cd17  1  0.581016  0.581042  0.254816  1
  Cd  Cd18  1  0.581016  0.254816  0.581042  1
  Cd  Cd19  1  0.254795  0.581023  0.581023  1
  Os  Os20  1  0.142185  0.144355  0.144355  1
  Pt  Pt21  1  0.144305  0.144123  0.569878  1
  Pt  Pt22  1  0.144305  0.569878  0.144123  1
  Pt  Pt23  1  0.570994  0.144444  0.144444  1
