# generated using pymatgen
data_Ba3Sr(Al2I)2
_symmetry_space_group_name_H-M   'P 1'
_cell_length_a   4.62916700
_cell_length_b   4.62916793
_cell_length_c   19.35832100
_cell_angle_alpha   90.00000000
_cell_angle_beta   90.00000000
_cell_angle_gamma   120.00000053
_symmetry_Int_Tables_number   1
_chemical_formula_structural   Ba3Sr(Al2I)2
_chemical_formula_sum   'Ba3 Sr1 Al4 I2'
_cell_volume   359.25605800
_cell_formula_units_Z   1
loop_
 _symmetry_equiv_pos_site_id
 _symmetry_equiv_pos_as_xyz
  1  'x, y, z'
loop_
 _atom_site_type_symbol
 _atom_site_label
 _atom_site_symmetry_multiplicity
 _atom_site_fract_x
 _atom_site_fract_y
 _atom_site_fract_z
 _atom_site_occupancy
  Ba  Ba0  1  0.000000  0.000000  0.116001  1
  Ba  Ba1  1  0.000000  0.000000  0.378663  1
  Ba  Ba2  1  0.000000  0.000000  0.622805  1
  Sr  Sr3  1  0.000000  0.000000  0.882302  1
  Al  Al4  1  0.333333  0.666666  0.998226  1
  Al  Al5  1  0.333333  0.666666  0.502843  1
  Al  Al6  1  0.666666  0.333333  0.499726  1
  Al  Al7  1  0.666666  0.333333  0.992687  1
  I  I8  1  0.666666  0.333333  0.247047  1
  I  I9  1  0.333333  0.666666  0.759699  1
