# generated using pymatgen
data_Yb7YCu2(Si6Pd)2
_symmetry_space_group_name_H-M   'P 1'
_cell_length_a   8.15961900
_cell_length_b   8.15961709
_cell_length_c   8.23938800
_cell_angle_alpha   90.00000000
_cell_angle_beta   90.00000000
_cell_angle_gamma   119.99999558
_symmetry_Int_Tables_number   1
_chemical_formula_structural   Yb7YCu2(Si6Pd)2
_chemical_formula_sum   'Yb7 Y1 Cu2 Si12 Pd2'
_cell_volume   475.07837812
_cell_formula_units_Z   1
loop_
 _symmetry_equiv_pos_site_id
 _symmetry_equiv_pos_as_xyz
  1  'x, y, z'
loop_
 _atom_site_type_symbol
 _atom_site_label
 _atom_site_symmetry_multiplicity
 _atom_site_fract_x
 _atom_site_fract_y
 _atom_site_fract_z
 _atom_site_occupancy
  Yb  Yb0  1  0.501029  0.002057  0.254383  1
  Yb  Yb1  1  0.498879  0.997758  0.746276  1
  Yb  Yb2  1  0.997943  0.498971  0.254383  1
  Yb  Yb3  1  0.002242  0.501121  0.746276  1
  Yb  Yb4  1  0.501029  0.498971  0.254383  1
  Yb  Yb5  1  0.498879  0.501121  0.746276  1
  Yb  Yb6  1  0.000000  0.000000  0.249433  1
  Y  Y7  1  0.000000  0.000000  0.750325  1
  Cu  Cu8  1  0.333333  0.666667  0.002063  1
  Cu  Cu9  1  0.666667  0.333333  0.994733  1
  Si  Si10  1  0.166977  0.333953  0.998610  1
  Si  Si11  1  0.833056  0.666113  0.997148  1
  Si  Si12  1  0.666047  0.833023  0.998610  1
  Si  Si13  1  0.835708  0.671417  0.503219  1
  Si  Si14  1  0.333887  0.166944  0.997148  1
  Si  Si15  1  0.164309  0.328618  0.501795  1
  Si  Si16  1  0.166977  0.833023  0.998610  1
  Si  Si17  1  0.328583  0.164292  0.503219  1
  Si  Si18  1  0.833056  0.166944  0.997148  1
  Si  Si19  1  0.671382  0.835691  0.501795  1
  Si  Si20  1  0.835708  0.164292  0.503219  1
  Si  Si21  1  0.164309  0.835691  0.501795  1
  Pd  Pd22  1  0.666667  0.333333  0.502090  1
  Pd  Pd23  1  0.333333  0.666667  0.497063  1
