# generated using pymatgen
data_Tm16In4Ir2OsRh
_symmetry_space_group_name_H-M   'P 1'
_cell_length_a   9.56913357
_cell_length_b   9.53507555
_cell_length_c   9.55136307
_cell_angle_alpha   59.80880697
_cell_angle_beta   59.93843187
_cell_angle_gamma   59.88176891
_symmetry_Int_Tables_number   1
_chemical_formula_structural   Tm16In4Ir2OsRh
_chemical_formula_sum   'Tm16 In4 Ir2 Os1 Rh1'
_cell_volume   614.50535161
_cell_formula_units_Z   1
loop_
 _symmetry_equiv_pos_site_id
 _symmetry_equiv_pos_as_xyz
  1  'x, y, z'
loop_
 _atom_site_type_symbol
 _atom_site_label
 _atom_site_symmetry_multiplicity
 _atom_site_fract_x
 _atom_site_fract_y
 _atom_site_fract_z
 _atom_site_occupancy
  Tm  Tm0  1  0.057028  0.057242  0.439597  1
  Tm  Tm1  1  0.446133  0.057242  0.439597  1
  Tm  Tm2  1  0.061241  0.440422  0.060087  1
  Tm  Tm3  1  0.047173  0.650726  0.650663  1
  Tm  Tm4  1  0.438251  0.440422  0.060087  1
  Tm  Tm5  1  0.651402  0.046039  0.651157  1
  Tm  Tm6  1  0.190386  0.808924  0.193946  1
  Tm  Tm7  1  0.191669  0.192634  0.808763  1
  Tm  Tm8  1  0.806744  0.808924  0.193946  1
  Tm  Tm9  1  0.440173  0.060357  0.059297  1
  Tm  Tm10  1  0.808041  0.190307  0.193611  1
  Tm  Tm11  1  0.058206  0.446501  0.437088  1
  Tm  Tm12  1  0.806936  0.192634  0.808763  1
  Tm  Tm13  1  0.191886  0.808357  0.807873  1
  Tm  Tm14  1  0.651227  0.650577  0.046970  1
  Tm  Tm15  1  0.651438  0.650726  0.650663  1
  In  In16  1  0.416756  0.416531  0.415618  1
  In  In17  1  0.751095  0.416531  0.415618  1
  In  In18  1  0.416793  0.750927  0.415487  1
  In  In19  1  0.417345  0.417081  0.748229  1
  Ir  Ir20  1  0.859803  0.859118  0.860197  1
  Ir  Ir21  1  0.420883  0.859118  0.860197  1
  Os  Os22  1  0.859295  0.857603  0.423806  1
  Rh  Rh23  1  0.860097  0.421059  0.858748  1
