# generated using pymatgen
data_DyLu3Cr4F28
_symmetry_space_group_name_H-M   'P 1'
_cell_length_a   5.42744881
_cell_length_b   8.62847851
_cell_length_c   11.55726065
_cell_angle_alpha   63.34083887
_cell_angle_beta   90.08399043
_cell_angle_gamma   90.00063671
_symmetry_Int_Tables_number   1
_chemical_formula_structural   DyLu3Cr4F28
_chemical_formula_sum   'Dy1 Lu3 Cr4 F28'
_cell_volume   483.69530884
_cell_formula_units_Z   1
loop_
 _symmetry_equiv_pos_site_id
 _symmetry_equiv_pos_as_xyz
  1  'x, y, z'
loop_
 _atom_site_type_symbol
 _atom_site_label
 _atom_site_symmetry_multiplicity
 _atom_site_fract_x
 _atom_site_fract_y
 _atom_site_fract_z
 _atom_site_occupancy
  Dy  Dy0  1  0.735103  0.811458  0.265918  1
  Lu  Lu1  1  0.766554  0.811587  0.765453  1
  Lu  Lu2  1  0.266789  0.189060  0.734423  1
  Lu  Lu3  1  0.233146  0.192755  0.233593  1
  Cr  Cr4  1  0.758607  0.274310  0.955431  1
  Cr  Cr5  1  0.257970  0.726338  0.545655  1
  Cr  Cr6  1  0.242655  0.726544  0.041789  1
  Cr  Cr7  1  0.741839  0.271400  0.457050  1
  F  F8  1  0.436454  0.705199  0.919569  1
  F  F9  1  0.936593  0.293553  0.578974  1
  F  F10  1  0.564675  0.294760  0.077876  1
  F  F11  1  0.066086  0.704648  0.422579  1
  F  F12  1  0.449534  0.276962  0.546577  1
  F  F13  1  0.948130  0.722207  0.953186  1
  F  F14  1  0.549357  0.719773  0.458421  1
  F  F15  1  0.050938  0.278706  0.045242  1
  F  F16  1  0.771706  0.512781  0.861130  1
  F  F17  1  0.270305  0.487364  0.639480  1
  F  F18  1  0.228004  0.487701  0.137215  1
  F  F19  1  0.727194  0.508702  0.362624  1
  F  F20  1  0.755427  0.038129  0.045137  1
  F  F21  1  0.255233  0.962292  0.454558  1
  F  F22  1  0.244883  0.962985  0.952586  1
  F  F23  1  0.744792  0.035000  0.547301  1
  F  F24  1  0.973285  0.729062  0.639540  1
  F  F25  1  0.474501  0.271123  0.860648  1
  F  F26  1  0.026064  0.271134  0.362046  1
  F  F27  1  0.526291  0.726885  0.135590  1
  F  F28  1  0.054364  0.744985  0.169449  1
  F  F29  1  0.548148  0.252155  0.329979  1
  F  F30  1  0.952209  0.253408  0.829203  1
  F  F31  1  0.451563  0.746788  0.672134  1
  F  F32  1  0.408328  0.978339  0.227709  1
  F  F33  1  0.916992  0.031636  0.271918  1
  F  F34  1  0.583127  0.024461  0.771212  1
  F  F35  1  0.083156  0.975807  0.728805  1
