# generated using pymatgen
data_SrCe(ZnP)6
_symmetry_space_group_name_H-M   'P 1'
_cell_length_a   4.02754200
_cell_length_b   4.02754227
_cell_length_c   20.32962700
_cell_angle_alpha   90.00000000
_cell_angle_beta   90.00000000
_cell_angle_gamma   119.99999777
_symmetry_Int_Tables_number   1
_chemical_formula_structural   SrCe(ZnP)6
_chemical_formula_sum   'Sr1 Ce1 Zn6 P6'
_cell_volume   285.58818553
_cell_formula_units_Z   1
loop_
 _symmetry_equiv_pos_site_id
 _symmetry_equiv_pos_as_xyz
  1  'x, y, z'
loop_
 _atom_site_type_symbol
 _atom_site_label
 _atom_site_symmetry_multiplicity
 _atom_site_fract_x
 _atom_site_fract_y
 _atom_site_fract_z
 _atom_site_occupancy
  Sr  Sr0  1  0.000000  0.000000  0.000000  1
  Ce  Ce1  1  0.000000  0.000000  0.500000  1
  Zn  Zn2  1  0.333333  0.666667  0.768340  1
  Zn  Zn3  1  0.666667  0.333333  0.231660  1
  Zn  Zn4  1  0.333333  0.666667  0.133061  1
  Zn  Zn5  1  0.666667  0.333333  0.866939  1
  Zn  Zn6  1  0.666667  0.333333  0.627021  1
  Zn  Zn7  1  0.333333  0.666667  0.372979  1
  P  P8  1  0.333333  0.666667  0.581837  1
  P  P9  1  0.666667  0.333333  0.418163  1
  P  P10  1  0.666667  0.333333  0.099103  1
  P  P11  1  0.333333  0.666667  0.900897  1
  P  P12  1  0.333333  0.666667  0.257945  1
  P  P13  1  0.666667  0.333333  0.742055  1
