# generated using pymatgen
data_La10CoOs3
_symmetry_space_group_name_H-M   'P 1'
_cell_length_a   9.06346772
_cell_length_b   9.06819207
_cell_length_c   7.38859244
_cell_angle_alpha   85.62779683
_cell_angle_beta   85.70381880
_cell_angle_gamma   43.78088268
_symmetry_Int_Tables_number   1
_chemical_formula_structural   La10CoOs3
_chemical_formula_sum   'La10 Co1 Os3'
_cell_volume   418.77010125
_cell_formula_units_Z   1
loop_
 _symmetry_equiv_pos_site_id
 _symmetry_equiv_pos_as_xyz
  1  'x, y, z'
loop_
 _atom_site_type_symbol
 _atom_site_label
 _atom_site_symmetry_multiplicity
 _atom_site_fract_x
 _atom_site_fract_y
 _atom_site_fract_z
 _atom_site_occupancy
  La  La0  1  0.011581  0.807340  0.405130  1
  La  La1  1  0.197611  0.984304  0.091401  1
  La  La2  1  0.989136  0.198961  0.589879  1
  La  La3  1  0.798901  0.018815  0.893010  1
  La  La4  1  0.361697  0.212092  0.332037  1
  La  La5  1  0.788499  0.645545  0.179500  1
  La  La6  1  0.646197  0.780456  0.678893  1
  La  La7  1  0.212400  0.356933  0.826812  1
  La  La8  1  0.570407  0.428858  0.247949  1
  La  La9  1  0.429480  0.568458  0.747038  1
  Co  Co10  1  0.603839  0.167057  0.584843  1
  Os  Os11  1  0.170002  0.610539  0.075301  1
  Os  Os12  1  0.397251  0.825663  0.424434  1
  Os  Os13  1  0.822997  0.394981  0.923773  1
