# generated using pymatgen
data_Ho8ZnInPd2
_symmetry_space_group_name_H-M   'P 1'
_cell_length_a   9.60081586
_cell_length_b   9.60081615
_cell_length_c   9.61317100
_cell_angle_alpha   59.95742551
_cell_angle_beta   59.95742452
_cell_angle_gamma   59.97665714
_symmetry_Int_Tables_number   1
_chemical_formula_structural   Ho8ZnInPd2
_chemical_formula_sum   'Ho16 Zn2 In2 Pd4'
_cell_volume   626.05373443
_cell_formula_units_Z   2
loop_
 _symmetry_equiv_pos_site_id
 _symmetry_equiv_pos_as_xyz
  1  'x, y, z'
loop_
 _atom_site_type_symbol
 _atom_site_label
 _atom_site_symmetry_multiplicity
 _atom_site_fract_x
 _atom_site_fract_y
 _atom_site_fract_z
 _atom_site_occupancy
  Ho  Ho0  1  0.354444  0.354444  0.356631  1
  Ho  Ho1  1  0.354444  0.354444  0.934484  1
  Ho  Ho2  1  0.354244  0.934747  0.355505  1
  Ho  Ho3  1  0.934747  0.354244  0.355505  1
  Ho  Ho4  1  0.808943  0.190859  0.191506  1
  Ho  Ho5  1  0.190859  0.808943  0.808692  1
  Ho  Ho6  1  0.190859  0.808943  0.191506  1
  Ho  Ho7  1  0.808943  0.190859  0.808692  1
  Ho  Ho8  1  0.190970  0.190970  0.809030  1
  Ho  Ho9  1  0.808615  0.808615  0.191385  1
  Ho  Ho10  1  0.940675  0.566034  0.565090  1
  Ho  Ho11  1  0.566034  0.940675  0.928201  1
  Ho  Ho12  1  0.566034  0.940675  0.565090  1
  Ho  Ho13  1  0.940675  0.566034  0.928201  1
  Ho  Ho14  1  0.566566  0.566566  0.933434  1
  Ho  Ho15  1  0.935758  0.935758  0.564242  1
  Zn  Zn16  1  0.581848  0.248137  0.585007  1
  Zn  Zn17  1  0.248137  0.581848  0.585007  1
  In  In18  1  0.579572  0.579572  0.583441  1
  In  In19  1  0.579572  0.579572  0.257415  1
  Pd  Pd20  1  0.144240  0.144240  0.145612  1
  Pd  Pd21  1  0.144240  0.144240  0.565908  1
  Pd  Pd22  1  0.143847  0.565736  0.145208  1
  Pd  Pd23  1  0.565736  0.143847  0.145208  1
