# generated using pymatgen
data_Dy10Lu2In2FeTc2
_symmetry_space_group_name_H-M   'P 1'
_cell_length_a   8.39882275
_cell_length_b   8.37514629
_cell_length_c   8.37514542
_cell_angle_alpha   108.66938678
_cell_angle_beta   108.84616295
_cell_angle_gamma   110.79025711
_symmetry_Int_Tables_number   1
_chemical_formula_structural   Dy10Lu2In2FeTc2
_chemical_formula_sum   'Dy10 Lu2 In2 Fe1 Tc2'
_cell_volume   453.96229491
_cell_formula_units_Z   1
loop_
 _symmetry_equiv_pos_site_id
 _symmetry_equiv_pos_as_xyz
  1  'x, y, z'
loop_
 _atom_site_type_symbol
 _atom_site_label
 _atom_site_symmetry_multiplicity
 _atom_site_fract_x
 _atom_site_fract_y
 _atom_site_fract_z
 _atom_site_occupancy
  Dy  Dy0  1  0.305142  0.305095  0.610815  1
  Dy  Dy1  1  0.692400  0.692366  0.389304  1
  Dy  Dy2  1  0.692400  0.303096  0.000035  1
  Dy  Dy3  1  0.305142  0.694326  0.000046  1
  Dy  Dy4  1  0.191907  0.431882  0.242100  1
  Dy  Dy5  1  0.805468  0.568809  0.761034  1
  Dy  Dy6  1  0.191907  0.949806  0.760025  1
  Dy  Dy7  1  0.948817  0.189658  0.759161  1
  Dy  Dy8  1  0.805468  0.044436  0.236659  1
  Dy  Dy9  1  0.045871  0.808046  0.237824  1
  Lu  Lu10  1  0.430011  0.190002  0.240009  1
  Lu  Lu11  1  0.570628  0.807737  0.762891  1
  In  In12  1  0.998205  0.498160  0.500045  1
  In  In13  1  0.498242  0.998301  0.499941  1
  Fe  Fe14  1  0.629815  0.630192  0.999623  1
  Tc  Tc15  1  0.387988  0.387525  0.000463  1
  Tc  Tc16  1  0.000589  0.000564  0.000025  1
