# generated using pymatgen
data_TbY2ErPt4F28
_symmetry_space_group_name_H-M   'P 1'
_cell_length_a   5.55098209
_cell_length_b   8.88896294
_cell_length_c   12.00316833
_cell_angle_alpha   62.47285441
_cell_angle_beta   89.95323786
_cell_angle_gamma   89.99453303
_symmetry_Int_Tables_number   1
_chemical_formula_structural   TbY2ErPt4F28
_chemical_formula_sum   'Tb1 Y2 Er1 Pt4 F28'
_cell_volume   525.21654909
_cell_formula_units_Z   1
loop_
 _symmetry_equiv_pos_site_id
 _symmetry_equiv_pos_as_xyz
  1  'x, y, z'
loop_
 _atom_site_type_symbol
 _atom_site_label
 _atom_site_symmetry_multiplicity
 _atom_site_fract_x
 _atom_site_fract_y
 _atom_site_fract_z
 _atom_site_occupancy
  Tb  Tb0  1  0.239232  0.185105  0.235638  1
  Y  Y1  1  0.761407  0.813669  0.764265  1
  Y  Y2  1  0.261266  0.186202  0.735631  1
  Er  Er3  1  0.738461  0.813052  0.264294  1
  Pt  Pt4  1  0.758086  0.271620  0.957436  1
  Pt  Pt5  1  0.259010  0.727714  0.541884  1
  Pt  Pt6  1  0.240514  0.727971  0.044269  1
  Pt  Pt7  1  0.741419  0.273832  0.456440  1
  F  F8  1  0.436119  0.703053  0.917092  1
  F  F9  1  0.935172  0.297798  0.584376  1
  F  F10  1  0.564302  0.296503  0.085047  1
  F  F11  1  0.063103  0.702958  0.414815  1
  F  F12  1  0.439647  0.278789  0.541555  1
  F  F13  1  0.940542  0.722098  0.958349  1
  F  F14  1  0.560721  0.723387  0.455773  1
  F  F15  1  0.059666  0.276895  0.042404  1
  F  F16  1  0.774708  0.520564  0.859064  1
  F  F17  1  0.276125  0.479158  0.640359  1
  F  F18  1  0.224452  0.479124  0.141920  1
  F  F19  1  0.725589  0.523141  0.358222  1
  F  F20  1  0.753253  0.022464  0.051066  1
  F  F21  1  0.253090  0.976714  0.449274  1
  F  F22  1  0.245524  0.976747  0.950703  1
  F  F23  1  0.746102  0.025035  0.549359  1
  F  F24  1  0.965688  0.724227  0.635012  1
  F  F25  1  0.464153  0.275562  0.864890  1
  F  F26  1  0.034941  0.275856  0.364046  1
  F  F27  1  0.533127  0.725389  0.137774  1
  F  F28  1  0.049027  0.746510  0.175966  1
  F  F29  1  0.553613  0.255429  0.324058  1
  F  F30  1  0.946340  0.253902  0.824656  1
  F  F31  1  0.448183  0.745835  0.674314  1
  F  F32  1  0.418637  0.967535  0.232849  1
  F  F33  1  0.913884  0.026424  0.267345  1
  F  F34  1  0.587342  0.031010  0.767845  1
  F  F35  1  0.087554  0.968727  0.732008  1
