# generated using pymatgen
data_Y4Lu16SnBi11
_symmetry_space_group_name_H-M   'P 1'
_cell_length_a   8.15399822
_cell_length_b   9.37546500
_cell_length_c   11.87873100
_cell_angle_alpha   90.00000000
_cell_angle_beta   90.16840940
_cell_angle_gamma   90.00000000
_symmetry_Int_Tables_number   1
_chemical_formula_structural   Y4Lu16SnBi11
_chemical_formula_sum   'Y4 Lu16 Sn1 Bi11'
_cell_volume   908.09566176
_cell_formula_units_Z   1
loop_
 _symmetry_equiv_pos_site_id
 _symmetry_equiv_pos_as_xyz
  1  'x, y, z'
loop_
 _atom_site_type_symbol
 _atom_site_label
 _atom_site_symmetry_multiplicity
 _atom_site_fract_x
 _atom_site_fract_y
 _atom_site_fract_z
 _atom_site_occupancy
  Y  Y0  1  0.313592  0.250000  0.218248  1
  Y  Y1  1  0.813211  0.250000  0.282184  1
  Y  Y2  1  0.683038  0.750000  0.783986  1
  Y  Y3  1  0.188280  0.750000  0.720037  1
  Lu  Lu4  1  0.352319  0.750000  0.214836  1
  Lu  Lu5  1  0.852864  0.750000  0.282208  1
  Lu  Lu6  1  0.648423  0.250000  0.781402  1
  Lu  Lu7  1  0.148284  0.250000  0.718081  1
  Lu  Lu8  1  0.689015  0.569466  0.059387  1
  Lu  Lu9  1  0.192342  0.932921  0.439237  1
  Lu  Lu10  1  0.307808  0.062450  0.939564  1
  Lu  Lu11  1  0.807630  0.432890  0.560331  1
  Lu  Lu12  1  0.307808  0.437550  0.939564  1
  Lu  Lu13  1  0.807630  0.067110  0.560331  1
  Lu  Lu14  1  0.689015  0.930534  0.059387  1
  Lu  Lu15  1  0.192342  0.567079  0.439237  1
  Lu  Lu16  1  0.477538  0.250000  0.489426  1
  Lu  Lu17  1  0.977936  0.250000  0.010571  1
  Lu  Lu18  1  0.522727  0.750000  0.510591  1
  Lu  Lu19  1  0.028367  0.750000  0.989505  1
  Sn  Sn20  1  0.404363  0.750000  0.960636  1
  Bi  Bi21  1  0.903646  0.750000  0.540860  1
  Bi  Bi22  1  0.596451  0.250000  0.040077  1
  Bi  Bi23  1  0.096985  0.250000  0.459805  1
  Bi  Bi24  1  0.565233  0.993870  0.326465  1
  Bi  Bi25  1  0.064648  0.505147  0.174069  1
  Bi  Bi26  1  0.434681  0.493989  0.673300  1
  Bi  Bi27  1  0.934631  0.005650  0.826419  1
  Bi  Bi28  1  0.434681  0.006011  0.673300  1
  Bi  Bi29  1  0.934631  0.494350  0.826419  1
  Bi  Bi30  1  0.565233  0.506130  0.326465  1
  Bi  Bi31  1  0.064648  0.994853  0.174069  1
