# generated using pymatgen
data_Nb12Cr5Fe3(SiN)4
_symmetry_space_group_name_H-M   'P 1'
_cell_length_a   8.06161251
_cell_length_b   8.07467344
_cell_length_c   8.07454301
_cell_angle_alpha   59.99953010
_cell_angle_beta   59.94592182
_cell_angle_gamma   59.94663203
_symmetry_Int_Tables_number   1
_chemical_formula_structural   Nb12Cr5Fe3(SiN)4
_chemical_formula_sum   'Nb12 Cr5 Fe3 Si4 N4'
_cell_volume   371.36003683
_cell_formula_units_Z   1
loop_
 _symmetry_equiv_pos_site_id
 _symmetry_equiv_pos_as_xyz
  1  'x, y, z'
loop_
 _atom_site_type_symbol
 _atom_site_label
 _atom_site_symmetry_multiplicity
 _atom_site_fract_x
 _atom_site_fract_y
 _atom_site_fract_z
 _atom_site_occupancy
  Nb  Nb0  1  0.800739  0.802833  0.198245  1
  Nb  Nb1  1  0.198241  0.194545  0.803619  1
  Nb  Nb2  1  0.800733  0.198261  0.802815  1
  Nb  Nb3  1  0.198230  0.803640  0.194520  1
  Nb  Nb4  1  0.198274  0.803615  0.803609  1
  Nb  Nb5  1  0.800756  0.198216  0.198208  1
  Nb  Nb6  1  0.446808  0.447998  0.052583  1
  Nb  Nb7  1  0.052880  0.051902  0.447596  1
  Nb  Nb8  1  0.446811  0.052605  0.447983  1
  Nb  Nb9  1  0.052892  0.447612  0.051876  1
  Nb  Nb10  1  0.052855  0.447645  0.447626  1
  Nb  Nb11  1  0.446777  0.052636  0.052604  1
  Cr  Cr12  1  0.734581  0.421819  0.421811  1
  Cr  Cr13  1  0.421724  0.728699  0.424816  1
  Cr  Cr14  1  0.421708  0.424784  0.728765  1
  Cr  Cr15  1  0.421707  0.424792  0.424786  1
  Cr  Cr16  1  0.515040  0.828340  0.828308  1
  Fe  Fe17  1  0.828972  0.509351  0.830815  1
  Fe  Fe18  1  0.828946  0.830811  0.509378  1
  Fe  Fe19  1  0.828884  0.830806  0.830819  1
  Si  Si20  1  0.106183  0.631206  0.631294  1
  Si  Si21  1  0.632508  0.116716  0.625381  1
  Si  Si22  1  0.632574  0.625348  0.116616  1
  Si  Si23  1  0.632584  0.625349  0.625450  1
  N  N24  1  0.623610  0.125467  0.125469  1
  N  N25  1  0.124998  0.622221  0.126395  1
  N  N26  1  0.124995  0.126394  0.622224  1
  N  N27  1  0.124990  0.126390  0.126392  1
