# generated using pymatgen
data_Sr2Si4GePt3
_symmetry_space_group_name_H-M   'P 1'
_cell_length_a   8.50929698
_cell_length_b   8.50929789
_cell_length_c   8.48075687
_cell_angle_alpha   138.20673704
_cell_angle_beta   106.27561891
_cell_angle_gamma   88.71807239
_symmetry_Int_Tables_number   1
_chemical_formula_structural   Sr2Si4GePt3
_chemical_formula_sum   'Sr4 Si8 Ge2 Pt6'
_cell_volume   375.76858647
_cell_formula_units_Z   2
loop_
 _symmetry_equiv_pos_site_id
 _symmetry_equiv_pos_as_xyz
  1  'x, y, z'
loop_
 _atom_site_type_symbol
 _atom_site_label
 _atom_site_symmetry_multiplicity
 _atom_site_fract_x
 _atom_site_fract_y
 _atom_site_fract_z
 _atom_site_occupancy
  Sr  Sr0  1  0.632510  0.371805  0.264423  1
  Sr  Sr1  1  0.367490  0.628195  0.735577  1
  Sr  Sr2  1  0.107382  0.868086  0.235577  1
  Sr  Sr3  1  0.892618  0.131914  0.764423  1
  Si  Si4  1  0.734026  0.984026  0.250000  1
  Si  Si5  1  0.265974  0.015974  0.750000  1
  Si  Si6  1  0.463823  0.109285  0.352020  1
  Si  Si7  1  0.536177  0.890715  0.647980  1
  Si  Si8  1  0.757265  0.611803  0.147980  1
  Si  Si9  1  0.242735  0.388197  0.852020  1
  Si  Si10  1  0.002082  0.252082  0.250000  1
  Si  Si11  1  0.997918  0.747918  0.750000  1
  Ge  Ge12  1  0.266882  0.516882  0.250000  1
  Ge  Ge13  1  0.733118  0.483118  0.750000  1
  Pt  Pt14  1  0.244614  0.123095  0.107095  1
  Pt  Pt15  1  0.755386  0.876905  0.892905  1
  Pt  Pt16  1  0.016000  0.637519  0.392905  1
  Pt  Pt17  1  0.984000  0.362481  0.607095  1
  Pt  Pt18  1  0.492671  0.242671  0.750000  1
  Pt  Pt19  1  0.507329  0.757329  0.250000  1
