# generated using pymatgen
data_Pr3Nd(ThSe3)4
_symmetry_space_group_name_H-M   'P 1'
_cell_length_a   11.50054054
_cell_length_b   4.15776700
_cell_length_c   11.22473051
_cell_angle_alpha   90.00000000
_cell_angle_beta   89.95742312
_cell_angle_gamma   90.00000000
_symmetry_Int_Tables_number   1
_chemical_formula_structural   Pr3Nd(ThSe3)4
_chemical_formula_sum   'Pr3 Nd1 Th4 Se12'
_cell_volume   536.72794087
_cell_formula_units_Z   1
loop_
 _symmetry_equiv_pos_site_id
 _symmetry_equiv_pos_as_xyz
  1  'x, y, z'
loop_
 _atom_site_type_symbol
 _atom_site_label
 _atom_site_symmetry_multiplicity
 _atom_site_fract_x
 _atom_site_fract_y
 _atom_site_fract_z
 _atom_site_occupancy
  Pr  Pr0  1  0.983306  0.250000  0.313833  1
  Pr  Pr1  1  0.305330  0.250000  0.507374  1
  Pr  Pr2  1  0.803915  0.250000  0.994390  1
  Nd  Nd3  1  0.482690  0.250000  0.186522  1
  Th  Th4  1  0.516508  0.750000  0.814763  1
  Th  Th5  1  0.016147  0.750000  0.684656  1
  Th  Th6  1  0.692350  0.750000  0.497735  1
  Th  Th7  1  0.192603  0.750000  0.000546  1
  Se  Se8  1  0.551874  0.250000  0.627825  1
  Se  Se9  1  0.051209  0.250000  0.871544  1
  Se  Se10  1  0.454882  0.750000  0.377497  1
  Se  Se11  1  0.955208  0.750000  0.120895  1
  Se  Se12  1  0.620671  0.750000  0.054671  1
  Se  Se13  1  0.123135  0.750000  0.446075  1
  Se  Se14  1  0.378448  0.250000  0.942765  1
  Se  Se15  1  0.877259  0.250000  0.558207  1
  Se  Se16  1  0.721983  0.250000  0.302862  1
  Se  Se17  1  0.223268  0.250000  0.195925  1
  Se  Se18  1  0.274598  0.750000  0.711041  1
  Se  Se19  1  0.774619  0.750000  0.790874  1
