# generated using pymatgen
data_Tm4Lu6IrRu3
_symmetry_space_group_name_H-M   'P 1'
_cell_length_a   6.22619046
_cell_length_b   7.25034377
_cell_length_c   8.28651378
_cell_angle_alpha   96.94425859
_cell_angle_beta   112.15323499
_cell_angle_gamma   90.05603414
_symmetry_Int_Tables_number   1
_chemical_formula_structural   Tm4Lu6IrRu3
_chemical_formula_sum   'Tm4 Lu6 Ir1 Ru3'
_cell_volume   343.47265866
_cell_formula_units_Z   1
loop_
 _symmetry_equiv_pos_site_id
 _symmetry_equiv_pos_as_xyz
  1  'x, y, z'
loop_
 _atom_site_type_symbol
 _atom_site_label
 _atom_site_symmetry_multiplicity
 _atom_site_fract_x
 _atom_site_fract_y
 _atom_site_fract_z
 _atom_site_occupancy
  Tm  Tm0  1  0.524367  0.083955  0.814267  1
  Tm  Tm1  1  0.475728  0.918574  0.184586  1
  Tm  Tm2  1  0.711043  0.415542  0.183974  1
  Tm  Tm3  1  0.289543  0.583859  0.813094  1
  Lu  Lu4  1  0.293712  0.315010  0.436906  1
  Lu  Lu5  1  0.705856  0.683058  0.564810  1
  Lu  Lu6  1  0.857546  0.183175  0.564209  1
  Lu  Lu7  1  0.141030  0.818182  0.436704  1
  Lu  Lu8  1  0.080304  0.248709  0.998691  1
  Lu  Lu9  1  0.919429  0.750331  0.000181  1
  Ir  Ir10  1  0.321418  0.576676  0.221763  1
  Ru  Ru11  1  0.676977  0.423914  0.780326  1
  Ru  Ru12  1  0.104349  0.922232  0.780398  1
  Ru  Ru13  1  0.898695  0.076781  0.220092  1
