# generated using pymatgen
data_ErScFe3P7Ru9
_symmetry_space_group_name_H-M   'P 1'
_cell_length_a   9.26926400
_cell_length_b   9.26926291
_cell_length_c   3.83833000
_cell_angle_alpha   90.00000000
_cell_angle_beta   90.00000000
_cell_angle_gamma   119.99998960
_symmetry_Int_Tables_number   1
_chemical_formula_structural   ErScFe3P7Ru9
_chemical_formula_sum   'Er1 Sc1 Fe3 P7 Ru9'
_cell_volume   285.60344386
_cell_formula_units_Z   1
loop_
 _symmetry_equiv_pos_site_id
 _symmetry_equiv_pos_as_xyz
  1  'x, y, z'
loop_
 _atom_site_type_symbol
 _atom_site_label
 _atom_site_symmetry_multiplicity
 _atom_site_fract_x
 _atom_site_fract_y
 _atom_site_fract_z
 _atom_site_occupancy
  Er  Er0  1  0.333333  0.666667  0.000000  1
  Sc  Sc1  1  0.666667  0.333333  0.500000  1
  Fe  Fe2  1  0.731161  0.890978  0.000000  1
  Fe  Fe3  1  0.109022  0.840182  0.000000  1
  Fe  Fe4  1  0.159818  0.268839  0.000000  1
  P  P5  1  0.603401  0.721629  0.500000  1
  P  P6  1  0.000000  0.000000  0.000000  1
  P  P7  1  0.278371  0.881772  0.500000  1
  P  P8  1  0.118228  0.396599  0.500000  1
  P  P9  1  0.888239  0.581644  0.000000  1
  P  P10  1  0.418356  0.306594  0.000000  1
  P  P11  1  0.693406  0.111761  0.000000  1
  Ru  Ru12  1  0.561285  0.950217  0.500000  1
  Ru  Ru13  1  0.388934  0.438715  0.500000  1
  Ru  Ru14  1  0.912968  0.116620  0.500000  1
  Ru  Ru15  1  0.203652  0.087032  0.500000  1
  Ru  Ru16  1  0.883380  0.796348  0.500000  1
  Ru  Ru17  1  0.421888  0.063873  0.000000  1
  Ru  Ru18  1  0.936127  0.358015  0.000000  1
  Ru  Ru19  1  0.641985  0.578112  0.000000  1
  Ru  Ru20  1  0.049783  0.611066  0.500000  1
