# generated using pymatgen
data_Nd4Tm(SnBi)2
_symmetry_space_group_name_H-M   'P 1'
_cell_length_a   8.34831400
_cell_length_b   8.39519700
_cell_length_c   16.06035100
_cell_angle_alpha   90.00000000
_cell_angle_beta   90.00000000
_cell_angle_gamma   90.00000000
_symmetry_Int_Tables_number   1
_chemical_formula_structural   Nd4Tm(SnBi)2
_chemical_formula_sum   'Nd16 Tm4 Sn8 Bi8'
_cell_volume   1125.60159490
_cell_formula_units_Z   4
loop_
 _symmetry_equiv_pos_site_id
 _symmetry_equiv_pos_as_xyz
  1  'x, y, z'
loop_
 _atom_site_type_symbol
 _atom_site_label
 _atom_site_symmetry_multiplicity
 _atom_site_fract_x
 _atom_site_fract_y
 _atom_site_fract_z
 _atom_site_occupancy
  Nd  Nd0  1  0.044329  0.175500  0.392286  1
  Nd  Nd1  1  0.382907  0.838465  0.122623  1
  Nd  Nd2  1  0.117093  0.338465  0.622623  1
  Nd  Nd3  1  0.455671  0.675500  0.892286  1
  Nd  Nd4  1  0.882907  0.661535  0.122623  1
  Nd  Nd5  1  0.117093  0.338465  0.877377  1
  Nd  Nd6  1  0.455671  0.675500  0.607714  1
  Nd  Nd7  1  0.617093  0.161535  0.622623  1
  Nd  Nd8  1  0.882907  0.661535  0.377377  1
  Nd  Nd9  1  0.044329  0.175500  0.107714  1
  Nd  Nd10  1  0.955671  0.824500  0.892286  1
  Nd  Nd11  1  0.617093  0.161535  0.877377  1
  Nd  Nd12  1  0.544329  0.324500  0.107714  1
  Nd  Nd13  1  0.382907  0.838465  0.377377  1
  Nd  Nd14  1  0.955671  0.824500  0.607714  1
  Nd  Nd15  1  0.544329  0.324500  0.392286  1
  Tm  Tm16  1  0.212793  0.495622  0.250000  1
  Tm  Tm17  1  0.712793  0.004378  0.250000  1
  Tm  Tm18  1  0.287207  0.995622  0.750000  1
  Tm  Tm19  1  0.787207  0.504378  0.750000  1
  Sn  Sn20  1  0.652259  0.855976  0.750000  1
  Sn  Sn21  1  0.847741  0.355976  0.250000  1
  Sn  Sn22  1  0.578517  0.623159  0.250000  1
  Sn  Sn23  1  0.421483  0.376841  0.750000  1
  Sn  Sn24  1  0.152259  0.644024  0.750000  1
  Sn  Sn25  1  0.921483  0.123159  0.750000  1
  Sn  Sn26  1  0.347741  0.144024  0.250000  1
  Sn  Sn27  1  0.078517  0.876841  0.250000  1
  Bi  Bi28  1  0.774809  0.477540  0.547374  1
  Bi  Bi29  1  0.725191  0.977540  0.452626  1
  Bi  Bi30  1  0.225191  0.522460  0.452626  1
  Bi  Bi31  1  0.274809  0.022460  0.952626  1
  Bi  Bi32  1  0.774809  0.477540  0.952626  1
  Bi  Bi33  1  0.225191  0.522460  0.047374  1
  Bi  Bi34  1  0.274809  0.022460  0.547374  1
  Bi  Bi35  1  0.725191  0.977540  0.047374  1
