# generated using pymatgen
data_Dy6YCo6Sn23
_symmetry_space_group_name_H-M   'P 1'
_cell_length_a   9.73138800
_cell_length_b   9.73138867
_cell_length_c   9.98633000
_cell_angle_alpha   90.00000000
_cell_angle_beta   90.00000000
_cell_angle_gamma   119.99999771
_symmetry_Int_Tables_number   1
_chemical_formula_structural   Dy6YCo6Sn23
_chemical_formula_sum   'Dy6 Y1 Co6 Sn23'
_cell_volume   819.00426312
_cell_formula_units_Z   1
loop_
 _symmetry_equiv_pos_site_id
 _symmetry_equiv_pos_as_xyz
  1  'x, y, z'
loop_
 _atom_site_type_symbol
 _atom_site_label
 _atom_site_symmetry_multiplicity
 _atom_site_fract_x
 _atom_site_fract_y
 _atom_site_fract_z
 _atom_site_occupancy
  Dy  Dy0  1  0.478849  0.521151  0.305682  1
  Dy  Dy1  1  0.521151  0.478849  0.694318  1
  Dy  Dy2  1  0.478849  0.957698  0.305682  1
  Dy  Dy3  1  0.521151  0.042302  0.694318  1
  Dy  Dy4  1  0.042302  0.521151  0.305682  1
  Dy  Dy5  1  0.957698  0.478849  0.694318  1
  Y  Y6  1  0.000000  0.000000  0.000000  1
  Co  Co7  1  0.832545  0.167455  0.197385  1
  Co  Co8  1  0.167455  0.832545  0.802615  1
  Co  Co9  1  0.832545  0.665090  0.197385  1
  Co  Co10  1  0.167455  0.334910  0.802615  1
  Co  Co11  1  0.334910  0.167455  0.197385  1
  Co  Co12  1  0.665090  0.832545  0.802615  1
  Sn  Sn13  1  0.345796  0.000000  0.000000  1
  Sn  Sn14  1  0.654204  0.000000  0.000000  1
  Sn  Sn15  1  0.000000  0.345796  0.000000  1
  Sn  Sn16  1  0.000000  0.654204  0.000000  1
  Sn  Sn17  1  0.654204  0.654204  0.000000  1
  Sn  Sn18  1  0.345796  0.345796  0.000000  1
  Sn  Sn19  1  0.333333  0.666667  0.818169  1
  Sn  Sn20  1  0.666667  0.333333  0.181831  1
  Sn  Sn21  1  0.000000  0.000000  0.500000  1
  Sn  Sn22  1  0.780947  0.219053  0.452210  1
  Sn  Sn23  1  0.219053  0.780947  0.547790  1
  Sn  Sn24  1  0.780947  0.561895  0.452210  1
  Sn  Sn25  1  0.219053  0.438105  0.547790  1
  Sn  Sn26  1  0.438105  0.219053  0.452210  1
  Sn  Sn27  1  0.561895  0.780947  0.547790  1
  Sn  Sn28  1  0.333333  0.666667  0.116813  1
  Sn  Sn29  1  0.666667  0.333333  0.883187  1
  Sn  Sn30  1  0.117859  0.882141  0.274898  1
  Sn  Sn31  1  0.882141  0.117859  0.725102  1
  Sn  Sn32  1  0.117859  0.235719  0.274898  1
  Sn  Sn33  1  0.882141  0.764281  0.725102  1
  Sn  Sn34  1  0.764281  0.882141  0.274898  1
  Sn  Sn35  1  0.235719  0.117859  0.725102  1
