# generated using pymatgen
data_Hf6MnAl16(Cu2Ir)2
_symmetry_space_group_name_H-M   'P 1'
_cell_length_a   8.65191040
_cell_length_b   8.65191116
_cell_length_c   8.59200000
_cell_angle_alpha   60.22880128
_cell_angle_beta   60.22879841
_cell_angle_gamma   59.54238953
_symmetry_Int_Tables_number   1
_chemical_formula_structural   Hf6MnAl16(Cu2Ir)2
_chemical_formula_sum   'Hf6 Mn1 Al16 Cu4 Ir2'
_cell_volume   454.73871839
_cell_formula_units_Z   1
loop_
 _symmetry_equiv_pos_site_id
 _symmetry_equiv_pos_as_xyz
  1  'x, y, z'
loop_
 _atom_site_type_symbol
 _atom_site_label
 _atom_site_symmetry_multiplicity
 _atom_site_fract_x
 _atom_site_fract_y
 _atom_site_fract_z
 _atom_site_occupancy
  Hf  Hf0  1  0.686782  0.313218  0.313218  1
  Hf  Hf1  1  0.313218  0.686782  0.686782  1
  Hf  Hf2  1  0.313218  0.686782  0.313218  1
  Hf  Hf3  1  0.686782  0.313218  0.686782  1
  Hf  Hf4  1  0.307034  0.307034  0.692966  1
  Hf  Hf5  1  0.692966  0.692966  0.307034  1
  Mn  Mn6  1  0.000000  0.000000  0.000000  1
  Al  Al7  1  0.332407  0.332407  0.336647  1
  Al  Al8  1  0.667593  0.667593  0.663353  1
  Al  Al9  1  0.332407  0.332407  0.998538  1
  Al  Al10  1  0.336647  0.998538  0.332407  1
  Al  Al11  1  0.667593  0.667593  0.001462  1
  Al  Al12  1  0.663353  0.001462  0.667593  1
  Al  Al13  1  0.998538  0.336647  0.332407  1
  Al  Al14  1  0.001462  0.663353  0.667593  1
  Al  Al15  1  0.113245  0.113245  0.121599  1
  Al  Al16  1  0.886755  0.886755  0.878401  1
  Al  Al17  1  0.113245  0.113245  0.651909  1
  Al  Al18  1  0.121599  0.651909  0.113245  1
  Al  Al19  1  0.886755  0.886755  0.348091  1
  Al  Al20  1  0.878401  0.348091  0.886755  1
  Al  Al21  1  0.651909  0.121599  0.113245  1
  Al  Al22  1  0.348091  0.878401  0.886755  1
  Cu  Cu23  1  0.500000  0.000000  0.000000  1
  Cu  Cu24  1  0.000000  0.500000  0.500000  1
  Cu  Cu25  1  0.000000  0.500000  0.000000  1
  Cu  Cu26  1  0.500000  0.000000  0.500000  1
  Ir  Ir27  1  0.000000  0.000000  0.500000  1
  Ir  Ir28  1  0.500000  0.500000  0.000000  1
