# generated using pymatgen
data_DyHo(Sc3Bi2)6
_symmetry_space_group_name_H-M   'P 1'
_cell_length_a   7.83489000
_cell_length_b   9.03846500
_cell_length_c   11.46815500
_cell_angle_alpha   90.00000000
_cell_angle_beta   89.99748317
_cell_angle_gamma   90.00000000
_symmetry_Int_Tables_number   1
_chemical_formula_structural   DyHo(Sc3Bi2)6
_chemical_formula_sum   'Dy1 Ho1 Sc18 Bi12'
_cell_volume   812.12174287
_cell_formula_units_Z   1
loop_
 _symmetry_equiv_pos_site_id
 _symmetry_equiv_pos_as_xyz
  1  'x, y, z'
loop_
 _atom_site_type_symbol
 _atom_site_label
 _atom_site_symmetry_multiplicity
 _atom_site_fract_x
 _atom_site_fract_y
 _atom_site_fract_z
 _atom_site_occupancy
  Dy  Dy0  1  0.684745  0.750000  0.780700  1
  Ho  Ho1  1  0.184802  0.750000  0.719179  1
  Sc  Sc2  1  0.351646  0.750000  0.221116  1
  Sc  Sc3  1  0.851664  0.750000  0.278879  1
  Sc  Sc4  1  0.649522  0.250000  0.782113  1
  Sc  Sc5  1  0.149549  0.250000  0.717876  1
  Sc  Sc6  1  0.694513  0.566682  0.061830  1
  Sc  Sc7  1  0.194540  0.933307  0.438214  1
  Sc  Sc8  1  0.306473  0.067965  0.940342  1
  Sc  Sc9  1  0.806443  0.432023  0.559634  1
  Sc  Sc10  1  0.306473  0.432035  0.940342  1
  Sc  Sc11  1  0.806443  0.067977  0.559634  1
  Sc  Sc12  1  0.694513  0.933318  0.061830  1
  Sc  Sc13  1  0.194540  0.566693  0.438214  1
  Sc  Sc14  1  0.479479  0.250000  0.486886  1
  Sc  Sc15  1  0.979538  0.250000  0.013123  1
  Sc  Sc16  1  0.518746  0.750000  0.508736  1
  Sc  Sc17  1  0.018860  0.750000  0.991275  1
  Sc  Sc18  1  0.313799  0.250000  0.218278  1
  Sc  Sc19  1  0.813800  0.250000  0.281712  1
  Bi  Bi20  1  0.401885  0.750000  0.966500  1
  Bi  Bi21  1  0.902245  0.750000  0.533579  1
  Bi  Bi22  1  0.594076  0.250000  0.040411  1
  Bi  Bi23  1  0.094056  0.250000  0.459588  1
  Bi  Bi24  1  0.566418  0.996276  0.325696  1
  Bi  Bi25  1  0.066395  0.503713  0.174318  1
  Bi  Bi26  1  0.435325  0.489568  0.671371  1
  Bi  Bi27  1  0.935687  0.010496  0.828621  1
  Bi  Bi28  1  0.435325  0.010432  0.671371  1
  Bi  Bi29  1  0.935687  0.489504  0.828621  1
  Bi  Bi30  1  0.566418  0.503724  0.325696  1
  Bi  Bi31  1  0.066395  0.996287  0.174318  1
