# generated using pymatgen
data_Ho5Sn3Se
_symmetry_space_group_name_H-M   'P 1'
_cell_length_a   9.07405100
_cell_length_b   9.07405066
_cell_length_c   6.69368300
_cell_angle_alpha   90.00000000
_cell_angle_beta   90.00000000
_cell_angle_gamma   120.00000488
_symmetry_Int_Tables_number   1
_chemical_formula_structural   Ho5Sn3Se
_chemical_formula_sum   'Ho10 Sn6 Se2'
_cell_volume   477.30739929
_cell_formula_units_Z   2
loop_
 _symmetry_equiv_pos_site_id
 _symmetry_equiv_pos_as_xyz
  1  'x, y, z'
loop_
 _atom_site_type_symbol
 _atom_site_label
 _atom_site_symmetry_multiplicity
 _atom_site_fract_x
 _atom_site_fract_y
 _atom_site_fract_z
 _atom_site_occupancy
  Ho  Ho0  1  0.666667  0.333333  0.000000  1
  Ho  Ho1  1  0.333333  0.666667  0.000000  1
  Ho  Ho2  1  0.333333  0.666667  0.500000  1
  Ho  Ho3  1  0.666667  0.333333  0.500000  1
  Ho  Ho4  1  0.746895  0.746895  0.750000  1
  Ho  Ho5  1  0.253105  0.000000  0.750000  1
  Ho  Ho6  1  0.000000  0.253105  0.750000  1
  Ho  Ho7  1  0.253105  0.253105  0.250000  1
  Ho  Ho8  1  0.746895  0.000000  0.250000  1
  Ho  Ho9  1  0.000000  0.746895  0.250000  1
  Sn  Sn10  1  0.395919  0.395919  0.750000  1
  Sn  Sn11  1  0.604081  0.000000  0.750000  1
  Sn  Sn12  1  0.000000  0.604081  0.750000  1
  Sn  Sn13  1  0.604081  0.604081  0.250000  1
  Sn  Sn14  1  0.395919  0.000000  0.250000  1
  Sn  Sn15  1  0.000000  0.395919  0.250000  1
  Se  Se16  1  0.000000  0.000000  0.000000  1
  Se  Se17  1  0.000000  0.000000  0.500000  1
