# generated using pymatgen
data_La4Sn2PtAu3
_symmetry_space_group_name_H-M   'P 1'
_cell_length_a   8.19047725
_cell_length_b   8.19047721
_cell_length_c   3.96738500
_cell_angle_alpha   90.00000000
_cell_angle_beta   90.00000000
_cell_angle_gamma   90.08848534
_symmetry_Int_Tables_number   1
_chemical_formula_structural   La4Sn2PtAu3
_chemical_formula_sum   'La4 Sn2 Pt1 Au3'
_cell_volume   266.14740938
_cell_formula_units_Z   1
loop_
 _symmetry_equiv_pos_site_id
 _symmetry_equiv_pos_as_xyz
  1  'x, y, z'
loop_
 _atom_site_type_symbol
 _atom_site_label
 _atom_site_symmetry_multiplicity
 _atom_site_fract_x
 _atom_site_fract_y
 _atom_site_fract_z
 _atom_site_occupancy
  La  La0  1  0.672965  0.172965  0.500000  1
  La  La1  1  0.316130  0.816130  0.500000  1
  La  La2  1  0.177316  0.336941  0.500000  1
  La  La3  1  0.836941  0.677316  0.500000  1
  Sn  Sn4  1  0.001332  0.999752  0.000000  1
  Sn  Sn5  1  0.499752  0.501332  0.000000  1
  Pt  Pt6  1  0.125567  0.625567  0.000000  1
  Au  Au7  1  0.873606  0.373606  0.000000  1
  Au  Au8  1  0.624218  0.872174  0.000000  1
  Au  Au9  1  0.372174  0.124218  0.000000  1
