# generated using pymatgen
data_Tb6Er7Tm3(In3Os)2
_symmetry_space_group_name_H-M   'P 1'
_cell_length_a   10.32278805
_cell_length_b   10.32282016
_cell_length_c   7.11516504
_cell_angle_alpha   89.99992619
_cell_angle_beta   90.00045013
_cell_angle_gamma   120.00344082
_symmetry_Int_Tables_number   1
_chemical_formula_structural   Tb6Er7Tm3(In3Os)2
_chemical_formula_sum   'Tb6 Er7 Tm3 In6 Os2'
_cell_volume   656.59250743
_cell_formula_units_Z   1
loop_
 _symmetry_equiv_pos_site_id
 _symmetry_equiv_pos_as_xyz
  1  'x, y, z'
loop_
 _atom_site_type_symbol
 _atom_site_label
 _atom_site_symmetry_multiplicity
 _atom_site_fract_x
 _atom_site_fract_y
 _atom_site_fract_z
 _atom_site_occupancy
  Tb  Tb0  1  0.533172  0.066376  0.792703  1
  Tb  Tb1  1  0.933621  0.466799  0.792704  1
  Tb  Tb2  1  0.533180  0.466811  0.792685  1
  Tb  Tb3  1  0.467033  0.934054  0.293383  1
  Tb  Tb4  1  0.065944  0.532971  0.293403  1
  Tb  Tb5  1  0.467024  0.532986  0.293383  1
  Er  Er6  1  0.177054  0.354134  0.997438  1
  Er  Er7  1  0.645857  0.822946  0.997414  1
  Er  Er8  1  0.177071  0.822918  0.997420  1
  Er  Er9  1  0.666658  0.333350  0.173450  1
  Er  Er10  1  0.333334  0.666662  0.673250  1
  Er  Er11  1  0.000039  0.999993  0.777910  1
  Er  Er12  1  0.999980  0.999990  0.278701  1
  Tm  Tm13  1  0.822691  0.645372  0.497316  1
  Tm  Tm14  1  0.354614  0.177300  0.497338  1
  Tm  Tm15  1  0.822683  0.177307  0.497358  1
  In  In16  1  0.837014  0.674036  0.043214  1
  In  In17  1  0.326059  0.163073  0.043292  1
  In  In18  1  0.836900  0.163054  0.043522  1
  In  In19  1  0.162775  0.325291  0.542910  1
  In  In20  1  0.674698  0.837347  0.542895  1
  In  In21  1  0.162618  0.837243  0.542823  1
  Os  Os22  1  0.666654  0.333325  0.565409  1
  Os  Os23  1  0.333322  0.666666  0.065985  1
