# generated using pymatgen
data_Tb3PaHg2Rh3
_symmetry_space_group_name_H-M   'P 1'
_cell_length_a   7.81559495
_cell_length_b   7.81559503
_cell_length_c   3.86518500
_cell_angle_alpha   90.00000000
_cell_angle_beta   90.00000000
_cell_angle_gamma   121.85080155
_symmetry_Int_Tables_number   1
_chemical_formula_structural   Tb3PaHg2Rh3
_chemical_formula_sum   'Tb3 Pa1 Hg2 Rh3'
_cell_volume   200.54853002
_cell_formula_units_Z   1
loop_
 _symmetry_equiv_pos_site_id
 _symmetry_equiv_pos_as_xyz
  1  'x, y, z'
loop_
 _atom_site_type_symbol
 _atom_site_label
 _atom_site_symmetry_multiplicity
 _atom_site_fract_x
 _atom_site_fract_y
 _atom_site_fract_z
 _atom_site_occupancy
  Tb  Tb0  1  0.962389  0.403393  0.500000  1
  Tb  Tb1  1  0.642471  0.642471  0.500000  1
  Tb  Tb2  1  0.403393  0.962389  0.500000  1
  Pa  Pa3  1  0.266961  0.266961  0.000000  1
  Hg  Hg4  1  0.013454  0.738415  0.000000  1
  Hg  Hg5  1  0.738415  0.013454  0.000000  1
  Rh  Rh6  1  0.324498  0.618833  0.000000  1
  Rh  Rh7  1  0.029589  0.029589  0.500000  1
  Rh  Rh8  1  0.618833  0.324498  0.000000  1
