# generated using pymatgen
data_CeTm11(Zn3C)4
_symmetry_space_group_name_H-M   'P 1'
_cell_length_a   9.03935276
_cell_length_b   9.03935280
_cell_length_c   9.05654200
_cell_angle_alpha   59.93707575
_cell_angle_beta   59.93707561
_cell_angle_gamma   60.08059585
_symmetry_Int_Tables_number   1
_chemical_formula_structural   CeTm11(Zn3C)4
_chemical_formula_sum   'Ce1 Tm11 Zn12 C4'
_cell_volume   523.08430993
_cell_formula_units_Z   1
loop_
 _symmetry_equiv_pos_site_id
 _symmetry_equiv_pos_as_xyz
  1  'x, y, z'
loop_
 _atom_site_type_symbol
 _atom_site_label
 _atom_site_symmetry_multiplicity
 _atom_site_fract_x
 _atom_site_fract_y
 _atom_site_fract_z
 _atom_site_occupancy
  Ce  Ce0  1  0.446757  0.446757  0.053243  1
  Tm  Tm1  1  0.052295  0.446554  0.053754  1
  Tm  Tm2  1  0.446554  0.052295  0.053754  1
  Tm  Tm3  1  0.054082  0.054082  0.445918  1
  Tm  Tm4  1  0.446554  0.052295  0.447396  1
  Tm  Tm5  1  0.052295  0.446554  0.447396  1
  Tm  Tm6  1  0.802929  0.802929  0.197071  1
  Tm  Tm7  1  0.195920  0.804804  0.196454  1
  Tm  Tm8  1  0.804804  0.195920  0.196454  1
  Tm  Tm9  1  0.196157  0.196157  0.803843  1
  Tm  Tm10  1  0.804804  0.195920  0.802821  1
  Tm  Tm11  1  0.195920  0.804804  0.802821  1
  Zn  Zn12  1  0.827188  0.827188  0.517309  1
  Zn  Zn13  1  0.829235  0.517967  0.826399  1
  Zn  Zn14  1  0.517967  0.829235  0.826399  1
  Zn  Zn15  1  0.827188  0.827188  0.828317  1
  Zn  Zn16  1  0.422523  0.422523  0.731169  1
  Zn  Zn17  1  0.421657  0.732575  0.422884  1
  Zn  Zn18  1  0.732575  0.421657  0.422884  1
  Zn  Zn19  1  0.422523  0.422523  0.423784  1
  Zn  Zn20  1  0.625971  0.625971  0.125264  1
  Zn  Zn21  1  0.625395  0.124746  0.624929  1
  Zn  Zn22  1  0.124746  0.625395  0.624929  1
  Zn  Zn23  1  0.625971  0.625971  0.622794  1
  C  C24  1  0.124569  0.124569  0.625944  1
  C  C25  1  0.123629  0.625222  0.125575  1
  C  C26  1  0.625222  0.123629  0.125575  1
  C  C27  1  0.124569  0.124569  0.124919  1
