# generated using pymatgen
data_Sc2Si4Ru2Rh
_symmetry_space_group_name_H-M   'P 1'
_cell_length_a   9.97530277
_cell_length_b   9.97254678
_cell_length_c   13.37326254
_cell_angle_alpha   53.76236015
_cell_angle_beta   53.75899670
_cell_angle_gamma   30.78440957
_symmetry_Int_Tables_number   1
_chemical_formula_structural   Sc2Si4Ru2Rh
_chemical_formula_sum   'Sc8 Si16 Ru8 Rh4'
_cell_volume   537.87988902
_cell_formula_units_Z   4
loop_
 _symmetry_equiv_pos_site_id
 _symmetry_equiv_pos_as_xyz
  1  'x, y, z'
loop_
 _atom_site_type_symbol
 _atom_site_label
 _atom_site_symmetry_multiplicity
 _atom_site_fract_x
 _atom_site_fract_y
 _atom_site_fract_z
 _atom_site_occupancy
  Sc  Sc0  1  0.293174  0.562404  0.645171  1
  Sc  Sc1  1  0.709560  0.962855  0.861068  1
  Sc  Sc2  1  0.292497  0.038243  0.138577  1
  Sc  Sc3  1  0.438494  0.706459  0.853080  1
  Sc  Sc4  1  0.037863  0.291506  0.637370  1
  Sc  Sc5  1  0.563644  0.288551  0.146556  1
  Sc  Sc6  1  0.961476  0.707333  0.362047  1
  Sc  Sc7  1  0.706784  0.440610  0.354777  1
  Si  Si8  1  0.023027  0.746854  0.108559  1
  Si  Si9  1  0.616030  0.854024  0.599519  1
  Si  Si10  1  0.967877  0.256434  0.892703  1
  Si  Si11  1  0.384019  0.615961  0.250619  1
  Si  Si12  1  0.386460  0.143468  0.399249  1
  Si  Si13  1  0.576713  0.078078  0.064563  1
  Si  Si14  1  0.146784  0.384517  0.900019  1
  Si  Si15  1  0.256781  0.968996  0.393196  1
  Si  Si16  1  0.079092  0.574996  0.564681  1
  Si  Si17  1  0.425588  0.921599  0.934841  1
  Si  Si18  1  0.125302  0.874697  0.749678  1
  Si  Si19  1  0.745588  0.030627  0.606103  1
  Si  Si20  1  0.871431  0.128294  0.251400  1
  Si  Si21  1  0.618482  0.381298  0.750139  1
  Si  Si22  1  0.918574  0.427885  0.433980  1
  Si  Si23  1  0.849554  0.619646  0.101998  1
  Ru  Ru24  1  0.511324  0.246559  0.431787  1
  Ru  Ru25  1  0.858110  0.102535  0.914716  1
  Ru  Ru26  1  0.645330  0.833678  0.282253  1
  Ru  Ru27  1  0.246165  0.511974  0.930844  1
  Ru  Ru28  1  0.752474  0.488634  0.068668  1
  Ru  Ru29  1  0.102816  0.856595  0.414792  1
  Ru  Ru30  1  0.896988  0.143649  0.584303  1
  Ru  Ru31  1  0.488553  0.753174  0.570699  1
  Rh  Rh32  1  0.142821  0.897208  0.084935  1
  Rh  Rh33  1  0.166812  0.354387  0.216238  1
  Rh  Rh34  1  0.357489  0.163744  0.717086  1
  Rh  Rh35  1  0.836323  0.642528  0.783785  1
