# generated using pymatgen
data_SF35
_symmetry_space_group_name_H-M   'P 1'
_cell_length_a   8.81111432
_cell_length_b   8.08098428
_cell_length_c   10.35976230
_cell_angle_alpha   80.95294664
_cell_angle_beta   88.96103140
_cell_angle_gamma   66.62156416
_symmetry_Int_Tables_number   1
_chemical_formula_structural   SF35
_chemical_formula_sum   'S1 F35'
_cell_volume   667.86255327
_cell_formula_units_Z   1
loop_
 _symmetry_equiv_pos_site_id
 _symmetry_equiv_pos_as_xyz
  1  'x, y, z'
loop_
 _atom_site_type_symbol
 _atom_site_label
 _atom_site_symmetry_multiplicity
 _atom_site_fract_x
 _atom_site_fract_y
 _atom_site_fract_z
 _atom_site_occupancy
  S  S0  1  0.867247  0.244596  0.764880  1
  F  F1  1  0.027573  0.797494  0.125859  1
  F  F2  1  0.615683  0.211362  0.483263  1
  F  F3  1  0.394024  0.780708  0.504438  1
  F  F4  1  0.808574  0.717387  0.742315  1
  F  F5  1  0.165539  0.329181  0.314747  1
  F  F6  1  0.126262  0.719129  0.874503  1
  F  F7  1  0.931340  0.206201  0.152416  1
  F  F8  1  0.560686  0.154519  0.375947  1
  F  F9  1  0.442680  0.849673  0.607863  1
  F  F10  1  0.679982  0.314656  0.709333  1
  F  F11  1  0.366704  0.673771  0.236526  1
  F  F12  1  0.923402  0.087617  0.676526  1
  F  F13  1  0.026135  0.876304  0.428311  1
  F  F14  1  0.900684  0.378701  0.648579  1
  F  F15  1  0.110493  0.682692  0.442710  1
  F  F16  1  0.828468  0.818502  0.622490  1
  F  F17  1  0.156876  0.163555  0.379673  1
  F  F18  1  0.811201  0.401276  0.854051  1
  F  F19  1  0.250269  0.541191  0.177412  1
  F  F20  1  0.214758  0.697760  0.757673  1
  F  F21  1  0.786341  0.302747  0.216962  1
  F  F22  1  0.849869  0.855226  0.123747  1
  F  F23  1  0.053601  0.175138  0.821206  1
  F  F24  1  0.832626  0.110285  0.880960  1
  F  F25  1  0.237318  0.881581  0.110424  1
  F  F26  1  0.499329  0.588792  0.972331  1
  F  F27  1  0.507542  0.407299  0.999843  1
  F  F28  1  0.426961  0.096352  0.874447  1
  F  F29  1  0.550968  0.922610  0.137607  1
  F  F30  1  0.284832  0.249709  0.605226  1
  F  F31  1  0.731988  0.728835  0.396902  1
  F  F32  1  0.259194  0.401448  0.670193  1
  F  F33  1  0.758972  0.586444  0.322010  1
  F  F34  1  0.552475  0.940640  0.832931  1
  F  F35  1  0.459408  0.106619  0.155698  1
