# generated using pymatgen
data_Ca4ZnSb3Pt4
_symmetry_space_group_name_H-M   'P 1'
_cell_length_a   4.60630400
_cell_length_b   7.35320138
_cell_length_c   7.88018947
_cell_angle_alpha   90.81959318
_cell_angle_beta   90.00000000
_cell_angle_gamma   90.00000000
_symmetry_Int_Tables_number   1
_chemical_formula_structural   Ca4ZnSb3Pt4
_chemical_formula_sum   'Ca4 Zn1 Sb3 Pt4'
_cell_volume   266.88322784
_cell_formula_units_Z   1
loop_
 _symmetry_equiv_pos_site_id
 _symmetry_equiv_pos_as_xyz
  1  'x, y, z'
loop_
 _atom_site_type_symbol
 _atom_site_label
 _atom_site_symmetry_multiplicity
 _atom_site_fract_x
 _atom_site_fract_y
 _atom_site_fract_z
 _atom_site_occupancy
  Ca  Ca0  1  0.750000  0.993456  0.691078  1
  Ca  Ca1  1  0.250000  0.014792  0.305987  1
  Ca  Ca2  1  0.750000  0.491748  0.800512  1
  Ca  Ca3  1  0.250000  0.500450  0.203918  1
  Zn  Zn4  1  0.750000  0.315552  0.409617  1
  Sb  Sb5  1  0.250000  0.186522  0.911830  1
  Sb  Sb6  1  0.250000  0.682707  0.585662  1
  Sb  Sb7  1  0.750000  0.811861  0.091466  1
  Pt  Pt8  1  0.250000  0.802444  0.913978  1
  Pt  Pt9  1  0.250000  0.303334  0.581997  1
  Pt  Pt10  1  0.750000  0.701291  0.414150  1
  Pt  Pt11  1  0.750000  0.195842  0.089805  1
