# generated using pymatgen
data_Sc5Pa(CoSn)6
_symmetry_space_group_name_H-M   'P 1'
_cell_length_a   7.32067100
_cell_length_b   7.19104072
_cell_length_c   7.19680800
_cell_angle_alpha   90.00000000
_cell_angle_beta   90.00000000
_cell_angle_gamma   120.58327064
_symmetry_Int_Tables_number   1
_chemical_formula_structural   Sc5Pa(CoSn)6
_chemical_formula_sum   'Sc5 Pa1 Co6 Sn6'
_cell_volume   326.15987388
_cell_formula_units_Z   1
loop_
 _symmetry_equiv_pos_site_id
 _symmetry_equiv_pos_as_xyz
  1  'x, y, z'
loop_
 _atom_site_type_symbol
 _atom_site_label
 _atom_site_symmetry_multiplicity
 _atom_site_fract_x
 _atom_site_fract_y
 _atom_site_fract_z
 _atom_site_occupancy
  Sc  Sc0  1  0.001043  0.404161  0.750000  1
  Sc  Sc1  1  0.597509  0.595093  0.750000  1
  Sc  Sc2  1  0.398956  0.999971  0.750000  1
  Sc  Sc3  1  0.999159  0.394245  0.250000  1
  Sc  Sc4  1  0.605555  0.605232  0.250000  1
  Pa  Pa5  1  0.414983  0.000233  0.250000  1
  Co  Co6  1  0.334226  0.684934  0.480913  1
  Co  Co7  1  0.649581  0.315535  0.483411  1
  Co  Co8  1  0.334226  0.684934  0.019087  1
  Co  Co9  1  0.007984  0.000112  0.750000  1
  Co  Co10  1  0.005316  0.000039  0.250000  1
  Co  Co11  1  0.649581  0.315535  0.016589  1
  Sn  Sn12  1  0.266667  0.277304  0.500768  1
  Sn  Sn13  1  0.989792  0.722931  0.500744  1
  Sn  Sn14  1  0.989792  0.722931  0.999256  1
  Sn  Sn15  1  0.744482  0.999754  0.512354  1
  Sn  Sn16  1  0.744482  0.999754  0.987646  1
  Sn  Sn17  1  0.266667  0.277304  0.999232  1
