# generated using pymatgen
data_Ti4Ge3MoC
_symmetry_space_group_name_H-M   'P 1'
_cell_length_a   7.55000400
_cell_length_b   7.55000377
_cell_length_c   5.25037500
_cell_angle_alpha   90.00000000
_cell_angle_beta   90.00000000
_cell_angle_gamma   120.00000100
_symmetry_Int_Tables_number   1
_chemical_formula_structural   Ti4Ge3MoC
_chemical_formula_sum   'Ti8 Ge6 Mo2 C2'
_cell_volume   259.18824499
_cell_formula_units_Z   2
loop_
 _symmetry_equiv_pos_site_id
 _symmetry_equiv_pos_as_xyz
  1  'x, y, z'
loop_
 _atom_site_type_symbol
 _atom_site_label
 _atom_site_symmetry_multiplicity
 _atom_site_fract_x
 _atom_site_fract_y
 _atom_site_fract_z
 _atom_site_occupancy
  Ti  Ti0  1  0.666667  0.333333  0.000000  1
  Ti  Ti1  1  0.333333  0.666667  0.500000  1
  Ti  Ti2  1  0.772931  0.000000  0.750000  1
  Ti  Ti3  1  0.772931  0.772931  0.250000  1
  Ti  Ti4  1  0.000000  0.227069  0.250000  1
  Ti  Ti5  1  0.000000  0.772931  0.750000  1
  Ti  Ti6  1  0.227069  0.227069  0.750000  1
  Ti  Ti7  1  0.227069  0.000000  0.250000  1
  Ge  Ge8  1  0.404247  0.000000  0.750000  1
  Ge  Ge9  1  0.404247  0.404247  0.250000  1
  Ge  Ge10  1  0.000000  0.595753  0.250000  1
  Ge  Ge11  1  0.000000  0.404247  0.750000  1
  Ge  Ge12  1  0.595753  0.595753  0.750000  1
  Ge  Ge13  1  0.595753  0.000000  0.250000  1
  Mo  Mo14  1  0.666667  0.333333  0.500000  1
  Mo  Mo15  1  0.333333  0.666667  0.000000  1
  C  C16  1  0.000000  0.000000  0.500000  1
  C  C17  1  0.000000  0.000000  0.000000  1
