# generated using pymatgen
data_Dy4Sn4Sb2Rh7
_symmetry_space_group_name_H-M   'P 1'
_cell_length_a   7.60740743
_cell_length_b   7.60957003
_cell_length_c   7.60740881
_cell_angle_alpha   109.54406625
_cell_angle_beta   109.31409857
_cell_angle_gamma   109.54406111
_symmetry_Int_Tables_number   1
_chemical_formula_structural   Dy4Sn4Sb2Rh7
_chemical_formula_sum   'Dy4 Sn4 Sb2 Rh7'
_cell_volume   339.05580984
_cell_formula_units_Z   1
loop_
 _symmetry_equiv_pos_site_id
 _symmetry_equiv_pos_as_xyz
  1  'x, y, z'
loop_
 _atom_site_type_symbol
 _atom_site_label
 _atom_site_symmetry_multiplicity
 _atom_site_fract_x
 _atom_site_fract_y
 _atom_site_fract_z
 _atom_site_occupancy
  Dy  Dy0  1  0.498831  0.997663  0.998831  1
  Dy  Dy1  1  0.998812  0.492508  0.998812  1
  Dy  Dy2  1  0.998831  0.997663  0.498831  1
  Dy  Dy3  1  0.493696  0.492508  0.493696  1
  Sn  Sn4  1  0.314375  0.994680  0.314375  1
  Sn  Sn5  1  0.997003  0.687033  0.690029  1
  Sn  Sn6  1  0.690029  0.687033  0.997003  1
  Sn  Sn7  1  0.680304  0.994680  0.680304  1
  Sb  Sb8  1  0.997613  0.319189  0.321576  1
  Sb  Sb9  1  0.321576  0.319189  0.997613  1
  Rh  Rh10  1  0.251250  0.502499  0.751250  1
  Rh  Rh11  1  0.501351  0.250542  0.749191  1
  Rh  Rh12  1  0.749191  0.250542  0.501351  1
  Rh  Rh13  1  0.501343  0.748488  0.247145  1
  Rh  Rh14  1  0.007397  0.014794  0.007397  1
  Rh  Rh15  1  0.247145  0.748488  0.501343  1
  Rh  Rh16  1  0.751250  0.502499  0.251250  1
