# generated using pymatgen
data_La3Ce(I3N)2
_symmetry_space_group_name_H-M   'P 1'
_cell_length_a   10.62909837
_cell_length_b   10.62909849
_cell_length_c   13.01822200
_cell_angle_alpha   125.94375560
_cell_angle_beta   125.94375607
_cell_angle_gamma   22.81557958
_symmetry_Int_Tables_number   1
_chemical_formula_structural   La3Ce(I3N)2
_chemical_formula_sum   'La3 Ce1 I6 N2'
_cell_volume   456.75527520
_cell_formula_units_Z   1
loop_
 _symmetry_equiv_pos_site_id
 _symmetry_equiv_pos_as_xyz
  1  'x, y, z'
loop_
 _atom_site_type_symbol
 _atom_site_label
 _atom_site_symmetry_multiplicity
 _atom_site_fract_x
 _atom_site_fract_y
 _atom_site_fract_z
 _atom_site_occupancy
  La  La0  1  0.429894  0.429894  0.037272  1
  La  La1  1  0.132357  0.132357  0.273916  1
  La  La2  1  0.869320  0.869320  0.725437  1
  Ce  Ce3  1  0.566210  0.566210  0.964905  1
  I  I4  1  0.214435  0.214435  0.123433  1
  I  I5  1  0.967275  0.967275  0.258036  1
  I  I6  1  0.332069  0.332069  0.495091  1
  I  I7  1  0.668572  0.668572  0.503962  1
  I  I8  1  0.034817  0.034817  0.749129  1
  I  I9  1  0.781615  0.781615  0.870631  1
  N  N10  1  0.570806  0.570806  0.141784  1
  N  N11  1  0.432633  0.432633  0.856404  1
