# generated using pymatgen
data_CaHo2Ga9Pd2
_symmetry_space_group_name_H-M   'P 1'
_cell_length_a   8.19041664
_cell_length_b   8.19041668
_cell_length_c   8.19041701
_cell_angle_alpha   149.33894597
_cell_angle_beta   108.96880060
_cell_angle_gamma   79.32415909
_symmetry_Int_Tables_number   1
_chemical_formula_structural   CaHo2Ga9Pd2
_chemical_formula_sum   'Ca1 Ho2 Ga9 Pd2'
_cell_volume   259.85323809
_cell_formula_units_Z   1
loop_
 _symmetry_equiv_pos_site_id
 _symmetry_equiv_pos_as_xyz
  1  'x, y, z'
loop_
 _atom_site_type_symbol
 _atom_site_label
 _atom_site_symmetry_multiplicity
 _atom_site_fract_x
 _atom_site_fract_y
 _atom_site_fract_z
 _atom_site_occupancy
  Ca  Ca0  1  0.500000  0.500000  0.000000  1
  Ho  Ho1  1  0.200647  0.200647  0.000000  1
  Ho  Ho2  1  0.799353  0.799353  0.000000  1
  Ga  Ga3  1  0.643124  0.360166  0.282958  1
  Ga  Ga4  1  0.356876  0.639834  0.717042  1
  Ga  Ga5  1  0.077208  0.360166  0.717042  1
  Ga  Ga6  1  0.922792  0.639834  0.282958  1
  Ga  Ga7  1  0.522581  0.156871  0.365709  1
  Ga  Ga8  1  0.477419  0.843129  0.634291  1
  Ga  Ga9  1  0.791162  0.156871  0.634291  1
  Ga  Ga10  1  0.208838  0.843129  0.365709  1
  Ga  Ga11  1  0.000000  0.500000  0.500000  1
  Pd  Pd12  1  0.180361  0.000000  0.180361  1
  Pd  Pd13  1  0.819639  0.000000  0.819639  1
