# generated using pymatgen
data_Tb2Mn2Fe10P7
_symmetry_space_group_name_H-M   'P 1'
_cell_length_a   9.02442900
_cell_length_b   9.03047950
_cell_length_c   3.64268600
_cell_angle_alpha   90.00000000
_cell_angle_beta   90.00000000
_cell_angle_gamma   119.98049266
_symmetry_Int_Tables_number   1
_chemical_formula_structural   Tb2Mn2Fe10P7
_chemical_formula_sum   'Tb2 Mn2 Fe10 P7'
_cell_volume   257.13917560
_cell_formula_units_Z   1
loop_
 _symmetry_equiv_pos_site_id
 _symmetry_equiv_pos_as_xyz
  1  'x, y, z'
loop_
 _atom_site_type_symbol
 _atom_site_label
 _atom_site_symmetry_multiplicity
 _atom_site_fract_x
 _atom_site_fract_y
 _atom_site_fract_z
 _atom_site_occupancy
  Tb  Tb0  1  0.669131  0.334602  0.000000  1
  Tb  Tb1  1  0.331827  0.666235  0.500000  1
  Mn  Mn2  1  0.781217  0.894282  0.500000  1
  Mn  Mn3  1  0.117324  0.217364  0.500000  1
  Fe  Fe4  1  0.056931  0.633956  0.000000  1
  Fe  Fe5  1  0.574710  0.943710  0.000000  1
  Fe  Fe6  1  0.367970  0.423959  0.000000  1
  Fe  Fe7  1  0.273087  0.119348  0.000000  1
  Fe  Fe8  1  0.845467  0.726376  0.000000  1
  Fe  Fe9  1  0.880161  0.152062  0.000000  1
  Fe  Fe10  1  0.433477  0.049746  0.500000  1
  Fe  Fe11  1  0.616764  0.566015  0.500000  1
  Fe  Fe12  1  0.950273  0.384795  0.500000  1
  Fe  Fe13  1  0.096957  0.884397  0.500000  1
  P  P14  1  0.300233  0.890133  0.000000  1
  P  P15  1  0.586284  0.696356  0.000000  1
  P  P16  1  0.108579  0.412770  0.000000  1
  P  P17  1  0.407796  0.290262  0.500000  1
  P  P18  1  0.891195  0.601724  0.500000  1
  P  P19  1  0.709822  0.114275  0.500000  1
  P  P20  1  0.000794  0.997632  0.000000  1
