# generated using pymatgen
data_Li2LaYb2AlGe3
_symmetry_space_group_name_H-M   'P 1'
_cell_length_a   7.29469942
_cell_length_b   7.19498868
_cell_length_c   4.39361500
_cell_angle_alpha   90.00000000
_cell_angle_beta   90.00000000
_cell_angle_gamma   120.76434555
_symmetry_Int_Tables_number   1
_chemical_formula_structural   Li2LaYb2AlGe3
_chemical_formula_sum   'Li2 La1 Yb2 Al1 Ge3'
_cell_volume   198.14968824
_cell_formula_units_Z   1
loop_
 _symmetry_equiv_pos_site_id
 _symmetry_equiv_pos_as_xyz
  1  'x, y, z'
loop_
 _atom_site_type_symbol
 _atom_site_label
 _atom_site_symmetry_multiplicity
 _atom_site_fract_x
 _atom_site_fract_y
 _atom_site_fract_z
 _atom_site_occupancy
  Li  Li0  1  0.240514  0.001281  0.500000  1
  Li  Li1  1  0.995586  0.232065  0.500000  1
  La  La2  1  0.007529  0.574585  0.000000  1
  Yb  Yb3  1  0.421723  0.421241  0.000000  1
  Yb  Yb4  1  0.576986  0.006382  0.000000  1
  Al  Al5  1  0.753313  0.754193  0.500000  1
  Ge  Ge6  1  0.352495  0.674922  0.500000  1
  Ge  Ge7  1  0.667367  0.344588  0.500000  1
  Ge  Ge8  1  0.984488  0.990744  0.000000  1
