# generated using pymatgen
data_TbRe2NiC
_symmetry_space_group_name_H-M   'P 1'
_cell_length_a   5.63184761
_cell_length_b   5.63184912
_cell_length_c   7.61486300
_cell_angle_alpha   90.00000000
_cell_angle_beta   90.00000000
_cell_angle_gamma   140.36338524
_symmetry_Int_Tables_number   1
_chemical_formula_structural   TbRe2NiC
_chemical_formula_sum   'Tb2 Re4 Ni2 C2'
_cell_volume   154.07340091
_cell_formula_units_Z   2
loop_
 _symmetry_equiv_pos_site_id
 _symmetry_equiv_pos_as_xyz
  1  'x, y, z'
loop_
 _atom_site_type_symbol
 _atom_site_label
 _atom_site_symmetry_multiplicity
 _atom_site_fract_x
 _atom_site_fract_y
 _atom_site_fract_z
 _atom_site_occupancy
  Tb  Tb0  1  0.531403  0.468597  0.250000  1
  Tb  Tb1  1  0.468597  0.531403  0.750000  1
  Re  Re2  1  0.821674  0.178326  0.065495  1
  Re  Re3  1  0.178326  0.821674  0.934505  1
  Re  Re4  1  0.178326  0.821674  0.565495  1
  Re  Re5  1  0.821674  0.178326  0.434505  1
  Ni  Ni6  1  0.252098  0.747902  0.250000  1
  Ni  Ni7  1  0.747902  0.252098  0.750000  1
  C  C8  1  0.000000  0.000000  0.000000  1
  C  C9  1  0.000000  0.000000  0.500000  1
