# generated using pymatgen
data_Ca10TcGeN10
_symmetry_space_group_name_H-M   'P 1'
_cell_length_a   6.87732419
_cell_length_b   6.87732365
_cell_length_c   8.86796968
_cell_angle_alpha   80.43056111
_cell_angle_beta   80.43055412
_cell_angle_gamma   59.90469292
_symmetry_Int_Tables_number   1
_chemical_formula_structural   Ca10TcGeN10
_chemical_formula_sum   'Ca10 Tc1 Ge1 N10'
_cell_volume   356.14846637
_cell_formula_units_Z   1
loop_
 _symmetry_equiv_pos_site_id
 _symmetry_equiv_pos_as_xyz
  1  'x, y, z'
loop_
 _atom_site_type_symbol
 _atom_site_label
 _atom_site_symmetry_multiplicity
 _atom_site_fract_x
 _atom_site_fract_y
 _atom_site_fract_z
 _atom_site_occupancy
  Ca  Ca0  1  0.879251  0.351639  0.831576  1
  Ca  Ca1  1  0.873948  0.873948  0.822106  1
  Ca  Ca2  1  0.737458  0.737458  0.537041  1
  Ca  Ca3  1  0.745031  0.250911  0.515968  1
  Ca  Ca4  1  0.628506  0.139267  0.144089  1
  Ca  Ca5  1  0.351639  0.879251  0.831576  1
  Ca  Ca6  1  0.250911  0.745031  0.515968  1
  Ca  Ca7  1  0.243535  0.243535  0.504241  1
  Ca  Ca8  1  0.143358  0.143358  0.155287  1
  Ca  Ca9  1  0.139267  0.628506  0.144089  1
  Tc  Tc10  1  0.631991  0.631991  0.228000  1
  Ge  Ge11  1  0.369403  0.369403  0.770144  1
  N  N12  1  0.908119  0.473698  0.316344  1
  N  N13  1  0.995943  0.995943  0.019880  1
  N  N14  1  0.676670  0.676670  0.021969  1
  N  N15  1  0.536707  0.536707  0.692742  1
  N  N16  1  0.473698  0.908119  0.316344  1
  N  N17  1  0.540614  0.080587  0.674791  1
  N  N18  1  0.473488  0.473488  0.296472  1
  N  N19  1  0.321270  0.321270  0.984158  1
  N  N20  1  0.060893  0.060893  0.648232  1
  N  N21  1  0.080587  0.540614  0.674791  1
