# generated using pymatgen
data_Yb12DyY7Sn16
_symmetry_space_group_name_H-M   'P 1'
_cell_length_a   7.84386800
_cell_length_b   8.45136400
_cell_length_c   16.07114300
_cell_angle_alpha   90.00118163
_cell_angle_beta   89.99931443
_cell_angle_gamma   89.99998592
_symmetry_Int_Tables_number   1
_chemical_formula_structural   Yb12DyY7Sn16
_chemical_formula_sum   'Yb12 Dy1 Y7 Sn16'
_cell_volume   1065.37830593
_cell_formula_units_Z   1
loop_
 _symmetry_equiv_pos_site_id
 _symmetry_equiv_pos_as_xyz
  1  'x, y, z'
loop_
 _atom_site_type_symbol
 _atom_site_label
 _atom_site_symmetry_multiplicity
 _atom_site_fract_x
 _atom_site_fract_y
 _atom_site_fract_z
 _atom_site_occupancy
  Yb  Yb0  1  0.505049  0.688739  0.592750  1
  Yb  Yb1  1  0.005063  0.811216  0.907253  1
  Yb  Yb2  1  0.494934  0.311224  0.092747  1
  Yb  Yb3  1  0.994950  0.188770  0.407265  1
  Yb  Yb4  1  0.494936  0.311221  0.407258  1
  Yb  Yb5  1  0.994935  0.188772  0.092749  1
  Yb  Yb6  1  0.505067  0.688767  0.907248  1
  Yb  Yb7  1  0.005036  0.811228  0.592757  1
  Yb  Yb8  1  0.835379  0.512376  0.749983  1
  Yb  Yb9  1  0.335332  0.987617  0.749991  1
  Yb  Yb10  1  0.164659  0.487595  0.250000  1
  Yb  Yb11  1  0.664658  0.012406  0.250004  1
  Dy  Dy12  1  0.172689  0.334054  0.622077  1
  Y  Y13  1  0.672790  0.165932  0.622058  1
  Y  Y14  1  0.172794  0.334066  0.877948  1
  Y  Y15  1  0.327225  0.834056  0.122072  1
  Y  Y16  1  0.827258  0.665918  0.377938  1
  Y  Y17  1  0.327241  0.834054  0.377932  1
  Y  Y18  1  0.827243  0.665950  0.122069  1
  Y  Y19  1  0.672751  0.165957  0.877930  1
  Sn  Sn20  1  0.671802  0.964516  0.459277  1
  Sn  Sn21  1  0.171803  0.535477  0.040727  1
  Sn  Sn22  1  0.328194  0.035477  0.959279  1
  Sn  Sn23  1  0.828262  0.464483  0.540756  1
  Sn  Sn24  1  0.328136  0.035681  0.540775  1
  Sn  Sn25  1  0.828206  0.464521  0.959271  1
  Sn  Sn26  1  0.671797  0.964524  0.040723  1
  Sn  Sn27  1  0.171821  0.535416  0.459320  1
  Sn  Sn28  1  0.471486  0.374882  0.749971  1
  Sn  Sn29  1  0.971672  0.125178  0.749904  1
  Sn  Sn30  1  0.528421  0.625081  0.250002  1
  Sn  Sn31  1  0.028417  0.874930  0.249996  1
  Sn  Sn32  1  0.717511  0.873454  0.750011  1
  Sn  Sn33  1  0.217497  0.626461  0.749962  1
  Sn  Sn34  1  0.282492  0.126549  0.249999  1
  Sn  Sn35  1  0.782494  0.373451  0.249997  1
