# generated using pymatgen
data_Er4Ga24CoPd8
_symmetry_space_group_name_H-M   'P 1'
_cell_length_a   7.44151510
_cell_length_b   7.48900940
_cell_length_c   13.40917013
_cell_angle_alpha   84.54593900
_cell_angle_beta   79.53936068
_cell_angle_gamma   60.74402945
_symmetry_Int_Tables_number   1
_chemical_formula_structural   Er4Ga24CoPd8
_chemical_formula_sum   'Er4 Ga24 Co1 Pd8'
_cell_volume   641.11403458
_cell_formula_units_Z   1
loop_
 _symmetry_equiv_pos_site_id
 _symmetry_equiv_pos_as_xyz
  1  'x, y, z'
loop_
 _atom_site_type_symbol
 _atom_site_label
 _atom_site_symmetry_multiplicity
 _atom_site_fract_x
 _atom_site_fract_y
 _atom_site_fract_z
 _atom_site_occupancy
  Er  Er0  1  0.400569  0.163987  0.812294  1
  Er  Er1  1  0.599431  0.836013  0.187706  1
  Er  Er2  1  0.726781  0.496940  0.813108  1
  Er  Er3  1  0.273219  0.503060  0.186892  1
  Ga  Ga4  1  0.696385  0.822181  0.942699  1
  Ga  Ga5  1  0.303615  0.177819  0.057301  1
  Ga  Ga6  1  0.144843  0.834421  0.558140  1
  Ga  Ga7  1  0.855157  0.165579  0.441860  1
  Ga  Ga8  1  0.478484  0.167805  0.556060  1
  Ga  Ga9  1  0.521516  0.832195  0.443940  1
  Ga  Ga10  1  0.219493  0.165984  0.321201  1
  Ga  Ga11  1  0.780507  0.834016  0.678799  1
  Ga  Ga12  1  0.433861  0.505102  0.677751  1
  Ga  Ga13  1  0.566139  0.494898  0.322249  1
  Ga  Ga14  1  0.106940  0.161106  0.676264  1
  Ga  Ga15  1  0.893060  0.838894  0.323736  1
  Ga  Ga16  1  0.345587  0.498141  0.943930  1
  Ga  Ga17  1  0.654413  0.501859  0.056070  1
  Ga  Ga18  1  0.018927  0.181814  0.947219  1
  Ga  Ga19  1  0.981073  0.818186  0.052781  1
  Ga  Ga20  1  0.187663  0.497156  0.444769  1
  Ga  Ga21  1  0.812337  0.502844  0.555231  1
  Ga  Ga22  1  0.735147  0.165068  0.180795  1
  Ga  Ga23  1  0.264853  0.834932  0.819205  1
  Ga  Ga24  1  0.059720  0.617740  0.823422  1
  Ga  Ga25  1  0.940280  0.382260  0.176578  1
  Ga  Ga26  1  0.859659  0.038146  0.818371  1
  Ga  Ga27  1  0.140341  0.961854  0.181629  1
  Co  Co28  1  0.000000  0.500000  0.000000  1
  Pd  Pd29  1  0.115079  0.496089  0.641280  1
  Pd  Pd30  1  0.884921  0.503911  0.358720  1
  Pd  Pd31  1  0.660246  0.168513  0.998973  1
  Pd  Pd32  1  0.339754  0.831487  0.001027  1
  Pd  Pd33  1  0.541204  0.165771  0.360109  1
  Pd  Pd34  1  0.458796  0.834229  0.639891  1
  Pd  Pd35  1  0.777745  0.175092  0.638299  1
  Pd  Pd36  1  0.222255  0.824908  0.361701  1
