# generated using pymatgen
data_La3Tb9Tc3Pt
_symmetry_space_group_name_H-M   'P 1'
_cell_length_a   6.48922791
_cell_length_b   7.37803122
_cell_length_c   9.45169900
_cell_angle_alpha   90.00000000
_cell_angle_beta   90.00000000
_cell_angle_gamma   89.99732486
_symmetry_Int_Tables_number   1
_chemical_formula_structural   La3Tb9Tc3Pt
_chemical_formula_sum   'La3 Tb9 Tc3 Pt1'
_cell_volume   452.52585519
_cell_formula_units_Z   1
loop_
 _symmetry_equiv_pos_site_id
 _symmetry_equiv_pos_as_xyz
  1  'x, y, z'
loop_
 _atom_site_type_symbol
 _atom_site_label
 _atom_site_symmetry_multiplicity
 _atom_site_fract_x
 _atom_site_fract_y
 _atom_site_fract_z
 _atom_site_occupancy
  La  La0  1  0.627061  0.056115  0.250000  1
  La  La1  1  0.370132  0.946444  0.750000  1
  La  La2  1  0.128226  0.450415  0.750000  1
  Tb  Tb3  1  0.869336  0.538120  0.250000  1
  Tb  Tb4  1  0.163722  0.180126  0.061551  1
  Tb  Tb5  1  0.828667  0.823680  0.932383  1
  Tb  Tb6  1  0.666926  0.325832  0.934609  1
  Tb  Tb7  1  0.828667  0.823680  0.567617  1
  Tb  Tb8  1  0.335860  0.669991  0.065911  1
  Tb  Tb9  1  0.163722  0.180126  0.438449  1
  Tb  Tb10  1  0.335860  0.669991  0.434089  1
  Tb  Tb11  1  0.666926  0.325832  0.565391  1
  Tc  Tc12  1  0.463637  0.376692  0.250000  1
  Tc  Tc13  1  0.526661  0.624374  0.750000  1
  Tc  Tc14  1  0.969376  0.124270  0.750000  1
  Pt  Pt15  1  0.055222  0.884311  0.250000  1
