# generated using pymatgen
data_Eu10Si5Rh
_symmetry_space_group_name_H-M   'P 1'
_cell_length_a   9.31242566
_cell_length_b   9.31242572
_cell_length_c   9.31690554
_cell_angle_alpha   130.25585852
_cell_angle_beta   130.25585979
_cell_angle_gamma   72.96080480
_symmetry_Int_Tables_number   1
_chemical_formula_structural   Eu10Si5Rh
_chemical_formula_sum   'Eu10 Si5 Rh1'
_cell_volume   459.69630611
_cell_formula_units_Z   1
loop_
 _symmetry_equiv_pos_site_id
 _symmetry_equiv_pos_as_xyz
  1  'x, y, z'
loop_
 _atom_site_type_symbol
 _atom_site_label
 _atom_site_symmetry_multiplicity
 _atom_site_fract_x
 _atom_site_fract_y
 _atom_site_fract_z
 _atom_site_occupancy
  Eu  Eu0  1  0.537166  0.037166  0.859934  1
  Eu  Eu1  1  0.178506  0.678506  0.143616  1
  Eu  Eu2  1  0.032982  0.178970  0.498442  1
  Eu  Eu3  1  0.678970  0.532982  0.498442  1
  Eu  Eu4  1  0.465110  0.965110  0.143616  1
  Eu  Eu5  1  0.822766  0.322766  0.859934  1
  Eu  Eu6  1  0.965460  0.819473  0.498442  1
  Eu  Eu7  1  0.319473  0.465460  0.498442  1
  Eu  Eu8  1  0.503398  0.498591  0.001989  1
  Eu  Eu9  1  0.998591  0.003398  0.001989  1
  Si  Si10  1  0.109570  0.609570  0.719140  1
  Si  Si11  1  0.389279  0.109772  0.499051  1
  Si  Si12  1  0.609772  0.889279  0.499051  1
  Si  Si13  1  0.249334  0.249334  0.998668  1
  Si  Si14  1  0.749334  0.749334  0.998668  1
  Rh  Rh15  1  0.890287  0.390287  0.280574  1
