# generated using pymatgen
data_ScPdI18
_symmetry_space_group_name_H-M   'P 1'
_cell_length_a   10.45489096
_cell_length_b   10.17414083
_cell_length_c   10.10062699
_cell_angle_alpha   88.60470259
_cell_angle_beta   86.73404013
_cell_angle_gamma   88.92838349
_symmetry_Int_Tables_number   1
_chemical_formula_structural   ScPdI18
_chemical_formula_sum   'Sc1 Pd1 I18'
_cell_volume   1072.17455160
_cell_formula_units_Z   1
loop_
 _symmetry_equiv_pos_site_id
 _symmetry_equiv_pos_as_xyz
  1  'x, y, z'
loop_
 _atom_site_type_symbol
 _atom_site_label
 _atom_site_symmetry_multiplicity
 _atom_site_fract_x
 _atom_site_fract_y
 _atom_site_fract_z
 _atom_site_occupancy
  Sc  Sc0  1  0.000000  0.000000  0.000000  1
  Pd  Pd1  1  0.500000  0.500000  0.500000  1
  I  I2  1  0.778155  0.473017  0.502440  1
  I  I3  1  0.501314  0.765225  0.477212  1
  I  I4  1  0.468042  0.499525  0.769553  1
  I  I5  1  0.221845  0.526983  0.497560  1
  I  I6  1  0.498686  0.234775  0.522788  1
  I  I7  1  0.531958  0.500475  0.230447  1
  I  I8  1  0.891015  0.377900  0.738474  1
  I  I9  1  0.744465  0.877638  0.380040  1
  I  I10  1  0.371374  0.744977  0.884660  1
  I  I11  1  0.108985  0.622100  0.261526  1
  I  I12  1  0.255535  0.122362  0.619960  1
  I  I13  1  0.628626  0.255023  0.115340  1
  I  I14  1  0.028292  0.970374  0.713975  1
  I  I15  1  0.722471  0.019616  0.971809  1
  I  I16  1  0.967487  0.719290  0.023207  1
  I  I17  1  0.971708  0.029626  0.286025  1
  I  I18  1  0.277529  0.980384  0.028191  1
  I  I19  1  0.032513  0.280710  0.976793  1
