# generated using pymatgen
data_Ce2MoC2
_symmetry_space_group_name_H-M   'P 1'
_cell_length_a   5.65460100
_cell_length_b   5.65460100
_cell_length_c   10.40968200
_cell_angle_alpha   90.00000000
_cell_angle_beta   90.00000000
_cell_angle_gamma   90.00000000
_symmetry_Int_Tables_number   1
_chemical_formula_structural   Ce2MoC2
_chemical_formula_sum   'Ce8 Mo4 C8'
_cell_volume   332.84450691
_cell_formula_units_Z   4
loop_
 _symmetry_equiv_pos_site_id
 _symmetry_equiv_pos_as_xyz
  1  'x, y, z'
loop_
 _atom_site_type_symbol
 _atom_site_label
 _atom_site_symmetry_multiplicity
 _atom_site_fract_x
 _atom_site_fract_y
 _atom_site_fract_z
 _atom_site_occupancy
  Ce  Ce0  1  0.183858  0.183858  0.345321  1
  Ce  Ce1  1  0.316142  0.683858  0.845321  1
  Ce  Ce2  1  0.683858  0.316142  0.845321  1
  Ce  Ce3  1  0.683858  0.316142  0.154679  1
  Ce  Ce4  1  0.316142  0.683858  0.154679  1
  Ce  Ce5  1  0.183858  0.183858  0.654679  1
  Ce  Ce6  1  0.816142  0.816142  0.345321  1
  Ce  Ce7  1  0.816142  0.816142  0.654679  1
  Mo  Mo8  1  0.321078  0.678922  0.500000  1
  Mo  Mo9  1  0.821078  0.821078  0.000000  1
  Mo  Mo10  1  0.178922  0.178922  0.000000  1
  Mo  Mo11  1  0.678922  0.321078  0.500000  1
  C  C12  1  0.000000  0.000000  0.147259  1
  C  C13  1  0.500000  0.500000  0.647259  1
  C  C14  1  0.500000  0.000000  0.500000  1
  C  C15  1  0.500000  0.500000  0.352741  1
  C  C16  1  0.000000  0.000000  0.852741  1
  C  C17  1  0.500000  0.000000  0.000000  1
  C  C18  1  0.000000  0.500000  0.000000  1
  C  C19  1  0.000000  0.500000  0.500000  1
