# generated using pymatgen
data_Mn(CrTe2)3
_symmetry_space_group_name_H-M   'P 1'
_cell_length_a   6.93155100
_cell_length_b   6.93155103
_cell_length_c   12.35169100
_cell_angle_alpha   90.00000000
_cell_angle_beta   90.00000000
_cell_angle_gamma   120.00000463
_symmetry_Int_Tables_number   1
_chemical_formula_structural   Mn(CrTe2)3
_chemical_formula_sum   'Mn2 Cr6 Te12'
_cell_volume   513.94645849
_cell_formula_units_Z   2
loop_
 _symmetry_equiv_pos_site_id
 _symmetry_equiv_pos_as_xyz
  1  'x, y, z'
loop_
 _atom_site_type_symbol
 _atom_site_label
 _atom_site_symmetry_multiplicity
 _atom_site_fract_x
 _atom_site_fract_y
 _atom_site_fract_z
 _atom_site_occupancy
  Mn  Mn0  1  0.333333  0.666667  0.250000  1
  Mn  Mn1  1  0.666667  0.333333  0.750000  1
  Cr  Cr2  1  0.000000  0.000000  0.000000  1
  Cr  Cr3  1  0.000000  0.000000  0.500000  1
  Cr  Cr4  1  0.333333  0.666667  0.994622  1
  Cr  Cr5  1  0.333333  0.666667  0.505378  1
  Cr  Cr6  1  0.666667  0.333333  0.005378  1
  Cr  Cr7  1  0.666667  0.333333  0.494622  1
  Te  Te8  1  0.329819  0.996955  0.379466  1
  Te  Te9  1  0.003045  0.332864  0.379466  1
  Te  Te10  1  0.667136  0.670181  0.379466  1
  Te  Te11  1  0.003045  0.670181  0.120534  1
  Te  Te12  1  0.667136  0.996955  0.120534  1
  Te  Te13  1  0.329819  0.332864  0.120534  1
  Te  Te14  1  0.670181  0.003045  0.620534  1
  Te  Te15  1  0.996955  0.667136  0.620534  1
  Te  Te16  1  0.332864  0.329819  0.620534  1
  Te  Te17  1  0.996955  0.329819  0.879466  1
  Te  Te18  1  0.332864  0.003045  0.879466  1
  Te  Te19  1  0.670181  0.667136  0.879466  1
