# generated using pymatgen
data_HfPa2FeO8
_symmetry_space_group_name_H-M   'P 1'
_cell_length_a   5.24864000
_cell_length_b   5.36132873
_cell_length_c   5.36359300
_cell_angle_alpha   90.00000000
_cell_angle_beta   90.00000000
_cell_angle_gamma   87.09118680
_symmetry_Int_Tables_number   1
_chemical_formula_structural   HfPa2FeO8
_chemical_formula_sum   'Hf1 Pa2 Fe1 O8'
_cell_volume   150.73535097
_cell_formula_units_Z   1
loop_
 _symmetry_equiv_pos_site_id
 _symmetry_equiv_pos_as_xyz
  1  'x, y, z'
loop_
 _atom_site_type_symbol
 _atom_site_label
 _atom_site_symmetry_multiplicity
 _atom_site_fract_x
 _atom_site_fract_y
 _atom_site_fract_z
 _atom_site_occupancy
  Hf  Hf0  1  0.500000  0.750000  0.292085  1
  Pa  Pa1  1  0.000000  0.250000  0.239647  1
  Pa  Pa2  1  0.000000  0.750000  0.758668  1
  Fe  Fe3  1  0.500000  0.250000  0.725166  1
  O  O4  1  0.750866  0.567543  0.051332  1
  O  O5  1  0.249134  0.932457  0.051332  1
  O  O6  1  0.223865  0.438262  0.953019  1
  O  O7  1  0.776135  0.061738  0.953019  1
  O  O8  1  0.759559  0.975241  0.452898  1
  O  O9  1  0.240441  0.524759  0.452898  1
  O  O10  1  0.255232  0.008336  0.534970  1
  O  O11  1  0.744768  0.491664  0.534970  1
