# generated using pymatgen
data_HfZr3Sb4(OsPt)2
_symmetry_space_group_name_H-M   'P 1'
_cell_length_a   6.39211566
_cell_length_b   6.39191027
_cell_length_c   7.81607604
_cell_angle_alpha   65.87730442
_cell_angle_beta   65.86372784
_cell_angle_gamma   90.00000318
_symmetry_Int_Tables_number   1
_chemical_formula_structural   HfZr3Sb4(OsPt)2
_chemical_formula_sum   'Hf1 Zr3 Sb4 Os2 Pt2'
_cell_volume   260.57005297
_cell_formula_units_Z   1
loop_
 _symmetry_equiv_pos_site_id
 _symmetry_equiv_pos_as_xyz
  1  'x, y, z'
loop_
 _atom_site_type_symbol
 _atom_site_label
 _atom_site_symmetry_multiplicity
 _atom_site_fract_x
 _atom_site_fract_y
 _atom_site_fract_z
 _atom_site_occupancy
  Hf  Hf0  1  0.373595  0.875000  0.750001  1
  Zr  Zr1  1  0.625168  0.626415  0.250006  1
  Zr  Zr2  1  0.125175  0.123585  0.249994  1
  Zr  Zr3  1  0.876649  0.375000  0.749999  1
  Sb  Sb4  1  0.125162  0.635035  0.249579  1
  Sb  Sb5  1  0.624740  0.114966  0.250421  1
  Sb  Sb6  1  0.885493  0.875001  0.749999  1
  Sb  Sb7  1  0.364973  0.375001  0.750001  1
  Os  Os8  1  0.001675  0.999487  0.998857  1
  Os  Os9  1  0.250532  0.750513  0.501142  1
  Pt  Pt10  1  0.499183  0.502353  0.998474  1
  Pt  Pt11  1  0.747658  0.247647  0.501525  1
