# generated using pymatgen
data_K12Li3Si16Ag
_symmetry_space_group_name_H-M   'P 1'
_cell_length_a   7.66504552
_cell_length_b   9.78491166
_cell_length_c   12.30215958
_cell_angle_alpha   90.21144169
_cell_angle_beta   89.89033609
_cell_angle_gamma   90.00535564
_symmetry_Int_Tables_number   1
_chemical_formula_structural   K12Li3Si16Ag
_chemical_formula_sum   'K12 Li3 Si16 Ag1'
_cell_volume   922.67605339
_cell_formula_units_Z   1
loop_
 _symmetry_equiv_pos_site_id
 _symmetry_equiv_pos_as_xyz
  1  'x, y, z'
loop_
 _atom_site_type_symbol
 _atom_site_label
 _atom_site_symmetry_multiplicity
 _atom_site_fract_x
 _atom_site_fract_y
 _atom_site_fract_z
 _atom_site_occupancy
  K  K0  1  0.655431  0.250035  0.399576  1
  K  K1  1  0.156239  0.251006  0.100796  1
  K  K2  1  0.344569  0.749965  0.600424  1
  K  K3  1  0.843761  0.748994  0.899204  1
  K  K4  1  0.654252  0.445969  0.694183  1
  K  K5  1  0.154221  0.054877  0.805557  1
  K  K6  1  0.345431  0.945244  0.306577  1
  K  K7  1  0.844059  0.554294  0.193885  1
  K  K8  1  0.345748  0.554031  0.305817  1
  K  K9  1  0.845779  0.945123  0.194443  1
  K  K10  1  0.654569  0.054756  0.693423  1
  K  K11  1  0.155941  0.445706  0.806115  1
  Li  Li12  1  0.000000  0.000000  0.500000  1
  Li  Li13  1  0.500000  0.000000  0.000000  1
  Li  Li14  1  0.000000  0.500000  0.500000  1
  Si  Si15  1  0.359424  0.753529  0.898004  1
  Si  Si16  1  0.861668  0.750397  0.600412  1
  Si  Si17  1  0.640576  0.246471  0.101996  1
  Si  Si18  1  0.138332  0.249603  0.399588  1
  Si  Si19  1  0.715424  0.628308  0.451975  1
  Si  Si20  1  0.216257  0.870755  0.048626  1
  Si  Si21  1  0.284430  0.128491  0.547820  1
  Si  Si22  1  0.789140  0.372518  0.953471  1
  Si  Si23  1  0.011418  0.250220  0.583199  1
  Si  Si24  1  0.509660  0.248515  0.917230  1
  Si  Si25  1  0.988582  0.749780  0.416801  1
  Si  Si26  1  0.490340  0.751485  0.082770  1
  Si  Si27  1  0.210860  0.627482  0.046529  1
  Si  Si28  1  0.715570  0.871509  0.452180  1
  Si  Si29  1  0.783743  0.129245  0.951374  1
  Si  Si30  1  0.284576  0.371692  0.548025  1
  Ag  Ag31  1  0.500000  0.500000  0.000000  1
