# generated using pymatgen
data_ErTm2Zr(NiAs)4
_symmetry_space_group_name_H-M   'P 1'
_cell_length_a   4.00899600
_cell_length_b   4.00899654
_cell_length_c   14.98853500
_cell_angle_alpha   90.00000000
_cell_angle_beta   90.00000000
_cell_angle_gamma   119.99999557
_symmetry_Int_Tables_number   1
_chemical_formula_structural   ErTm2Zr(NiAs)4
_chemical_formula_sum   'Er1 Tm2 Zr1 Ni4 As4'
_cell_volume   208.62249814
_cell_formula_units_Z   1
loop_
 _symmetry_equiv_pos_site_id
 _symmetry_equiv_pos_as_xyz
  1  'x, y, z'
loop_
 _atom_site_type_symbol
 _atom_site_label
 _atom_site_symmetry_multiplicity
 _atom_site_fract_x
 _atom_site_fract_y
 _atom_site_fract_z
 _atom_site_occupancy
  Er  Er0  1  0.000000  0.000000  0.005738  1
  Tm  Tm1  1  0.000000  0.000000  0.749672  1
  Tm  Tm2  1  0.000000  0.000000  0.494667  1
  Zr  Zr3  1  0.000000  0.000000  0.250502  1
  Ni  Ni4  1  0.333333  0.666667  0.157827  1
  Ni  Ni5  1  0.666667  0.333333  0.870769  1
  Ni  Ni6  1  0.666667  0.333333  0.627537  1
  Ni  Ni7  1  0.333333  0.666667  0.342838  1
  As  As8  1  0.333333  0.666667  0.618202  1
  As  As9  1  0.666667  0.333333  0.378598  1
  As  As10  1  0.666667  0.333333  0.122449  1
  As  As11  1  0.333333  0.666667  0.881200  1
