# generated using pymatgen
data_Tb9Nd7Cd3AgPt4
_symmetry_space_group_name_H-M   'P 1'
_cell_length_a   9.79434761
_cell_length_b   9.79438670
_cell_length_c   9.79632977
_cell_angle_alpha   60.27241944
_cell_angle_beta   60.27015229
_cell_angle_gamma   60.42958659
_symmetry_Int_Tables_number   1
_chemical_formula_structural   Tb9Nd7Cd3AgPt4
_chemical_formula_sum   'Tb9 Nd7 Cd3 Ag1 Pt4'
_cell_volume   669.37820175
_cell_formula_units_Z   1
loop_
 _symmetry_equiv_pos_site_id
 _symmetry_equiv_pos_as_xyz
  1  'x, y, z'
loop_
 _atom_site_type_symbol
 _atom_site_label
 _atom_site_symmetry_multiplicity
 _atom_site_fract_x
 _atom_site_fract_y
 _atom_site_fract_z
 _atom_site_occupancy
  Tb  Tb0  1  0.349356  0.349378  0.350614  1
  Tb  Tb1  1  0.352606  0.352589  0.942899  1
  Tb  Tb2  1  0.350189  0.945454  0.353391  1
  Tb  Tb3  1  0.945435  0.350191  0.353415  1
  Tb  Tb4  1  0.812259  0.191336  0.188494  1
  Tb  Tb5  1  0.189131  0.811213  0.810228  1
  Tb  Tb6  1  0.191335  0.812265  0.188464  1
  Tb  Tb7  1  0.811227  0.189115  0.810238  1
  Tb  Tb8  1  0.189103  0.189076  0.812626  1
  Nd  Nd9  1  0.811331  0.811344  0.187619  1
  Nd  Nd10  1  0.937498  0.560845  0.562870  1
  Nd  Nd11  1  0.559329  0.938532  0.937304  1
  Nd  Nd12  1  0.560856  0.937475  0.562894  1
  Nd  Nd13  1  0.938530  0.559353  0.937313  1
  Nd  Nd14  1  0.561337  0.561336  0.935971  1
  Nd  Nd15  1  0.937187  0.937185  0.560797  1
  Cd  Cd16  1  0.579985  0.579994  0.260693  1
  Cd  Cd17  1  0.580777  0.260563  0.580549  1
  Cd  Cd18  1  0.260575  0.580782  0.580543  1
  Ag  Ag19  1  0.581327  0.581335  0.583664  1
  Pt  Pt20  1  0.143746  0.143730  0.144703  1
  Pt  Pt21  1  0.141874  0.141883  0.572038  1
  Pt  Pt22  1  0.147085  0.567924  0.141338  1
  Pt  Pt23  1  0.567922  0.147105  0.141338  1
