# generated using pymatgen
data_Er2ThCo5(Ni3B2)2
_symmetry_space_group_name_H-M   'P 1'
_cell_length_a   4.99054083
_cell_length_b   4.99054102
_cell_length_c   9.95474400
_cell_angle_alpha   90.00000000
_cell_angle_beta   90.00000000
_cell_angle_gamma   119.82486507
_symmetry_Int_Tables_number   1
_chemical_formula_structural   Er2ThCo5(Ni3B2)2
_chemical_formula_sum   'Er2 Th1 Co5 Ni6 B4'
_cell_volume   215.08974315
_cell_formula_units_Z   1
loop_
 _symmetry_equiv_pos_site_id
 _symmetry_equiv_pos_as_xyz
  1  'x, y, z'
loop_
 _atom_site_type_symbol
 _atom_site_label
 _atom_site_symmetry_multiplicity
 _atom_site_fract_x
 _atom_site_fract_y
 _atom_site_fract_z
 _atom_site_occupancy
  Er  Er0  1  0.000000  0.000000  0.653377  1
  Er  Er1  1  0.000000  0.000000  0.346089  1
  Th  Th2  1  0.000000  0.000000  0.006798  1
  Co  Co3  1  0.500000  0.500000  0.501119  1
  Co  Co4  1  0.500000  0.000000  0.499796  1
  Co  Co5  1  0.000000  0.500000  0.499796  1
  Co  Co6  1  0.500000  0.000000  0.208530  1
  Co  Co7  1  0.000000  0.500000  0.208530  1
  Ni  Ni8  1  0.669311  0.330689  0.999905  1
  Ni  Ni9  1  0.330689  0.669311  0.999905  1
  Ni  Ni10  1  0.500000  0.500000  0.792516  1
  Ni  Ni11  1  0.500000  0.000000  0.792317  1
  Ni  Ni12  1  0.000000  0.500000  0.792317  1
  Ni  Ni13  1  0.500000  0.500000  0.205606  1
  B  B14  1  0.667111  0.332889  0.646599  1
  B  B15  1  0.332889  0.667111  0.646599  1
  B  B16  1  0.332142  0.667858  0.350101  1
  B  B17  1  0.667858  0.332142  0.350101  1
