# generated using pymatgen
data_Ho4Er8Ga2Ni3Os
_symmetry_space_group_name_H-M   'P 1'
_cell_length_a   8.27803047
_cell_length_b   8.27803036
_cell_length_c   8.27803130
_cell_angle_alpha   112.68078610
_cell_angle_beta   109.60848118
_cell_angle_gamma   106.18934174
_symmetry_Int_Tables_number   1
_chemical_formula_structural   Ho4Er8Ga2Ni3Os
_chemical_formula_sum   'Ho4 Er8 Ga2 Ni3 Os1'
_cell_volume   435.27601682
_cell_formula_units_Z   1
loop_
 _symmetry_equiv_pos_site_id
 _symmetry_equiv_pos_as_xyz
  1  'x, y, z'
loop_
 _atom_site_type_symbol
 _atom_site_label
 _atom_site_symmetry_multiplicity
 _atom_site_fract_x
 _atom_site_fract_y
 _atom_site_fract_z
 _atom_site_occupancy
  Ho  Ho0  1  0.054266  0.747491  0.306775  1
  Ho  Ho1  1  0.960957  0.266142  0.694816  1
  Ho  Ho2  1  0.559284  0.252509  0.306775  1
  Ho  Ho3  1  0.428674  0.733858  0.694816  1
  Er  Er4  1  0.674780  0.863264  0.192681  1
  Er  Er5  1  0.329418  0.517900  0.192681  1
  Er  Er6  1  0.329418  0.136736  0.811517  1
  Er  Er7  1  0.674780  0.482100  0.811517  1
  Er  Er8  1  0.174080  0.222486  0.396568  1
  Er  Er9  1  0.814884  0.222363  0.037247  1
  Er  Er10  1  0.174080  0.777514  0.951594  1
  Er  Er11  1  0.814884  0.777637  0.592521  1
  Ga  Ga12  1  0.987850  0.500000  0.487850  1
  Ga  Ga13  1  0.505558  0.000000  0.505558  1
  Ni  Ni14  1  0.348693  0.500000  0.848693  1
  Ni  Ni15  1  0.882282  0.881959  0.000322  1
  Ni  Ni16  1  0.118363  0.118041  0.000322  1
  Os  Os17  1  0.667747  0.500000  0.167747  1
