# generated using pymatgen
data_Li2YEr5(Co4P3)4
_symmetry_space_group_name_H-M   'P 1'
_cell_length_a   3.70252300
_cell_length_b   10.55211400
_cell_length_c   12.14941400
_cell_angle_alpha   90.00000000
_cell_angle_beta   90.00000000
_cell_angle_gamma   90.00000000
_symmetry_Int_Tables_number   1
_chemical_formula_structural   Li2YEr5(Co4P3)4
_chemical_formula_sum   'Li2 Y1 Er5 Co16 P12'
_cell_volume   474.67085943
_cell_formula_units_Z   1
loop_
 _symmetry_equiv_pos_site_id
 _symmetry_equiv_pos_as_xyz
  1  'x, y, z'
loop_
 _atom_site_type_symbol
 _atom_site_label
 _atom_site_symmetry_multiplicity
 _atom_site_fract_x
 _atom_site_fract_y
 _atom_site_fract_z
 _atom_site_occupancy
  Li  Li0  1  0.250000  0.250000  0.846879  1
  Li  Li1  1  0.750000  0.750000  0.153377  1
  Y  Y2  1  0.750000  0.250000  0.476753  1
  Er  Er3  1  0.250000  0.750000  0.523209  1
  Er  Er4  1  0.250000  0.929974  0.794056  1
  Er  Er5  1  0.250000  0.570026  0.794056  1
  Er  Er6  1  0.750000  0.070041  0.205787  1
  Er  Er7  1  0.750000  0.429959  0.205787  1
  Co  Co8  1  0.250000  0.250000  0.295008  1
  Co  Co9  1  0.750000  0.750000  0.703910  1
  Co  Co10  1  0.750000  0.250000  0.012734  1
  Co  Co11  1  0.250000  0.750000  0.987255  1
  Co  Co12  1  0.250000  0.417224  0.003050  1
  Co  Co13  1  0.250000  0.082776  0.003050  1
  Co  Co14  1  0.750000  0.582721  0.996941  1
  Co  Co15  1  0.750000  0.917279  0.996941  1
  Co  Co16  1  0.250000  0.453972  0.569007  1
  Co  Co17  1  0.250000  0.046028  0.569007  1
  Co  Co18  1  0.750000  0.547093  0.431178  1
  Co  Co19  1  0.750000  0.952907  0.431178  1
  Co  Co20  1  0.250000  0.871756  0.293500  1
  Co  Co21  1  0.250000  0.628244  0.293500  1
  Co  Co22  1  0.750000  0.127940  0.706820  1
  Co  Co23  1  0.750000  0.372060  0.706820  1
  P  P24  1  0.250000  0.250000  0.115005  1
  P  P25  1  0.750000  0.750000  0.884640  1
  P  P26  1  0.250000  0.250000  0.654198  1
  P  P27  1  0.750000  0.750000  0.346829  1
  P  P28  1  0.250000  0.440248  0.383467  1
  P  P29  1  0.250000  0.059752  0.383467  1
  P  P30  1  0.750000  0.560561  0.616239  1
  P  P31  1  0.750000  0.939439  0.616239  1
  P  P32  1  0.250000  0.907075  0.107209  1
  P  P33  1  0.250000  0.592925  0.107209  1
  P  P34  1  0.750000  0.092899  0.892846  1
  P  P35  1  0.750000  0.407101  0.892846  1
