# generated using pymatgen
data_YU3(TcB4)4
_symmetry_space_group_name_H-M   'P 1'
_cell_length_a   3.61020400
_cell_length_b   5.93722915
_cell_length_c   11.48753202
_cell_angle_alpha   89.92083006
_cell_angle_beta   90.00000000
_cell_angle_gamma   90.00000000
_symmetry_Int_Tables_number   1
_chemical_formula_structural   YU3(TcB4)4
_chemical_formula_sum   'Y1 U3 Tc4 B16'
_cell_volume   246.23051545
_cell_formula_units_Z   1
loop_
 _symmetry_equiv_pos_site_id
 _symmetry_equiv_pos_as_xyz
  1  'x, y, z'
loop_
 _atom_site_type_symbol
 _atom_site_label
 _atom_site_symmetry_multiplicity
 _atom_site_fract_x
 _atom_site_fract_y
 _atom_site_fract_z
 _atom_site_occupancy
  Y  Y0  1  0.500000  0.872535  0.350508  1
  U  U1  1  0.500000  0.372897  0.150009  1
  U  U2  1  0.500000  0.627954  0.849810  1
  U  U3  1  0.500000  0.127845  0.650421  1
  Tc  Tc4  1  0.500000  0.362147  0.410183  1
  Tc  Tc5  1  0.500000  0.637206  0.595910  1
  Tc  Tc6  1  0.500000  0.140115  0.904769  1
  Tc  Tc7  1  0.500000  0.860147  0.090018  1
  B  B8  1  0.000000  0.113957  0.046539  1
  B  B9  1  0.000000  0.884450  0.953204  1
  B  B10  1  0.000000  0.385600  0.547260  1
  B  B11  1  0.000000  0.613655  0.453727  1
  B  B12  1  0.000000  0.136175  0.469660  1
  B  B13  1  0.000000  0.866164  0.533730  1
  B  B14  1  0.000000  0.366595  0.967335  1
  B  B15  1  0.000000  0.630718  0.032006  1
  B  B16  1  0.000000  0.028346  0.190970  1
  B  B17  1  0.000000  0.972796  0.806941  1
  B  B18  1  0.000000  0.472908  0.692865  1
  B  B19  1  0.000000  0.523564  0.307400  1
  B  B20  1  0.000000  0.215106  0.311847  1
  B  B21  1  0.000000  0.790758  0.688262  1
  B  B22  1  0.000000  0.290190  0.811357  1
  B  B23  1  0.000000  0.708171  0.185269  1
