# generated using pymatgen
data_NdB4Ir3Rh
_symmetry_space_group_name_H-M   'P 1'
_cell_length_a   7.67622843
_cell_length_b   7.67556443
_cell_length_c   3.99786900
_cell_angle_alpha   90.00000000
_cell_angle_beta   90.00000000
_cell_angle_gamma   90.12311745
_symmetry_Int_Tables_number   1
_chemical_formula_structural   NdB4Ir3Rh
_chemical_formula_sum   'Nd2 B8 Ir6 Rh2'
_cell_volume   235.55144257
_cell_formula_units_Z   2
loop_
 _symmetry_equiv_pos_site_id
 _symmetry_equiv_pos_as_xyz
  1  'x, y, z'
loop_
 _atom_site_type_symbol
 _atom_site_label
 _atom_site_symmetry_multiplicity
 _atom_site_fract_x
 _atom_site_fract_y
 _atom_site_fract_z
 _atom_site_occupancy
  Nd  Nd0  1  0.500000  0.500000  0.000494  1
  Nd  Nd1  1  0.000000  0.000000  0.495698  1
  B  B2  1  0.656712  0.779642  0.607667  1
  B  B3  1  0.160233  0.281337  0.891721  1
  B  B4  1  0.284318  0.839323  0.109377  1
  B  B5  1  0.715682  0.160677  0.109377  1
  B  B6  1  0.343288  0.220358  0.607667  1
  B  B7  1  0.839767  0.718663  0.891721  1
  B  B8  1  0.220746  0.658924  0.392420  1
  B  B9  1  0.779254  0.341076  0.392420  1
  Ir  Ir10  1  0.609475  0.156390  0.611728  1
  Ir  Ir11  1  0.109172  0.659354  0.890819  1
  Ir  Ir12  1  0.159649  0.389807  0.391149  1
  Ir  Ir13  1  0.840351  0.610193  0.391149  1
  Ir  Ir14  1  0.890828  0.340646  0.890819  1
  Ir  Ir15  1  0.390525  0.843610  0.611728  1
  Rh  Rh16  1  0.341199  0.110386  0.107023  1
  Rh  Rh17  1  0.658801  0.889614  0.107023  1
