# generated using pymatgen
data_DyYTc2F14
_symmetry_space_group_name_H-M   'P 1'
_cell_length_a   5.60153700
_cell_length_b   8.92439460
_cell_length_c   12.04875100
_cell_angle_alpha   62.57917824
_cell_angle_beta   90.00000000
_cell_angle_gamma   90.00000000
_symmetry_Int_Tables_number   1
_chemical_formula_structural   DyYTc2F14
_chemical_formula_sum   'Dy2 Y2 Tc4 F28'
_cell_volume   534.64908045
_cell_formula_units_Z   2
loop_
 _symmetry_equiv_pos_site_id
 _symmetry_equiv_pos_as_xyz
  1  'x, y, z'
loop_
 _atom_site_type_symbol
 _atom_site_label
 _atom_site_symmetry_multiplicity
 _atom_site_fract_x
 _atom_site_fract_y
 _atom_site_fract_z
 _atom_site_occupancy
  Dy  Dy0  1  0.241085  0.186356  0.235244  1
  Dy  Dy1  1  0.741085  0.813644  0.264756  1
  Y  Y2  1  0.758921  0.813404  0.764794  1
  Y  Y3  1  0.258921  0.186596  0.735206  1
  Tc  Tc4  1  0.757693  0.272735  0.957383  1
  Tc  Tc5  1  0.257693  0.727265  0.542617  1
  Tc  Tc6  1  0.242288  0.726653  0.043589  1
  Tc  Tc7  1  0.742288  0.273347  0.456411  1
  F  F8  1  0.445616  0.706558  0.918927  1
  F  F9  1  0.945616  0.293442  0.581073  1
  F  F10  1  0.553498  0.292803  0.081784  1
  F  F11  1  0.053498  0.707197  0.418216  1
  F  F12  1  0.449431  0.278281  0.545797  1
  F  F13  1  0.949431  0.721719  0.954203  1
  F  F14  1  0.550844  0.722385  0.453241  1
  F  F15  1  0.050844  0.277615  0.046759  1
  F  F16  1  0.772998  0.519665  0.859808  1
  F  F17  1  0.272998  0.480335  0.640192  1
  F  F18  1  0.227225  0.479547  0.140639  1
  F  F19  1  0.727225  0.520453  0.359361  1
  F  F20  1  0.756586  0.026615  0.053356  1
  F  F21  1  0.256586  0.973385  0.446644  1
  F  F22  1  0.243277  0.972704  0.947686  1
  F  F23  1  0.743277  0.027296  0.552314  1
  F  F24  1  0.976411  0.728941  0.639216  1
  F  F25  1  0.476411  0.271059  0.860784  1
  F  F26  1  0.023877  0.270772  0.360084  1
  F  F27  1  0.523877  0.729228  0.139916  1
  F  F28  1  0.043634  0.746335  0.171690  1
  F  F29  1  0.543634  0.253665  0.328310  1
  F  F30  1  0.955490  0.253794  0.828767  1
  F  F31  1  0.455490  0.746206  0.671233  1
  F  F32  1  0.418898  0.971185  0.232020  1
  F  F33  1  0.918898  0.028815  0.267980  1
  F  F34  1  0.582228  0.029336  0.768234  1
  F  F35  1  0.082228  0.970664  0.731766  1
