# generated using pymatgen
data_Er8Tm4ZnCo4Sn
_symmetry_space_group_name_H-M   'P 1'
_cell_length_a   8.23048185
_cell_length_b   8.23048151
_cell_length_c   8.23048118
_cell_angle_alpha   111.44665840
_cell_angle_beta   109.99646802
_cell_angle_gamma   107.00187396
_symmetry_Int_Tables_number   1
_chemical_formula_structural   Er8Tm4ZnCo4Sn
_chemical_formula_sum   'Er8 Tm4 Zn1 Co4 Sn1'
_cell_volume   428.52759759
_cell_formula_units_Z   1
loop_
 _symmetry_equiv_pos_site_id
 _symmetry_equiv_pos_as_xyz
  1  'x, y, z'
loop_
 _atom_site_type_symbol
 _atom_site_label
 _atom_site_symmetry_multiplicity
 _atom_site_fract_x
 _atom_site_fract_y
 _atom_site_fract_z
 _atom_site_occupancy
  Er  Er0  1  0.427839  0.222504  0.205335  1
  Er  Er1  1  0.572161  0.777496  0.794665  1
  Er  Er2  1  0.017169  0.222504  0.794665  1
  Er  Er3  1  0.982831  0.777496  0.205335  1
  Er  Er4  1  0.184592  0.286875  0.471466  1
  Er  Er5  1  0.815408  0.713125  0.528534  1
  Er  Er6  1  0.184592  0.713125  0.897717  1
  Er  Er7  1  0.815408  0.286875  0.102283  1
  Tm  Tm8  1  0.315255  0.619819  0.304563  1
  Tm  Tm9  1  0.684745  0.380182  0.695437  1
  Tm  Tm10  1  0.315255  0.010691  0.695437  1
  Tm  Tm11  1  0.684745  0.989309  0.304563  1
  Zn  Zn12  1  0.000000  0.000000  0.000000  1
  Co  Co13  1  0.113429  0.613429  0.500000  1
  Co  Co14  1  0.886572  0.386572  0.500000  1
  Co  Co15  1  0.376134  0.000000  0.376134  1
  Co  Co16  1  0.623866  0.000000  0.623866  1
  Sn  Sn17  1  0.500000  0.500000  0.000000  1
