# generated using pymatgen
data_Dy4Ho3Er5Co5Sn
_symmetry_space_group_name_H-M   'P 1'
_cell_length_a   8.23129882
_cell_length_b   8.23030523
_cell_length_c   8.23030429
_cell_angle_alpha   106.87646070
_cell_angle_beta   110.61676147
_cell_angle_gamma   110.94611664
_symmetry_Int_Tables_number   1
_chemical_formula_structural   Dy4Ho3Er5Co5Sn
_chemical_formula_sum   'Dy4 Ho3 Er5 Co5 Sn1'
_cell_volume   428.58664840
_cell_formula_units_Z   1
loop_
 _symmetry_equiv_pos_site_id
 _symmetry_equiv_pos_as_xyz
  1  'x, y, z'
loop_
 _atom_site_type_symbol
 _atom_site_label
 _atom_site_symmetry_multiplicity
 _atom_site_fract_x
 _atom_site_fract_y
 _atom_site_fract_z
 _atom_site_occupancy
  Dy  Dy0  1  0.194225  0.210848  0.404935  1
  Dy  Dy1  1  0.805777  0.789265  0.595295  1
  Dy  Dy2  1  0.194225  0.789291  0.983375  1
  Dy  Dy3  1  0.805777  0.210481  0.016512  1
  Ho  Ho4  1  0.475128  0.290021  0.185107  1
  Ho  Ho5  1  0.105149  0.290167  0.814983  1
  Ho  Ho6  1  0.894737  0.709926  0.184810  1
  Er  Er7  1  0.524998  0.709925  0.815072  1
  Er  Er8  1  0.305593  0.619852  0.314539  1
  Er  Er9  1  0.305593  0.991055  0.685742  1
  Er  Er10  1  0.694423  0.380303  0.685696  1
  Er  Er11  1  0.694423  0.008726  0.314120  1
  Co  Co12  1  0.500041  0.612735  0.112461  1
  Co  Co13  1  0.500041  0.387579  0.887306  1
  Co  Co14  1  0.377293  0.999986  0.377307  1
  Co  Co15  1  0.622653  0.999914  0.622739  1
  Co  Co16  1  0.999885  0.999911  0.999974  1
  Sn  Sn17  1  0.000042  0.500014  0.500027  1
