# generated using pymatgen
data_Ta2ZnSiRu4
_symmetry_space_group_name_H-M   'P 1'
_cell_length_a   4.37506500
_cell_length_b   6.15913800
_cell_length_c   13.04272200
_cell_angle_alpha   89.99949843
_cell_angle_beta   89.99887018
_cell_angle_gamma   89.99928361
_symmetry_Int_Tables_number   1
_chemical_formula_structural   Ta2ZnSiRu4
_chemical_formula_sum   'Ta6 Zn3 Si3 Ru12'
_cell_volume   351.45739206
_cell_formula_units_Z   3
loop_
 _symmetry_equiv_pos_site_id
 _symmetry_equiv_pos_as_xyz
  1  'x, y, z'
loop_
 _atom_site_type_symbol
 _atom_site_label
 _atom_site_symmetry_multiplicity
 _atom_site_fract_x
 _atom_site_fract_y
 _atom_site_fract_z
 _atom_site_occupancy
  Ta  Ta0  1  0.000005  0.000003  0.996238  1
  Ta  Ta1  1  0.499822  0.500001  0.166662  1
  Ta  Ta2  1  0.999841  0.999999  0.337062  1
  Ta  Ta3  1  0.500005  0.500000  0.504393  1
  Ta  Ta4  1  0.000144  0.000000  0.666655  1
  Ta  Ta5  1  0.500118  0.499999  0.828939  1
  Zn  Zn6  1  0.499988  0.000000  0.499962  1
  Zn  Zn7  1  0.000148  0.500000  0.666658  1
  Zn  Zn8  1  0.500118  0.000000  0.833357  1
  Si  Si9  1  0.999994  0.499993  0.997802  1
  Si  Si10  1  0.500012  0.000001  0.166648  1
  Si  Si11  1  0.999968  0.500007  0.335532  1
  Ru  Ru12  1  0.499977  0.250927  0.005378  1
  Ru  Ru13  1  0.500001  0.749074  0.005376  1
  Ru  Ru14  1  0.999880  0.251202  0.166716  1
  Ru  Ru15  1  0.999805  0.748799  0.166720  1
  Ru  Ru16  1  0.499826  0.251032  0.327966  1
  Ru  Ru17  1  0.499849  0.748963  0.327966  1
  Ru  Ru18  1  0.999992  0.254286  0.494496  1
  Ru  Ru19  1  0.999992  0.745710  0.494503  1
  Ru  Ru20  1  0.500131  0.249087  0.666680  1
  Ru  Ru21  1  0.500126  0.750913  0.666691  1
  Ru  Ru22  1  0.000129  0.254435  0.838798  1
  Ru  Ru23  1  0.000127  0.745570  0.838806  1
