# generated using pymatgen
data_Zr10Hg3B2Sb3
_symmetry_space_group_name_H-M   'P 1'
_cell_length_a   8.55320200
_cell_length_b   8.55320181
_cell_length_c   5.81753000
_cell_angle_alpha   90.00000000
_cell_angle_beta   90.00000000
_cell_angle_gamma   120.00000072
_symmetry_Int_Tables_number   1
_chemical_formula_structural   Zr10Hg3B2Sb3
_chemical_formula_sum   'Zr10 Hg3 B2 Sb3'
_cell_volume   368.57570784
_cell_formula_units_Z   1
loop_
 _symmetry_equiv_pos_site_id
 _symmetry_equiv_pos_as_xyz
  1  'x, y, z'
loop_
 _atom_site_type_symbol
 _atom_site_label
 _atom_site_symmetry_multiplicity
 _atom_site_fract_x
 _atom_site_fract_y
 _atom_site_fract_z
 _atom_site_occupancy
  Zr  Zr0  1  0.666667  0.333333  0.003324  1
  Zr  Zr1  1  0.333333  0.666667  0.003324  1
  Zr  Zr2  1  0.333333  0.666667  0.496676  1
  Zr  Zr3  1  0.666667  0.333333  0.496676  1
  Zr  Zr4  1  0.771377  0.771377  0.750000  1
  Zr  Zr5  1  0.228623  0.000000  0.750000  1
  Zr  Zr6  1  0.000000  0.228623  0.750000  1
  Zr  Zr7  1  0.228811  0.228811  0.250000  1
  Zr  Zr8  1  0.771189  0.000000  0.250000  1
  Zr  Zr9  1  0.000000  0.771189  0.250000  1
  Hg  Hg10  1  0.604451  0.604451  0.250000  1
  Hg  Hg11  1  0.395549  0.000000  0.250000  1
  Hg  Hg12  1  0.000000  0.395549  0.250000  1
  B  B13  1  0.000000  0.000000  0.001674  1
  B  B14  1  0.000000  0.000000  0.498326  1
  Sb  Sb15  1  0.396485  0.396485  0.750000  1
  Sb  Sb16  1  0.603515  0.000000  0.750000  1
  Sb  Sb17  1  0.000000  0.603515  0.750000  1
