# generated using pymatgen
data_TbPaReB6
_symmetry_space_group_name_H-M   'P 1'
_cell_length_a   3.72342400
_cell_length_b   9.22002600
_cell_length_c   11.54220800
_cell_angle_alpha   90.00000000
_cell_angle_beta   90.00000000
_cell_angle_gamma   90.00000000
_symmetry_Int_Tables_number   1
_chemical_formula_structural   TbPaReB6
_chemical_formula_sum   'Tb4 Pa4 Re4 B24'
_cell_volume   396.24476345
_cell_formula_units_Z   4
loop_
 _symmetry_equiv_pos_site_id
 _symmetry_equiv_pos_as_xyz
  1  'x, y, z'
loop_
 _atom_site_type_symbol
 _atom_site_label
 _atom_site_symmetry_multiplicity
 _atom_site_fract_x
 _atom_site_fract_y
 _atom_site_fract_z
 _atom_site_occupancy
  Tb  Tb0  1  0.000000  0.945346  0.375284  1
  Tb  Tb1  1  0.000000  0.054654  0.624716  1
  Tb  Tb2  1  0.000000  0.445346  0.124716  1
  Tb  Tb3  1  0.000000  0.554654  0.875284  1
  Pa  Pa4  1  0.000000  0.324046  0.412771  1
  Pa  Pa5  1  0.000000  0.675954  0.587229  1
  Pa  Pa6  1  0.000000  0.824046  0.087229  1
  Pa  Pa7  1  0.000000  0.175954  0.912771  1
  Re  Re8  1  0.000000  0.638448  0.322079  1
  Re  Re9  1  0.000000  0.361552  0.677921  1
  Re  Re10  1  0.000000  0.138448  0.177921  1
  Re  Re11  1  0.000000  0.861552  0.822079  1
  B  B12  1  0.500000  0.552185  0.433208  1
  B  B13  1  0.500000  0.447815  0.566792  1
  B  B14  1  0.500000  0.052185  0.066792  1
  B  B15  1  0.500000  0.947815  0.933208  1
  B  B16  1  0.500000  0.746480  0.420489  1
  B  B17  1  0.500000  0.253520  0.579511  1
  B  B18  1  0.500000  0.246480  0.079511  1
  B  B19  1  0.500000  0.753520  0.920489  1
  B  B20  1  0.500000  0.793138  0.266591  1
  B  B21  1  0.500000  0.206862  0.733409  1
  B  B22  1  0.500000  0.293138  0.233409  1
  B  B23  1  0.500000  0.706862  0.766591  1
  B  B24  1  0.500000  0.634467  0.185970  1
  B  B25  1  0.500000  0.365533  0.814030  1
  B  B26  1  0.500000  0.134467  0.314030  1
  B  B27  1  0.500000  0.865533  0.685970  1
  B  B28  1  0.500000  0.983090  0.213426  1
  B  B29  1  0.500000  0.016910  0.786574  1
  B  B30  1  0.500000  0.483090  0.286574  1
  B  B31  1  0.500000  0.516910  0.713426  1
  B  B32  1  0.500000  0.618333  0.032638  1
  B  B33  1  0.500000  0.381667  0.967362  1
  B  B34  1  0.500000  0.118333  0.467362  1
  B  B35  1  0.500000  0.881667  0.532638  1
