# generated using pymatgen
data_YLu(AlRh)2
_symmetry_space_group_name_H-M   'P 1'
_cell_length_a   4.17780800
_cell_length_b   6.87075399
_cell_length_c   7.93116735
_cell_angle_alpha   91.25162679
_cell_angle_beta   90.00000000
_cell_angle_gamma   90.00000000
_symmetry_Int_Tables_number   1
_chemical_formula_structural   YLu(AlRh)2
_chemical_formula_sum   'Y2 Lu2 Al4 Rh4'
_cell_volume   227.60738951
_cell_formula_units_Z   2
loop_
 _symmetry_equiv_pos_site_id
 _symmetry_equiv_pos_as_xyz
  1  'x, y, z'
loop_
 _atom_site_type_symbol
 _atom_site_label
 _atom_site_symmetry_multiplicity
 _atom_site_fract_x
 _atom_site_fract_y
 _atom_site_fract_z
 _atom_site_occupancy
  Y  Y0  1  0.250000  0.534644  0.820488  1
  Y  Y1  1  0.750000  0.465356  0.179512  1
  Lu  Lu2  1  0.750000  0.965607  0.322546  1
  Lu  Lu3  1  0.250000  0.034393  0.677454  1
  Al  Al4  1  0.750000  0.864419  0.940911  1
  Al  Al5  1  0.250000  0.135581  0.059089  1
  Al  Al6  1  0.250000  0.638017  0.439048  1
  Al  Al7  1  0.750000  0.361983  0.560952  1
  Rh  Rh8  1  0.750000  0.740825  0.618063  1
  Rh  Rh9  1  0.250000  0.259175  0.381937  1
  Rh  Rh10  1  0.250000  0.771025  0.127724  1
  Rh  Rh11  1  0.750000  0.228975  0.872276  1
