# generated using pymatgen
data_Nd5Zr3(As3Rh4)4
_symmetry_space_group_name_H-M   'P 1'
_cell_length_a   13.41000500
_cell_length_b   13.41000525
_cell_length_c   4.06645600
_cell_angle_alpha   90.00000000
_cell_angle_beta   90.00000000
_cell_angle_gamma   120.00000184
_symmetry_Int_Tables_number   1
_chemical_formula_structural   Nd5Zr3(As3Rh4)4
_chemical_formula_sum   'Nd5 Zr3 As12 Rh16'
_cell_volume   633.29285606
_cell_formula_units_Z   1
loop_
 _symmetry_equiv_pos_site_id
 _symmetry_equiv_pos_as_xyz
  1  'x, y, z'
loop_
 _atom_site_type_symbol
 _atom_site_label
 _atom_site_symmetry_multiplicity
 _atom_site_fract_x
 _atom_site_fract_y
 _atom_site_fract_z
 _atom_site_occupancy
  Nd  Nd0  1  0.187366  0.187366  0.500000  1
  Nd  Nd1  1  0.812634  0.000000  0.500000  1
  Nd  Nd2  1  0.000000  0.812634  0.500000  1
  Nd  Nd3  1  0.333333  0.666667  0.000000  1
  Nd  Nd4  1  0.666667  0.333333  0.000000  1
  Zr  Zr5  1  0.557236  0.557236  0.000000  1
  Zr  Zr6  1  0.442764  0.000000  0.000000  1
  Zr  Zr7  1  0.000000  0.442764  0.000000  1
  As  As8  1  0.822879  0.822879  0.000000  1
  As  As9  1  0.177121  0.000000  0.000000  1
  As  As10  1  0.000000  0.177121  0.000000  1
  As  As11  1  0.169023  0.483641  0.500000  1
  As  As12  1  0.516359  0.685382  0.500000  1
  As  As13  1  0.314618  0.830977  0.500000  1
  As  As14  1  0.685382  0.516359  0.500000  1
  As  As15  1  0.830977  0.314618  0.500000  1
  As  As16  1  0.483641  0.169023  0.500000  1
  As  As17  1  0.357240  0.357240  0.000000  1
  As  As18  1  0.642760  0.000000  0.000000  1
  As  As19  1  0.000000  0.642760  0.000000  1
  Rh  Rh20  1  0.717931  0.717931  0.500000  1
  Rh  Rh21  1  0.282069  0.000000  0.500000  1
  Rh  Rh22  1  0.000000  0.282069  0.500000  1
  Rh  Rh23  1  0.176161  0.374931  0.000000  1
  Rh  Rh24  1  0.625069  0.801230  0.000000  1
  Rh  Rh25  1  0.198770  0.823839  0.000000  1
  Rh  Rh26  1  0.801230  0.625069  0.000000  1
  Rh  Rh27  1  0.823839  0.198770  0.000000  1
  Rh  Rh28  1  0.374931  0.176161  0.000000  1
  Rh  Rh29  1  0.354705  0.481357  0.500000  1
  Rh  Rh30  1  0.518643  0.873349  0.500000  1
  Rh  Rh31  1  0.126651  0.645295  0.500000  1
  Rh  Rh32  1  0.873349  0.518643  0.500000  1
  Rh  Rh33  1  0.645295  0.126651  0.500000  1
  Rh  Rh34  1  0.481357  0.354705  0.500000  1
  Rh  Rh35  1  0.000000  0.000000  0.000000  1
