# generated using pymatgen
data_Y2U(AlIr)3
_symmetry_space_group_name_H-M   'P 1'
_cell_length_a   7.05235436
_cell_length_b   7.22121916
_cell_length_c   3.95351800
_cell_angle_alpha   90.00000000
_cell_angle_beta   90.00000000
_cell_angle_gamma   120.79528928
_symmetry_Int_Tables_number   1
_chemical_formula_structural   Y2U(AlIr)3
_chemical_formula_sum   'Y2 U1 Al3 Ir3'
_cell_volume   172.95078751
_cell_formula_units_Z   1
loop_
 _symmetry_equiv_pos_site_id
 _symmetry_equiv_pos_as_xyz
  1  'x, y, z'
loop_
 _atom_site_type_symbol
 _atom_site_label
 _atom_site_symmetry_multiplicity
 _atom_site_fract_x
 _atom_site_fract_y
 _atom_site_fract_z
 _atom_site_occupancy
  Y  Y0  1  0.413257  0.416296  0.500000  1
  Y  Y1  1  0.586743  0.003039  0.500000  1
  U  U2  1  0.000000  0.579841  0.500000  1
  Al  Al3  1  0.752049  0.757469  0.000000  1
  Al  Al4  1  0.247951  0.005421  0.000000  1
  Al  Al5  1  0.000000  0.227921  0.000000  1
  Ir  Ir6  1  0.701649  0.363823  0.000000  1
  Ir  Ir7  1  0.298351  0.662174  0.000000  1
  Ir  Ir8  1  0.000000  0.984016  0.500000  1
