# generated using pymatgen
data_Tb5Mn3(Si3Ir4)4
_symmetry_space_group_name_H-M   'P 1'
_cell_length_a   12.80578500
_cell_length_b   12.80578514
_cell_length_c   3.97698900
_cell_angle_alpha   90.00000000
_cell_angle_beta   90.00000000
_cell_angle_gamma   120.00000222
_symmetry_Int_Tables_number   1
_chemical_formula_structural   Tb5Mn3(Si3Ir4)4
_chemical_formula_sum   'Tb5 Mn3 Si12 Ir16'
_cell_volume   564.80356419
_cell_formula_units_Z   1
loop_
 _symmetry_equiv_pos_site_id
 _symmetry_equiv_pos_as_xyz
  1  'x, y, z'
loop_
 _atom_site_type_symbol
 _atom_site_label
 _atom_site_symmetry_multiplicity
 _atom_site_fract_x
 _atom_site_fract_y
 _atom_site_fract_z
 _atom_site_occupancy
  Tb  Tb0  1  0.333333  0.666667  0.500000  1
  Tb  Tb1  1  0.666667  0.333333  0.500000  1
  Tb  Tb2  1  0.000000  0.813555  0.000000  1
  Tb  Tb3  1  0.186445  0.186445  0.000000  1
  Tb  Tb4  1  0.813555  0.000000  0.000000  1
  Mn  Mn5  1  0.000000  0.441245  0.500000  1
  Mn  Mn6  1  0.558755  0.558755  0.500000  1
  Mn  Mn7  1  0.441245  0.000000  0.500000  1
  Si  Si8  1  0.000000  0.630768  0.500000  1
  Si  Si9  1  0.369232  0.369232  0.500000  1
  Si  Si10  1  0.630768  0.000000  0.500000  1
  Si  Si11  1  0.518664  0.690651  0.000000  1
  Si  Si12  1  0.309349  0.828012  0.000000  1
  Si  Si13  1  0.171988  0.481336  0.000000  1
  Si  Si14  1  0.481336  0.171988  0.000000  1
  Si  Si15  1  0.690651  0.518664  0.000000  1
  Si  Si16  1  0.828012  0.309349  0.000000  1
  Si  Si17  1  0.000000  0.182765  0.500000  1
  Si  Si18  1  0.817235  0.817235  0.500000  1
  Si  Si19  1  0.182765  0.000000  0.500000  1
  Ir  Ir20  1  0.511093  0.875693  0.000000  1
  Ir  Ir21  1  0.124307  0.635402  0.000000  1
  Ir  Ir22  1  0.364598  0.488907  0.000000  1
  Ir  Ir23  1  0.488907  0.364598  0.000000  1
  Ir  Ir24  1  0.875693  0.511093  0.000000  1
  Ir  Ir25  1  0.635402  0.124307  0.000000  1
  Ir  Ir26  1  0.000000  0.283353  0.000000  1
  Ir  Ir27  1  0.716647  0.716647  0.000000  1
  Ir  Ir28  1  0.283353  0.000000  0.000000  1
  Ir  Ir29  1  0.623040  0.805583  0.500000  1
  Ir  Ir30  1  0.194417  0.817457  0.500000  1
  Ir  Ir31  1  0.182543  0.376960  0.500000  1
  Ir  Ir32  1  0.376960  0.182543  0.500000  1
  Ir  Ir33  1  0.805583  0.623040  0.500000  1
  Ir  Ir34  1  0.817457  0.194417  0.500000  1
  Ir  Ir35  1  0.000000  0.000000  0.500000  1
