# generated using pymatgen
data_Ho2TmCI5
_symmetry_space_group_name_H-M   'P 1'
_cell_length_a   7.60975193
_cell_length_b   9.46355541
_cell_length_c   9.55207931
_cell_angle_alpha   106.99493245
_cell_angle_beta   96.46352718
_cell_angle_gamma   104.11018861
_symmetry_Int_Tables_number   1
_chemical_formula_structural   Ho2TmCI5
_chemical_formula_sum   'Ho4 Tm2 C2 I10'
_cell_volume   625.35041298
_cell_formula_units_Z   2
loop_
 _symmetry_equiv_pos_site_id
 _symmetry_equiv_pos_as_xyz
  1  'x, y, z'
loop_
 _atom_site_type_symbol
 _atom_site_label
 _atom_site_symmetry_multiplicity
 _atom_site_fract_x
 _atom_site_fract_y
 _atom_site_fract_z
 _atom_site_occupancy
  Ho  Ho0  1  0.897948  0.962467  0.216549  1
  Ho  Ho1  1  0.028847  0.744672  0.926348  1
  Ho  Ho2  1  0.970863  0.255477  0.074211  1
  Ho  Ho3  1  0.626634  0.868928  0.823363  1
  Tm  Tm4  1  0.101519  0.037438  0.785722  1
  Tm  Tm5  1  0.372200  0.130663  0.175940  1
  C  C6  1  0.908229  0.970201  0.958044  1
  C  C7  1  0.093561  0.030475  0.041072  1
  I  I8  1  0.192328  0.740378  0.649999  1
  I  I9  1  0.087742  0.359842  0.820885  1
  I  I10  1  0.456114  0.812050  0.094577  1
  I  I11  1  0.256352  0.084646  0.454893  1
  I  I12  1  0.540196  0.189381  0.907553  1
  I  I13  1  0.802872  0.262134  0.348751  1
  I  I14  1  0.345434  0.449854  0.272323  1
  I  I15  1  0.913207  0.635962  0.177436  1
  I  I16  1  0.655818  0.547834  0.727830  1
  I  I17  1  0.750137  0.917600  0.544506  1
