# generated using pymatgen
data_Lu20Cd3Cu3Ir2
_symmetry_space_group_name_H-M   'P 1'
_cell_length_a   9.42324600
_cell_length_b   9.42324563
_cell_length_c   9.48011500
_cell_angle_alpha   90.00000000
_cell_angle_beta   90.00000000
_cell_angle_gamma   120.00000128
_symmetry_Int_Tables_number   1
_chemical_formula_structural   Lu20Cd3Cu3Ir2
_chemical_formula_sum   'Lu20 Cd3 Cu3 Ir2'
_cell_volume   729.02978571
_cell_formula_units_Z   1
loop_
 _symmetry_equiv_pos_site_id
 _symmetry_equiv_pos_as_xyz
  1  'x, y, z'
loop_
 _atom_site_type_symbol
 _atom_site_label
 _atom_site_symmetry_multiplicity
 _atom_site_fract_x
 _atom_site_fract_y
 _atom_site_fract_z
 _atom_site_occupancy
  Lu  Lu0  1  0.000000  0.000000  0.449429  1
  Lu  Lu1  1  0.000000  0.000000  0.050571  1
  Lu  Lu2  1  0.208454  0.791546  0.440873  1
  Lu  Lu3  1  0.208454  0.416910  0.440873  1
  Lu  Lu4  1  0.583090  0.791546  0.440873  1
  Lu  Lu5  1  0.792201  0.207799  0.553661  1
  Lu  Lu6  1  0.792201  0.584401  0.553661  1
  Lu  Lu7  1  0.415599  0.207799  0.553661  1
  Lu  Lu8  1  0.792201  0.207799  0.946339  1
  Lu  Lu9  1  0.792201  0.584401  0.946339  1
  Lu  Lu10  1  0.415599  0.207799  0.946339  1
  Lu  Lu11  1  0.208454  0.791546  0.059127  1
  Lu  Lu12  1  0.208454  0.416910  0.059127  1
  Lu  Lu13  1  0.583090  0.791546  0.059127  1
  Lu  Lu14  1  0.540971  0.459029  0.250000  1
  Lu  Lu15  1  0.540971  0.081941  0.250000  1
  Lu  Lu16  1  0.918059  0.459029  0.250000  1
  Lu  Lu17  1  0.459572  0.540428  0.750000  1
  Lu  Lu18  1  0.459572  0.919141  0.750000  1
  Lu  Lu19  1  0.080859  0.540428  0.750000  1
  Cd  Cd20  1  0.108798  0.891202  0.750000  1
  Cd  Cd21  1  0.108798  0.217594  0.750000  1
  Cd  Cd22  1  0.782406  0.891202  0.750000  1
  Cu  Cu23  1  0.871849  0.128151  0.250000  1
  Cu  Cu24  1  0.871849  0.743700  0.250000  1
  Cu  Cu25  1  0.256300  0.128151  0.250000  1
  Ir  Ir26  1  0.333333  0.666667  0.250000  1
  Ir  Ir27  1  0.666667  0.333333  0.750000  1
