# generated using pymatgen
data_Nb2CdF12
_symmetry_space_group_name_H-M   'P 1'
_cell_length_a   7.32303001
_cell_length_b   7.32303023
_cell_length_c   10.52067223
_cell_angle_alpha   67.73339182
_cell_angle_beta   67.73339232
_cell_angle_gamma   76.91931808
_symmetry_Int_Tables_number   1
_chemical_formula_structural   Nb2CdF12
_chemical_formula_sum   'Nb4 Cd2 F24'
_cell_volume   480.92393251
_cell_formula_units_Z   2
loop_
 _symmetry_equiv_pos_site_id
 _symmetry_equiv_pos_as_xyz
  1  'x, y, z'
loop_
 _atom_site_type_symbol
 _atom_site_label
 _atom_site_symmetry_multiplicity
 _atom_site_fract_x
 _atom_site_fract_y
 _atom_site_fract_z
 _atom_site_occupancy
  Nb  Nb0  1  0.242473  0.270546  0.373284  1
  Nb  Nb1  1  0.270546  0.242473  0.873284  1
  Nb  Nb2  1  0.757527  0.729454  0.626716  1
  Nb  Nb3  1  0.729454  0.757527  0.126716  1
  Cd  Cd4  1  0.166384  0.833616  0.750000  1
  Cd  Cd5  1  0.833616  0.166384  0.250000  1
  F  F6  1  0.851813  0.868697  0.219328  1
  F  F7  1  0.148187  0.131303  0.780672  1
  F  F8  1  0.278499  0.992888  0.509647  1
  F  F9  1  0.987592  0.288806  0.510213  1
  F  F10  1  0.288806  0.987592  0.010213  1
  F  F11  1  0.365407  0.363566  0.462790  1
  F  F12  1  0.363566  0.365407  0.962790  1
  F  F13  1  0.868697  0.851813  0.719328  1
  F  F14  1  0.794750  0.484439  0.252180  1
  F  F15  1  0.007112  0.721501  0.990353  1
  F  F16  1  0.721501  0.007112  0.490353  1
  F  F17  1  0.992888  0.278499  0.009647  1
  F  F18  1  0.518834  0.211319  0.735353  1
  F  F19  1  0.634593  0.636434  0.537210  1
  F  F20  1  0.205250  0.515561  0.747820  1
  F  F21  1  0.636434  0.634593  0.037210  1
  F  F22  1  0.484439  0.794750  0.752180  1
  F  F23  1  0.788681  0.481166  0.764647  1
  F  F24  1  0.515561  0.205250  0.247820  1
  F  F25  1  0.481166  0.788681  0.264647  1
  F  F26  1  0.211319  0.518834  0.235353  1
  F  F27  1  0.711194  0.012408  0.989787  1
  F  F28  1  0.131303  0.148187  0.280672  1
  F  F29  1  0.012408  0.711194  0.489787  1
