# generated using pymatgen
data_La16Yb4Si15Ru
_symmetry_space_group_name_H-M   'P 1'
_cell_length_a   7.87037586
_cell_length_b   8.08650877
_cell_length_c   15.67432600
_cell_angle_alpha   90.17192638
_cell_angle_beta   90.33417249
_cell_angle_gamma   90.01613644
_symmetry_Int_Tables_number   1
_chemical_formula_structural   La16Yb4Si15Ru
_chemical_formula_sum   'La16 Yb4 Si15 Ru1'
_cell_volume   997.55316026
_cell_formula_units_Z   1
loop_
 _symmetry_equiv_pos_site_id
 _symmetry_equiv_pos_as_xyz
  1  'x, y, z'
loop_
 _atom_site_type_symbol
 _atom_site_label
 _atom_site_symmetry_multiplicity
 _atom_site_fract_x
 _atom_site_fract_y
 _atom_site_fract_z
 _atom_site_occupancy
  La  La0  1  0.308585  0.180755  0.121661  1
  La  La1  1  0.810229  0.340293  0.390043  1
  La  La2  1  0.184868  0.682678  0.878665  1
  La  La3  1  0.704886  0.795024  0.612058  1
  La  La4  1  0.312767  0.183322  0.377844  1
  La  La5  1  0.809911  0.316616  0.123352  1
  La  La6  1  0.183727  0.677656  0.620441  1
  La  La7  1  0.688089  0.815454  0.877863  1
  La  La8  1  0.961210  0.811197  0.398018  1
  La  La9  1  0.457092  0.690714  0.104142  1
  La  La10  1  0.537948  0.310478  0.604450  1
  La  La11  1  0.043785  0.189489  0.895431  1
  La  La12  1  0.035201  0.202148  0.600012  1
  La  La13  1  0.544467  0.307196  0.895316  1
  La  La14  1  0.460505  0.690628  0.395628  1
  La  La15  1  0.954699  0.811187  0.104241  1
  Yb  Yb16  1  0.365757  0.003788  0.743891  1
  Yb  Yb17  1  0.857674  0.486482  0.744911  1
  Yb  Yb18  1  0.137729  0.508108  0.251021  1
  Yb  Yb19  1  0.640274  0.997986  0.253665  1
  Si  Si20  1  0.366198  0.974336  0.960850  1
  Si  Si21  1  0.633312  0.026152  0.460580  1
  Si  Si22  1  0.131089  0.474876  0.039784  1
  Si  Si23  1  0.145326  0.479780  0.459570  1
  Si  Si24  1  0.632150  0.025567  0.038640  1
  Si  Si25  1  0.368219  0.970224  0.537501  1
  Si  Si26  1  0.864577  0.525201  0.963199  1
  Si  Si27  1  0.979369  0.907590  0.750773  1
  Si  Si28  1  0.477369  0.593791  0.752771  1
  Si  Si29  1  0.519809  0.408694  0.249934  1
  Si  Si30  1  0.018052  0.095382  0.250581  1
  Si  Si31  1  0.257001  0.379421  0.751981  1
  Si  Si32  1  0.754489  0.115279  0.750707  1
  Si  Si33  1  0.242201  0.880911  0.249108  1
  Si  Si34  1  0.743655  0.622001  0.249277  1
  Ru  Ru35  1  0.867781  0.519596  0.542093  1
