# generated using pymatgen
data_La3Ga5PtO14
_symmetry_space_group_name_H-M   'P 1'
_cell_length_a   8.28982900
_cell_length_b   8.28988204
_cell_length_c   5.24531300
_cell_angle_alpha   90.00031357
_cell_angle_beta   89.99966356
_cell_angle_gamma   120.00007522
_symmetry_Int_Tables_number   1
_chemical_formula_structural   La3Ga5PtO14
_chemical_formula_sum   'La3 Ga5 Pt1 O14'
_cell_volume   312.17321292
_cell_formula_units_Z   1
loop_
 _symmetry_equiv_pos_site_id
 _symmetry_equiv_pos_as_xyz
  1  'x, y, z'
loop_
 _atom_site_type_symbol
 _atom_site_label
 _atom_site_symmetry_multiplicity
 _atom_site_fract_x
 _atom_site_fract_y
 _atom_site_fract_z
 _atom_site_occupancy
  La  La0  1  0.423825  0.999987  0.999998  1
  La  La1  1  0.999996  0.423822  0.000001  1
  La  La2  1  0.576185  0.576173  0.999998  1
  Ga  Ga3  1  0.333337  0.666666  0.470241  1
  Ga  Ga4  1  0.242547  0.242551  0.499996  1
  Ga  Ga5  1  0.000001  0.757450  0.500004  1
  Ga  Ga6  1  0.757453  0.000003  0.499998  1
  Ga  Ga7  1  0.666661  0.333331  0.529758  1
  Pt  Pt8  1  0.000002  0.999998  0.000001  1
  O  O9  1  0.666669  0.333334  0.181655  1
  O  O10  1  0.918831  0.141536  0.240139  1
  O  O11  1  0.858469  0.777295  0.240134  1
  O  O12  1  0.222700  0.081164  0.240146  1
  O  O13  1  0.541160  0.855140  0.302576  1
  O  O14  1  0.313988  0.458843  0.302575  1
  O  O15  1  0.144859  0.686012  0.302586  1
  O  O16  1  0.855135  0.541155  0.697423  1
  O  O17  1  0.686010  0.144856  0.697418  1
  O  O18  1  0.458839  0.313982  0.697421  1
  O  O19  1  0.777299  0.858469  0.759856  1
  O  O20  1  0.141532  0.918822  0.759872  1
  O  O21  1  0.081165  0.222702  0.759860  1
  O  O22  1  0.333335  0.666667  0.818343  1
