# generated using pymatgen
data_Ag6PSe5I
_symmetry_space_group_name_H-M   'P 1'
_cell_length_a   7.79603334
_cell_length_b   7.79603303
_cell_length_c   13.62018663
_cell_angle_alpha   72.96475675
_cell_angle_beta   72.96475498
_cell_angle_gamma   60.10392585
_symmetry_Int_Tables_number   1
_chemical_formula_structural   Ag6PSe5I
_chemical_formula_sum   'Ag12 P2 Se10 I2'
_cell_volume   675.29873181
_cell_formula_units_Z   2
loop_
 _symmetry_equiv_pos_site_id
 _symmetry_equiv_pos_as_xyz
  1  'x, y, z'
loop_
 _atom_site_type_symbol
 _atom_site_label
 _atom_site_symmetry_multiplicity
 _atom_site_fract_x
 _atom_site_fract_y
 _atom_site_fract_z
 _atom_site_occupancy
  Ag  Ag0  1  0.042857  0.974682  0.615893  1
  Ag  Ag1  1  0.974682  0.042857  0.115893  1
  Ag  Ag2  1  0.584754  0.406771  0.180573  1
  Ag  Ag3  1  0.406771  0.584754  0.680573  1
  Ag  Ag4  1  0.635984  0.717331  0.881422  1
  Ag  Ag5  1  0.717331  0.635984  0.381422  1
  Ag  Ag6  1  0.557941  0.087531  0.535969  1
  Ag  Ag7  1  0.087531  0.557941  0.035969  1
  Ag  Ag8  1  0.795438  0.258818  0.883790  1
  Ag  Ag9  1  0.258818  0.795438  0.383790  1
  Ag  Ag10  1  0.216595  0.208842  0.390027  1
  Ag  Ag11  1  0.208842  0.216595  0.890027  1
  P  P12  1  0.504707  0.993468  0.122386  1
  P  P13  1  0.993468  0.504707  0.622386  1
  Se  Se14  1  0.805613  0.800353  0.679754  1
  Se  Se15  1  0.800353  0.805613  0.179754  1
  Se  Se16  1  0.318630  0.288952  0.182317  1
  Se  Se17  1  0.288952  0.318630  0.682317  1
  Se  Se18  1  0.566881  0.056363  0.946704  1
  Se  Se19  1  0.056363  0.566881  0.446704  1
  Se  Se20  1  0.864289  0.407807  0.008945  1
  Se  Se21  1  0.407807  0.864289  0.508945  1
  Se  Se22  1  0.813280  0.328898  0.679762  1
  Se  Se23  1  0.328898  0.813280  0.179762  1
  I  I24  1  0.247834  0.775381  0.864860  1
  I  I25  1  0.775381  0.247834  0.364860  1
