# generated using pymatgen
data_Tm4MnTcRu6
_symmetry_space_group_name_H-M   'P 1'
_cell_length_a   5.16328596
_cell_length_b   5.30447613
_cell_length_c   8.87520200
_cell_angle_alpha   90.00000000
_cell_angle_beta   90.00000000
_cell_angle_gamma   119.96047000
_symmetry_Int_Tables_number   1
_chemical_formula_structural   Tm4MnTcRu6
_chemical_formula_sum   'Tm4 Mn1 Tc1 Ru6'
_cell_volume   210.59614195
_cell_formula_units_Z   1
loop_
 _symmetry_equiv_pos_site_id
 _symmetry_equiv_pos_as_xyz
  1  'x, y, z'
loop_
 _atom_site_type_symbol
 _atom_site_label
 _atom_site_symmetry_multiplicity
 _atom_site_fract_x
 _atom_site_fract_y
 _atom_site_fract_z
 _atom_site_occupancy
  Tm  Tm0  1  0.331809  0.667680  0.434693  1
  Tm  Tm1  1  0.660559  0.328263  0.565768  1
  Tm  Tm2  1  0.660559  0.328263  0.934232  1
  Tm  Tm3  1  0.331809  0.667680  0.065307  1
  Mn  Mn4  1  0.835446  0.166738  0.250000  1
  Tc  Tc5  1  0.667270  0.832750  0.750000  1
  Ru  Ru6  1  0.989279  0.996666  0.497510  1
  Ru  Ru7  1  0.989279  0.996666  0.002490  1
  Ru  Ru8  1  0.827676  0.658423  0.250000  1
  Ru  Ru9  1  0.353425  0.177155  0.250000  1
  Ru  Ru10  1  0.174632  0.830869  0.750000  1
  Ru  Ru11  1  0.178258  0.348847  0.750000  1
