# generated using pymatgen
data_LaYb3(B8Ru7)2
_symmetry_space_group_name_H-M   'P 1'
_cell_length_a   6.44714900
_cell_length_b   6.44574600
_cell_length_c   10.05342700
_cell_angle_alpha   90.00000000
_cell_angle_beta   90.00000000
_cell_angle_gamma   90.00215089
_symmetry_Int_Tables_number   1
_chemical_formula_structural   LaYb3(B8Ru7)2
_chemical_formula_sum   'La1 Yb3 B16 Ru14'
_cell_volume   417.78709764
_cell_formula_units_Z   1
loop_
 _symmetry_equiv_pos_site_id
 _symmetry_equiv_pos_as_xyz
  1  'x, y, z'
loop_
 _atom_site_type_symbol
 _atom_site_label
 _atom_site_symmetry_multiplicity
 _atom_site_fract_x
 _atom_site_fract_y
 _atom_site_fract_z
 _atom_site_occupancy
  La  La0  1  0.732329  0.885662  0.000000  1
  Yb  Yb1  1  0.118293  0.731797  0.500000  1
  Yb  Yb2  1  0.880970  0.266324  0.500000  1
  Yb  Yb3  1  0.261730  0.123586  0.000000  1
  B  B4  1  0.500640  0.000544  0.588364  1
  B  B5  1  0.500640  0.000544  0.411636  1
  B  B6  1  0.899216  0.272611  0.168360  1
  B  B7  1  0.101886  0.725869  0.830971  1
  B  B8  1  0.499013  0.500521  0.341410  1
  B  B9  1  0.499669  0.500297  0.840752  1
  B  B10  1  0.275194  0.102160  0.666889  1
  B  B11  1  0.101886  0.725869  0.169029  1
  B  B12  1  0.275194  0.102160  0.333111  1
  B  B13  1  0.899216  0.272611  0.831640  1
  B  B14  1  0.499013  0.500521  0.658590  1
  B  B15  1  0.499669  0.500297  0.159248  1
  B  B16  1  0.999569  0.499028  0.910754  1
  B  B17  1  0.727379  0.898408  0.666154  1
  B  B18  1  0.727379  0.898408  0.333846  1
  B  B19  1  0.999569  0.499028  0.089246  1
  Ru  Ru20  1  0.204941  0.394413  0.755120  1
  Ru  Ru21  1  0.404882  0.288795  0.500000  1
  Ru  Ru22  1  0.394164  0.795330  0.255170  1
  Ru  Ru23  1  0.204941  0.394413  0.244880  1
  Ru  Ru24  1  0.595310  0.712728  0.500000  1
  Ru  Ru25  1  0.605620  0.205150  0.744503  1
  Ru  Ru26  1  0.286341  0.595602  0.000000  1
  Ru  Ru27  1  0.711887  0.400508  0.000000  1
  Ru  Ru28  1  0.795176  0.603230  0.246779  1
  Ru  Ru29  1  0.795176  0.603230  0.753221  1
  Ru  Ru30  1  0.394164  0.795330  0.744830  1
  Ru  Ru31  1  0.001662  0.999939  0.252191  1
  Ru  Ru32  1  0.605620  0.205150  0.255497  1
  Ru  Ru33  1  0.001662  0.999939  0.747809  1
