# generated using pymatgen
data_Dy16CoHg4Ru3
_symmetry_space_group_name_H-M   'P 1'
_cell_length_a   9.52854048
_cell_length_b   9.60899800
_cell_length_c   9.60899700
_cell_angle_alpha   59.99999999
_cell_angle_beta   59.72028453
_cell_angle_gamma   59.72028968
_symmetry_Int_Tables_number   1
_chemical_formula_structural   Dy16CoHg4Ru3
_chemical_formula_sum   'Dy16 Co1 Hg4 Ru3'
_cell_volume   619.46733861
_cell_formula_units_Z   1
loop_
 _symmetry_equiv_pos_site_id
 _symmetry_equiv_pos_as_xyz
  1  'x, y, z'
loop_
 _atom_site_type_symbol
 _atom_site_label
 _atom_site_symmetry_multiplicity
 _atom_site_fract_x
 _atom_site_fract_y
 _atom_site_fract_z
 _atom_site_occupancy
  Dy  Dy0  1  0.602229  0.595816  0.595816  1
  Dy  Dy1  1  0.602229  0.595816  0.206140  1
  Dy  Dy2  1  0.602229  0.206140  0.595816  1
  Dy  Dy3  1  0.207836  0.597388  0.597388  1
  Dy  Dy4  1  0.057264  0.438839  0.438839  1
  Dy  Dy5  1  0.437900  0.060424  0.060424  1
  Dy  Dy6  1  0.437900  0.060424  0.441252  1
  Dy  Dy7  1  0.057264  0.438839  0.065059  1
  Dy  Dy8  1  0.437900  0.441252  0.060424  1
  Dy  Dy9  1  0.057264  0.065059  0.438839  1
  Dy  Dy10  1  0.188130  0.811118  0.811118  1
  Dy  Dy11  1  0.810175  0.187722  0.187722  1
  Dy  Dy12  1  0.810175  0.187722  0.814380  1
  Dy  Dy13  1  0.188130  0.811118  0.189634  1
  Dy  Dy14  1  0.810175  0.814380  0.187722  1
  Dy  Dy15  1  0.188130  0.189634  0.811118  1
  Co  Co16  1  0.829901  0.390033  0.390033  1
  Hg  Hg17  1  0.832451  0.833703  0.833703  1
  Hg  Hg18  1  0.832451  0.833703  0.500142  1
  Hg  Hg19  1  0.832451  0.500142  0.833703  1
  Hg  Hg20  1  0.497489  0.834170  0.834170  1
  Ru  Ru21  1  0.393443  0.388165  0.388165  1
  Ru  Ru22  1  0.393443  0.388165  0.830226  1
  Ru  Ru23  1  0.393443  0.830226  0.388165  1
