# generated using pymatgen
data_Dy3In3IrPd2
_symmetry_space_group_name_H-M   'P 1'
_cell_length_a   7.75357813
_cell_length_b   7.74833572
_cell_length_c   3.79588900
_cell_angle_alpha   90.00000000
_cell_angle_beta   90.00000000
_cell_angle_gamma   120.00152917
_symmetry_Int_Tables_number   1
_chemical_formula_structural   Dy3In3IrPd2
_chemical_formula_sum   'Dy3 In3 Ir1 Pd2'
_cell_volume   197.49133267
_cell_formula_units_Z   1
loop_
 _symmetry_equiv_pos_site_id
 _symmetry_equiv_pos_as_xyz
  1  'x, y, z'
loop_
 _atom_site_type_symbol
 _atom_site_label
 _atom_site_symmetry_multiplicity
 _atom_site_fract_x
 _atom_site_fract_y
 _atom_site_fract_z
 _atom_site_occupancy
  Dy  Dy0  1  0.581583  0.597756  0.000000  1
  Dy  Dy1  1  0.402386  0.984003  0.000000  1
  Dy  Dy2  1  0.015977  0.418200  0.000000  1
  In  In3  1  0.998197  0.738593  0.500000  1
  In  In4  1  0.261442  0.259593  0.500000  1
  In  In5  1  0.740328  0.001818  0.500000  1
  Ir  Ir6  1  0.333401  0.666751  0.500000  1
  Pd  Pd7  1  0.000035  0.999987  0.000000  1
  Pd  Pd8  1  0.666652  0.333300  0.500000  1
