# generated using pymatgen
data_TmSc7Cd3SnAu8
_symmetry_space_group_name_H-M   'P 1'
_cell_length_a   7.82143272
_cell_length_b   7.80541917
_cell_length_c   6.89201473
_cell_angle_alpha   90.15893636
_cell_angle_beta   89.98394257
_cell_angle_gamma   90.25718022
_symmetry_Int_Tables_number   1
_chemical_formula_structural   TmSc7Cd3SnAu8
_chemical_formula_sum   'Tm1 Sc7 Cd3 Sn1 Au8'
_cell_volume   420.74860057
_cell_formula_units_Z   1
loop_
 _symmetry_equiv_pos_site_id
 _symmetry_equiv_pos_as_xyz
  1  'x, y, z'
loop_
 _atom_site_type_symbol
 _atom_site_label
 _atom_site_symmetry_multiplicity
 _atom_site_fract_x
 _atom_site_fract_y
 _atom_site_fract_z
 _atom_site_occupancy
  Tm  Tm0  1  0.670093  0.351003  0.000552  1
  Sc  Sc1  1  0.681063  0.337155  0.500749  1
  Sc  Sc2  1  0.312322  0.667894  0.500218  1
  Sc  Sc3  1  0.161183  0.187563  0.999969  1
  Sc  Sc4  1  0.831619  0.818956  0.999388  1
  Sc  Sc5  1  0.860902  0.823838  0.500083  1
  Sc  Sc6  1  0.153110  0.160720  0.500707  1
  Sc  Sc7  1  0.333235  0.647486  0.998512  1
  Cd  Cd8  1  0.498592  0.000299  0.251207  1
  Cd  Cd9  1  0.001153  0.500814  0.746816  1
  Cd  Cd10  1  0.498911  0.999709  0.748567  1
  Sn  Sn11  1  0.002304  0.501366  0.252222  1
  Au  Au12  1  0.863594  0.120034  0.245115  1
  Au  Au13  1  0.139318  0.876276  0.225720  1
  Au  Au14  1  0.370154  0.364333  0.731388  1
  Au  Au15  1  0.625514  0.640255  0.729604  1
  Au  Au16  1  0.136933  0.872424  0.772417  1
  Au  Au17  1  0.865972  0.124063  0.755494  1
  Au  Au18  1  0.621253  0.642650  0.271354  1
  Au  Au19  1  0.372775  0.363161  0.269917  1
