# generated using pymatgen
data_Ba6Fe4O13
_symmetry_space_group_name_H-M   'P 1'
_cell_length_a   11.20257778
_cell_length_b   11.20257756
_cell_length_c   5.72764700
_cell_angle_alpha   90.00000000
_cell_angle_beta   90.00000000
_cell_angle_gamma   150.28786577
_symmetry_Int_Tables_number   1
_chemical_formula_structural   Ba6Fe4O13
_chemical_formula_sum   'Ba6 Fe4 O13'
_cell_volume   356.27127974
_cell_formula_units_Z   1
loop_
 _symmetry_equiv_pos_site_id
 _symmetry_equiv_pos_as_xyz
  1  'x, y, z'
loop_
 _atom_site_type_symbol
 _atom_site_label
 _atom_site_symmetry_multiplicity
 _atom_site_fract_x
 _atom_site_fract_y
 _atom_site_fract_z
 _atom_site_occupancy
  Ba  Ba0  1  0.500000  0.500000  0.000000  1
  Ba  Ba1  1  0.000000  0.000000  0.500000  1
  Ba  Ba2  1  0.180895  0.819105  0.500000  1
  Ba  Ba3  1  0.681915  0.318085  0.000000  1
  Ba  Ba4  1  0.318085  0.681915  0.000000  1
  Ba  Ba5  1  0.819105  0.180895  0.500000  1
  Fe  Fe6  1  0.394531  0.605469  0.500000  1
  Fe  Fe7  1  0.906963  0.093037  0.000000  1
  Fe  Fe8  1  0.093037  0.906963  0.000000  1
  Fe  Fe9  1  0.605469  0.394531  0.500000  1
  O  O10  1  0.646276  0.827716  0.738422  1
  O  O11  1  0.172284  0.353724  0.261578  1
  O  O12  1  0.827716  0.646276  0.738422  1
  O  O13  1  0.353724  0.172284  0.261578  1
  O  O14  1  0.172284  0.353724  0.738422  1
  O  O15  1  0.646276  0.827716  0.261578  1
  O  O16  1  0.353724  0.172284  0.738422  1
  O  O17  1  0.827716  0.646276  0.261578  1
  O  O18  1  0.305272  0.694728  0.500000  1
  O  O19  1  0.816882  0.183118  0.000000  1
  O  O20  1  0.183118  0.816882  0.000000  1
  O  O21  1  0.694728  0.305272  0.500000  1
  O  O22  1  0.000000  0.000000  0.000000  1
