# generated using pymatgen
data_TmTl6FeF12
_symmetry_space_group_name_H-M   'P 1'
_cell_length_a   6.66746423
_cell_length_b   6.41937343
_cell_length_c   11.17391000
_cell_angle_alpha   55.29377746
_cell_angle_beta   89.71544760
_cell_angle_gamma   90.07122234
_symmetry_Int_Tables_number   1
_chemical_formula_structural   TmTl6FeF12
_chemical_formula_sum   'Tm1 Tl6 Fe1 F12'
_cell_volume   393.15433937
_cell_formula_units_Z   1
loop_
 _symmetry_equiv_pos_site_id
 _symmetry_equiv_pos_as_xyz
  1  'x, y, z'
loop_
 _atom_site_type_symbol
 _atom_site_label
 _atom_site_symmetry_multiplicity
 _atom_site_fract_x
 _atom_site_fract_y
 _atom_site_fract_z
 _atom_site_occupancy
  Tm  Tm0  1  0.000000  0.000000  0.000000  1
  Tl  Tl1  1  0.500000  0.500000  0.000000  1
  Tl  Tl2  1  0.000000  0.500000  0.500000  1
  Tl  Tl3  1  0.051654  0.742802  0.742829  1
  Tl  Tl4  1  0.948346  0.257198  0.257171  1
  Tl  Tl5  1  0.546250  0.277055  0.737023  1
  Tl  Tl6  1  0.453750  0.722945  0.262977  1
  Fe  Fe7  1  0.500000  0.000000  0.500000  1
  F  F8  1  0.743510  0.788164  0.557748  1
  F  F9  1  0.256490  0.211836  0.442252  1
  F  F10  1  0.266923  0.228775  0.931067  1
  F  F11  1  0.733077  0.771225  0.068933  1
  F  F12  1  0.456294  0.894718  0.701834  1
  F  F13  1  0.543706  0.105282  0.298166  1
  F  F14  1  0.950823  0.110617  0.780874  1
  F  F15  1  0.049177  0.889383  0.219126  1
  F  F16  1  0.336450  0.708324  0.540631  1
  F  F17  1  0.663550  0.291676  0.459369  1
  F  F18  1  0.831733  0.322947  0.951954  1
  F  F19  1  0.168267  0.677053  0.048046  1
