# generated using pymatgen
data_Ba2SrTa2VO9
_symmetry_space_group_name_H-M   'P 1'
_cell_length_a   5.80528300
_cell_length_b   5.80528264
_cell_length_c   7.19182800
_cell_angle_alpha   90.00000000
_cell_angle_beta   90.00000000
_cell_angle_gamma   119.99998498
_symmetry_Int_Tables_number   1
_chemical_formula_structural   Ba2SrTa2VO9
_chemical_formula_sum   'Ba2 Sr1 Ta2 V1 O9'
_cell_volume   209.90208581
_cell_formula_units_Z   1
loop_
 _symmetry_equiv_pos_site_id
 _symmetry_equiv_pos_as_xyz
  1  'x, y, z'
loop_
 _atom_site_type_symbol
 _atom_site_label
 _atom_site_symmetry_multiplicity
 _atom_site_fract_x
 _atom_site_fract_y
 _atom_site_fract_z
 _atom_site_occupancy
  Ba  Ba0  1  0.333333  0.666667  0.663211  1
  Ba  Ba1  1  0.666667  0.333333  0.336789  1
  Sr  Sr2  1  0.000000  0.000000  0.000000  1
  Ta  Ta3  1  0.333333  0.666667  0.172903  1
  Ta  Ta4  1  0.666667  0.333333  0.827097  1
  V  V5  1  0.000000  0.000000  0.500000  1
  O  O6  1  0.170550  0.829450  0.319641  1
  O  O7  1  0.829450  0.170550  0.680359  1
  O  O8  1  0.170550  0.341101  0.319641  1
  O  O9  1  0.829450  0.658899  0.680359  1
  O  O10  1  0.658899  0.829450  0.319641  1
  O  O11  1  0.341101  0.170550  0.680359  1
  O  O12  1  0.500000  0.000000  0.000000  1
  O  O13  1  0.000000  0.500000  0.000000  1
  O  O14  1  0.500000  0.500000  0.000000  1
