# generated using pymatgen
data_Ca2GaAg2Sn
_symmetry_space_group_name_H-M   'P 1'
_cell_length_a   5.99251933
_cell_length_b   6.04672414
_cell_length_c   6.04672426
_cell_angle_alpha   133.93985857
_cell_angle_beta   104.24418134
_cell_angle_gamma   93.60116645
_symmetry_Int_Tables_number   1
_chemical_formula_structural   Ca2GaAg2Sn
_chemical_formula_sum   'Ca2 Ga1 Ag2 Sn1'
_cell_volume   144.10332722
_cell_formula_units_Z   1
loop_
 _symmetry_equiv_pos_site_id
 _symmetry_equiv_pos_as_xyz
  1  'x, y, z'
loop_
 _atom_site_type_symbol
 _atom_site_label
 _atom_site_symmetry_multiplicity
 _atom_site_fract_x
 _atom_site_fract_y
 _atom_site_fract_z
 _atom_site_occupancy
  Ca  Ca0  1  0.689092  0.691494  0.997598  1
  Ca  Ca1  1  0.117033  0.617608  0.499425  1
  Ga  Ga2  1  0.285449  0.984688  0.300761  1
  Ag  Ag3  1  0.524469  0.304108  0.220361  1
  Ag  Ag4  1  0.113893  0.328543  0.785350  1
  Sn  Sn5  1  0.685483  0.988977  0.696505  1
