# generated using pymatgen
data_SmY6Th(TcB6)4
_symmetry_space_group_name_H-M   'P 1'
_cell_length_a   3.71808300
_cell_length_b   9.22432543
_cell_length_c   11.63308600
_cell_angle_alpha   89.96811699
_cell_angle_beta   90.00000000
_cell_angle_gamma   90.00000000
_symmetry_Int_Tables_number   1
_chemical_formula_structural   SmY6Th(TcB6)4
_chemical_formula_sum   'Sm1 Y6 Th1 Tc4 B24'
_cell_volume   398.97765011
_cell_formula_units_Z   1
loop_
 _symmetry_equiv_pos_site_id
 _symmetry_equiv_pos_as_xyz
  1  'x, y, z'
loop_
 _atom_site_type_symbol
 _atom_site_label
 _atom_site_symmetry_multiplicity
 _atom_site_fract_x
 _atom_site_fract_y
 _atom_site_fract_z
 _atom_site_occupancy
  Sm  Sm0  1  0.000000  0.177626  0.913071  1
  Y  Y1  1  0.000000  0.323758  0.415187  1
  Y  Y2  1  0.000000  0.675824  0.585380  1
  Y  Y3  1  0.000000  0.441319  0.131817  1
  Y  Y4  1  0.000000  0.556871  0.867657  1
  Y  Y5  1  0.000000  0.942678  0.371343  1
  Y  Y6  1  0.000000  0.058007  0.629833  1
  Th  Th7  1  0.000000  0.822949  0.085824  1
  Tc  Tc8  1  0.000000  0.138602  0.180546  1
  Tc  Tc9  1  0.000000  0.861189  0.819471  1
  Tc  Tc10  1  0.000000  0.638457  0.321348  1
  Tc  Tc11  1  0.000000  0.362166  0.678377  1
  B  B12  1  0.500000  0.055370  0.069240  1
  B  B13  1  0.500000  0.945659  0.930014  1
  B  B14  1  0.500000  0.553276  0.433266  1
  B  B15  1  0.500000  0.446811  0.566850  1
  B  B16  1  0.500000  0.249274  0.083786  1
  B  B17  1  0.500000  0.751171  0.914737  1
  B  B18  1  0.500000  0.748016  0.419265  1
  B  B19  1  0.500000  0.251686  0.581350  1
  B  B20  1  0.500000  0.291176  0.235941  1
  B  B21  1  0.500000  0.708805  0.763545  1
  B  B22  1  0.500000  0.789602  0.267629  1
  B  B23  1  0.500000  0.209587  0.733381  1
  B  B24  1  0.500000  0.131516  0.315716  1
  B  B25  1  0.500000  0.869307  0.684665  1
  B  B26  1  0.500000  0.629298  0.187920  1
  B  B27  1  0.500000  0.369998  0.812608  1
  B  B28  1  0.500000  0.482377  0.289533  1
  B  B29  1  0.500000  0.517441  0.710584  1
  B  B30  1  0.500000  0.985122  0.213885  1
  B  B31  1  0.500000  0.016730  0.786243  1
  B  B32  1  0.500000  0.101742  0.472146  1
  B  B33  1  0.500000  0.898722  0.528559  1
  B  B34  1  0.500000  0.597317  0.027191  1
  B  B35  1  0.500000  0.400556  0.972098  1
