# generated using pymatgen
data_Dy4Ga4NiRh3
_symmetry_space_group_name_H-M   'P 1'
_cell_length_a   4.29605700
_cell_length_b   6.83030322
_cell_length_c   7.71300777
_cell_angle_alpha   89.81010974
_cell_angle_beta   90.00000000
_cell_angle_gamma   90.00000000
_symmetry_Int_Tables_number   1
_chemical_formula_structural   Dy4Ga4NiRh3
_chemical_formula_sum   'Dy4 Ga4 Ni1 Rh3'
_cell_volume   226.32441295
_cell_formula_units_Z   1
loop_
 _symmetry_equiv_pos_site_id
 _symmetry_equiv_pos_as_xyz
  1  'x, y, z'
loop_
 _atom_site_type_symbol
 _atom_site_label
 _atom_site_symmetry_multiplicity
 _atom_site_fract_x
 _atom_site_fract_y
 _atom_site_fract_z
 _atom_site_occupancy
  Dy  Dy0  1  0.250000  0.025262  0.812659  1
  Dy  Dy1  1  0.250000  0.525805  0.689881  1
  Dy  Dy2  1  0.750000  0.973486  0.190504  1
  Dy  Dy3  1  0.750000  0.477553  0.308563  1
  Ga  Ga4  1  0.250000  0.156352  0.428951  1
  Ga  Ga5  1  0.250000  0.661805  0.062229  1
  Ga  Ga6  1  0.750000  0.839870  0.578891  1
  Ga  Ga7  1  0.750000  0.348165  0.928085  1
  Ni  Ni8  1  0.750000  0.723397  0.893526  1
  Rh  Rh9  1  0.250000  0.767693  0.392155  1
  Rh  Rh10  1  0.250000  0.270590  0.106072  1
  Rh  Rh11  1  0.750000  0.230023  0.608485  1
