# generated using pymatgen
data_DyYBe2(Ru2C)2
_symmetry_space_group_name_H-M   'P 1'
_cell_length_a   5.66089502
_cell_length_b   5.66089605
_cell_length_c   7.02333700
_cell_angle_alpha   90.00000000
_cell_angle_beta   90.00000000
_cell_angle_gamma   140.76984212
_symmetry_Int_Tables_number   1
_chemical_formula_structural   DyYBe2(Ru2C)2
_chemical_formula_sum   'Dy1 Y1 Be2 Ru4 C2'
_cell_volume   142.34136787
_cell_formula_units_Z   1
loop_
 _symmetry_equiv_pos_site_id
 _symmetry_equiv_pos_as_xyz
  1  'x, y, z'
loop_
 _atom_site_type_symbol
 _atom_site_label
 _atom_site_symmetry_multiplicity
 _atom_site_fract_x
 _atom_site_fract_y
 _atom_site_fract_z
 _atom_site_occupancy
  Dy  Dy0  1  0.544658  0.455342  0.250000  1
  Y  Y1  1  0.455429  0.544571  0.750000  1
  Be  Be2  1  0.271491  0.728509  0.250000  1
  Be  Be3  1  0.728497  0.271503  0.750000  1
  Ru  Ru4  1  0.826724  0.173276  0.057151  1
  Ru  Ru5  1  0.173221  0.826779  0.943122  1
  Ru  Ru6  1  0.173221  0.826779  0.556878  1
  Ru  Ru7  1  0.826724  0.173276  0.442849  1
  C  C8  1  0.000018  0.999982  0.000285  1
  C  C9  1  0.000018  0.999982  0.499715  1
