# generated using pymatgen
data_Cd2AsClO4
_symmetry_space_group_name_H-M   'P 1'
_cell_length_a   5.31663400
_cell_length_b   8.69689400
_cell_length_c   12.10072700
_cell_angle_alpha   90.00000000
_cell_angle_beta   90.00000000
_cell_angle_gamma   90.00000000
_symmetry_Int_Tables_number   1
_chemical_formula_structural   Cd2AsClO4
_chemical_formula_sum   'Cd8 As4 Cl4 O16'
_cell_volume   559.51586342
_cell_formula_units_Z   4
loop_
 _symmetry_equiv_pos_site_id
 _symmetry_equiv_pos_as_xyz
  1  'x, y, z'
loop_
 _atom_site_type_symbol
 _atom_site_label
 _atom_site_symmetry_multiplicity
 _atom_site_fract_x
 _atom_site_fract_y
 _atom_site_fract_z
 _atom_site_occupancy
  Cd  Cd0  1  0.507997  0.153695  0.617187  1
  Cd  Cd1  1  0.007997  0.846305  0.382813  1
  Cd  Cd2  1  0.006744  0.394138  0.382577  1
  Cd  Cd3  1  0.007997  0.653695  0.882813  1
  Cd  Cd4  1  0.507997  0.346305  0.117187  1
  Cd  Cd5  1  0.506744  0.894138  0.117423  1
  Cd  Cd6  1  0.006744  0.105862  0.882577  1
  Cd  Cd7  1  0.506744  0.605862  0.617423  1
  As  As8  1  0.957859  0.121416  0.165719  1
  As  As9  1  0.457859  0.878584  0.834281  1
  As  As10  1  0.957859  0.378584  0.665719  1
  As  As11  1  0.457859  0.621416  0.334281  1
  Cl  Cl12  1  0.244306  0.380164  0.937949  1
  Cl  Cl13  1  0.744306  0.619836  0.062051  1
  Cl  Cl14  1  0.744306  0.880164  0.562051  1
  Cl  Cl15  1  0.244306  0.119836  0.437949  1
  O  O16  1  0.349173  0.456349  0.271595  1
  O  O17  1  0.346255  0.784182  0.269731  1
  O  O18  1  0.777974  0.621264  0.350541  1
  O  O19  1  0.846255  0.215818  0.730269  1
  O  O20  1  0.788593  0.124040  0.041886  1
  O  O21  1  0.277974  0.378736  0.649459  1
  O  O22  1  0.777974  0.878736  0.850541  1
  O  O23  1  0.849173  0.543651  0.728405  1
  O  O24  1  0.788593  0.375960  0.541886  1
  O  O25  1  0.346255  0.715818  0.769731  1
  O  O26  1  0.288593  0.624040  0.458114  1
  O  O27  1  0.277974  0.121264  0.149459  1
  O  O28  1  0.288593  0.875960  0.958114  1
  O  O29  1  0.849173  0.956349  0.228405  1
  O  O30  1  0.846255  0.284182  0.230269  1
  O  O31  1  0.349173  0.043651  0.771595  1
