# generated using pymatgen
data_Y3ErHf3O12
_symmetry_space_group_name_H-M   'P 1'
_cell_length_a   6.31412051
_cell_length_b   6.36540520
_cell_length_c   6.58821312
_cell_angle_alpha   99.96475563
_cell_angle_beta   98.13593603
_cell_angle_gamma   99.75325906
_symmetry_Int_Tables_number   1
_chemical_formula_structural   Y3ErHf3O12
_chemical_formula_sum   'Y3 Er1 Hf3 O12'
_cell_volume   253.01696215
_cell_formula_units_Z   1
loop_
 _symmetry_equiv_pos_site_id
 _symmetry_equiv_pos_as_xyz
  1  'x, y, z'
loop_
 _atom_site_type_symbol
 _atom_site_label
 _atom_site_symmetry_multiplicity
 _atom_site_fract_x
 _atom_site_fract_y
 _atom_site_fract_z
 _atom_site_occupancy
  Y  Y0  1  0.385764  0.699841  0.867193  1
  Y  Y1  1  0.302367  0.133890  0.610109  1
  Y  Y2  1  0.614995  0.301271  0.133406  1
  Er  Er3  1  0.696481  0.865279  0.389253  1
  Hf  Hf4  1  0.999082  0.999395  0.999536  1
  Hf  Hf5  1  0.847488  0.397731  0.665710  1
  Hf  Hf6  1  0.152262  0.602590  0.333126  1
  O  O7  1  0.587756  0.416097  0.818847  1
  O  O8  1  0.829713  0.573498  0.426718  1
  O  O9  1  0.411211  0.809337  0.563741  1
  O  O10  1  0.413744  0.585798  0.181748  1
  O  O11  1  0.168559  0.429127  0.573381  1
  O  O12  1  0.592739  0.188691  0.434772  1
  O  O13  1  0.016783  0.679440  0.876349  1
  O  O14  1  0.918253  0.088495  0.699183  1
  O  O15  1  0.687175  0.933487  0.061850  1
  O  O16  1  0.983747  0.320642  0.123840  1
  O  O17  1  0.079011  0.909403  0.299760  1
  O  O18  1  0.312871  0.065988  0.941476  1
