# generated using pymatgen
data_Tb3V(Ni4P3)2
_symmetry_space_group_name_H-M   'P 1'
_cell_length_a   3.75577800
_cell_length_b   10.62480000
_cell_length_c   12.30046800
_cell_angle_alpha   90.00000000
_cell_angle_beta   90.00000000
_cell_angle_gamma   90.00000000
_symmetry_Int_Tables_number   1
_chemical_formula_structural   Tb3V(Ni4P3)2
_chemical_formula_sum   'Tb6 V2 Ni16 P12'
_cell_volume   490.84267342
_cell_formula_units_Z   2
loop_
 _symmetry_equiv_pos_site_id
 _symmetry_equiv_pos_as_xyz
  1  'x, y, z'
loop_
 _atom_site_type_symbol
 _atom_site_label
 _atom_site_symmetry_multiplicity
 _atom_site_fract_x
 _atom_site_fract_y
 _atom_site_fract_z
 _atom_site_occupancy
  Tb  Tb0  1  0.000000  0.500000  0.522135  1
  Tb  Tb1  1  0.500000  0.000000  0.477865  1
  Tb  Tb2  1  0.500000  0.817551  0.205546  1
  Tb  Tb3  1  0.500000  0.182449  0.205546  1
  Tb  Tb4  1  0.000000  0.682449  0.794454  1
  Tb  Tb5  1  0.000000  0.317551  0.794454  1
  V  V6  1  0.500000  0.500000  0.151220  1
  V  V7  1  0.000000  0.000000  0.848780  1
  Ni  Ni8  1  0.500000  0.500000  0.701013  1
  Ni  Ni9  1  0.000000  0.000000  0.298987  1
  Ni  Ni10  1  0.000000  0.500000  0.984426  1
  Ni  Ni11  1  0.500000  0.000000  0.015574  1
  Ni  Ni12  1  0.500000  0.333176  0.990600  1
  Ni  Ni13  1  0.500000  0.666824  0.990600  1
  Ni  Ni14  1  0.000000  0.166824  0.009400  1
  Ni  Ni15  1  0.000000  0.833176  0.009400  1
  Ni  Ni16  1  0.500000  0.301484  0.427560  1
  Ni  Ni17  1  0.500000  0.698516  0.427560  1
  Ni  Ni18  1  0.000000  0.198516  0.572440  1
  Ni  Ni19  1  0.000000  0.801484  0.572440  1
  Ni  Ni20  1  0.500000  0.880091  0.710570  1
  Ni  Ni21  1  0.500000  0.119909  0.710570  1
  Ni  Ni22  1  0.000000  0.619909  0.289430  1
  Ni  Ni23  1  0.000000  0.380091  0.289430  1
  P  P24  1  0.500000  0.500000  0.879081  1
  P  P25  1  0.000000  0.000000  0.120919  1
  P  P26  1  0.500000  0.500000  0.344003  1
  P  P27  1  0.000000  0.000000  0.655997  1
  P  P28  1  0.500000  0.313758  0.614032  1
  P  P29  1  0.500000  0.686242  0.614032  1
  P  P30  1  0.000000  0.186242  0.385968  1
  P  P31  1  0.000000  0.813758  0.385968  1
  P  P32  1  0.500000  0.846785  0.893126  1
  P  P33  1  0.500000  0.153215  0.893126  1
  P  P34  1  0.000000  0.653215  0.106874  1
  P  P35  1  0.000000  0.346785  0.106874  1
