# generated using pymatgen
data_AcN6Cl
_symmetry_space_group_name_H-M   'P 1'
_cell_length_a   7.08984555
_cell_length_b   7.08984602
_cell_length_c   13.81753075
_cell_angle_alpha   83.04061771
_cell_angle_beta   83.04061871
_cell_angle_gamma   71.52297366
_symmetry_Int_Tables_number   1
_chemical_formula_structural   AcN6Cl
_chemical_formula_sum   'Ac4 N24 Cl4'
_cell_volume   651.36213317
_cell_formula_units_Z   4
loop_
 _symmetry_equiv_pos_site_id
 _symmetry_equiv_pos_as_xyz
  1  'x, y, z'
loop_
 _atom_site_type_symbol
 _atom_site_label
 _atom_site_symmetry_multiplicity
 _atom_site_fract_x
 _atom_site_fract_y
 _atom_site_fract_z
 _atom_site_occupancy
  Ac  Ac0  1  0.184613  0.655085  0.564312  1
  Ac  Ac1  1  0.815387  0.344915  0.435688  1
  Ac  Ac2  1  0.655085  0.184613  0.064312  1
  Ac  Ac3  1  0.344915  0.815387  0.935688  1
  N  N4  1  0.502567  0.270642  0.347115  1
  N  N5  1  0.789028  0.871973  0.781130  1
  N  N6  1  0.663910  0.660236  0.116978  1
  N  N7  1  0.071008  0.191852  0.266226  1
  N  N8  1  0.808148  0.928992  0.233774  1
  N  N9  1  0.336090  0.339764  0.883022  1
  N  N10  1  0.593571  0.824882  0.078820  1
  N  N11  1  0.128027  0.210972  0.718870  1
  N  N12  1  0.191852  0.071008  0.766226  1
  N  N13  1  0.966630  0.999240  0.960753  1
  N  N14  1  0.175118  0.406429  0.421180  1
  N  N15  1  0.729358  0.497433  0.152885  1
  N  N16  1  0.871973  0.789028  0.281130  1
  N  N17  1  0.406429  0.175118  0.921180  1
  N  N18  1  0.270642  0.502567  0.847115  1
  N  N19  1  0.210972  0.128027  0.218870  1
  N  N20  1  0.033370  0.000760  0.039247  1
  N  N21  1  0.928992  0.808148  0.733774  1
  N  N22  1  0.824882  0.593571  0.578820  1
  N  N23  1  0.660236  0.663910  0.616978  1
  N  N24  1  0.000760  0.033370  0.539247  1
  N  N25  1  0.339764  0.336090  0.383022  1
  N  N26  1  0.497433  0.729358  0.652885  1
  N  N27  1  0.999240  0.966630  0.460753  1
  Cl  Cl28  1  0.478583  0.718247  0.407535  1
  Cl  Cl29  1  0.521417  0.281753  0.592465  1
  Cl  Cl30  1  0.718247  0.478583  0.907535  1
  Cl  Cl31  1  0.281753  0.521417  0.092465  1
