# generated using pymatgen
data_Tb6YFeI12
_symmetry_space_group_name_H-M   'P 1'
_cell_length_a   9.74170130
_cell_length_b   9.74170089
_cell_length_c   9.74170094
_cell_angle_alpha   106.98540465
_cell_angle_beta   106.98540595
_cell_angle_gamma   106.98539984
_symmetry_Int_Tables_number   1
_chemical_formula_structural   Tb6YFeI12
_chemical_formula_sum   'Tb6 Y1 Fe1 I12'
_cell_volume   770.23433883
_cell_formula_units_Z   1
loop_
 _symmetry_equiv_pos_site_id
 _symmetry_equiv_pos_as_xyz
  1  'x, y, z'
loop_
 _atom_site_type_symbol
 _atom_site_label
 _atom_site_symmetry_multiplicity
 _atom_site_fract_x
 _atom_site_fract_y
 _atom_site_fract_z
 _atom_site_occupancy
  Tb  Tb0  1  0.709851  0.978347  0.908486  1
  Tb  Tb1  1  0.978347  0.908486  0.709851  1
  Tb  Tb2  1  0.091514  0.290149  0.021653  1
  Tb  Tb3  1  0.290149  0.021653  0.091514  1
  Tb  Tb4  1  0.908486  0.709851  0.978347  1
  Tb  Tb5  1  0.021653  0.091514  0.290149  1
  Y  Y6  1  0.500000  0.500000  0.500000  1
  Fe  Fe7  1  0.000000  0.000000  0.000000  1
  I  I8  1  0.072658  0.227480  0.678513  1
  I  I9  1  0.386450  0.159551  0.464024  1
  I  I10  1  0.613550  0.840449  0.535976  1
  I  I11  1  0.227480  0.678513  0.072658  1
  I  I12  1  0.772520  0.321487  0.927342  1
  I  I13  1  0.678513  0.072658  0.227480  1
  I  I14  1  0.535976  0.613550  0.840449  1
  I  I15  1  0.840449  0.535976  0.613550  1
  I  I16  1  0.927342  0.772520  0.321487  1
  I  I17  1  0.321487  0.927342  0.772520  1
  I  I18  1  0.464024  0.386450  0.159551  1
  I  I19  1  0.159551  0.464024  0.386450  1
