# generated using pymatgen
data_TbTm11Si11Pt
_symmetry_space_group_name_H-M   'P 1'
_cell_length_a   3.81509200
_cell_length_b   5.62781670
_cell_length_c   23.39438800
_cell_angle_alpha   82.68222572
_cell_angle_beta   90.00000000
_cell_angle_gamma   90.00000000
_symmetry_Int_Tables_number   1
_chemical_formula_structural   TbTm11Si11Pt
_chemical_formula_sum   'Tb1 Tm11 Si11 Pt1'
_cell_volume   498.20126312
_cell_formula_units_Z   1
loop_
 _symmetry_equiv_pos_site_id
 _symmetry_equiv_pos_as_xyz
  1  'x, y, z'
loop_
 _atom_site_type_symbol
 _atom_site_label
 _atom_site_symmetry_multiplicity
 _atom_site_fract_x
 _atom_site_fract_y
 _atom_site_fract_z
 _atom_site_occupancy
  Tb  Tb0  1  0.750000  0.171935  0.892107  1
  Tm  Tm1  1  0.750000  0.357309  0.061957  1
  Tm  Tm2  1  0.250000  0.662051  0.938825  1
  Tm  Tm3  1  0.750000  0.526384  0.225184  1
  Tm  Tm4  1  0.250000  0.468546  0.772315  1
  Tm  Tm5  1  0.750000  0.167687  0.394030  1
  Tm  Tm6  1  0.250000  0.824906  0.606325  1
  Tm  Tm7  1  0.750000  0.350225  0.559221  1
  Tm  Tm8  1  0.250000  0.642713  0.440833  1
  Tm  Tm9  1  0.750000  0.993103  0.725331  1
  Tm  Tm10  1  0.250000  0.997013  0.275786  1
  Tm  Tm11  1  0.250000  0.832769  0.107966  1
  Si  Si12  1  0.750000  0.871988  0.012862  1
  Si  Si13  1  0.250000  0.148222  0.987563  1
  Si  Si14  1  0.750000  0.040634  0.181850  1
  Si  Si15  1  0.250000  0.957426  0.818968  1
  Si  Si16  1  0.750000  0.707865  0.347577  1
  Si  Si17  1  0.250000  0.284284  0.653017  1
  Si  Si18  1  0.750000  0.859374  0.512686  1
  Si  Si19  1  0.250000  0.134019  0.487083  1
  Si  Si20  1  0.750000  0.533473  0.678504  1
  Si  Si21  1  0.250000  0.460164  0.321818  1
  Si  Si22  1  0.750000  0.681709  0.844497  1
  Pt  Pt23  1  0.250000  0.326202  0.153691  1
