# generated using pymatgen
data_YHfTaB2Ru5
_symmetry_space_group_name_H-M   'P 1'
_cell_length_a   9.58618647
_cell_length_b   9.58618647
_cell_length_c   3.12443600
_cell_angle_alpha   90.00000000
_cell_angle_beta   90.00000000
_cell_angle_gamma   90.65263435
_symmetry_Int_Tables_number   1
_chemical_formula_structural   YHfTaB2Ru5
_chemical_formula_sum   'Y2 Hf2 Ta2 B4 Ru10'
_cell_volume   287.10132963
_cell_formula_units_Z   2
loop_
 _symmetry_equiv_pos_site_id
 _symmetry_equiv_pos_as_xyz
  1  'x, y, z'
loop_
 _atom_site_type_symbol
 _atom_site_label
 _atom_site_symmetry_multiplicity
 _atom_site_fract_x
 _atom_site_fract_y
 _atom_site_fract_z
 _atom_site_occupancy
  Y  Y0  1  0.824124  0.675876  0.000000  1
  Y  Y1  1  0.175876  0.324124  0.000000  1
  Hf  Hf2  1  0.325228  0.825228  0.000000  1
  Hf  Hf3  1  0.674772  0.174772  0.000000  1
  Ta  Ta4  1  0.500000  0.500000  0.000000  1
  Ta  Ta5  1  0.000000  0.000000  0.000000  1
  B  B6  1  0.619834  0.880166  0.000000  1
  B  B7  1  0.380166  0.119834  0.000000  1
  B  B8  1  0.122242  0.622242  0.000000  1
  B  B9  1  0.877758  0.377758  0.000000  1
  Ru  Ru10  1  0.563161  0.721483  0.500000  1
  Ru  Ru11  1  0.436839  0.278517  0.500000  1
  Ru  Ru12  1  0.078541  0.784284  0.500000  1
  Ru  Ru13  1  0.921459  0.215716  0.500000  1
  Ru  Ru14  1  0.284284  0.578541  0.500000  1
  Ru  Ru15  1  0.715716  0.421459  0.500000  1
  Ru  Ru16  1  0.221483  0.063161  0.500000  1
  Ru  Ru17  1  0.778517  0.936839  0.500000  1
  Ru  Ru18  1  0.500000  0.000000  0.500000  1
  Ru  Ru19  1  0.000000  0.500000  0.500000  1
