# generated using pymatgen
data_Dy3Co8TcP6
_symmetry_space_group_name_H-M   'P 1'
_cell_length_a   3.71391100
_cell_length_b   10.52360500
_cell_length_c   12.23145200
_cell_angle_alpha   90.00000000
_cell_angle_beta   90.00000000
_cell_angle_gamma   90.00000000
_symmetry_Int_Tables_number   1
_chemical_formula_structural   Dy3Co8TcP6
_chemical_formula_sum   'Dy6 Co16 Tc2 P12'
_cell_volume   478.05079645
_cell_formula_units_Z   2
loop_
 _symmetry_equiv_pos_site_id
 _symmetry_equiv_pos_as_xyz
  1  'x, y, z'
loop_
 _atom_site_type_symbol
 _atom_site_label
 _atom_site_symmetry_multiplicity
 _atom_site_fract_x
 _atom_site_fract_y
 _atom_site_fract_z
 _atom_site_occupancy
  Dy  Dy0  1  0.000000  0.500000  0.523507  1
  Dy  Dy1  1  0.500000  0.000000  0.476493  1
  Dy  Dy2  1  0.500000  0.817708  0.206115  1
  Dy  Dy3  1  0.500000  0.182292  0.206115  1
  Dy  Dy4  1  0.000000  0.682292  0.793885  1
  Dy  Dy5  1  0.000000  0.317708  0.793885  1
  Co  Co6  1  0.500000  0.500000  0.702715  1
  Co  Co7  1  0.000000  0.000000  0.297285  1
  Co  Co8  1  0.000000  0.500000  0.987160  1
  Co  Co9  1  0.500000  0.000000  0.012840  1
  Co  Co10  1  0.500000  0.332170  0.990053  1
  Co  Co11  1  0.500000  0.667830  0.990053  1
  Co  Co12  1  0.000000  0.167830  0.009947  1
  Co  Co13  1  0.000000  0.832170  0.009947  1
  Co  Co14  1  0.500000  0.296639  0.431053  1
  Co  Co15  1  0.500000  0.703361  0.431053  1
  Co  Co16  1  0.000000  0.203361  0.568947  1
  Co  Co17  1  0.000000  0.796639  0.568947  1
  Co  Co18  1  0.500000  0.879142  0.707932  1
  Co  Co19  1  0.500000  0.120858  0.707932  1
  Co  Co20  1  0.000000  0.620858  0.292068  1
  Co  Co21  1  0.000000  0.379142  0.292068  1
  Tc  Tc22  1  0.500000  0.500000  0.156342  1
  Tc  Tc23  1  0.000000  0.000000  0.843658  1
  P  P24  1  0.500000  0.500000  0.881269  1
  P  P25  1  0.000000  0.000000  0.118731  1
  P  P26  1  0.500000  0.500000  0.348269  1
  P  P27  1  0.000000  0.000000  0.651731  1
  P  P28  1  0.500000  0.311477  0.615876  1
  P  P29  1  0.500000  0.688523  0.615876  1
  P  P30  1  0.000000  0.188523  0.384124  1
  P  P31  1  0.000000  0.811477  0.384124  1
  P  P32  1  0.500000  0.846128  0.892829  1
  P  P33  1  0.500000  0.153872  0.892829  1
  P  P34  1  0.000000  0.653872  0.107171  1
  P  P35  1  0.000000  0.346128  0.107171  1
