# generated using pymatgen
data_CaTb4(Pr5Ir4)3
_symmetry_space_group_name_H-M   'P 1'
_cell_length_a   11.27901089
_cell_length_b   11.28882431
_cell_length_c   6.56717026
_cell_angle_alpha   89.93894040
_cell_angle_beta   90.25584473
_cell_angle_gamma   89.88489741
_symmetry_Int_Tables_number   1
_chemical_formula_structural   CaTb4(Pr5Ir4)3
_chemical_formula_sum   'Ca1 Tb4 Pr15 Ir12'
_cell_volume   836.16608674
_cell_formula_units_Z   1
loop_
 _symmetry_equiv_pos_site_id
 _symmetry_equiv_pos_as_xyz
  1  'x, y, z'
loop_
 _atom_site_type_symbol
 _atom_site_label
 _atom_site_symmetry_multiplicity
 _atom_site_fract_x
 _atom_site_fract_y
 _atom_site_fract_z
 _atom_site_occupancy
  Ca  Ca0  1  0.289945  0.087533  0.380903  1
  Tb  Tb1  1  0.003691  0.001186  0.498272  1
  Tb  Tb2  1  0.999297  0.000106  0.999002  1
  Tb  Tb3  1  0.500202  0.499925  0.998389  1
  Tb  Tb4  1  0.499402  0.500817  0.497997  1
  Pr  Pr5  1  0.289011  0.912994  0.884198  1
  Pr  Pr6  1  0.710558  0.087475  0.883030  1
  Pr  Pr7  1  0.711008  0.912671  0.383240  1
  Pr  Pr8  1  0.587952  0.789473  0.882145  1
  Pr  Pr9  1  0.583990  0.209700  0.382910  1
  Pr  Pr10  1  0.410818  0.792588  0.382758  1
  Pr  Pr11  1  0.410574  0.209456  0.883844  1
  Pr  Pr12  1  0.210631  0.411581  0.618519  1
  Pr  Pr13  1  0.211450  0.587973  0.117203  1
  Pr  Pr14  1  0.789269  0.411248  0.117684  1
  Pr  Pr15  1  0.789467  0.588102  0.617676  1
  Pr  Pr16  1  0.911872  0.710538  0.117628  1
  Pr  Pr17  1  0.911628  0.288734  0.619479  1
  Pr  Pr18  1  0.087737  0.710784  0.617534  1
  Pr  Pr19  1  0.090206  0.288427  0.119683  1
  Ir  Ir20  1  0.852443  0.149421  0.250324  1
  Ir  Ir21  1  0.852135  0.851393  0.748795  1
  Ir  Ir22  1  0.147302  0.149227  0.755933  1
  Ir  Ir23  1  0.145869  0.846862  0.246700  1
  Ir  Ir24  1  0.647918  0.350752  0.748840  1
  Ir  Ir25  1  0.648949  0.648698  0.250043  1
  Ir  Ir26  1  0.351115  0.355587  0.246766  1
  Ir  Ir27  1  0.351031  0.649311  0.748757  1
  Ir  Ir28  1  0.501552  0.999584  0.116650  1
  Ir  Ir29  1  0.502550  0.998805  0.622564  1
  Ir  Ir30  1  0.000344  0.499644  0.881292  1
  Ir  Ir31  1  0.000082  0.499403  0.381244  1
