# generated using pymatgen
data_Ce2Mg2InPb3
_symmetry_space_group_name_H-M   'P 1'
_cell_length_a   4.83676200
_cell_length_b   4.90165700
_cell_length_c   9.17704200
_cell_angle_alpha   90.00000000
_cell_angle_beta   90.00000000
_cell_angle_gamma   90.00000000
_symmetry_Int_Tables_number   1
_chemical_formula_structural   Ce2Mg2InPb3
_chemical_formula_sum   'Ce2 Mg2 In1 Pb3'
_cell_volume   217.57067283
_cell_formula_units_Z   1
loop_
 _symmetry_equiv_pos_site_id
 _symmetry_equiv_pos_as_xyz
  1  'x, y, z'
loop_
 _atom_site_type_symbol
 _atom_site_label
 _atom_site_symmetry_multiplicity
 _atom_site_fract_x
 _atom_site_fract_y
 _atom_site_fract_z
 _atom_site_occupancy
  Ce  Ce0  1  0.000000  0.000000  0.248984  1
  Ce  Ce1  1  0.000000  0.000000  0.751016  1
  Mg  Mg2  1  0.500000  0.500000  0.255307  1
  Mg  Mg3  1  0.500000  0.500000  0.744693  1
  In  In4  1  0.000000  0.500000  0.500000  1
  Pb  Pb5  1  0.000000  0.500000  0.000000  1
  Pb  Pb6  1  0.500000  0.000000  0.500000  1
  Pb  Pb7  1  0.500000  0.000000  0.000000  1
