# generated using pymatgen
data_DyHo3(Fe2Br)2
_symmetry_space_group_name_H-M   'P 1'
_cell_length_a   3.90738700
_cell_length_b   3.90738640
_cell_length_c   16.46344800
_cell_angle_alpha   90.00000000
_cell_angle_beta   90.00000000
_cell_angle_gamma   119.99999662
_symmetry_Int_Tables_number   1
_chemical_formula_structural   DyHo3(Fe2Br)2
_chemical_formula_sum   'Dy1 Ho3 Fe4 Br2'
_cell_volume   217.68285792
_cell_formula_units_Z   1
loop_
 _symmetry_equiv_pos_site_id
 _symmetry_equiv_pos_as_xyz
  1  'x, y, z'
loop_
 _atom_site_type_symbol
 _atom_site_label
 _atom_site_symmetry_multiplicity
 _atom_site_fract_x
 _atom_site_fract_y
 _atom_site_fract_z
 _atom_site_occupancy
  Dy  Dy0  1  0.000000  0.000000  0.109211  1
  Ho  Ho1  1  0.000000  0.000000  0.391442  1
  Ho  Ho2  1  0.000000  0.000000  0.608989  1
  Ho  Ho3  1  0.000000  0.000000  0.890712  1
  Fe  Fe4  1  0.333334  0.666668  0.005577  1
  Fe  Fe5  1  0.333334  0.666668  0.493858  1
  Fe  Fe6  1  0.666667  0.333333  0.506764  1
  Fe  Fe7  1  0.666667  0.333333  0.993206  1
  Br  Br8  1  0.666667  0.333333  0.250307  1
  Br  Br9  1  0.333334  0.666668  0.749935  1
