# generated using pymatgen
data_V2Fe5(PO4)6
_symmetry_space_group_name_H-M   'P 1'
_cell_length_a   6.43253054
_cell_length_b   8.09747246
_cell_length_c   9.48546494
_cell_angle_alpha   105.88305850
_cell_angle_beta   108.28262359
_cell_angle_gamma   101.31265458
_symmetry_Int_Tables_number   1
_chemical_formula_structural   V2Fe5(PO4)6
_chemical_formula_sum   'V2 Fe5 P6 O24'
_cell_volume   429.16871030
_cell_formula_units_Z   1
loop_
 _symmetry_equiv_pos_site_id
 _symmetry_equiv_pos_as_xyz
  1  'x, y, z'
loop_
 _atom_site_type_symbol
 _atom_site_label
 _atom_site_symmetry_multiplicity
 _atom_site_fract_x
 _atom_site_fract_y
 _atom_site_fract_z
 _atom_site_occupancy
  V  V0  1  0.045585  0.717036  0.025078  1
  V  V1  1  0.954415  0.282964  0.974922  1
  Fe  Fe2  1  0.385875  0.452592  0.614712  1
  Fe  Fe3  1  0.614125  0.547408  0.385288  1
  Fe  Fe4  1  0.281790  0.811341  0.787807  1
  Fe  Fe5  1  0.718210  0.188659  0.212193  1
  Fe  Fe6  1  0.000000  0.000000  0.500000  1
  P  P7  1  0.602268  0.768689  0.132475  1
  P  P8  1  0.397732  0.231311  0.867525  1
  P  P9  1  0.091881  0.593046  0.334302  1
  P  P10  1  0.908119  0.406954  0.665698  1
  P  P11  1  0.772782  0.850671  0.732408  1
  P  P12  1  0.227218  0.149329  0.267592  1
  O  O13  1  0.367131  0.761346  0.008763  1
  O  O14  1  0.632869  0.238654  0.991237  1
  O  O15  1  0.749920  0.720792  0.038258  1
  O  O16  1  0.250080  0.279208  0.961742  1
  O  O17  1  0.552141  0.635458  0.214797  1
  O  O18  1  0.447859  0.364542  0.785203  1
  O  O19  1  0.722867  0.961514  0.261923  1
  O  O20  1  0.277133  0.038486  0.738077  1
  O  O21  1  0.062686  0.544616  0.155229  1
  O  O22  1  0.937314  0.455384  0.844771  1
  O  O23  1  0.308478  0.539899  0.416696  1
  O  O24  1  0.691522  0.460101  0.583304  1
  O  O25  1  0.115233  0.787333  0.416227  1
  O  O26  1  0.884767  0.212667  0.583773  1
  O  O27  1  0.876206  0.467269  0.338831  1
  O  O28  1  0.123794  0.532731  0.661169  1
  O  O29  1  0.545972  0.732045  0.727699  1
  O  O30  1  0.454028  0.267955  0.272301  1
  O  O31  1  0.789766  0.048943  0.793568  1
  O  O32  1  0.210234  0.951057  0.206432  1
  O  O33  1  0.772761  0.797732  0.559684  1
  O  O34  1  0.227239  0.202268  0.440316  1
  O  O35  1  0.983051  0.814044  0.841328  1
  O  O36  1  0.016949  0.185956  0.158672  1
