# generated using pymatgen
data_Y6Ho2CdInPd2
_symmetry_space_group_name_H-M   'P 1'
_cell_length_a   9.72322409
_cell_length_b   9.72322469
_cell_length_c   9.74853100
_cell_angle_alpha   59.91387048
_cell_angle_beta   59.91386842
_cell_angle_gamma   59.89992930
_symmetry_Int_Tables_number   1
_chemical_formula_structural   Y6Ho2CdInPd2
_chemical_formula_sum   'Y12 Ho4 Cd2 In2 Pd4'
_cell_volume   650.35353504
_cell_formula_units_Z   2
loop_
 _symmetry_equiv_pos_site_id
 _symmetry_equiv_pos_as_xyz
  1  'x, y, z'
loop_
 _atom_site_type_symbol
 _atom_site_label
 _atom_site_symmetry_multiplicity
 _atom_site_fract_x
 _atom_site_fract_y
 _atom_site_fract_z
 _atom_site_occupancy
  Y  Y0  1  0.809835  0.190722  0.189853  1
  Y  Y1  1  0.190722  0.809835  0.809590  1
  Y  Y2  1  0.190722  0.809835  0.189853  1
  Y  Y3  1  0.809835  0.190722  0.809590  1
  Y  Y4  1  0.188925  0.188925  0.811075  1
  Y  Y5  1  0.808567  0.808567  0.191433  1
  Y  Y6  1  0.937466  0.564802  0.563929  1
  Y  Y7  1  0.564802  0.937466  0.933803  1
  Y  Y8  1  0.564802  0.937466  0.563929  1
  Y  Y9  1  0.937466  0.564802  0.933803  1
  Y  Y10  1  0.565371  0.565371  0.934629  1
  Y  Y11  1  0.936849  0.936849  0.563151  1
  Ho  Ho12  1  0.352905  0.352905  0.352682  1
  Ho  Ho13  1  0.352905  0.352905  0.941508  1
  Ho  Ho14  1  0.354150  0.938930  0.353460  1
  Ho  Ho15  1  0.938930  0.354150  0.353460  1
  Cd  Cd16  1  0.581261  0.251922  0.583409  1
  Cd  Cd17  1  0.251922  0.581261  0.583409  1
  In  In18  1  0.582198  0.582198  0.583806  1
  In  In19  1  0.582198  0.582198  0.251798  1
  Pd  Pd20  1  0.144881  0.144881  0.146451  1
  Pd  Pd21  1  0.144881  0.144881  0.563785  1
  Pd  Pd22  1  0.144266  0.564138  0.145798  1
  Pd  Pd23  1  0.564138  0.144266  0.145798  1
