# generated using pymatgen
data_Th2BeSi4Ni
_symmetry_space_group_name_H-M   'P 1'
_cell_length_a   8.36654433
_cell_length_b   8.36654508
_cell_length_c   4.12330100
_cell_angle_alpha   90.00000000
_cell_angle_beta   90.00000000
_cell_angle_gamma   151.28096067
_symmetry_Int_Tables_number   1
_chemical_formula_structural   Th2BeSi4Ni
_chemical_formula_sum   'Th2 Be1 Si4 Ni1'
_cell_volume   138.68970085
_cell_formula_units_Z   1
loop_
 _symmetry_equiv_pos_site_id
 _symmetry_equiv_pos_as_xyz
  1  'x, y, z'
loop_
 _atom_site_type_symbol
 _atom_site_label
 _atom_site_symmetry_multiplicity
 _atom_site_fract_x
 _atom_site_fract_y
 _atom_site_fract_z
 _atom_site_occupancy
  Th  Th0  1  0.603385  0.396615  0.250000  1
  Th  Th1  1  0.392410  0.607590  0.750000  1
  Be  Be2  1  0.823551  0.176449  0.250000  1
  Si  Si3  1  0.961522  0.038478  0.250000  1
  Si  Si4  1  0.036875  0.963125  0.750000  1
  Si  Si5  1  0.249986  0.750014  0.250000  1
  Si  Si6  1  0.750797  0.249203  0.750000  1
  Ni  Ni7  1  0.181474  0.818526  0.750000  1
