# generated using pymatgen
data_LiNd8Ni2Hg
_symmetry_space_group_name_H-M   'P 1'
_cell_length_a   9.82488191
_cell_length_b   9.82488164
_cell_length_c   9.85874900
_cell_angle_alpha   59.88590180
_cell_angle_beta   59.88590269
_cell_angle_gamma   60.43159874
_symmetry_Int_Tables_number   1
_chemical_formula_structural   LiNd8Ni2Hg
_chemical_formula_sum   'Li2 Nd16 Ni4 Hg2'
_cell_volume   673.91012193
_cell_formula_units_Z   2
loop_
 _symmetry_equiv_pos_site_id
 _symmetry_equiv_pos_as_xyz
  1  'x, y, z'
loop_
 _atom_site_type_symbol
 _atom_site_label
 _atom_site_symmetry_multiplicity
 _atom_site_fract_x
 _atom_site_fract_y
 _atom_site_fract_z
 _atom_site_occupancy
  Li  Li0  1  0.576320  0.285986  0.568848  1
  Li  Li1  1  0.285986  0.576320  0.568848  1
  Nd  Nd2  1  0.809840  0.188152  0.191607  1
  Nd  Nd3  1  0.188152  0.809840  0.810400  1
  Nd  Nd4  1  0.188152  0.809840  0.191607  1
  Nd  Nd5  1  0.809840  0.188152  0.810400  1
  Nd  Nd6  1  0.182306  0.182306  0.817694  1
  Nd  Nd7  1  0.804544  0.804544  0.195456  1
  Nd  Nd8  1  0.938987  0.561261  0.564410  1
  Nd  Nd9  1  0.561261  0.938987  0.935343  1
  Nd  Nd10  1  0.561261  0.938987  0.564410  1
  Nd  Nd11  1  0.938987  0.561261  0.935343  1
  Nd  Nd12  1  0.562852  0.562852  0.937148  1
  Nd  Nd13  1  0.936650  0.936650  0.563350  1
  Nd  Nd14  1  0.346669  0.346669  0.345983  1
  Nd  Nd15  1  0.346669  0.346669  0.960681  1
  Nd  Nd16  1  0.350384  0.952474  0.348572  1
  Nd  Nd17  1  0.952474  0.350384  0.348572  1
  Ni  Ni18  1  0.142285  0.142285  0.143905  1
  Ni  Ni19  1  0.142285  0.142285  0.571524  1
  Ni  Ni20  1  0.142260  0.570512  0.143614  1
  Ni  Ni21  1  0.570512  0.142260  0.143614  1
  Hg  Hg22  1  0.580662  0.580662  0.587768  1
  Hg  Hg23  1  0.580662  0.580662  0.250908  1
