# generated using pymatgen
data_PrMg2PaRh2
_symmetry_space_group_name_H-M   'P 1'
_cell_length_a   3.92134700
_cell_length_b   7.44150797
_cell_length_c   9.01365474
_cell_angle_alpha   88.07508204
_cell_angle_beta   90.00000000
_cell_angle_gamma   90.00000000
_symmetry_Int_Tables_number   1
_chemical_formula_structural   PrMg2PaRh2
_chemical_formula_sum   'Pr2 Mg4 Pa2 Rh4'
_cell_volume   262.87664568
_cell_formula_units_Z   2
loop_
 _symmetry_equiv_pos_site_id
 _symmetry_equiv_pos_as_xyz
  1  'x, y, z'
loop_
 _atom_site_type_symbol
 _atom_site_label
 _atom_site_symmetry_multiplicity
 _atom_site_fract_x
 _atom_site_fract_y
 _atom_site_fract_z
 _atom_site_occupancy
  Pr  Pr0  1  0.250000  0.534785  0.182526  1
  Pr  Pr1  1  0.750000  0.465215  0.817474  1
  Mg  Mg2  1  0.250000  0.138262  0.948664  1
  Mg  Mg3  1  0.750000  0.861738  0.051336  1
  Mg  Mg4  1  0.250000  0.638580  0.553895  1
  Mg  Mg5  1  0.750000  0.361420  0.446105  1
  Pa  Pa6  1  0.250000  0.034692  0.315672  1
  Pa  Pa7  1  0.750000  0.965308  0.684328  1
  Rh  Rh8  1  0.750000  0.223356  0.165091  1
  Rh  Rh9  1  0.250000  0.776644  0.834909  1
  Rh  Rh10  1  0.750000  0.791946  0.375898  1
  Rh  Rh11  1  0.250000  0.208054  0.624102  1
