# generated using pymatgen
data_Sc4Ga3Si3Ir3Pt4
_symmetry_space_group_name_H-M   'P 1'
_cell_length_a   7.07269314
_cell_length_b   7.07617625
_cell_length_c   7.12790730
_cell_angle_alpha   109.65285527
_cell_angle_beta   109.61248400
_cell_angle_gamma   109.31543479
_symmetry_Int_Tables_number   1
_chemical_formula_structural   Sc4Ga3Si3Ir3Pt4
_chemical_formula_sum   'Sc4 Ga3 Si3 Ir3 Pt4'
_cell_volume   274.04464423
_cell_formula_units_Z   1
loop_
 _symmetry_equiv_pos_site_id
 _symmetry_equiv_pos_as_xyz
  1  'x, y, z'
loop_
 _atom_site_type_symbol
 _atom_site_label
 _atom_site_symmetry_multiplicity
 _atom_site_fract_x
 _atom_site_fract_y
 _atom_site_fract_z
 _atom_site_occupancy
  Sc  Sc0  1  0.998205  0.995899  0.535903  1
  Sc  Sc1  1  0.006667  0.488972  0.007597  1
  Sc  Sc2  1  0.483050  0.996052  0.999076  1
  Sc  Sc3  1  0.513397  0.519567  0.514308  1
  Ga  Ga4  1  0.711582  0.714141  0.015171  1
  Ga  Ga5  1  0.287046  0.994552  0.299436  1
  Ga  Ga6  1  0.002566  0.291924  0.301941  1
  Si  Si7  1  0.328697  0.331469  0.008675  1
  Si  Si8  1  0.667196  0.995122  0.673162  1
  Si  Si9  1  0.002062  0.672489  0.676545  1
  Ir  Ir10  1  0.248492  0.747303  0.502296  1
  Ir  Ir11  1  0.499144  0.751633  0.252537  1
  Ir  Ir12  1  0.999470  0.999684  0.952480  1
  Pt  Pt13  1  0.747809  0.249734  0.501912  1
  Pt  Pt14  1  0.750155  0.498310  0.251872  1
  Pt  Pt15  1  0.501484  0.252424  0.753635  1
  Pt  Pt16  1  0.252977  0.500728  0.753454  1
