# generated using pymatgen
data_Tm4Sc4B24MoIr3
_symmetry_space_group_name_H-M   'P 1'
_cell_length_a   3.54044600
_cell_length_b   8.98523387
_cell_length_c   11.36346638
_cell_angle_alpha   90.13081145
_cell_angle_beta   90.00000000
_cell_angle_gamma   90.00000000
_symmetry_Int_Tables_number   1
_chemical_formula_structural   Tm4Sc4B24MoIr3
_chemical_formula_sum   'Tm4 Sc4 B24 Mo1 Ir3'
_cell_volume   361.49064273
_cell_formula_units_Z   1
loop_
 _symmetry_equiv_pos_site_id
 _symmetry_equiv_pos_as_xyz
  1  'x, y, z'
loop_
 _atom_site_type_symbol
 _atom_site_label
 _atom_site_symmetry_multiplicity
 _atom_site_fract_x
 _atom_site_fract_y
 _atom_site_fract_z
 _atom_site_occupancy
  Tm  Tm0  1  0.500000  0.317113  0.411334  1
  Tm  Tm1  1  0.500000  0.680365  0.585206  1
  Tm  Tm2  1  0.500000  0.180258  0.916674  1
  Tm  Tm3  1  0.500000  0.821631  0.086669  1
  Sc  Sc4  1  0.500000  0.443736  0.123803  1
  Sc  Sc5  1  0.500000  0.555600  0.875646  1
  Sc  Sc6  1  0.500000  0.054864  0.625162  1
  Sc  Sc7  1  0.500000  0.947562  0.374902  1
  B  B8  1  0.000000  0.100348  0.474439  1
  B  B9  1  0.000000  0.898833  0.528017  1
  B  B10  1  0.000000  0.401057  0.971491  1
  B  B11  1  0.000000  0.601748  0.026784  1
  B  B12  1  0.000000  0.130071  0.319069  1
  B  B13  1  0.000000  0.869297  0.681071  1
  B  B14  1  0.000000  0.370539  0.818798  1
  B  B15  1  0.000000  0.629733  0.181984  1
  B  B16  1  0.000000  0.052310  0.063944  1
  B  B17  1  0.000000  0.945307  0.933392  1
  B  B18  1  0.000000  0.445016  0.565397  1
  B  B19  1  0.000000  0.554359  0.434347  1
  B  B20  1  0.000000  0.481709  0.286197  1
  B  B21  1  0.000000  0.518722  0.714421  1
  B  B22  1  0.000000  0.018714  0.785258  1
  B  B23  1  0.000000  0.978071  0.215005  1
  B  B24  1  0.000000  0.255073  0.078888  1
  B  B25  1  0.000000  0.746662  0.920266  1
  B  B26  1  0.000000  0.246247  0.579596  1
  B  B27  1  0.000000  0.753935  0.420531  1
  B  B28  1  0.000000  0.297583  0.236134  1
  B  B29  1  0.000000  0.704619  0.764151  1
  B  B30  1  0.000000  0.205520  0.735945  1
  B  B31  1  0.000000  0.794203  0.265993  1
  Mo  Mo32  1  0.500000  0.139615  0.180610  1
  Ir  Ir33  1  0.500000  0.859026  0.818396  1
  Ir  Ir34  1  0.500000  0.359897  0.680712  1
  Ir  Ir35  1  0.500000  0.640657  0.319767  1
