# generated using pymatgen
data_DyHo2HfIn2Ir3
_symmetry_space_group_name_H-M   'P 1'
_cell_length_a   7.44292569
_cell_length_b   7.22648813
_cell_length_c   4.14317700
_cell_angle_alpha   90.00000000
_cell_angle_beta   90.00000000
_cell_angle_gamma   119.07219231
_symmetry_Int_Tables_number   1
_chemical_formula_structural   DyHo2HfIn2Ir3
_chemical_formula_sum   'Dy1 Ho2 Hf1 In2 Ir3'
_cell_volume   194.76905155
_cell_formula_units_Z   1
loop_
 _symmetry_equiv_pos_site_id
 _symmetry_equiv_pos_as_xyz
  1  'x, y, z'
loop_
 _atom_site_type_symbol
 _atom_site_label
 _atom_site_symmetry_multiplicity
 _atom_site_fract_x
 _atom_site_fract_y
 _atom_site_fract_z
 _atom_site_occupancy
  Dy  Dy0  1  0.584143  0.588214  0.000000  1
  Ho  Ho1  1  0.415373  0.003751  0.000000  1
  Ho  Ho2  1  0.999944  0.394279  0.000000  1
  Hf  Hf3  1  0.000239  0.752042  0.500000  1
  In  In4  1  0.255759  0.254311  0.500000  1
  In  In5  1  0.744196  0.998774  0.500000  1
  Ir  Ir6  1  0.000397  0.979527  0.000000  1
  Ir  Ir7  1  0.682161  0.355298  0.500000  1
  Ir  Ir8  1  0.317790  0.673804  0.500000  1
