# generated using pymatgen
data_MgZnInCu2Ir
_symmetry_space_group_name_H-M   'P 1'
_cell_length_a   5.25607787
_cell_length_b   4.95433621
_cell_length_c   5.25607798
_cell_angle_alpha   119.58064632
_cell_angle_beta   123.08259404
_cell_angle_gamma   89.32182621
_symmetry_Int_Tables_number   1
_chemical_formula_structural   MgZnInCu2Ir
_chemical_formula_sum   'Mg1 Zn1 In1 Cu2 Ir1'
_cell_volume   93.29297813
_cell_formula_units_Z   1
loop_
 _symmetry_equiv_pos_site_id
 _symmetry_equiv_pos_as_xyz
  1  'x, y, z'
loop_
 _atom_site_type_symbol
 _atom_site_label
 _atom_site_symmetry_multiplicity
 _atom_site_fract_x
 _atom_site_fract_y
 _atom_site_fract_z
 _atom_site_occupancy
  Mg  Mg0  1  0.869929  0.130921  0.760992  1
  Zn  Zn1  1  0.500092  0.001822  0.001730  1
  In  In2  1  0.131175  0.866466  0.235291  1
  Cu  Cu3  1  0.499889  0.499990  0.000923  1
  Cu  Cu4  1  0.999067  0.499990  0.500101  1
  Ir  Ir5  1  0.499848  0.500810  0.500962  1
