# generated using pymatgen
data_Ce2Er3CoBi2
_symmetry_space_group_name_H-M   'P 1'
_cell_length_a   7.77067000
_cell_length_b   8.85770200
_cell_length_c   12.00298800
_cell_angle_alpha   90.00000000
_cell_angle_beta   90.00000000
_cell_angle_gamma   90.00000000
_symmetry_Int_Tables_number   1
_chemical_formula_structural   Ce2Er3CoBi2
_chemical_formula_sum   'Ce8 Er12 Co4 Bi8'
_cell_volume   826.16901528
_cell_formula_units_Z   4
loop_
 _symmetry_equiv_pos_site_id
 _symmetry_equiv_pos_as_xyz
  1  'x, y, z'
loop_
 _atom_site_type_symbol
 _atom_site_label
 _atom_site_symmetry_multiplicity
 _atom_site_fract_x
 _atom_site_fract_y
 _atom_site_fract_z
 _atom_site_occupancy
  Ce  Ce0  1  0.656507  0.016262  0.551483  1
  Ce  Ce1  1  0.343493  0.983738  0.448517  1
  Ce  Ce2  1  0.156507  0.983738  0.948517  1
  Ce  Ce3  1  0.343493  0.516262  0.448517  1
  Ce  Ce4  1  0.843493  0.016262  0.051483  1
  Ce  Ce5  1  0.656507  0.483738  0.551483  1
  Ce  Ce6  1  0.843493  0.483738  0.051483  1
  Ce  Ce7  1  0.156507  0.516262  0.948517  1
  Er  Er8  1  0.836819  0.750000  0.790672  1
  Er  Er9  1  0.163181  0.250000  0.209328  1
  Er  Er10  1  0.336819  0.250000  0.709328  1
  Er  Er11  1  0.663181  0.750000  0.290672  1
  Er  Er12  1  0.365563  0.750000  0.701252  1
  Er  Er13  1  0.634437  0.250000  0.298748  1
  Er  Er14  1  0.865563  0.250000  0.798748  1
  Er  Er15  1  0.134437  0.750000  0.201252  1
  Er  Er16  1  0.980683  0.750000  0.499731  1
  Er  Er17  1  0.019317  0.250000  0.500269  1
  Er  Er18  1  0.480683  0.250000  0.000269  1
  Er  Er19  1  0.519317  0.750000  0.999731  1
  Co  Co20  1  0.630409  0.750000  0.539069  1
  Co  Co21  1  0.369591  0.250000  0.460931  1
  Co  Co22  1  0.130409  0.250000  0.960931  1
  Co  Co23  1  0.869591  0.750000  0.039069  1
  Bi  Bi24  1  0.566042  0.494065  0.825140  1
  Bi  Bi25  1  0.433958  0.505935  0.174860  1
  Bi  Bi26  1  0.066042  0.505935  0.674860  1
  Bi  Bi27  1  0.433958  0.994065  0.174860  1
  Bi  Bi28  1  0.933958  0.494065  0.325140  1
  Bi  Bi29  1  0.566042  0.005935  0.825140  1
  Bi  Bi30  1  0.933958  0.005935  0.325140  1
  Bi  Bi31  1  0.066042  0.994065  0.674860  1
