# generated using pymatgen
data_Tb3Dy(Tm4Bi3)4
_symmetry_space_group_name_H-M   'P 1'
_cell_length_a   8.20122300
_cell_length_b   9.43977000
_cell_length_c   11.94253200
_cell_angle_alpha   90.00000000
_cell_angle_beta   89.99721144
_cell_angle_gamma   90.00000000
_symmetry_Int_Tables_number   1
_chemical_formula_structural   Tb3Dy(Tm4Bi3)4
_chemical_formula_sum   'Tb3 Dy1 Tm16 Bi12'
_cell_volume   924.56286750
_cell_formula_units_Z   1
loop_
 _symmetry_equiv_pos_site_id
 _symmetry_equiv_pos_as_xyz
  1  'x, y, z'
loop_
 _atom_site_type_symbol
 _atom_site_label
 _atom_site_symmetry_multiplicity
 _atom_site_fract_x
 _atom_site_fract_y
 _atom_site_fract_z
 _atom_site_occupancy
  Tb  Tb0  1  0.313092  0.250000  0.218293  1
  Tb  Tb1  1  0.813075  0.250000  0.281668  1
  Tb  Tb2  1  0.687017  0.750000  0.781743  1
  Dy  Dy3  1  0.187132  0.750000  0.718015  1
  Tm  Tm4  1  0.352647  0.750000  0.217397  1
  Tm  Tm5  1  0.852760  0.750000  0.282654  1
  Tm  Tm6  1  0.647291  0.250000  0.782593  1
  Tm  Tm7  1  0.147262  0.250000  0.717391  1
  Tm  Tm8  1  0.692166  0.565793  0.059620  1
  Tm  Tm9  1  0.192227  0.934193  0.440448  1
  Tm  Tm10  1  0.307796  0.065801  0.940313  1
  Tm  Tm11  1  0.807742  0.434180  0.559625  1
  Tm  Tm12  1  0.307796  0.434199  0.940313  1
  Tm  Tm13  1  0.807742  0.065820  0.559625  1
  Tm  Tm14  1  0.692166  0.934207  0.059620  1
  Tm  Tm15  1  0.192227  0.565807  0.440448  1
  Tm  Tm16  1  0.476191  0.250000  0.489009  1
  Tm  Tm17  1  0.976273  0.250000  0.011027  1
  Tm  Tm18  1  0.523670  0.750000  0.511153  1
  Tm  Tm19  1  0.023816  0.750000  0.988869  1
  Bi  Bi20  1  0.404340  0.750000  0.958931  1
  Bi  Bi21  1  0.905096  0.750000  0.541253  1
  Bi  Bi22  1  0.595396  0.250000  0.040860  1
  Bi  Bi23  1  0.095359  0.250000  0.459138  1
  Bi  Bi24  1  0.565380  0.994267  0.326240  1
  Bi  Bi25  1  0.065330  0.505697  0.173821  1
  Bi  Bi26  1  0.434207  0.494655  0.673865  1
  Bi  Bi27  1  0.934944  0.005445  0.826071  1
  Bi  Bi28  1  0.434207  0.005345  0.673865  1
  Bi  Bi29  1  0.934944  0.494555  0.826071  1
  Bi  Bi30  1  0.565380  0.505733  0.326240  1
  Bi  Bi31  1  0.065330  0.994303  0.173821  1
