# generated using pymatgen
data_TiBe3CoIr
_symmetry_space_group_name_H-M   'P 1'
_cell_length_a   4.53388064
_cell_length_b   4.53388056
_cell_length_c   4.40431821
_cell_angle_alpha   59.02203441
_cell_angle_beta   59.02203168
_cell_angle_gamma   59.99999832
_symmetry_Int_Tables_number   1
_chemical_formula_structural   TiBe3CoIr
_chemical_formula_sum   'Ti1 Be3 Co1 Ir1'
_cell_volume   63.05556179
_cell_formula_units_Z   1
loop_
 _symmetry_equiv_pos_site_id
 _symmetry_equiv_pos_as_xyz
  1  'x, y, z'
loop_
 _atom_site_type_symbol
 _atom_site_label
 _atom_site_symmetry_multiplicity
 _atom_site_fract_x
 _atom_site_fract_y
 _atom_site_fract_z
 _atom_site_occupancy
  Ti  Ti0  1  0.003316  0.003316  0.990052  1
  Be  Be1  1  0.623673  0.127869  0.624785  1
  Be  Be2  1  0.127869  0.623673  0.624785  1
  Be  Be3  1  0.623673  0.623673  0.624785  1
  Co  Co4  1  0.626460  0.626460  0.120621  1
  Ir  Ir5  1  0.245009  0.245009  0.264972  1
