# generated using pymatgen
data_Ca7Yb9(CN4)4
_symmetry_space_group_name_H-M   'P 1'
_cell_length_a   11.35470301
_cell_length_b   3.53626300
_cell_length_c   13.92008276
_cell_angle_alpha   90.00000000
_cell_angle_beta   89.91613957
_cell_angle_gamma   90.00000000
_symmetry_Int_Tables_number   1
_chemical_formula_structural   Ca7Yb9(CN4)4
_chemical_formula_sum   'Ca7 Yb9 C4 N16'
_cell_volume   558.93549313
_cell_formula_units_Z   1
loop_
 _symmetry_equiv_pos_site_id
 _symmetry_equiv_pos_as_xyz
  1  'x, y, z'
loop_
 _atom_site_type_symbol
 _atom_site_label
 _atom_site_symmetry_multiplicity
 _atom_site_fract_x
 _atom_site_fract_y
 _atom_site_fract_z
 _atom_site_occupancy
  Ca  Ca0  1  0.117557  0.250000  0.170126  1
  Ca  Ca1  1  0.617577  0.250000  0.330809  1
  Ca  Ca2  1  0.882724  0.750000  0.829199  1
  Ca  Ca3  1  0.383873  0.750000  0.669622  1
  Ca  Ca4  1  0.878536  0.250000  0.042168  1
  Ca  Ca5  1  0.379063  0.250000  0.458186  1
  Ca  Ca6  1  0.121070  0.750000  0.957575  1
  Yb  Yb7  1  0.621335  0.750000  0.541705  1
  Yb  Yb8  1  0.375428  0.250000  0.882342  1
  Yb  Yb9  1  0.874898  0.250000  0.616755  1
  Yb  Yb10  1  0.624679  0.750000  0.117828  1
  Yb  Yb11  1  0.124659  0.750000  0.383116  1
  Yb  Yb12  1  0.137491  0.250000  0.758087  1
  Yb  Yb13  1  0.637326  0.250000  0.740570  1
  Yb  Yb14  1  0.862846  0.750000  0.241740  1
  Yb  Yb15  1  0.363321  0.750000  0.259088  1
  C  C16  1  0.364279  0.250000  0.085540  1
  C  C17  1  0.862840  0.250000  0.415269  1
  C  C18  1  0.635487  0.750000  0.914195  1
  C  C19  1  0.135752  0.750000  0.586040  1
  N  N20  1  0.735592  0.250000  0.186936  1
  N  N21  1  0.235538  0.250000  0.313844  1
  N  N22  1  0.264965  0.750000  0.812635  1
  N  N23  1  0.763822  0.750000  0.685433  1
  N  N24  1  0.000909  0.250000  0.881779  1
  N  N25  1  0.502879  0.250000  0.616222  1
  N  N26  1  0.999095  0.750000  0.117941  1
  N  N27  1  0.499635  0.750000  0.383165  1
  N  N28  1  0.271944  0.250000  0.037666  1
  N  N29  1  0.770016  0.250000  0.462870  1
  N  N30  1  0.727889  0.750000  0.961980  1
  N  N31  1  0.228514  0.750000  0.538466  1
  N  N32  1  0.456957  0.250000  0.132990  1
  N  N33  1  0.956084  0.250000  0.368341  1
  N  N34  1  0.542821  0.750000  0.866729  1
  N  N35  1  0.042600  0.750000  0.633045  1
