# generated using pymatgen
data_NaAcYbB2Pt7
_symmetry_space_group_name_H-M   'P 1'
_cell_length_a   8.27197200
_cell_length_b   8.27197170
_cell_length_c   8.27197200
_cell_angle_alpha   39.35284324
_cell_angle_beta   39.35284426
_cell_angle_gamma   39.35283716
_symmetry_Int_Tables_number   1
_chemical_formula_structural   NaAcYbB2Pt7
_chemical_formula_sum   'Na1 Ac1 Yb1 B2 Pt7'
_cell_volume   204.80298091
_cell_formula_units_Z   1
loop_
 _symmetry_equiv_pos_site_id
 _symmetry_equiv_pos_as_xyz
  1  'x, y, z'
loop_
 _atom_site_type_symbol
 _atom_site_label
 _atom_site_symmetry_multiplicity
 _atom_site_fract_x
 _atom_site_fract_y
 _atom_site_fract_z
 _atom_site_occupancy
  Na  Na0  1  0.997144  0.997144  0.997144  1
  Ac  Ac1  1  0.139826  0.139826  0.139826  1
  Yb  Yb2  1  0.865505  0.865505  0.865505  1
  B  B3  1  0.667791  0.667791  0.667791  1
  B  B4  1  0.331706  0.331706  0.331706  1
  Pt  Pt5  1  0.435608  0.933320  0.435608  1
  Pt  Pt6  1  0.435608  0.435608  0.933320  1
  Pt  Pt7  1  0.933320  0.435608  0.435608  1
  Pt  Pt8  1  0.563915  0.065409  0.563915  1
  Pt  Pt9  1  0.563915  0.563915  0.065409  1
  Pt  Pt10  1  0.065409  0.563915  0.563915  1
  Pt  Pt11  1  0.500254  0.500254  0.500254  1
