# generated using pymatgen
data_Eu2(PPt2)3
_symmetry_space_group_name_H-M   'P 1'
_cell_length_a   23.59445966
_cell_length_b   4.14586154
_cell_length_c   4.14847501
_cell_angle_alpha   89.99425219
_cell_angle_beta   95.04465152
_cell_angle_gamma   95.04127767
_symmetry_Int_Tables_number   1
_chemical_formula_structural   Eu2(PPt2)3
_chemical_formula_sum   'Eu4 P6 Pt12'
_cell_volume   402.65370565
_cell_formula_units_Z   2
loop_
 _symmetry_equiv_pos_site_id
 _symmetry_equiv_pos_as_xyz
  1  'x, y, z'
loop_
 _atom_site_type_symbol
 _atom_site_label
 _atom_site_symmetry_multiplicity
 _atom_site_fract_x
 _atom_site_fract_y
 _atom_site_fract_z
 _atom_site_occupancy
  Eu  Eu0  1  0.847477  0.923737  0.173731  1
  Eu  Eu1  1  0.346848  0.673413  0.423430  1
  Eu  Eu2  1  0.653010  0.326506  0.576494  1
  Eu  Eu3  1  0.152624  0.076307  0.826321  1
  P  P4  1  0.598905  0.799487  0.049483  1
  P  P5  1  0.750253  0.375120  0.125117  1
  P  P6  1  0.098856  0.549463  0.299467  1
  P  P7  1  0.901328  0.450629  0.700636  1
  P  P8  1  0.249708  0.624855  0.874861  1
  P  P9  1  0.400937  0.200430  0.950429  1
  Pt  Pt10  1  0.544708  0.272391  0.022387  1
  Pt  Pt11  1  0.700576  0.850282  0.100267  1
  Pt  Pt12  1  0.955405  0.477672  0.227676  1
  Pt  Pt13  1  0.049500  0.024781  0.274787  1
  Pt  Pt14  1  0.200196  0.600081  0.350093  1
  Pt  Pt15  1  0.450401  0.225173  0.475168  1
  Pt  Pt16  1  0.549423  0.774744  0.524734  1
  Pt  Pt17  1  0.799859  0.399942  0.649932  1
  Pt  Pt18  1  0.950735  0.975340  0.725344  1
  Pt  Pt19  1  0.044835  0.522458  0.772457  1
  Pt  Pt20  1  0.299301  0.149652  0.899663  1
  Pt  Pt21  1  0.455114  0.727525  0.977521  1
