# generated using pymatgen
data_Dy11ThCo4
_symmetry_space_group_name_H-M   'P 1'
_cell_length_a   6.24224248
_cell_length_b   6.91455250
_cell_length_c   9.51979300
_cell_angle_alpha   90.00000000
_cell_angle_beta   90.00000000
_cell_angle_gamma   91.27171161
_symmetry_Int_Tables_number   1
_chemical_formula_structural   Dy11ThCo4
_chemical_formula_sum   'Dy11 Th1 Co4'
_cell_volume   410.79507968
_cell_formula_units_Z   1
loop_
 _symmetry_equiv_pos_site_id
 _symmetry_equiv_pos_as_xyz
  1  'x, y, z'
loop_
 _atom_site_type_symbol
 _atom_site_label
 _atom_site_symmetry_multiplicity
 _atom_site_fract_x
 _atom_site_fract_y
 _atom_site_fract_z
 _atom_site_occupancy
  Dy  Dy0  1  0.672792  0.324509  0.933310  1
  Dy  Dy1  1  0.360100  0.955962  0.750000  1
  Dy  Dy2  1  0.855949  0.545195  0.250000  1
  Dy  Dy3  1  0.641820  0.044162  0.250000  1
  Dy  Dy4  1  0.175488  0.173198  0.430340  1
  Dy  Dy5  1  0.827128  0.823735  0.569053  1
  Dy  Dy6  1  0.175488  0.173198  0.069660  1
  Dy  Dy7  1  0.827128  0.823735  0.930947  1
  Dy  Dy8  1  0.672792  0.324509  0.566690  1
  Dy  Dy9  1  0.323420  0.675694  0.068622  1
  Dy  Dy10  1  0.323420  0.675694  0.431378  1
  Th  Th11  1  0.151935  0.446292  0.750000  1
  Co  Co12  1  0.534224  0.608886  0.750000  1
  Co  Co13  1  0.956174  0.129363  0.750000  1
  Co  Co14  1  0.048991  0.887199  0.250000  1
  Co  Co15  1  0.453153  0.388667  0.250000  1
