# generated using pymatgen
data_PrU5(Ni3Sb4)2
_symmetry_space_group_name_H-M   'P 1'
_cell_length_a   8.20394118
_cell_length_b   8.20270343
_cell_length_c   8.20229387
_cell_angle_alpha   109.41946564
_cell_angle_beta   109.56302978
_cell_angle_gamma   109.41080571
_symmetry_Int_Tables_number   1
_chemical_formula_structural   PrU5(Ni3Sb4)2
_chemical_formula_sum   'Pr1 U5 Ni6 Sb8'
_cell_volume   425.01214192
_cell_formula_units_Z   1
loop_
 _symmetry_equiv_pos_site_id
 _symmetry_equiv_pos_as_xyz
  1  'x, y, z'
loop_
 _atom_site_type_symbol
 _atom_site_label
 _atom_site_symmetry_multiplicity
 _atom_site_fract_x
 _atom_site_fract_y
 _atom_site_fract_z
 _atom_site_occupancy
  Pr  Pr0  1  0.874993  0.250024  0.125026  1
  U  U1  1  0.625111  0.750004  0.374968  1
  U  U2  1  0.250302  0.123504  0.878484  1
  U  U3  1  0.755020  0.376378  0.627022  1
  U  U4  1  0.121471  0.871928  0.244987  1
  U  U5  1  0.373044  0.628081  0.749517  1
  Ni  Ni6  1  0.375007  0.249951  0.624925  1
  Ni  Ni7  1  0.124944  0.749867  0.874930  1
  Ni  Ni8  1  0.264494  0.635563  0.382647  1
  Ni  Ni9  1  0.746974  0.864426  0.128916  1
  Ni  Ni10  1  0.617467  0.382115  0.253083  1
  Ni  Ni11  1  0.871124  0.118188  0.735472  1
  Sb  Sb12  1  0.660615  0.497429  0.996180  1
  Sb  Sb13  1  0.498750  0.002459  0.663212  1
  Sb  Sb14  1  0.999557  0.666280  0.499310  1
  Sb  Sb15  1  0.832936  0.833668  0.833159  1
  Sb  Sb16  1  0.500725  0.000302  0.167021  1
  Sb  Sb17  1  0.166878  0.499865  0.000620  1
  Sb  Sb18  1  0.003809  0.164437  0.501220  1
  Sb  Sb19  1  0.336779  0.335532  0.339301  1
