# generated using pymatgen
data_Er6ZnSi5Rh12
_symmetry_space_group_name_H-M   'P 1'
_cell_length_a   5.54991200
_cell_length_b   5.54991082
_cell_length_c   15.14558800
_cell_angle_alpha   90.00000000
_cell_angle_beta   90.00000000
_cell_angle_gamma   119.99999509
_symmetry_Int_Tables_number   1
_chemical_formula_structural   Er6ZnSi5Rh12
_chemical_formula_sum   'Er6 Zn1 Si5 Rh12'
_cell_volume   404.00700354
_cell_formula_units_Z   1
loop_
 _symmetry_equiv_pos_site_id
 _symmetry_equiv_pos_as_xyz
  1  'x, y, z'
loop_
 _atom_site_type_symbol
 _atom_site_label
 _atom_site_symmetry_multiplicity
 _atom_site_fract_x
 _atom_site_fract_y
 _atom_site_fract_z
 _atom_site_occupancy
  Er  Er0  1  0.333333  0.666667  0.538079  1
  Er  Er1  1  0.666667  0.333333  0.461921  1
  Er  Er2  1  0.666667  0.333333  0.037189  1
  Er  Er3  1  0.333333  0.666667  0.962811  1
  Er  Er4  1  0.333333  0.666667  0.750403  1
  Er  Er5  1  0.666667  0.333333  0.249597  1
  Zn  Zn6  1  0.000000  0.000000  0.000000  1
  Si  Si7  1  0.000000  0.000000  0.252040  1
  Si  Si8  1  0.000000  0.000000  0.747960  1
  Si  Si9  1  0.333333  0.666667  0.252232  1
  Si  Si10  1  0.666667  0.333333  0.747768  1
  Si  Si11  1  0.000000  0.000000  0.500000  1
  Rh  Rh12  1  0.167906  0.335813  0.134813  1
  Rh  Rh13  1  0.832094  0.664187  0.865187  1
  Rh  Rh14  1  0.664187  0.832094  0.134813  1
  Rh  Rh15  1  0.833041  0.666083  0.628453  1
  Rh  Rh16  1  0.335813  0.167906  0.865187  1
  Rh  Rh17  1  0.166959  0.333917  0.371547  1
  Rh  Rh18  1  0.167906  0.832094  0.134813  1
  Rh  Rh19  1  0.333917  0.166959  0.628453  1
  Rh  Rh20  1  0.832094  0.167906  0.865187  1
  Rh  Rh21  1  0.666083  0.833041  0.371547  1
  Rh  Rh22  1  0.833041  0.166959  0.628453  1
  Rh  Rh23  1  0.166959  0.833041  0.371547  1
