# generated using pymatgen
data_Ac7La6ThIr6
_symmetry_space_group_name_H-M   'P 1'
_cell_length_a   6.59174403
_cell_length_b   10.53257316
_cell_length_c   10.53012921
_cell_angle_alpha   120.01213264
_cell_angle_beta   89.99301292
_cell_angle_gamma   90.00209341
_symmetry_Int_Tables_number   1
_chemical_formula_structural   Ac7La6ThIr6
_chemical_formula_sum   'Ac7 La6 Th1 Ir6'
_cell_volume   633.06169881
_cell_formula_units_Z   1
loop_
 _symmetry_equiv_pos_site_id
 _symmetry_equiv_pos_as_xyz
  1  'x, y, z'
loop_
 _atom_site_type_symbol
 _atom_site_label
 _atom_site_symmetry_multiplicity
 _atom_site_fract_x
 _atom_site_fract_y
 _atom_site_fract_z
 _atom_site_occupancy
  Ac  Ac0  1  0.974808  0.666674  0.333343  1
  Ac  Ac1  1  0.247772  0.129772  0.870165  1
  Ac  Ac2  1  0.247913  0.740422  0.870241  1
  Ac  Ac3  1  0.247802  0.129723  0.259586  1
  Ac  Ac4  1  0.744683  0.870550  0.129513  1
  Ac  Ac5  1  0.744809  0.258766  0.129354  1
  Ac  Ac6  1  0.744784  0.870657  0.741199  1
  La  La7  1  0.430114  0.538461  0.461433  1
  La  La8  1  0.429805  0.923213  0.461701  1
  La  La9  1  0.429823  0.538310  0.076857  1
  La  La10  1  0.933856  0.458125  0.541947  1
  La  La11  1  0.933689  0.083726  0.541856  1
  La  La12  1  0.933723  0.458182  0.916244  1
  Th  Th13  1  0.487481  0.333379  0.666656  1
  Ir  Ir14  1  0.201186  0.810159  0.189806  1
  Ir  Ir15  1  0.201133  0.379612  0.189844  1
  Ir  Ir16  1  0.201172  0.810129  0.620373  1
  Ir  Ir17  1  0.689096  0.195619  0.804414  1
  Ir  Ir18  1  0.689172  0.608861  0.804347  1
  Ir  Ir19  1  0.689172  0.195659  0.391120  1
