# generated using pymatgen
data_DyY2Tm17Sn16
_symmetry_space_group_name_H-M   'P 1'
_cell_length_a   7.96920978
_cell_length_b   8.08539465
_cell_length_c   15.31383601
_cell_angle_alpha   90.00187792
_cell_angle_beta   90.08124387
_cell_angle_gamma   89.94015105
_symmetry_Int_Tables_number   1
_chemical_formula_structural   DyY2Tm17Sn16
_chemical_formula_sum   'Dy1 Y2 Tm17 Sn16'
_cell_volume   986.73333546
_cell_formula_units_Z   1
loop_
 _symmetry_equiv_pos_site_id
 _symmetry_equiv_pos_as_xyz
  1  'x, y, z'
loop_
 _atom_site_type_symbol
 _atom_site_label
 _atom_site_symmetry_multiplicity
 _atom_site_fract_x
 _atom_site_fract_y
 _atom_site_fract_z
 _atom_site_occupancy
  Dy  Dy0  1  0.977926  0.821013  0.402985  1
  Y  Y1  1  0.522164  0.321233  0.596725  1
  Y  Y2  1  0.022425  0.178659  0.903332  1
  Tm  Tm3  1  0.368220  0.836872  0.877434  1
  Tm  Tm4  1  0.867561  0.662772  0.622906  1
  Tm  Tm5  1  0.632345  0.162614  0.376883  1
  Tm  Tm6  1  0.132144  0.337375  0.122702  1
  Tm  Tm7  1  0.631947  0.163076  0.122635  1
  Tm  Tm8  1  0.132238  0.337063  0.377181  1
  Tm  Tm9  1  0.367990  0.836878  0.622739  1
  Tm  Tm10  1  0.868616  0.663069  0.877417  1
  Tm  Tm11  1  0.523356  0.321411  0.902416  1
  Tm  Tm12  1  0.023008  0.178952  0.597589  1
  Tm  Tm13  1  0.477182  0.678841  0.402579  1
  Tm  Tm14  1  0.976839  0.820827  0.097587  1
  Tm  Tm15  1  0.476834  0.678690  0.097084  1
  Tm  Tm16  1  0.198592  0.503857  0.750137  1
  Tm  Tm17  1  0.698474  0.996183  0.750102  1
  Tm  Tm18  1  0.801206  0.496373  0.249694  1
  Tm  Tm19  1  0.301546  0.003691  0.249720  1
  Sn  Sn20  1  0.292936  0.035060  0.042322  1
  Sn  Sn21  1  0.792629  0.463716  0.457944  1
  Sn  Sn22  1  0.707459  0.963903  0.541931  1
  Sn  Sn23  1  0.208693  0.536745  0.958699  1
  Sn  Sn24  1  0.706151  0.962605  0.958809  1
  Sn  Sn25  1  0.205825  0.537475  0.541197  1
  Sn  Sn26  1  0.294060  0.037325  0.458690  1
  Sn  Sn27  1  0.791991  0.464109  0.041500  1
  Sn  Sn28  1  0.564792  0.619675  0.750203  1
  Sn  Sn29  1  0.064782  0.880081  0.749964  1
  Sn  Sn30  1  0.435250  0.381045  0.249890  1
  Sn  Sn31  1  0.935303  0.119623  0.249845  1
  Sn  Sn32  1  0.331844  0.148492  0.750363  1
  Sn  Sn33  1  0.831943  0.351411  0.749676  1
  Sn  Sn34  1  0.666969  0.850656  0.249688  1
  Sn  Sn35  1  0.168760  0.648628  0.249429  1
