# generated using pymatgen
data_La20GaSi9Bi2
_symmetry_space_group_name_H-M   'P 1'
_cell_length_a   7.96173800
_cell_length_b   7.96173800
_cell_length_c   14.92728300
_cell_angle_alpha   90.00000000
_cell_angle_beta   90.00000000
_cell_angle_gamma   90.00000000
_symmetry_Int_Tables_number   1
_chemical_formula_structural   La20GaSi9Bi2
_chemical_formula_sum   'La20 Ga1 Si9 Bi2'
_cell_volume   946.22960202
_cell_formula_units_Z   1
loop_
 _symmetry_equiv_pos_site_id
 _symmetry_equiv_pos_as_xyz
  1  'x, y, z'
loop_
 _atom_site_type_symbol
 _atom_site_label
 _atom_site_symmetry_multiplicity
 _atom_site_fract_x
 _atom_site_fract_y
 _atom_site_fract_z
 _atom_site_occupancy
  La  La0  1  0.500000  0.000000  0.770486  1
  La  La1  1  0.335147  0.308329  0.108651  1
  La  La2  1  0.819068  0.826581  0.889700  1
  La  La3  1  0.000000  0.500000  0.231000  1
  La  La4  1  0.831742  0.187623  0.387749  1
  La  La5  1  0.180932  0.173419  0.889700  1
  La  La6  1  0.664853  0.691671  0.108651  1
  La  La7  1  0.000000  0.500000  0.729513  1
  La  La8  1  0.823847  0.823726  0.613621  1
  La  La9  1  0.312377  0.331742  0.387749  1
  La  La10  1  0.191671  0.835147  0.108651  1
  La  La11  1  0.176153  0.176274  0.613621  1
  La  La12  1  0.808329  0.164853  0.108651  1
  La  La13  1  0.323726  0.676153  0.613621  1
  La  La14  1  0.500000  0.000000  0.270888  1
  La  La15  1  0.673419  0.319068  0.889700  1
  La  La16  1  0.676274  0.323847  0.613621  1
  La  La17  1  0.326581  0.680932  0.889700  1
  La  La18  1  0.168258  0.812377  0.387749  1
  La  La19  1  0.687623  0.668258  0.387749  1
  Ga  Ga20  1  0.000000  0.500000  0.505768  1
  Si  Si21  1  0.613730  0.387598  0.248178  1
  Si  Si22  1  0.886516  0.114817  0.751997  1
  Si  Si23  1  0.887598  0.886270  0.248178  1
  Si  Si24  1  0.113484  0.885183  0.751997  1
  Si  Si25  1  0.385183  0.386516  0.751997  1
  Si  Si26  1  0.112402  0.113730  0.248178  1
  Si  Si27  1  0.386270  0.612402  0.248178  1
  Si  Si28  1  0.614817  0.613484  0.751997  1
  Si  Si29  1  0.500000  0.000000  0.991265  1
  Bi  Bi30  1  0.500000  0.000000  0.500138  1
  Bi  Bi31  1  0.000000  0.500000  0.001349  1
