# generated using pymatgen
data_HoErPa(InPd)3
_symmetry_space_group_name_H-M   'P 1'
_cell_length_a   7.72935865
_cell_length_b   7.73219287
_cell_length_c   3.82694500
_cell_angle_alpha   90.00000000
_cell_angle_beta   90.00000000
_cell_angle_gamma   120.03474413
_symmetry_Int_Tables_number   1
_chemical_formula_structural   HoErPa(InPd)3
_chemical_formula_sum   'Ho1 Er1 Pa1 In3 Pd3'
_cell_volume   198.00530895
_cell_formula_units_Z   1
loop_
 _symmetry_equiv_pos_site_id
 _symmetry_equiv_pos_as_xyz
  1  'x, y, z'
loop_
 _atom_site_type_symbol
 _atom_site_label
 _atom_site_symmetry_multiplicity
 _atom_site_fract_x
 _atom_site_fract_y
 _atom_site_fract_z
 _atom_site_occupancy
  Ho  Ho0  1  0.594395  0.595858  0.500000  1
  Er  Er1  1  0.998774  0.404249  0.500000  1
  Pa  Pa2  1  0.408215  0.000006  0.500000  1
  In  In3  1  0.260776  0.268751  0.000000  1
  In  In4  1  0.747042  0.000341  0.000000  1
  In  In5  1  0.992403  0.731039  0.000000  1
  Pd  Pd6  1  0.008205  0.000245  0.500000  1
  Pd  Pd7  1  0.655757  0.320166  0.000000  1
  Pd  Pd8  1  0.334433  0.679346  0.000000  1
