# generated using pymatgen
data_Sr4TmLu(WO6)2
_symmetry_space_group_name_H-M   'P 1'
_cell_length_a   5.90272743
_cell_length_b   5.88570478
_cell_length_c   10.07734911
_cell_angle_alpha   54.01525843
_cell_angle_beta   89.95918680
_cell_angle_gamma   89.98931117
_symmetry_Int_Tables_number   1
_chemical_formula_structural   Sr4TmLu(WO6)2
_chemical_formula_sum   'Sr4 Tm1 Lu1 W2 O12'
_cell_volume   283.29507943
_cell_formula_units_Z   1
loop_
 _symmetry_equiv_pos_site_id
 _symmetry_equiv_pos_as_xyz
  1  'x, y, z'
loop_
 _atom_site_type_symbol
 _atom_site_label
 _atom_site_symmetry_multiplicity
 _atom_site_fract_x
 _atom_site_fract_y
 _atom_site_fract_z
 _atom_site_occupancy
  Sr  Sr0  1  0.019271  0.236803  0.749607  1
  Sr  Sr1  1  0.480953  0.237727  0.248605  1
  Sr  Sr2  1  0.519047  0.762273  0.751395  1
  Sr  Sr3  1  0.980729  0.763197  0.250393  1
  Tm  Tm4  1  0.000000  0.000000  0.500000  1
  Lu  Lu5  1  0.500000  0.000000  0.000000  1
  W  W6  1  0.000000  0.500000  0.000000  1
  W  W7  1  0.500000  0.500000  0.500000  1
  O  O8  1  0.490994  0.345617  0.734267  1
  O  O9  1  0.277003  0.198264  0.543205  1
  O  O10  1  0.260434  0.768213  0.954728  1
  O  O11  1  0.240277  0.767397  0.454107  1
  O  O12  1  0.224355  0.197931  0.042822  1
  O  O13  1  0.009275  0.347402  0.233079  1
  O  O14  1  0.990725  0.652598  0.766921  1
  O  O15  1  0.775645  0.802069  0.957178  1
  O  O16  1  0.759723  0.232603  0.545893  1
  O  O17  1  0.739566  0.231787  0.045272  1
  O  O18  1  0.722997  0.801736  0.456795  1
  O  O19  1  0.509006  0.654383  0.265733  1
