# generated using pymatgen
data_Hf18Ti2BeFeRe6
_symmetry_space_group_name_H-M   'P 1'
_cell_length_a   8.43602800
_cell_length_b   8.62119719
_cell_length_c   8.62119700
_cell_angle_alpha   119.99715915
_cell_angle_beta   90.00000000
_cell_angle_gamma   90.00000000
_symmetry_Int_Tables_number   1
_chemical_formula_structural   Hf18Ti2BeFeRe6
_chemical_formula_sum   'Hf18 Ti2 Be1 Fe1 Re6'
_cell_volume   543.02049803
_cell_formula_units_Z   1
loop_
 _symmetry_equiv_pos_site_id
 _symmetry_equiv_pos_as_xyz
  1  'x, y, z'
loop_
 _atom_site_type_symbol
 _atom_site_label
 _atom_site_symmetry_multiplicity
 _atom_site_fract_x
 _atom_site_fract_y
 _atom_site_fract_z
 _atom_site_occupancy
  Hf  Hf0  1  0.555429  0.801912  0.603815  1
  Hf  Hf1  1  0.555424  0.801902  0.198098  1
  Hf  Hf2  1  0.555429  0.396185  0.198088  1
  Hf  Hf3  1  0.441627  0.201488  0.402969  1
  Hf  Hf4  1  0.441591  0.201498  0.798502  1
  Hf  Hf5  1  0.441627  0.597031  0.798512  1
  Hf  Hf6  1  0.058373  0.201488  0.402969  1
  Hf  Hf7  1  0.058409  0.201498  0.798502  1
  Hf  Hf8  1  0.058373  0.597031  0.798512  1
  Hf  Hf9  1  0.944571  0.801912  0.603815  1
  Hf  Hf10  1  0.944576  0.801902  0.198098  1
  Hf  Hf11  1  0.944571  0.396185  0.198088  1
  Hf  Hf12  1  0.750000  0.459184  0.918385  1
  Hf  Hf13  1  0.750000  0.459181  0.540819  1
  Hf  Hf14  1  0.750000  0.081615  0.540815  1
  Hf  Hf15  1  0.250000  0.540875  0.081758  1
  Hf  Hf16  1  0.250000  0.540880  0.459120  1
  Hf  Hf17  1  0.250000  0.918242  0.459124  1
  Ti  Ti18  1  0.499034  0.000003  0.999997  1
  Ti  Ti19  1  0.000966  0.000003  0.999997  1
  Be  Be20  1  0.750000  0.666651  0.333349  1
  Fe  Fe21  1  0.250000  0.333354  0.666646  1
  Re  Re22  1  0.750000  0.112568  0.225176  1
  Re  Re23  1  0.750000  0.112575  0.887425  1
  Re  Re24  1  0.750000  0.774824  0.887432  1
  Re  Re25  1  0.250000  0.886504  0.772986  1
  Re  Re26  1  0.250000  0.886494  0.113506  1
  Re  Re27  1  0.250000  0.227014  0.113496  1
