# generated using pymatgen
data_Yb2Zn21Au
_symmetry_space_group_name_H-M   'P 1'
_cell_length_a   8.26774039
_cell_length_b   8.26831889
_cell_length_c   8.26774095
_cell_angle_alpha   99.98187214
_cell_angle_beta   99.99615851
_cell_angle_gamma   130.76993592
_symmetry_Int_Tables_number   1
_chemical_formula_structural   Yb2Zn21Au
_chemical_formula_sum   'Yb2 Zn21 Au1'
_cell_volume   389.15289226
_cell_formula_units_Z   1
loop_
 _symmetry_equiv_pos_site_id
 _symmetry_equiv_pos_as_xyz
  1  'x, y, z'
loop_
 _atom_site_type_symbol
 _atom_site_label
 _atom_site_symmetry_multiplicity
 _atom_site_fract_x
 _atom_site_fract_y
 _atom_site_fract_z
 _atom_site_occupancy
  Yb  Yb0  1  0.999997  0.000004  0.000007  1
  Yb  Yb1  1  0.249984  0.749978  0.499994  1
  Zn  Zn2  1  0.500001  0.500004  0.000003  1
  Zn  Zn3  1  0.125324  0.374974  0.750351  1
  Zn  Zn4  1  0.625027  0.874676  0.249650  1
  Zn  Zn5  1  0.625029  0.375379  0.750350  1
  Zn  Zn6  1  0.624624  0.374974  0.249651  1
  Zn  Zn7  1  0.181438  0.508772  0.085767  1
  Zn  Zn8  1  0.181434  0.095671  0.672662  1
  Zn  Zn9  1  0.758850  0.930722  0.585789  1
  Zn  Zn10  1  0.758853  0.173061  0.828128  1
  Zn  Zn11  1  0.423005  0.508772  0.327335  1
  Zn  Zn12  1  0.423010  0.095671  0.914239  1
  Zn  Zn13  1  0.344935  0.930722  0.171873  1
  Zn  Zn14  1  0.344933  0.173061  0.414208  1
  Zn  Zn15  1  0.069274  0.241148  0.414205  1
  Zn  Zn16  1  0.069277  0.655067  0.828129  1
  Zn  Zn17  1  0.491233  0.818566  0.914240  1
  Zn  Zn18  1  0.491231  0.576996  0.672665  1
  Zn  Zn19  1  0.826943  0.241148  0.171874  1
  Zn  Zn20  1  0.826938  0.655067  0.585791  1
  Zn  Zn21  1  0.904326  0.818566  0.327334  1
  Zn  Zn22  1  0.904331  0.576996  0.085764  1
  Au  Au23  1  0.750010  0.250002  0.499993  1
