# generated using pymatgen
data_Np2TeCl12
_symmetry_space_group_name_H-M   'P 1'
_cell_length_a   13.90410112
_cell_length_b   13.57854588
_cell_length_c   6.75001100
_cell_angle_alpha   89.21249583
_cell_angle_beta   90.38452136
_cell_angle_gamma   119.22844352
_symmetry_Int_Tables_number   1
_chemical_formula_structural   Np2TeCl12
_chemical_formula_sum   'Np4 Te2 Cl24'
_cell_volume   1112.02500369
_cell_formula_units_Z   2
loop_
 _symmetry_equiv_pos_site_id
 _symmetry_equiv_pos_as_xyz
  1  'x, y, z'
loop_
 _atom_site_type_symbol
 _atom_site_label
 _atom_site_symmetry_multiplicity
 _atom_site_fract_x
 _atom_site_fract_y
 _atom_site_fract_z
 _atom_site_occupancy
  Np  Np0  1  0.828691  0.657464  0.995450  1
  Np  Np1  1  0.171309  0.828772  0.995450  1
  Np  Np2  1  0.171309  0.342536  0.004550  1
  Np  Np3  1  0.828691  0.171228  0.004550  1
  Te  Te4  1  0.351406  0.175704  0.000000  1
  Te  Te5  1  0.648594  0.824296  0.000000  1
  Cl  Cl6  1  0.179501  0.486389  0.763227  1
  Cl  Cl7  1  0.000000  0.676669  0.779460  1
  Cl  Cl8  1  0.820499  0.306889  0.763227  1
  Cl  Cl9  1  0.175571  0.998052  0.787837  1
  Cl  Cl10  1  0.820499  0.513611  0.236773  1
  Cl  Cl11  1  0.671749  0.674901  0.215132  1
  Cl  Cl12  1  0.000000  0.820949  0.203623  1
  Cl  Cl13  1  0.000000  0.179051  0.796377  1
  Cl  Cl14  1  0.482296  0.174875  0.782020  1
  Cl  Cl15  1  0.179501  0.693111  0.236773  1
  Cl  Cl16  1  0.328251  0.003152  0.215132  1
  Cl  Cl17  1  0.328251  0.325099  0.784868  1
  Cl  Cl18  1  0.690278  0.172850  0.234502  1
  Cl  Cl19  1  0.309722  0.827150  0.765498  1
  Cl  Cl20  1  0.175571  0.177519  0.212163  1
  Cl  Cl21  1  0.309722  0.482572  0.234502  1
  Cl  Cl22  1  0.671749  0.996848  0.784868  1
  Cl  Cl23  1  0.517704  0.692578  0.782020  1
  Cl  Cl24  1  0.824429  0.822481  0.787837  1
  Cl  Cl25  1  0.482296  0.307422  0.217980  1
  Cl  Cl26  1  0.517704  0.825125  0.217980  1
  Cl  Cl27  1  0.690278  0.517428  0.765498  1
  Cl  Cl28  1  0.824429  0.001948  0.212163  1
  Cl  Cl29  1  0.000000  0.323331  0.220540  1
