# generated using pymatgen
data_Dy3ErP3S
_symmetry_space_group_name_H-M   'P 1'
_cell_length_a   6.86771050
_cell_length_b   6.86770809
_cell_length_c   6.88066500
_cell_angle_alpha   80.33317534
_cell_angle_beta   80.33317875
_cell_angle_gamma   33.71174403
_symmetry_Int_Tables_number   1
_chemical_formula_structural   Dy3ErP3S
_chemical_formula_sum   'Dy3 Er1 P3 S1'
_cell_volume   177.32458368
_cell_formula_units_Z   1
loop_
 _symmetry_equiv_pos_site_id
 _symmetry_equiv_pos_as_xyz
  1  'x, y, z'
loop_
 _atom_site_type_symbol
 _atom_site_label
 _atom_site_symmetry_multiplicity
 _atom_site_fract_x
 _atom_site_fract_y
 _atom_site_fract_z
 _atom_site_occupancy
  Dy  Dy0  1  0.248884  0.248884  0.253345  1
  Dy  Dy1  1  0.500700  0.500700  0.496635  1
  Dy  Dy2  1  0.747459  0.747459  0.746797  1
  Er  Er3  1  0.003042  0.003042  0.003228  1
  P  P4  1  0.624544  0.624544  0.121540  1
  P  P5  1  0.875251  0.875251  0.373144  1
  P  P6  1  0.124125  0.124125  0.628953  1
  S  S7  1  0.375997  0.375997  0.876359  1
