# generated using pymatgen
data_K12Al(TlS4)3
_symmetry_space_group_name_H-M   'P 1'
_cell_length_a   7.86041025
_cell_length_b   8.10020694
_cell_length_c   16.37661800
_cell_angle_alpha   61.32105889
_cell_angle_beta   89.72242045
_cell_angle_gamma   90.12352200
_symmetry_Int_Tables_number   1
_chemical_formula_structural   K12Al(TlS4)3
_chemical_formula_sum   'K12 Al1 Tl3 S12'
_cell_volume   914.77461941
_cell_formula_units_Z   1
loop_
 _symmetry_equiv_pos_site_id
 _symmetry_equiv_pos_as_xyz
  1  'x, y, z'
loop_
 _atom_site_type_symbol
 _atom_site_label
 _atom_site_symmetry_multiplicity
 _atom_site_fract_x
 _atom_site_fract_y
 _atom_site_fract_z
 _atom_site_occupancy
  K  K0  1  0.048566  0.913730  0.297815  1
  K  K1  1  0.540029  0.060609  0.213976  1
  K  K2  1  0.952094  0.084022  0.701631  1
  K  K3  1  0.451465  0.928399  0.793055  1
  K  K4  1  0.979634  0.720423  0.116661  1
  K  K5  1  0.495986  0.267633  0.388691  1
  K  K6  1  0.011756  0.275588  0.890276  1
  K  K7  1  0.506669  0.729434  0.607490  1
  K  K8  1  0.978084  0.294991  0.403698  1
  K  K9  1  0.487421  0.692177  0.103311  1
  K  K10  1  0.001281  0.688760  0.597107  1
  K  K11  1  0.510441  0.310130  0.902675  1
  Al  Al12  1  0.645402  0.664258  0.417030  1
  Tl  Tl13  1  0.140022  0.326674  0.087626  1
  Tl  Tl14  1  0.366996  0.339972  0.578147  1
  Tl  Tl15  1  0.856823  0.673052  0.915218  1
  S  S16  1  0.803407  0.358308  0.067656  1
  S  S17  1  0.347372  0.659095  0.425507  1
  S  S18  1  0.192187  0.639292  0.934161  1
  S  S19  1  0.704406  0.385897  0.550805  1
  S  S20  1  0.232657  0.342487  0.230441  1
  S  S21  1  0.734261  0.654052  0.288073  1
  S  S22  1  0.761087  0.663563  0.770583  1
  S  S23  1  0.264541  0.349650  0.722161  1
  S  S24  1  0.745953  0.920176  0.423092  1
  S  S25  1  0.251893  0.046564  0.076687  1
  S  S26  1  0.247313  0.058116  0.571044  1
  S  S27  1  0.742254  0.952948  0.925385  1
