# generated using pymatgen
data_CaTlAu4(SO4)8
_symmetry_space_group_name_H-M   'P 1'
_cell_length_a   9.32190641
_cell_length_b   9.32190496
_cell_length_c   10.51219557
_cell_angle_alpha   76.38211729
_cell_angle_beta   76.38212121
_cell_angle_gamma   114.86967497
_symmetry_Int_Tables_number   1
_chemical_formula_structural   CaTlAu4(SO4)8
_chemical_formula_sum   'Ca1 Tl1 Au4 S8 O32'
_cell_volume   745.28371247
_cell_formula_units_Z   1
loop_
 _symmetry_equiv_pos_site_id
 _symmetry_equiv_pos_as_xyz
  1  'x, y, z'
loop_
 _atom_site_type_symbol
 _atom_site_label
 _atom_site_symmetry_multiplicity
 _atom_site_fract_x
 _atom_site_fract_y
 _atom_site_fract_z
 _atom_site_occupancy
  Ca  Ca0  1  0.127719  0.872281  0.250000  1
  Tl  Tl1  1  0.868582  0.131418  0.750000  1
  Au  Au2  1  0.499653  0.499810  0.005794  1
  Au  Au3  1  0.500190  0.500347  0.494206  1
  Au  Au4  1  0.994755  0.492725  0.007095  1
  Au  Au5  1  0.507275  0.005245  0.492905  1
  S  S6  1  0.851706  0.741867  0.002749  1
  S  S7  1  0.258133  0.148294  0.497251  1
  S  S8  1  0.149048  0.254098  0.005380  1
  S  S9  1  0.745902  0.850952  0.494620  1
  S  S10  1  0.621941  0.230239  0.038748  1
  S  S11  1  0.769761  0.378059  0.461252  1
  S  S12  1  0.363895  0.760941  0.975119  1
  S  S13  1  0.239059  0.636105  0.524881  1
  O  O14  1  0.668302  0.594096  0.099911  1
  O  O15  1  0.405904  0.331698  0.400089  1
  O  O16  1  0.331967  0.405544  0.912228  1
  O  O17  1  0.594456  0.668033  0.587772  1
  O  O18  1  0.941242  0.671239  0.913399  1
  O  O19  1  0.328761  0.058758  0.586601  1
  O  O20  1  0.052532  0.316256  0.098689  1
  O  O21  1  0.683744  0.947468  0.401311  1
  O  O22  1  0.841064  0.865616  0.896957  1
  O  O23  1  0.134384  0.158936  0.603043  1
  O  O24  1  0.157323  0.125098  0.107159  1
  O  O25  1  0.874902  0.842677  0.392841  1
  O  O26  1  0.933753  0.797406  0.096361  1
  O  O27  1  0.202594  0.066247  0.403639  1
  O  O28  1  0.073698  0.205398  0.906267  1
  O  O29  1  0.794602  0.926302  0.593733  1
  O  O30  1  0.741535  0.312996  0.110672  1
  O  O31  1  0.687004  0.258465  0.389328  1
  O  O32  1  0.246017  0.672649  0.903283  1
  O  O33  1  0.327351  0.753983  0.596717  1
  O  O34  1  0.611209  0.370336  0.935519  1
  O  O35  1  0.629664  0.388791  0.564481  1
  O  O36  1  0.385918  0.627445  0.075270  1
  O  O37  1  0.372555  0.614082  0.424730  1
  O  O38  1  0.458908  0.107614  0.154063  1
  O  O39  1  0.892386  0.541092  0.345937  1
  O  O40  1  0.521652  0.888576  0.856614  1
  O  O41  1  0.111424  0.478348  0.643386  1
  O  O42  1  0.692637  0.158565  0.949886  1
  O  O43  1  0.841435  0.307363  0.550114  1
  O  O44  1  0.282405  0.818947  0.070508  1
  O  O45  1  0.181053  0.717595  0.429492  1
