# generated using pymatgen
data_Ca13Tb2Th5Pt16
_symmetry_space_group_name_H-M   'P 1'
_cell_length_a   7.75738203
_cell_length_b   7.88817323
_cell_length_c   14.98746100
_cell_angle_alpha   89.96828754
_cell_angle_beta   89.99530252
_cell_angle_gamma   89.99557393
_symmetry_Int_Tables_number   1
_chemical_formula_structural   Ca13Tb2Th5Pt16
_chemical_formula_sum   'Ca13 Tb2 Th5 Pt16'
_cell_volume   917.10617127
_cell_formula_units_Z   1
loop_
 _symmetry_equiv_pos_site_id
 _symmetry_equiv_pos_as_xyz
  1  'x, y, z'
loop_
 _atom_site_type_symbol
 _atom_site_label
 _atom_site_symmetry_multiplicity
 _atom_site_fract_x
 _atom_site_fract_y
 _atom_site_fract_z
 _atom_site_occupancy
  Ca  Ca0  1  0.839947  0.666428  0.878690  1
  Ca  Ca1  1  0.494667  0.321928  0.898417  1
  Ca  Ca2  1  0.987442  0.182578  0.601205  1
  Ca  Ca3  1  0.510545  0.679542  0.405472  1
  Ca  Ca4  1  0.009193  0.816243  0.091100  1
  Ca  Ca5  1  0.507262  0.682323  0.090308  1
  Ca  Ca6  1  0.006848  0.816424  0.407416  1
  Ca  Ca7  1  0.494334  0.323379  0.602632  1
  Ca  Ca8  1  0.990948  0.181376  0.901071  1
  Ca  Ca9  1  0.172095  0.484503  0.752603  1
  Ca  Ca10  1  0.684435  0.014062  0.751938  1
  Ca  Ca11  1  0.815003  0.524303  0.248958  1
  Ca  Ca12  1  0.315747  0.974737  0.249764  1
  Tb  Tb13  1  0.340516  0.836353  0.876264  1
  Tb  Tb14  1  0.841083  0.661596  0.623578  1
  Th  Th15  1  0.660944  0.160417  0.380937  1
  Th  Th16  1  0.162248  0.337836  0.119549  1
  Th  Th17  1  0.660279  0.161717  0.119948  1
  Th  Th18  1  0.158544  0.339019  0.380598  1
  Th  Th19  1  0.340004  0.837841  0.622029  1
  Pt  Pt20  1  0.325903  0.044162  0.043036  1
  Pt  Pt21  1  0.829771  0.453042  0.456540  1
  Pt  Pt22  1  0.673324  0.954070  0.542155  1
  Pt  Pt23  1  0.186471  0.540467  0.961524  1
  Pt  Pt24  1  0.665640  0.972425  0.958061  1
  Pt  Pt25  1  0.176835  0.542140  0.542659  1
  Pt  Pt26  1  0.323717  0.045116  0.458489  1
  Pt  Pt27  1  0.833990  0.451202  0.045962  1
  Pt  Pt28  1  0.537275  0.633822  0.745759  1
  Pt  Pt29  1  0.050378  0.867038  0.744394  1
  Pt  Pt30  1  0.458360  0.360781  0.251274  1
  Pt  Pt31  1  0.959404  0.133899  0.251180  1
  Pt  Pt32  1  0.306817  0.121832  0.750006  1
  Pt  Pt33  1  0.793867  0.378346  0.747426  1
  Pt  Pt34  1  0.692857  0.884907  0.249358  1
  Pt  Pt35  1  0.193311  0.614147  0.249699  1
