# generated using pymatgen
data_Ca2Zn2SiPd12
_symmetry_space_group_name_H-M   'P 1'
_cell_length_a   8.89997700
_cell_length_b   8.89997700
_cell_length_c   7.06611600
_cell_angle_alpha   90.00000000
_cell_angle_beta   90.00000000
_cell_angle_gamma   90.00000000
_symmetry_Int_Tables_number   1
_chemical_formula_structural   Ca2Zn2SiPd12
_chemical_formula_sum   'Ca4 Zn4 Si2 Pd24'
_cell_volume   559.70415550
_cell_formula_units_Z   2
loop_
 _symmetry_equiv_pos_site_id
 _symmetry_equiv_pos_as_xyz
  1  'x, y, z'
loop_
 _atom_site_type_symbol
 _atom_site_label
 _atom_site_symmetry_multiplicity
 _atom_site_fract_x
 _atom_site_fract_y
 _atom_site_fract_z
 _atom_site_occupancy
  Ca  Ca0  1  0.500000  0.000000  0.930923  1
  Ca  Ca1  1  0.000000  0.500000  0.069077  1
  Ca  Ca2  1  0.000000  0.000000  0.500000  1
  Ca  Ca3  1  0.500000  0.500000  0.500000  1
  Zn  Zn4  1  0.250000  0.750000  0.000000  1
  Zn  Zn5  1  0.250000  0.250000  0.000000  1
  Zn  Zn6  1  0.750000  0.750000  0.000000  1
  Zn  Zn7  1  0.750000  0.250000  0.000000  1
  Si  Si8  1  0.500000  0.000000  0.440397  1
  Si  Si9  1  0.000000  0.500000  0.559603  1
  Pd  Pd10  1  0.334336  0.834336  0.616774  1
  Pd  Pd11  1  0.334336  0.165664  0.616774  1
  Pd  Pd12  1  0.665664  0.834336  0.616774  1
  Pd  Pd13  1  0.665664  0.165664  0.616774  1
  Pd  Pd14  1  0.165664  0.665664  0.383226  1
  Pd  Pd15  1  0.165664  0.334336  0.383226  1
  Pd  Pd16  1  0.834336  0.665664  0.383226  1
  Pd  Pd17  1  0.834336  0.334336  0.383226  1
  Pd  Pd18  1  0.500000  0.767647  0.252128  1
  Pd  Pd19  1  0.500000  0.232353  0.252128  1
  Pd  Pd20  1  0.267647  0.000000  0.252128  1
  Pd  Pd21  1  0.732353  0.000000  0.252128  1
  Pd  Pd22  1  0.000000  0.732353  0.747872  1
  Pd  Pd23  1  0.000000  0.267647  0.747872  1
  Pd  Pd24  1  0.232353  0.500000  0.747872  1
  Pd  Pd25  1  0.767647  0.500000  0.747872  1
  Pd  Pd26  1  0.500000  0.340868  0.865455  1
  Pd  Pd27  1  0.500000  0.659132  0.865455  1
  Pd  Pd28  1  0.840868  0.000000  0.865455  1
  Pd  Pd29  1  0.159132  0.000000  0.865455  1
  Pd  Pd30  1  0.000000  0.159132  0.134545  1
  Pd  Pd31  1  0.000000  0.840868  0.134545  1
  Pd  Pd32  1  0.659132  0.500000  0.134545  1
  Pd  Pd33  1  0.340868  0.500000  0.134545  1
