# generated using pymatgen
data_Ho6Er6OsRh3
_symmetry_space_group_name_H-M   'P 1'
_cell_length_a   6.36230800
_cell_length_b   7.20656945
_cell_length_c   9.14089261
_cell_angle_alpha   89.99176532
_cell_angle_beta   90.12605693
_cell_angle_gamma   90.13263684
_symmetry_Int_Tables_number   1
_chemical_formula_structural   Ho6Er6OsRh3
_chemical_formula_sum   'Ho6 Er6 Os1 Rh3'
_cell_volume   419.11157339
_cell_formula_units_Z   1
loop_
 _symmetry_equiv_pos_site_id
 _symmetry_equiv_pos_as_xyz
  1  'x, y, z'
loop_
 _atom_site_type_symbol
 _atom_site_label
 _atom_site_symmetry_multiplicity
 _atom_site_fract_x
 _atom_site_fract_y
 _atom_site_fract_z
 _atom_site_occupancy
  Ho  Ho0  1  0.332553  0.677482  0.057808  1
  Ho  Ho1  1  0.172450  0.178699  0.437219  1
  Ho  Ho2  1  0.874093  0.537499  0.250348  1
  Ho  Ho3  1  0.630702  0.034880  0.249824  1
  Ho  Ho4  1  0.125018  0.464060  0.749953  1
  Ho  Ho5  1  0.374193  0.967227  0.750086  1
  Er  Er6  1  0.672143  0.323483  0.563687  1
  Er  Er7  1  0.824304  0.818418  0.934760  1
  Er  Er8  1  0.671975  0.323776  0.936502  1
  Er  Er9  1  0.824228  0.818644  0.565353  1
  Er  Er10  1  0.332936  0.677128  0.442495  1
  Er  Er11  1  0.172070  0.178682  0.062636  1
  Os  Os12  1  0.534633  0.613418  0.749034  1
  Rh  Rh13  1  0.047667  0.887519  0.249385  1
  Rh  Rh14  1  0.457281  0.386307  0.249941  1
  Rh  Rh15  1  0.953756  0.112775  0.750969  1
