# generated using pymatgen
data_HfZr5Bi2Pt
_symmetry_space_group_name_H-M   'P 1'
_cell_length_a   7.99176405
_cell_length_b   7.97210572
_cell_length_c   3.73838500
_cell_angle_alpha   90.00000000
_cell_angle_beta   90.00000000
_cell_angle_gamma   119.91865763
_symmetry_Int_Tables_number   1
_chemical_formula_structural   HfZr5Bi2Pt
_chemical_formula_sum   'Hf1 Zr5 Bi2 Pt1'
_cell_volume   206.43614985
_cell_formula_units_Z   1
loop_
 _symmetry_equiv_pos_site_id
 _symmetry_equiv_pos_as_xyz
  1  'x, y, z'
loop_
 _atom_site_type_symbol
 _atom_site_label
 _atom_site_symmetry_multiplicity
 _atom_site_fract_x
 _atom_site_fract_y
 _atom_site_fract_z
 _atom_site_occupancy
  Hf  Hf0  1  0.000000  0.755364  0.000000  1
  Zr  Zr1  1  0.750823  0.998506  0.000000  1
  Zr  Zr2  1  0.249176  0.247682  0.000000  1
  Zr  Zr3  1  0.397619  0.000545  0.500000  1
  Zr  Zr4  1  0.000000  0.397140  0.500000  1
  Zr  Zr5  1  0.602381  0.602926  0.500000  1
  Bi  Bi6  1  0.668039  0.334412  0.000000  1
  Bi  Bi7  1  0.331960  0.666372  0.000000  1
  Pt  Pt8  1  0.000000  0.997051  0.500000  1
