# generated using pymatgen
data_Y8ErLu(SiB4)4
_symmetry_space_group_name_H-M   'P 1'
_cell_length_a   7.22714000
_cell_length_b   7.22714000
_cell_length_c   8.06974800
_cell_angle_alpha   90.00000000
_cell_angle_beta   90.00000000
_cell_angle_gamma   90.00000000
_symmetry_Int_Tables_number   1
_chemical_formula_structural   Y8ErLu(SiB4)4
_chemical_formula_sum   'Y8 Er1 Lu1 Si4 B16'
_cell_volume   421.49546697
_cell_formula_units_Z   1
loop_
 _symmetry_equiv_pos_site_id
 _symmetry_equiv_pos_as_xyz
  1  'x, y, z'
loop_
 _atom_site_type_symbol
 _atom_site_label
 _atom_site_symmetry_multiplicity
 _atom_site_fract_x
 _atom_site_fract_y
 _atom_site_fract_z
 _atom_site_occupancy
  Y  Y0  1  0.680279  0.180536  0.225014  1
  Y  Y1  1  0.319721  0.819464  0.774986  1
  Y  Y2  1  0.319721  0.819464  0.225014  1
  Y  Y3  1  0.819464  0.680279  0.225014  1
  Y  Y4  1  0.819464  0.680279  0.774986  1
  Y  Y5  1  0.680279  0.180536  0.774986  1
  Y  Y6  1  0.180536  0.319721  0.774986  1
  Y  Y7  1  0.180536  0.319721  0.225014  1
  Er  Er8  1  0.000000  0.000000  0.500000  1
  Lu  Lu9  1  0.500000  0.500000  0.500000  1
  Si  Si10  1  0.116203  0.615116  0.500000  1
  Si  Si11  1  0.883797  0.384884  0.500000  1
  Si  Si12  1  0.384884  0.116203  0.500000  1
  Si  Si13  1  0.615116  0.883797  0.500000  1
  B  B14  1  0.172088  0.039082  0.000000  1
  B  B15  1  0.827912  0.960918  0.000000  1
  B  B16  1  0.960918  0.172088  0.000000  1
  B  B17  1  0.327908  0.539015  0.000000  1
  B  B18  1  0.039082  0.827912  0.000000  1
  B  B19  1  0.672092  0.460985  0.000000  1
  B  B20  1  0.539015  0.672092  0.000000  1
  B  B21  1  0.460985  0.327908  0.000000  1
  B  B22  1  0.089855  0.589946  0.000000  1
  B  B23  1  0.910145  0.410054  0.000000  1
  B  B24  1  0.410054  0.089855  0.000000  1
  B  B25  1  0.589946  0.910145  0.000000  1
  B  B26  1  0.000000  0.000000  0.162487  1
  B  B27  1  0.000000  0.000000  0.837513  1
  B  B28  1  0.500000  0.500000  0.837049  1
  B  B29  1  0.500000  0.500000  0.162951  1
