# generated using pymatgen
data_Y(Tc2Ge)2
_symmetry_space_group_name_H-M   'P 1'
_cell_length_a   7.43419300
_cell_length_b   7.43419300
_cell_length_c   4.22879400
_cell_angle_alpha   90.00000000
_cell_angle_beta   90.00000000
_cell_angle_gamma   90.00000000
_symmetry_Int_Tables_number   1
_chemical_formula_structural   Y(Tc2Ge)2
_chemical_formula_sum   'Y2 Tc8 Ge4'
_cell_volume   233.71371185
_cell_formula_units_Z   2
loop_
 _symmetry_equiv_pos_site_id
 _symmetry_equiv_pos_as_xyz
  1  'x, y, z'
loop_
 _atom_site_type_symbol
 _atom_site_label
 _atom_site_symmetry_multiplicity
 _atom_site_fract_x
 _atom_site_fract_y
 _atom_site_fract_z
 _atom_site_occupancy
  Y  Y0  1  0.000000  0.000000  0.000000  1
  Y  Y1  1  0.500000  0.500000  0.500000  1
  Tc  Tc2  1  0.596399  0.150145  0.000000  1
  Tc  Tc3  1  0.403601  0.849855  0.000000  1
  Tc  Tc4  1  0.650145  0.903601  0.500000  1
  Tc  Tc5  1  0.096399  0.349855  0.500000  1
  Tc  Tc6  1  0.349855  0.096399  0.500000  1
  Tc  Tc7  1  0.903601  0.650145  0.500000  1
  Tc  Tc8  1  0.150145  0.596399  0.000000  1
  Tc  Tc9  1  0.849855  0.403601  0.000000  1
  Ge  Ge10  1  0.293231  0.293231  0.000000  1
  Ge  Ge11  1  0.706769  0.706769  0.000000  1
  Ge  Ge12  1  0.793231  0.206769  0.500000  1
  Ge  Ge13  1  0.206769  0.793231  0.500000  1
