# generated using pymatgen
data_Ba6Ni(SbO6)2
_symmetry_space_group_name_H-M   'P 1'
_cell_length_a   9.30970389
_cell_length_b   9.30970404
_cell_length_c   7.33914231
_cell_angle_alpha   67.73522223
_cell_angle_beta   67.73522888
_cell_angle_gamma   36.93198989
_symmetry_Int_Tables_number   1
_chemical_formula_structural   Ba6Ni(SbO6)2
_chemical_formula_sum   'Ba6 Ni1 Sb2 O12'
_cell_volume   350.38659961
_cell_formula_units_Z   1
loop_
 _symmetry_equiv_pos_site_id
 _symmetry_equiv_pos_as_xyz
  1  'x, y, z'
loop_
 _atom_site_type_symbol
 _atom_site_label
 _atom_site_symmetry_multiplicity
 _atom_site_fract_x
 _atom_site_fract_y
 _atom_site_fract_z
 _atom_site_occupancy
  Ba  Ba0  1  0.205285  0.205285  0.708800  1
  Ba  Ba1  1  0.889747  0.889747  0.707347  1
  Ba  Ba2  1  0.547739  0.547739  0.716141  1
  Ba  Ba3  1  0.794715  0.794715  0.291200  1
  Ba  Ba4  1  0.452261  0.452261  0.283859  1
  Ba  Ba5  1  0.110253  0.110253  0.292653  1
  Ni  Ni6  1  0.000000  0.000000  0.000000  1
  Sb  Sb7  1  0.666621  0.666621  0.001005  1
  Sb  Sb8  1  0.333379  0.333379  0.998995  1
  O  O9  1  0.280285  0.280285  0.299568  1
  O  O10  1  0.946618  0.946618  0.317148  1
  O  O11  1  0.620075  0.620075  0.300673  1
  O  O12  1  0.719715  0.719715  0.700432  1
  O  O13  1  0.379925  0.379925  0.699327  1
  O  O14  1  0.053382  0.053382  0.682852  1
  O  O15  1  0.000000  0.500000  0.000000  1
  O  O16  1  0.652812  0.172933  0.001033  1
  O  O17  1  0.347188  0.827067  0.998967  1
  O  O18  1  0.500000  0.000000  0.000000  1
  O  O19  1  0.172933  0.652812  0.001033  1
  O  O20  1  0.827067  0.347188  0.998967  1
