# generated using pymatgen
data_Dy5Tl2In2IrPd
_symmetry_space_group_name_H-M   'P 1'
_cell_length_a   3.62409600
_cell_length_b   8.16786349
_cell_length_c   18.29501800
_cell_angle_alpha   90.01981676
_cell_angle_beta   90.00000000
_cell_angle_gamma   90.00000000
_symmetry_Int_Tables_number   1
_chemical_formula_structural   Dy5Tl2In2IrPd
_chemical_formula_sum   'Dy10 Tl4 In4 Ir2 Pd2'
_cell_volume   541.55301639
_cell_formula_units_Z   2
loop_
 _symmetry_equiv_pos_site_id
 _symmetry_equiv_pos_as_xyz
  1  'x, y, z'
loop_
 _atom_site_type_symbol
 _atom_site_label
 _atom_site_symmetry_multiplicity
 _atom_site_fract_x
 _atom_site_fract_y
 _atom_site_fract_z
 _atom_site_occupancy
  Dy  Dy0  1  0.000000  0.500000  0.500000  1
  Dy  Dy1  1  0.000000  0.000000  0.000000  1
  Dy  Dy2  1  0.000000  0.729247  0.279072  1
  Dy  Dy3  1  0.000000  0.270753  0.720928  1
  Dy  Dy4  1  0.000000  0.744623  0.781400  1
  Dy  Dy5  1  0.000000  0.255377  0.218600  1
  Dy  Dy6  1  0.000000  0.613559  0.088902  1
  Dy  Dy7  1  0.000000  0.386441  0.911098  1
  Dy  Dy8  1  0.000000  0.884997  0.587195  1
  Dy  Dy9  1  0.000000  0.115003  0.412805  1
  Tl  Tl10  1  0.500000  0.709484  0.934833  1
  Tl  Tl11  1  0.500000  0.290516  0.065167  1
  Tl  Tl12  1  0.500000  0.791817  0.433825  1
  Tl  Tl13  1  0.500000  0.208183  0.566175  1
  In  In14  1  0.500000  0.581220  0.648764  1
  In  In15  1  0.500000  0.418780  0.351236  1
  In  In16  1  0.500000  0.920345  0.150811  1
  In  In17  1  0.500000  0.079655  0.849189  1
  Ir  Ir18  1  0.500000  0.524716  0.198051  1
  Ir  Ir19  1  0.500000  0.475284  0.801949  1
  Pd  Pd20  1  0.500000  0.974910  0.698446  1
  Pd  Pd21  1  0.500000  0.025090  0.301554  1
