# generated using pymatgen
data_Er3In4CoIr
_symmetry_space_group_name_H-M   'P 1'
_cell_length_a   7.95325600
_cell_length_b   7.95325659
_cell_length_c   3.60705100
_cell_angle_alpha   90.00000000
_cell_angle_beta   90.00000000
_cell_angle_gamma   119.99999642
_symmetry_Int_Tables_number   1
_chemical_formula_structural   Er3In4CoIr
_chemical_formula_sum   'Er3 In4 Co1 Ir1'
_cell_volume   197.59360559
_cell_formula_units_Z   1
loop_
 _symmetry_equiv_pos_site_id
 _symmetry_equiv_pos_as_xyz
  1  'x, y, z'
loop_
 _atom_site_type_symbol
 _atom_site_label
 _atom_site_symmetry_multiplicity
 _atom_site_fract_x
 _atom_site_fract_y
 _atom_site_fract_z
 _atom_site_occupancy
  Er  Er0  1  0.703544  0.956820  0.500000  1
  Er  Er1  1  0.253276  0.296456  0.500000  1
  Er  Er2  1  0.043180  0.746724  0.500000  1
  In  In3  1  0.921447  0.338069  0.000000  1
  In  In4  1  0.416623  0.078553  0.000000  1
  In  In5  1  0.661931  0.583377  0.000000  1
  In  In6  1  0.333333  0.666667  0.000000  1
  Co  Co7  1  0.666667  0.333333  0.500000  1
  Ir  Ir8  1  0.000000  0.000000  0.000000  1
