# generated using pymatgen
data_Ta17Ti3(NbP2)4
_symmetry_space_group_name_H-M   'P 1'
_cell_length_a   10.19697464
_cell_length_b   10.22050230
_cell_length_c   5.03831570
_cell_angle_alpha   89.96965632
_cell_angle_beta   89.91819259
_cell_angle_gamma   90.01203075
_symmetry_Int_Tables_number   1
_chemical_formula_structural   Ta17Ti3(NbP2)4
_chemical_formula_sum   'Ta17 Ti3 Nb4 P8'
_cell_volume   525.08358639
_cell_formula_units_Z   1
loop_
 _symmetry_equiv_pos_site_id
 _symmetry_equiv_pos_as_xyz
  1  'x, y, z'
loop_
 _atom_site_type_symbol
 _atom_site_label
 _atom_site_symmetry_multiplicity
 _atom_site_fract_x
 _atom_site_fract_y
 _atom_site_fract_z
 _atom_site_occupancy
  Ta  Ta0  1  0.906724  0.592739  0.499918  1
  Ta  Ta1  1  0.906853  0.406682  0.000494  1
  Ta  Ta2  1  0.592906  0.093478  0.500689  1
  Ta  Ta3  1  0.799240  0.299418  0.499346  1
  Ta  Ta4  1  0.094199  0.407671  0.503159  1
  Ta  Ta5  1  0.093942  0.591849  0.997132  1
  Ta  Ta6  1  0.200517  0.300683  0.997330  1
  Ta  Ta7  1  0.299847  0.799904  0.001296  1
  Ta  Ta8  1  0.301231  0.201246  0.497598  1
  Ta  Ta9  1  0.698838  0.199689  0.999128  1
  Ta  Ta10  1  0.593744  0.908045  0.996623  1
  Ta  Ta11  1  0.700335  0.801424  0.501863  1
  Ta  Ta12  1  0.200670  0.698225  0.500561  1
  Ta  Ta13  1  0.408118  0.094523  0.002201  1
  Ta  Ta14  1  0.406778  0.906984  0.501154  1
  Ta  Ta15  1  0.799020  0.699498  0.002598  1
  Ta  Ta16  1  0.145030  0.000390  0.748852  1
  Ti  Ti17  1  0.854643  0.000460  0.751108  1
  Ti  Ti18  1  0.354455  0.500364  0.748892  1
  Ti  Ti19  1  0.500803  0.354119  0.247672  1
  Nb  Nb20  1  0.500541  0.644544  0.251707  1
  Nb  Nb21  1  0.643983  0.500118  0.750203  1
  Nb  Nb22  1  0.001104  0.853983  0.251104  1
  Nb  Nb23  1  0.000959  0.145873  0.249013  1
  P  P24  1  0.997776  0.793744  0.749406  1
  P  P25  1  0.498145  0.295570  0.750106  1
  P  P26  1  0.208167  0.000442  0.250264  1
  P  P27  1  0.793520  0.000289  0.249614  1
  P  P28  1  0.998038  0.206540  0.750623  1
  P  P29  1  0.705979  0.497943  0.250296  1
  P  P30  1  0.295419  0.497575  0.249805  1
  P  P31  1  0.498481  0.705989  0.750244  1
