# generated using pymatgen
data_Ho3ZnIn3CuRh
_symmetry_space_group_name_H-M   'P 1'
_cell_length_a   7.62059600
_cell_length_b   7.62059624
_cell_length_c   3.88116500
_cell_angle_alpha   90.00000000
_cell_angle_beta   90.00000000
_cell_angle_gamma   119.99999898
_symmetry_Int_Tables_number   1
_chemical_formula_structural   Ho3ZnIn3CuRh
_chemical_formula_sum   'Ho3 Zn1 In3 Cu1 Rh1'
_cell_volume   195.19587372
_cell_formula_units_Z   1
loop_
 _symmetry_equiv_pos_site_id
 _symmetry_equiv_pos_as_xyz
  1  'x, y, z'
loop_
 _atom_site_type_symbol
 _atom_site_label
 _atom_site_symmetry_multiplicity
 _atom_site_fract_x
 _atom_site_fract_y
 _atom_site_fract_z
 _atom_site_occupancy
  Ho  Ho0  1  0.021981  0.602308  0.500000  1
  Ho  Ho1  1  0.397692  0.419673  0.500000  1
  Ho  Ho2  1  0.580327  0.978019  0.500000  1
  Zn  Zn3  1  0.666667  0.333333  0.000000  1
  In  In4  1  0.747952  0.745908  0.000000  1
  In  In5  1  0.997956  0.252048  0.000000  1
  In  In6  1  0.254092  0.002044  0.000000  1
  Cu  Cu7  1  0.000000  0.000000  0.500000  1
  Rh  Rh8  1  0.333333  0.666667  0.000000  1
