# generated using pymatgen
data_CsAl2Ag3
_symmetry_space_group_name_H-M   'P 1'
_cell_length_a   5.48724800
_cell_length_b   7.66336100
_cell_length_c   14.22555900
_cell_angle_alpha   90.00000000
_cell_angle_beta   90.00000000
_cell_angle_gamma   90.00000000
_symmetry_Int_Tables_number   1
_chemical_formula_structural   CsAl2Ag3
_chemical_formula_sum   'Cs4 Al8 Ag12'
_cell_volume   598.19560039
_cell_formula_units_Z   4
loop_
 _symmetry_equiv_pos_site_id
 _symmetry_equiv_pos_as_xyz
  1  'x, y, z'
loop_
 _atom_site_type_symbol
 _atom_site_label
 _atom_site_symmetry_multiplicity
 _atom_site_fract_x
 _atom_site_fract_y
 _atom_site_fract_z
 _atom_site_occupancy
  Cs  Cs0  1  0.250000  0.103635  0.073305  1
  Cs  Cs1  1  0.250000  0.396365  0.573305  1
  Cs  Cs2  1  0.750000  0.896365  0.926695  1
  Cs  Cs3  1  0.750000  0.603635  0.426695  1
  Al  Al4  1  0.000183  0.911042  0.657846  1
  Al  Al5  1  0.499817  0.588958  0.157846  1
  Al  Al6  1  0.500183  0.088958  0.342154  1
  Al  Al7  1  0.999817  0.411042  0.842154  1
  Al  Al8  1  0.999817  0.088958  0.342154  1
  Al  Al9  1  0.500183  0.411042  0.842154  1
  Al  Al10  1  0.499817  0.911042  0.657846  1
  Al  Al11  1  0.000183  0.588958  0.157846  1
  Ag  Ag12  1  0.250000  0.130554  0.776386  1
  Ag  Ag13  1  0.250000  0.369446  0.276386  1
  Ag  Ag14  1  0.750000  0.869446  0.223614  1
  Ag  Ag15  1  0.750000  0.630554  0.723614  1
  Ag  Ag16  1  0.250000  0.693528  0.775667  1
  Ag  Ag17  1  0.250000  0.806472  0.275667  1
  Ag  Ag18  1  0.750000  0.306472  0.224333  1
  Ag  Ag19  1  0.750000  0.193528  0.724333  1
  Ag  Ag20  1  0.250000  0.552280  0.992028  1
  Ag  Ag21  1  0.250000  0.947720  0.492028  1
  Ag  Ag22  1  0.750000  0.447720  0.007972  1
  Ag  Ag23  1  0.750000  0.052280  0.507972  1
