# generated using pymatgen
data_Y15HoIn2(HgRh2)2
_symmetry_space_group_name_H-M   'P 1'
_cell_length_a   9.67176380
_cell_length_b   9.67176428
_cell_length_c   9.68985061
_cell_angle_alpha   59.86935687
_cell_angle_beta   59.86935875
_cell_angle_gamma   59.79273703
_symmetry_Int_Tables_number   1
_chemical_formula_structural   Y15HoIn2(HgRh2)2
_chemical_formula_sum   'Y15 Ho1 In2 Hg2 Rh4'
_cell_volume   638.66167123
_cell_formula_units_Z   1
loop_
 _symmetry_equiv_pos_site_id
 _symmetry_equiv_pos_as_xyz
  1  'x, y, z'
loop_
 _atom_site_type_symbol
 _atom_site_label
 _atom_site_symmetry_multiplicity
 _atom_site_fract_x
 _atom_site_fract_y
 _atom_site_fract_z
 _atom_site_occupancy
  Y  Y0  1  0.187209  0.187209  0.812772  1
  Y  Y1  1  0.600445  0.600445  0.199231  1
  Y  Y2  1  0.439234  0.058603  0.442627  1
  Y  Y3  1  0.441619  0.441619  0.058123  1
  Y  Y4  1  0.811731  0.185900  0.813108  1
  Y  Y5  1  0.185352  0.812017  0.189192  1
  Y  Y6  1  0.438952  0.059066  0.059512  1
  Y  Y7  1  0.185900  0.811731  0.813108  1
  Y  Y8  1  0.059066  0.438952  0.059512  1
  Y  Y9  1  0.812179  0.812179  0.188116  1
  Y  Y10  1  0.196405  0.602314  0.600645  1
  Y  Y11  1  0.058603  0.439234  0.442627  1
  Y  Y12  1  0.060489  0.060489  0.439458  1
  Y  Y13  1  0.812017  0.185352  0.189192  1
  Y  Y14  1  0.602314  0.196405  0.600645  1
  Ho  Ho15  1  0.599371  0.599371  0.598944  1
  In  In16  1  0.504340  0.831764  0.831838  1
  In  In17  1  0.831764  0.504340  0.831838  1
  Hg  Hg18  1  0.835536  0.835536  0.836245  1
  Hg  Hg19  1  0.835399  0.835399  0.492863  1
  Rh  Rh20  1  0.394012  0.821645  0.393514  1
  Rh  Rh21  1  0.392485  0.392485  0.392419  1
  Rh  Rh22  1  0.821645  0.394012  0.393514  1
  Rh  Rh23  1  0.393932  0.393932  0.820956  1
