# generated using pymatgen
data_TbPr(CuP2)2
_symmetry_space_group_name_H-M   'P 1'
_cell_length_a   3.75461900
_cell_length_b   3.83877600
_cell_length_c   19.86992700
_cell_angle_alpha   90.00000000
_cell_angle_beta   90.00000000
_cell_angle_gamma   90.00000000
_symmetry_Int_Tables_number   1
_chemical_formula_structural   TbPr(CuP2)2
_chemical_formula_sum   'Tb2 Pr2 Cu4 P8'
_cell_volume   286.38806560
_cell_formula_units_Z   2
loop_
 _symmetry_equiv_pos_site_id
 _symmetry_equiv_pos_as_xyz
  1  'x, y, z'
loop_
 _atom_site_type_symbol
 _atom_site_label
 _atom_site_symmetry_multiplicity
 _atom_site_fract_x
 _atom_site_fract_y
 _atom_site_fract_z
 _atom_site_occupancy
  Tb  Tb0  1  0.250000  0.719381  0.380540  1
  Tb  Tb1  1  0.250000  0.780619  0.880540  1
  Pr  Pr2  1  0.750000  0.278988  0.617429  1
  Pr  Pr3  1  0.750000  0.221012  0.117429  1
  Cu  Cu4  1  0.250000  0.224146  0.251937  1
  Cu  Cu5  1  0.750000  0.776648  0.752593  1
  Cu  Cu6  1  0.250000  0.275854  0.751937  1
  Cu  Cu7  1  0.750000  0.723352  0.252593  1
  P  P8  1  0.750000  0.813102  0.497952  1
  P  P9  1  0.750000  0.686898  0.997952  1
  P  P10  1  0.250000  0.185380  0.493563  1
  P  P11  1  0.250000  0.314620  0.993563  1
  P  P12  1  0.250000  0.721906  0.178539  1
  P  P13  1  0.750000  0.221511  0.327445  1
  P  P14  1  0.750000  0.278489  0.827445  1
  P  P15  1  0.250000  0.778094  0.678539  1
