# generated using pymatgen
data_Sc5Co16(CuP4)3
_symmetry_space_group_name_H-M   'P 1'
_cell_length_a   11.88197900
_cell_length_b   11.88197991
_cell_length_c   3.61014300
_cell_angle_alpha   90.00000000
_cell_angle_beta   90.00000000
_cell_angle_gamma   119.99999468
_symmetry_Int_Tables_number   1
_chemical_formula_structural   Sc5Co16(CuP4)3
_chemical_formula_sum   'Sc5 Co16 Cu3 P12'
_cell_volume   441.40033057
_cell_formula_units_Z   1
loop_
 _symmetry_equiv_pos_site_id
 _symmetry_equiv_pos_as_xyz
  1  'x, y, z'
loop_
 _atom_site_type_symbol
 _atom_site_label
 _atom_site_symmetry_multiplicity
 _atom_site_fract_x
 _atom_site_fract_y
 _atom_site_fract_z
 _atom_site_occupancy
  Sc  Sc0  1  0.666667  0.333333  0.000000  1
  Sc  Sc1  1  0.333333  0.666667  0.000000  1
  Sc  Sc2  1  0.813905  0.813905  0.500000  1
  Sc  Sc3  1  0.186095  0.000000  0.500000  1
  Sc  Sc4  1  0.000000  0.186095  0.500000  1
  Co  Co5  1  0.197714  0.376118  0.000000  1
  Co  Co6  1  0.178404  0.802286  0.000000  1
  Co  Co7  1  0.821596  0.623882  0.000000  1
  Co  Co8  1  0.802286  0.178404  0.000000  1
  Co  Co9  1  0.376118  0.197714  0.000000  1
  Co  Co10  1  0.126972  0.485255  0.500000  1
  Co  Co11  1  0.358283  0.873028  0.500000  1
  Co  Co12  1  0.514745  0.641717  0.500000  1
  Co  Co13  1  0.641717  0.514745  0.500000  1
  Co  Co14  1  0.873028  0.358283  0.500000  1
  Co  Co15  1  0.485255  0.126972  0.500000  1
  Co  Co16  1  0.000000  0.000000  0.000000  1
  Co  Co17  1  0.714955  0.000000  0.500000  1
  Co  Co18  1  0.000000  0.714955  0.500000  1
  Co  Co19  1  0.623882  0.821596  0.000000  1
  Co  Co20  1  0.285045  0.285045  0.500000  1
  Cu  Cu21  1  0.447845  0.447845  0.000000  1
  Cu  Cu22  1  0.552155  0.000000  0.000000  1
  Cu  Cu23  1  0.000000  0.552155  0.000000  1
  P  P24  1  0.639552  0.639552  0.000000  1
  P  P25  1  0.360448  0.000000  0.000000  1
  P  P26  1  0.000000  0.360448  0.000000  1
  P  P27  1  0.484350  0.311250  0.500000  1
  P  P28  1  0.688750  0.173101  0.500000  1
  P  P29  1  0.826899  0.515650  0.500000  1
  P  P30  1  0.515650  0.826899  0.500000  1
  P  P31  1  0.173101  0.688750  0.500000  1
  P  P32  1  0.821320  0.000000  0.000000  1
  P  P33  1  0.000000  0.821320  0.000000  1
  P  P34  1  0.311250  0.484350  0.500000  1
  P  P35  1  0.178680  0.178680  0.000000  1
