# generated using pymatgen
data_Zr2(PaMn)3
_symmetry_space_group_name_H-M   'P 1'
_cell_length_a   6.36046200
_cell_length_b   7.51547638
_cell_length_c   7.51547600
_cell_angle_alpha   120.00000713
_cell_angle_beta   90.00000000
_cell_angle_gamma   90.00000000
_symmetry_Int_Tables_number   1
_chemical_formula_structural   Zr2(PaMn)3
_chemical_formula_sum   'Zr4 Pa6 Mn6'
_cell_volume   311.12310854
_cell_formula_units_Z   2
loop_
 _symmetry_equiv_pos_site_id
 _symmetry_equiv_pos_as_xyz
  1  'x, y, z'
loop_
 _atom_site_type_symbol
 _atom_site_label
 _atom_site_symmetry_multiplicity
 _atom_site_fract_x
 _atom_site_fract_y
 _atom_site_fract_z
 _atom_site_occupancy
  Zr  Zr0  1  0.000000  0.666667  0.333333  1
  Zr  Zr1  1  0.000000  0.333333  0.666667  1
  Zr  Zr2  1  0.500000  0.333333  0.666667  1
  Zr  Zr3  1  0.500000  0.666667  0.333333  1
  Pa  Pa4  1  0.750000  0.761882  0.761882  1
  Pa  Pa5  1  0.250000  0.238118  0.238118  1
  Pa  Pa6  1  0.750000  0.000000  0.238118  1
  Pa  Pa7  1  0.250000  0.000000  0.761882  1
  Pa  Pa8  1  0.750000  0.238118  0.000000  1
  Pa  Pa9  1  0.250000  0.761882  0.000000  1
  Mn  Mn10  1  0.750000  0.365258  0.365258  1
  Mn  Mn11  1  0.250000  0.634742  0.634742  1
  Mn  Mn12  1  0.750000  0.000000  0.634742  1
  Mn  Mn13  1  0.250000  0.000000  0.365258  1
  Mn  Mn14  1  0.750000  0.634742  0.000000  1
  Mn  Mn15  1  0.250000  0.365258  0.000000  1
