# generated using pymatgen
data_Tb3Dy5Ti5Si16Mo7
_symmetry_space_group_name_H-M   'P 1'
_cell_length_a   6.94208306
_cell_length_b   6.95056993
_cell_length_c   12.85936712
_cell_angle_alpha   90.00796861
_cell_angle_beta   90.12982559
_cell_angle_gamma   89.93485935
_symmetry_Int_Tables_number   1
_chemical_formula_structural   Tb3Dy5Ti5Si16Mo7
_chemical_formula_sum   'Tb3 Dy5 Ti5 Si16 Mo7'
_cell_volume   620.48090105
_cell_formula_units_Z   1
loop_
 _symmetry_equiv_pos_site_id
 _symmetry_equiv_pos_as_xyz
  1  'x, y, z'
loop_
 _atom_site_type_symbol
 _atom_site_label
 _atom_site_symmetry_multiplicity
 _atom_site_fract_x
 _atom_site_fract_y
 _atom_site_fract_z
 _atom_site_occupancy
  Tb  Tb0  1  0.997580  0.659941  0.032915  1
  Tb  Tb1  1  0.003713  0.339673  0.530927  1
  Tb  Tb2  1  0.659617  0.997213  0.968690  1
  Dy  Dy3  1  0.160124  0.502655  0.781855  1
  Dy  Dy4  1  0.838965  0.496427  0.281238  1
  Dy  Dy5  1  0.502382  0.159555  0.218415  1
  Dy  Dy6  1  0.496832  0.840858  0.717070  1
  Dy  Dy7  1  0.340075  0.001988  0.468508  1
  Ti  Ti8  1  0.670876  0.669618  0.499999  1
  Ti  Ti9  1  0.832348  0.169796  0.749171  1
  Ti  Ti10  1  0.169943  0.829703  0.249496  1
  Ti  Ti11  1  0.328069  0.328036  0.000437  1
  Ti  Ti12  1  0.659082  0.493542  0.875607  1
  Si  Si13  1  0.041541  0.711539  0.436735  1
  Si  Si14  1  0.957716  0.288728  0.937477  1
  Si  Si15  1  0.711524  0.040810  0.562655  1
  Si  Si16  1  0.211013  0.458179  0.187663  1
  Si  Si17  1  0.789004  0.543437  0.687171  1
  Si  Si18  1  0.457275  0.211187  0.813136  1
  Si  Si19  1  0.540966  0.788763  0.312876  1
  Si  Si20  1  0.288334  0.958579  0.062808  1
  Si  Si21  1  0.798464  0.872207  0.184621  1
  Si  Si22  1  0.299650  0.627387  0.566175  1
  Si  Si23  1  0.699812  0.372853  0.065929  1
  Si  Si24  1  0.627933  0.298937  0.433848  1
  Si  Si25  1  0.371054  0.702080  0.934113  1
  Si  Si26  1  0.128919  0.199229  0.315952  1
  Si  Si27  1  0.200740  0.129541  0.684316  1
  Si  Si28  1  0.871638  0.800667  0.814715  1
  Mo  Mo29  1  0.340932  0.507089  0.376359  1
  Mo  Mo30  1  0.840787  0.992241  0.374351  1
  Mo  Mo31  1  0.008532  0.158278  0.127701  1
  Mo  Mo32  1  0.995208  0.841975  0.624533  1
  Mo  Mo33  1  0.509208  0.339577  0.623464  1
  Mo  Mo34  1  0.159551  0.007455  0.873478  1
  Mo  Mo35  1  0.490593  0.660259  0.125596  1
