# generated using pymatgen
data_Mn(Al6Cr)2
_symmetry_space_group_name_H-M   'P 1'
_cell_length_a   9.04436113
_cell_length_b   9.04836078
_cell_length_c   5.10264188
_cell_angle_alpha   87.02373040
_cell_angle_beta   86.98432879
_cell_angle_gamma   146.96312860
_symmetry_Int_Tables_number   1
_chemical_formula_structural   Mn(Al6Cr)2
_chemical_formula_sum   'Mn1 Al12 Cr2'
_cell_volume   223.77786063
_cell_formula_units_Z   1
loop_
 _symmetry_equiv_pos_site_id
 _symmetry_equiv_pos_as_xyz
  1  'x, y, z'
loop_
 _atom_site_type_symbol
 _atom_site_label
 _atom_site_symmetry_multiplicity
 _atom_site_fract_x
 _atom_site_fract_y
 _atom_site_fract_z
 _atom_site_occupancy
  Mn  Mn0  1  0.526625  0.801758  0.334961  1
  Al  Al1  1  0.860560  0.860248  0.501525  1
  Al  Al2  1  0.513707  0.512939  0.139929  1
  Al  Al3  1  0.267911  0.421334  0.680095  1
  Al  Al4  1  0.419444  0.266004  0.682281  1
  Al  Al5  1  0.058425  0.292258  0.216249  1
  Al  Al6  1  0.293789  0.059447  0.216723  1
  Al  Al7  1  0.937444  0.692879  0.817947  1
  Al  Al8  1  0.693998  0.939446  0.818692  1
  Al  Al9  1  0.079533  0.547759  0.582474  1
  Al  Al10  1  0.546816  0.078772  0.584196  1
  Al  Al11  1  0.230518  0.726532  0.073516  1
  Al  Al12  1  0.726052  0.229484  0.075175  1
  Cr  Cr13  1  0.018256  0.019684  0.987636  1
  Cr  Cr14  1  0.803922  0.528455  0.334602  1
