# generated using pymatgen
data_Ca9Tb(TaN5)2
_symmetry_space_group_name_H-M   'P 1'
_cell_length_a   6.95247286
_cell_length_b   6.92026782
_cell_length_c   8.91839493
_cell_angle_alpha   80.45553988
_cell_angle_beta   80.23621517
_cell_angle_gamma   59.81362598
_symmetry_Int_Tables_number   1
_chemical_formula_structural   Ca9Tb(TaN5)2
_chemical_formula_sum   'Ca9 Tb1 Ta2 N10'
_cell_volume   363.89356117
_cell_formula_units_Z   1
loop_
 _symmetry_equiv_pos_site_id
 _symmetry_equiv_pos_as_xyz
  1  'x, y, z'
loop_
 _atom_site_type_symbol
 _atom_site_label
 _atom_site_symmetry_multiplicity
 _atom_site_fract_x
 _atom_site_fract_y
 _atom_site_fract_z
 _atom_site_occupancy
  Ca  Ca0  1  0.869734  0.868585  0.828612  1
  Ca  Ca1  1  0.740644  0.742778  0.520346  1
  Ca  Ca2  1  0.755147  0.247729  0.503779  1
  Ca  Ca3  1  0.622384  0.142040  0.155394  1
  Ca  Ca4  1  0.363318  0.870344  0.837989  1
  Ca  Ca5  1  0.250081  0.757042  0.508363  1
  Ca  Ca6  1  0.245053  0.245857  0.488890  1
  Ca  Ca7  1  0.140075  0.142878  0.165165  1
  Ca  Ca8  1  0.135198  0.630446  0.153934  1
  Tb  Tb9  1  0.879590  0.347967  0.831031  1
  Ta  Ta10  1  0.630768  0.629455  0.220897  1
  Ta  Ta11  1  0.372894  0.365870  0.774572  1
  N  N12  1  0.913567  0.466928  0.320483  1
  N  N13  1  0.986816  0.016293  0.011466  1
  N  N14  1  0.685001  0.666395  0.997824  1
  N  N15  1  0.545158  0.529614  0.696902  1
  N  N16  1  0.465496  0.914666  0.321521  1
  N  N17  1  0.540262  0.083020  0.676550  1
  N  N18  1  0.461611  0.467795  0.303220  1
  N  N19  1  0.320124  0.319046  0.994353  1
  N  N20  1  0.054356  0.074717  0.653238  1
  N  N21  1  0.085012  0.532823  0.681276  1
