# generated using pymatgen
data_Tb2Er3Bi2Pt
_symmetry_space_group_name_H-M   'P 1'
_cell_length_a   8.05064000
_cell_length_b   9.02522800
_cell_length_c   12.42352800
_cell_angle_alpha   90.00000000
_cell_angle_beta   90.00000000
_cell_angle_gamma   90.00000000
_symmetry_Int_Tables_number   1
_chemical_formula_structural   Tb2Er3Bi2Pt
_chemical_formula_sum   'Tb8 Er12 Bi8 Pt4'
_cell_volume   902.67940086
_cell_formula_units_Z   4
loop_
 _symmetry_equiv_pos_site_id
 _symmetry_equiv_pos_as_xyz
  1  'x, y, z'
loop_
 _atom_site_type_symbol
 _atom_site_label
 _atom_site_symmetry_multiplicity
 _atom_site_fract_x
 _atom_site_fract_y
 _atom_site_fract_z
 _atom_site_occupancy
  Tb  Tb0  1  0.663715  0.750000  0.710935  1
  Tb  Tb1  1  0.336285  0.250000  0.289065  1
  Tb  Tb2  1  0.163715  0.250000  0.789065  1
  Tb  Tb3  1  0.836285  0.750000  0.210935  1
  Tb  Tb4  1  0.132746  0.750000  0.803127  1
  Tb  Tb5  1  0.867254  0.250000  0.196873  1
  Tb  Tb6  1  0.632746  0.250000  0.696873  1
  Tb  Tb7  1  0.367254  0.750000  0.303127  1
  Er  Er8  1  0.551765  0.750000  0.999620  1
  Er  Er9  1  0.448235  0.250000  0.000380  1
  Er  Er10  1  0.051765  0.250000  0.500380  1
  Er  Er11  1  0.948235  0.750000  0.499620  1
  Er  Er12  1  0.823460  0.453194  0.932884  1
  Er  Er13  1  0.176540  0.546806  0.067116  1
  Er  Er14  1  0.323460  0.546806  0.567116  1
  Er  Er15  1  0.176540  0.953194  0.067116  1
  Er  Er16  1  0.676540  0.453194  0.432884  1
  Er  Er17  1  0.823460  0.046806  0.932884  1
  Er  Er18  1  0.676540  0.046806  0.432884  1
  Er  Er19  1  0.323460  0.953194  0.567116  1
  Bi  Bi20  1  0.934730  0.007824  0.670859  1
  Bi  Bi21  1  0.065270  0.992176  0.329141  1
  Bi  Bi22  1  0.434730  0.992176  0.829141  1
  Bi  Bi23  1  0.065270  0.507824  0.329141  1
  Bi  Bi24  1  0.565270  0.007824  0.170859  1
  Bi  Bi25  1  0.934730  0.492176  0.670859  1
  Bi  Bi26  1  0.565270  0.492176  0.170859  1
  Bi  Bi27  1  0.434730  0.507824  0.829141  1
  Pt  Pt28  1  0.923343  0.750000  0.988107  1
  Pt  Pt29  1  0.076657  0.250000  0.011893  1
  Pt  Pt30  1  0.423343  0.250000  0.511893  1
  Pt  Pt31  1  0.576657  0.750000  0.488107  1
