# generated using pymatgen
data_Ti5(ReTc)12
_symmetry_space_group_name_H-M   'P 1'
_cell_length_a   8.34351980
_cell_length_b   8.34351942
_cell_length_c   8.34351900
_cell_angle_alpha   109.47121963
_cell_angle_beta   109.47121869
_cell_angle_gamma   109.47122351
_symmetry_Int_Tables_number   1
_chemical_formula_structural   Ti5(ReTc)12
_chemical_formula_sum   'Ti5 Re12 Tc12'
_cell_volume   447.12190882
_cell_formula_units_Z   1
loop_
 _symmetry_equiv_pos_site_id
 _symmetry_equiv_pos_as_xyz
  1  'x, y, z'
loop_
 _atom_site_type_symbol
 _atom_site_label
 _atom_site_symmetry_multiplicity
 _atom_site_fract_x
 _atom_site_fract_y
 _atom_site_fract_z
 _atom_site_occupancy
  Ti  Ti0  1  0.000000  0.000000  0.000000  1
  Ti  Ti1  1  0.629367  0.000000  0.000000  1
  Ti  Ti2  1  0.000000  0.629367  0.000000  1
  Ti  Ti3  1  0.000000  0.000000  0.629367  1
  Ti  Ti4  1  0.370633  0.370633  0.370633  1
  Re  Re5  1  0.374929  0.193133  0.000000  1
  Re  Re6  1  0.181797  0.806867  0.806867  1
  Re  Re7  1  0.374929  0.000000  0.193133  1
  Re  Re8  1  0.193133  0.374929  0.000000  1
  Re  Re9  1  0.000000  0.374929  0.193133  1
  Re  Re10  1  0.806867  0.181797  0.806867  1
  Re  Re11  1  0.806867  0.806867  0.181797  1
  Re  Re12  1  0.000000  0.193133  0.374929  1
  Re  Re13  1  0.193133  0.000000  0.374929  1
  Re  Re14  1  0.625071  0.625071  0.818203  1
  Re  Re15  1  0.818203  0.625071  0.625071  1
  Re  Re16  1  0.625071  0.818203  0.625071  1
  Tc  Tc17  1  0.400878  0.681460  0.000000  1
  Tc  Tc18  1  0.719417  0.318540  0.318540  1
  Tc  Tc19  1  0.400878  0.000000  0.681460  1
  Tc  Tc20  1  0.681460  0.400878  0.000000  1
  Tc  Tc21  1  0.000000  0.400878  0.681460  1
  Tc  Tc22  1  0.318540  0.719417  0.318540  1
  Tc  Tc23  1  0.318540  0.318540  0.719417  1
  Tc  Tc24  1  0.000000  0.681460  0.400878  1
  Tc  Tc25  1  0.681460  0.000000  0.400878  1
  Tc  Tc26  1  0.599122  0.599122  0.280583  1
  Tc  Tc27  1  0.280583  0.599122  0.599122  1
  Tc  Tc28  1  0.599122  0.280583  0.599122  1
