# generated using pymatgen
data_Tb5PrCd23Sn
_symmetry_space_group_name_H-M   'P 1'
_cell_length_a   10.08516690
_cell_length_b   10.02534919
_cell_length_c   10.02535053
_cell_angle_alpha   60.39514352
_cell_angle_beta   59.80243327
_cell_angle_gamma   59.80243146
_symmetry_Int_Tables_number   1
_chemical_formula_structural   Tb5PrCd23Sn
_chemical_formula_sum   'Tb5 Pr1 Cd23 Sn1'
_cell_volume   716.69782213
_cell_formula_units_Z   1
loop_
 _symmetry_equiv_pos_site_id
 _symmetry_equiv_pos_as_xyz
  1  'x, y, z'
loop_
 _atom_site_type_symbol
 _atom_site_label
 _atom_site_symmetry_multiplicity
 _atom_site_fract_x
 _atom_site_fract_y
 _atom_site_fract_z
 _atom_site_occupancy
  Tb  Tb0  1  0.780630  0.780368  0.219370  1
  Tb  Tb1  1  0.219632  0.780368  0.219370  1
  Tb  Tb2  1  0.777103  0.222897  0.222897  1
  Tb  Tb3  1  0.219632  0.219370  0.780368  1
  Tb  Tb4  1  0.780630  0.219370  0.780368  1
  Pr  Pr5  1  0.221768  0.778232  0.778232  1
  Cd  Cd6  1  0.843326  0.844777  0.468572  1
  Cd  Cd7  1  0.843326  0.468572  0.844777  1
  Cd  Cd8  1  0.474436  0.842692  0.842692  1
  Cd  Cd9  1  0.840181  0.842692  0.842692  1
  Cd  Cd10  1  0.157308  0.159819  0.525564  1
  Cd  Cd11  1  0.157308  0.525564  0.159819  1
  Cd  Cd12  1  0.531428  0.156674  0.156674  1
  Cd  Cd13  1  0.155223  0.156674  0.156674  1
  Cd  Cd14  1  0.624198  0.624042  0.127563  1
  Cd  Cd15  1  0.624198  0.127563  0.624042  1
  Cd  Cd16  1  0.124564  0.623091  0.623091  1
  Cd  Cd17  1  0.629256  0.623091  0.623091  1
  Cd  Cd18  1  0.376909  0.370744  0.875436  1
  Cd  Cd19  1  0.376909  0.875436  0.370744  1
  Cd  Cd20  1  0.872437  0.375802  0.375802  1
  Cd  Cd21  1  0.375958  0.375802  0.375802  1
  Cd  Cd22  1  0.999552  0.000448  0.499731  1
  Cd  Cd23  1  0.500269  0.000448  0.499731  1
  Cd  Cd24  1  0.999320  0.500680  0.500680  1
  Cd  Cd25  1  0.500269  0.499731  0.000448  1
  Cd  Cd26  1  0.999552  0.499731  0.000448  1
  Cd  Cd27  1  0.499320  0.000680  0.000680  1
  Cd  Cd28  1  0.499000  0.501000  0.501000  1
  Sn  Sn29  1  0.996357  0.003643  0.003643  1
