# generated using pymatgen
data_Er8Ti7Nb4Si16Pt
_symmetry_space_group_name_H-M   'P 1'
_cell_length_a   7.03909054
_cell_length_b   7.03393316
_cell_length_c   12.84681164
_cell_angle_alpha   90.27224564
_cell_angle_beta   89.70121760
_cell_angle_gamma   89.62706292
_symmetry_Int_Tables_number   1
_chemical_formula_structural   Er8Ti7Nb4Si16Pt
_chemical_formula_sum   'Er8 Ti7 Nb4 Si16 Pt1'
_cell_volume   636.04825635
_cell_formula_units_Z   1
loop_
 _symmetry_equiv_pos_site_id
 _symmetry_equiv_pos_as_xyz
  1  'x, y, z'
loop_
 _atom_site_type_symbol
 _atom_site_label
 _atom_site_symmetry_multiplicity
 _atom_site_fract_x
 _atom_site_fract_y
 _atom_site_fract_z
 _atom_site_occupancy
  Er  Er0  1  0.341825  0.000659  0.466735  1
  Er  Er1  1  0.497225  0.841794  0.718264  1
  Er  Er2  1  0.501110  0.157546  0.215303  1
  Er  Er3  1  0.842055  0.497811  0.281763  1
  Er  Er4  1  0.156554  0.500854  0.784303  1
  Er  Er5  1  0.654286  0.000398  0.968730  1
  Er  Er6  1  0.000165  0.341447  0.532304  1
  Er  Er7  1  0.998487  0.657808  0.031453  1
  Ti  Ti8  1  0.495809  0.654602  0.124474  1
  Ti  Ti9  1  0.507095  0.350013  0.627606  1
  Ti  Ti10  1  0.657623  0.492525  0.876085  1
  Ti  Ti11  1  0.350229  0.507937  0.372854  1
  Ti  Ti12  1  0.849504  0.991262  0.373702  1
  Ti  Ti13  1  0.006064  0.146460  0.124082  1
  Ti  Ti14  1  0.990694  0.849147  0.626609  1
  Nb  Nb15  1  0.174840  0.826133  0.248235  1
  Nb  Nb16  1  0.826031  0.174728  0.751709  1
  Nb  Nb17  1  0.673531  0.672507  0.499982  1
  Nb  Nb18  1  0.147568  0.003554  0.876223  1
  Si  Si19  1  0.204409  0.133822  0.682445  1
  Si  Si20  1  0.374272  0.705184  0.931386  1
  Si  Si21  1  0.630635  0.295192  0.433051  1
  Si  Si22  1  0.711398  0.371406  0.069590  1
  Si  Si23  1  0.295075  0.631241  0.566546  1
  Si  Si24  1  0.796535  0.867185  0.182622  1
  Si  Si25  1  0.133022  0.203553  0.316079  1
  Si  Si26  1  0.863787  0.794731  0.818315  1
  Si  Si27  1  0.289887  0.943155  0.063255  1
  Si  Si28  1  0.548229  0.793361  0.313682  1
  Si  Si29  1  0.447888  0.210819  0.815177  1
  Si  Si30  1  0.792838  0.547525  0.685931  1
  Si  Si31  1  0.209391  0.448983  0.184159  1
  Si  Si32  1  0.707116  0.047993  0.563716  1
  Si  Si33  1  0.947283  0.289903  0.938303  1
  Si  Si34  1  0.047704  0.707217  0.435980  1
  Pt  Pt35  1  0.329840  0.341549  0.999349  1
