# generated using pymatgen
data_Tb11NdCo6Hg
_symmetry_space_group_name_H-M   'P 1'
_cell_length_a   8.42948479
_cell_length_b   8.40708030
_cell_length_c   8.40707914
_cell_angle_alpha   109.52097120
_cell_angle_beta   109.46666285
_cell_angle_gamma   109.31854866
_symmetry_Int_Tables_number   1
_chemical_formula_structural   Tb11NdCo6Hg
_chemical_formula_sum   'Tb11 Nd1 Co6 Hg1'
_cell_volume   459.24359938
_cell_formula_units_Z   1
loop_
 _symmetry_equiv_pos_site_id
 _symmetry_equiv_pos_as_xyz
  1  'x, y, z'
loop_
 _atom_site_type_symbol
 _atom_site_label
 _atom_site_symmetry_multiplicity
 _atom_site_fract_x
 _atom_site_fract_y
 _atom_site_fract_z
 _atom_site_occupancy
  Tb  Tb0  1  0.806140  0.693896  0.501883  1
  Tb  Tb1  1  0.194914  0.304399  0.496376  1
  Tb  Tb2  1  0.194914  0.698538  0.890515  1
  Tb  Tb3  1  0.806140  0.304257  0.112244  1
  Tb  Tb4  1  0.694734  0.503251  0.806658  1
  Tb  Tb5  1  0.306261  0.499221  0.195146  1
  Tb  Tb6  1  0.694734  0.888077  0.191483  1
  Tb  Tb7  1  0.306261  0.111115  0.807040  1
  Tb  Tb8  1  0.501506  0.805474  0.696033  1
  Tb  Tb9  1  0.495764  0.192840  0.302925  1
  Tb  Tb10  1  0.110444  0.806848  0.303596  1
  Nd  Nd11  1  0.892363  0.193157  0.699206  1
  Co  Co12  1  0.887867  0.388213  0.499654  1
  Co  Co13  1  0.114283  0.613756  0.500527  1
  Co  Co14  1  0.389310  0.502499  0.886811  1
  Co  Co15  1  0.612406  0.499283  0.113123  1
  Co  Co16  1  0.495733  0.884714  0.383931  1
  Co  Co17  1  0.495733  0.111802  0.611019  1
  Hg  Hg18  1  0.000491  0.998662  0.001829  1
