# generated using pymatgen
data_Er3Hf(Ni4P3)2
_symmetry_space_group_name_H-M   'P 1'
_cell_length_a   3.77198400
_cell_length_b   10.71319200
_cell_length_c   12.34974200
_cell_angle_alpha   90.00000000
_cell_angle_beta   90.00000000
_cell_angle_gamma   90.00000000
_symmetry_Int_Tables_number   1
_chemical_formula_structural   Er3Hf(Ni4P3)2
_chemical_formula_sum   'Er6 Hf2 Ni16 P12'
_cell_volume   499.05293606
_cell_formula_units_Z   2
loop_
 _symmetry_equiv_pos_site_id
 _symmetry_equiv_pos_as_xyz
  1  'x, y, z'
loop_
 _atom_site_type_symbol
 _atom_site_label
 _atom_site_symmetry_multiplicity
 _atom_site_fract_x
 _atom_site_fract_y
 _atom_site_fract_z
 _atom_site_occupancy
  Er  Er0  1  0.000000  0.500000  0.528690  1
  Er  Er1  1  0.500000  0.000000  0.471310  1
  Er  Er2  1  0.500000  0.821632  0.205158  1
  Er  Er3  1  0.500000  0.178368  0.205158  1
  Er  Er4  1  0.000000  0.678368  0.794842  1
  Er  Er5  1  0.000000  0.321632  0.794842  1
  Hf  Hf6  1  0.500000  0.500000  0.155930  1
  Hf  Hf7  1  0.000000  0.000000  0.844070  1
  Ni  Ni8  1  0.500000  0.500000  0.702334  1
  Ni  Ni9  1  0.000000  0.000000  0.297666  1
  Ni  Ni10  1  0.000000  0.500000  0.984462  1
  Ni  Ni11  1  0.500000  0.000000  0.015538  1
  Ni  Ni12  1  0.500000  0.333974  0.989837  1
  Ni  Ni13  1  0.500000  0.666026  0.989837  1
  Ni  Ni14  1  0.000000  0.166026  0.010163  1
  Ni  Ni15  1  0.000000  0.833974  0.010163  1
  Ni  Ni16  1  0.500000  0.299318  0.431087  1
  Ni  Ni17  1  0.500000  0.700682  0.431087  1
  Ni  Ni18  1  0.000000  0.200682  0.568913  1
  Ni  Ni19  1  0.000000  0.799318  0.568913  1
  Ni  Ni20  1  0.500000  0.877343  0.704764  1
  Ni  Ni21  1  0.500000  0.122657  0.704764  1
  Ni  Ni22  1  0.000000  0.622657  0.295236  1
  Ni  Ni23  1  0.000000  0.377343  0.295236  1
  P  P24  1  0.500000  0.500000  0.879990  1
  P  P25  1  0.000000  0.000000  0.120010  1
  P  P26  1  0.500000  0.500000  0.361799  1
  P  P27  1  0.000000  0.000000  0.638201  1
  P  P28  1  0.500000  0.314637  0.615500  1
  P  P29  1  0.500000  0.685363  0.615500  1
  P  P30  1  0.000000  0.185363  0.384500  1
  P  P31  1  0.000000  0.814637  0.384500  1
  P  P32  1  0.500000  0.838490  0.892086  1
  P  P33  1  0.500000  0.161510  0.892086  1
  P  P34  1  0.000000  0.661510  0.107914  1
  P  P35  1  0.000000  0.338490  0.107914  1
