# generated using pymatgen
data_DyHo7Re(TcB8)3
_symmetry_space_group_name_H-M   'P 1'
_cell_length_a   3.67531600
_cell_length_b   9.15179825
_cell_length_c   11.53284700
_cell_angle_alpha   90.03014149
_cell_angle_beta   90.00000000
_cell_angle_gamma   90.00000000
_symmetry_Int_Tables_number   1
_chemical_formula_structural   DyHo7Re(TcB8)3
_chemical_formula_sum   'Dy1 Ho7 Re1 Tc3 B24'
_cell_volume   387.91591079
_cell_formula_units_Z   1
loop_
 _symmetry_equiv_pos_site_id
 _symmetry_equiv_pos_as_xyz
  1  'x, y, z'
loop_
 _atom_site_type_symbol
 _atom_site_label
 _atom_site_symmetry_multiplicity
 _atom_site_fract_x
 _atom_site_fract_y
 _atom_site_fract_z
 _atom_site_occupancy
  Dy  Dy0  1  0.000000  0.324070  0.414024  1
  Ho  Ho1  1  0.000000  0.676078  0.585963  1
  Ho  Ho2  1  0.000000  0.823973  0.086075  1
  Ho  Ho3  1  0.000000  0.176308  0.914145  1
  Ho  Ho4  1  0.000000  0.942767  0.369131  1
  Ho  Ho5  1  0.000000  0.057679  0.630046  1
  Ho  Ho6  1  0.000000  0.442867  0.130817  1
  Ho  Ho7  1  0.000000  0.556159  0.869614  1
  Re  Re8  1  0.000000  0.861257  0.820681  1
  Tc  Tc9  1  0.000000  0.639014  0.320557  1
  Tc  Tc10  1  0.000000  0.361143  0.679478  1
  Tc  Tc11  1  0.000000  0.138875  0.179408  1
  B  B12  1  0.500000  0.553646  0.432950  1
  B  B13  1  0.500000  0.446618  0.567188  1
  B  B14  1  0.500000  0.053502  0.067122  1
  B  B15  1  0.500000  0.946702  0.933174  1
  B  B16  1  0.500000  0.749137  0.418745  1
  B  B17  1  0.500000  0.251080  0.581432  1
  B  B18  1  0.500000  0.249055  0.081279  1
  B  B19  1  0.500000  0.750554  0.918864  1
  B  B20  1  0.500000  0.792153  0.265343  1
  B  B21  1  0.500000  0.207853  0.734563  1
  B  B22  1  0.500000  0.292069  0.234576  1
  B  B23  1  0.500000  0.707500  0.765404  1
  B  B24  1  0.500000  0.631056  0.185652  1
  B  B25  1  0.500000  0.368806  0.814331  1
  B  B26  1  0.500000  0.130973  0.314293  1
  B  B27  1  0.500000  0.869110  0.685449  1
  B  B28  1  0.500000  0.982445  0.211668  1
  B  B29  1  0.500000  0.017864  0.788116  1
  B  B30  1  0.500000  0.482625  0.288215  1
  B  B31  1  0.500000  0.517481  0.711807  1
  B  B32  1  0.500000  0.600201  0.028085  1
  B  B33  1  0.500000  0.399409  0.972085  1
  B  B34  1  0.500000  0.100169  0.471802  1
  B  B35  1  0.500000  0.899802  0.527919  1
