# generated using pymatgen
data_ErNp2Sc5(ReB6)4
_symmetry_space_group_name_H-M   'P 1'
_cell_length_a   3.57059900
_cell_length_b   8.97081805
_cell_length_c   11.31345728
_cell_angle_alpha   90.13301420
_cell_angle_beta   90.00000000
_cell_angle_gamma   90.00000000
_symmetry_Int_Tables_number   1
_chemical_formula_structural   ErNp2Sc5(ReB6)4
_chemical_formula_sum   'Er1 Np2 Sc5 Re4 B24'
_cell_volume   362.38256791
_cell_formula_units_Z   1
loop_
 _symmetry_equiv_pos_site_id
 _symmetry_equiv_pos_as_xyz
  1  'x, y, z'
loop_
 _atom_site_type_symbol
 _atom_site_label
 _atom_site_symmetry_multiplicity
 _atom_site_fract_x
 _atom_site_fract_y
 _atom_site_fract_z
 _atom_site_occupancy
  Er  Er0  1  0.000000  0.821425  0.085299  1
  Np  Np1  1  0.000000  0.319448  0.413590  1
  Np  Np2  1  0.000000  0.680463  0.586671  1
  Sc  Sc3  1  0.000000  0.178785  0.914689  1
  Sc  Sc4  1  0.000000  0.946011  0.372223  1
  Sc  Sc5  1  0.000000  0.054792  0.628288  1
  Sc  Sc6  1  0.000000  0.443423  0.126374  1
  Sc  Sc7  1  0.000000  0.555209  0.873042  1
  Re  Re8  1  0.000000  0.637910  0.321832  1
  Re  Re9  1  0.000000  0.361067  0.679395  1
  Re  Re10  1  0.000000  0.142328  0.181180  1
  Re  Re11  1  0.000000  0.859590  0.817682  1
  B  B12  1  0.500000  0.552969  0.433453  1
  B  B13  1  0.500000  0.446566  0.566964  1
  B  B14  1  0.500000  0.054581  0.064814  1
  B  B15  1  0.500000  0.947380  0.933753  1
  B  B16  1  0.500000  0.753575  0.419509  1
  B  B17  1  0.500000  0.246352  0.581002  1
  B  B18  1  0.500000  0.252699  0.077544  1
  B  B19  1  0.500000  0.747054  0.920208  1
  B  B20  1  0.500000  0.794715  0.264287  1
  B  B21  1  0.500000  0.204844  0.737147  1
  B  B22  1  0.500000  0.294999  0.233685  1
  B  B23  1  0.500000  0.705176  0.765762  1
  B  B24  1  0.500000  0.628958  0.182362  1
  B  B25  1  0.500000  0.369416  0.818679  1
  B  B26  1  0.500000  0.130463  0.316553  1
  B  B27  1  0.500000  0.870330  0.683448  1
  B  B28  1  0.500000  0.980893  0.212483  1
  B  B29  1  0.500000  0.020889  0.788177  1
  B  B30  1  0.500000  0.480129  0.285230  1
  B  B31  1  0.500000  0.519244  0.715183  1
  B  B32  1  0.500000  0.597421  0.026837  1
  B  B33  1  0.500000  0.400563  0.972475  1
  B  B34  1  0.500000  0.099980  0.472586  1
  B  B35  1  0.500000  0.900356  0.527593  1
