# generated using pymatgen
data_LiPr2Ge3Rh4
_symmetry_space_group_name_H-M   'P 1'
_cell_length_a   4.19517100
_cell_length_b   4.19517100
_cell_length_c   10.47901100
_cell_angle_alpha   90.00000000
_cell_angle_beta   90.00000000
_cell_angle_gamma   90.00000000
_symmetry_Int_Tables_number   1
_chemical_formula_structural   LiPr2Ge3Rh4
_chemical_formula_sum   'Li1 Pr2 Ge3 Rh4'
_cell_volume   184.42493199
_cell_formula_units_Z   1
loop_
 _symmetry_equiv_pos_site_id
 _symmetry_equiv_pos_as_xyz
  1  'x, y, z'
loop_
 _atom_site_type_symbol
 _atom_site_label
 _atom_site_symmetry_multiplicity
 _atom_site_fract_x
 _atom_site_fract_y
 _atom_site_fract_z
 _atom_site_occupancy
  Li  Li0  1  0.000000  0.000000  0.500000  1
  Pr  Pr1  1  0.000000  0.500000  0.251879  1
  Pr  Pr2  1  0.500000  0.000000  0.748121  1
  Ge  Ge3  1  0.500000  0.500000  0.500000  1
  Ge  Ge4  1  0.000000  0.500000  0.871199  1
  Ge  Ge5  1  0.500000  0.000000  0.128801  1
  Rh  Rh6  1  0.000000  0.000000  0.000000  1
  Rh  Rh7  1  0.500000  0.500000  0.000000  1
  Rh  Rh8  1  0.000000  0.500000  0.633374  1
  Rh  Rh9  1  0.500000  0.000000  0.366626  1
