# generated using pymatgen
data_Ta3MnNb3B4Ru9
_symmetry_space_group_name_H-M   'P 1'
_cell_length_a   9.40506758
_cell_length_b   9.40506665
_cell_length_c   3.02205000
_cell_angle_alpha   90.00000000
_cell_angle_beta   90.00000000
_cell_angle_gamma   90.42388441
_symmetry_Int_Tables_number   1
_chemical_formula_structural   Ta3MnNb3B4Ru9
_chemical_formula_sum   'Ta3 Mn1 Nb3 B4 Ru9'
_cell_volume   267.30898569
_cell_formula_units_Z   1
loop_
 _symmetry_equiv_pos_site_id
 _symmetry_equiv_pos_as_xyz
  1  'x, y, z'
loop_
 _atom_site_type_symbol
 _atom_site_label
 _atom_site_symmetry_multiplicity
 _atom_site_fract_x
 _atom_site_fract_y
 _atom_site_fract_z
 _atom_site_occupancy
  Ta  Ta0  1  0.667864  0.167864  0.000000  1
  Ta  Ta1  1  0.499956  0.500106  0.000000  1
  Ta  Ta2  1  0.000106  0.999956  0.000000  1
  Mn  Mn3  1  0.500316  0.000316  0.500000  1
  Nb  Nb4  1  0.822427  0.677576  0.000000  1
  Nb  Nb5  1  0.177576  0.322427  0.000000  1
  Nb  Nb6  1  0.332013  0.832013  0.000000  1
  B  B7  1  0.612358  0.887787  0.000000  1
  B  B8  1  0.387787  0.112358  0.000000  1
  B  B9  1  0.122139  0.622139  0.000000  1
  B  B10  1  0.877961  0.377961  0.000000  1
  Ru  Ru11  1  0.570211  0.721729  0.500000  1
  Ru  Ru12  1  0.430721  0.278294  0.500000  1
  Ru  Ru13  1  0.072383  0.782456  0.500000  1
  Ru  Ru14  1  0.926671  0.217166  0.500000  1
  Ru  Ru15  1  0.282456  0.572383  0.500000  1
  Ru  Ru16  1  0.717166  0.426671  0.500000  1
  Ru  Ru17  1  0.221729  0.070211  0.500000  1
  Ru  Ru18  1  0.778294  0.930721  0.500000  1
  Ru  Ru19  1  0.999865  0.499865  0.500000  1
