# generated using pymatgen
data_V10B5S
_symmetry_space_group_name_H-M   'P 1'
_cell_length_a   5.66431410
_cell_length_b   5.66431428
_cell_length_c   6.59561917
_cell_angle_alpha   115.42946644
_cell_angle_beta   115.42947066
_cell_angle_gamma   89.99999971
_symmetry_Int_Tables_number   1
_chemical_formula_structural   V10B5S
_chemical_formula_sum   'V10 B5 S1'
_cell_volume   168.12979568
_cell_formula_units_Z   1
loop_
 _symmetry_equiv_pos_site_id
 _symmetry_equiv_pos_as_xyz
  1  'x, y, z'
loop_
 _atom_site_type_symbol
 _atom_site_label
 _atom_site_symmetry_multiplicity
 _atom_site_fract_x
 _atom_site_fract_y
 _atom_site_fract_z
 _atom_site_occupancy
  V  V0  1  0.502334  0.502334  0.004668  1
  V  V1  1  0.997666  0.997666  0.995332  1
  V  V2  1  0.024353  0.532644  0.715368  1
  V  V3  1  0.691014  0.182724  0.715368  1
  V  V4  1  0.182724  0.024353  0.715368  1
  V  V5  1  0.532644  0.691014  0.715368  1
  V  V6  1  0.967356  0.475647  0.284632  1
  V  V7  1  0.317276  0.808986  0.284632  1
  V  V8  1  0.808986  0.967356  0.284632  1
  V  V9  1  0.475647  0.317276  0.284632  1
  B  B10  1  0.750000  0.750000  0.500000  1
  B  B11  1  0.614385  0.114385  0.000000  1
  B  B12  1  0.385615  0.885615  0.000000  1
  B  B13  1  0.885615  0.614385  0.000000  1
  B  B14  1  0.114385  0.385615  0.000000  1
  S  S15  1  0.250000  0.250000  0.500000  1
