# generated using pymatgen
data_Pr5Y11Cd4Ru3Pt
_symmetry_space_group_name_H-M   'P 1'
_cell_length_a   9.82471702
_cell_length_b   9.84619958
_cell_length_c   9.84619877
_cell_angle_alpha   59.46672959
_cell_angle_beta   59.46968547
_cell_angle_gamma   59.46968966
_symmetry_Int_Tables_number   1
_chemical_formula_structural   Pr5Y11Cd4Ru3Pt
_chemical_formula_sum   'Pr5 Y11 Cd4 Ru3 Pt1'
_cell_volume   665.36763171
_cell_formula_units_Z   1
loop_
 _symmetry_equiv_pos_site_id
 _symmetry_equiv_pos_as_xyz
  1  'x, y, z'
loop_
 _atom_site_type_symbol
 _atom_site_label
 _atom_site_symmetry_multiplicity
 _atom_site_fract_x
 _atom_site_fract_y
 _atom_site_fract_z
 _atom_site_occupancy
  Pr  Pr0  1  0.554777  0.942177  0.942177  1
  Pr  Pr1  1  0.558917  0.935891  0.564333  1
  Pr  Pr2  1  0.939902  0.557425  0.939271  1
  Pr  Pr3  1  0.558917  0.564333  0.935891  1
  Pr  Pr4  1  0.939902  0.939271  0.557425  1
  Y  Y5  1  0.347329  0.349504  0.349504  1
  Y  Y6  1  0.344202  0.352356  0.958771  1
  Y  Y7  1  0.344202  0.958771  0.352356  1
  Y  Y8  1  0.961719  0.346660  0.346660  1
  Y  Y9  1  0.816708  0.187142  0.187142  1
  Y  Y10  1  0.182797  0.813729  0.813729  1
  Y  Y11  1  0.186313  0.811635  0.188292  1
  Y  Y12  1  0.816521  0.188948  0.806180  1
  Y  Y13  1  0.186313  0.188292  0.811635  1
  Y  Y14  1  0.816521  0.806180  0.188948  1
  Y  Y15  1  0.942027  0.555956  0.555956  1
  Cd  Cd16  1  0.582565  0.577488  0.577488  1
  Cd  Cd17  1  0.578334  0.579374  0.261814  1
  Cd  Cd18  1  0.578334  0.261814  0.579374  1
  Cd  Cd19  1  0.259218  0.578456  0.578456  1
  Ru  Ru20  1  0.143044  0.139525  0.139525  1
  Ru  Ru21  1  0.141788  0.145593  0.577926  1
  Ru  Ru22  1  0.141788  0.577926  0.145593  1
  Pt  Pt23  1  0.577861  0.141554  0.141554  1
