# generated using pymatgen
data_Er4Mn3FeOs4
_symmetry_space_group_name_H-M   'P 1'
_cell_length_a   5.19859300
_cell_length_b   5.20969734
_cell_length_c   8.67952800
_cell_angle_alpha   90.00000000
_cell_angle_beta   90.00000000
_cell_angle_gamma   119.40898869
_symmetry_Int_Tables_number   1
_chemical_formula_structural   Er4Mn3FeOs4
_chemical_formula_sum   'Er4 Mn3 Fe1 Os4'
_cell_volume   204.77681000
_cell_formula_units_Z   1
loop_
 _symmetry_equiv_pos_site_id
 _symmetry_equiv_pos_as_xyz
  1  'x, y, z'
loop_
 _atom_site_type_symbol
 _atom_site_label
 _atom_site_symmetry_multiplicity
 _atom_site_fract_x
 _atom_site_fract_y
 _atom_site_fract_z
 _atom_site_occupancy
  Er  Er0  1  0.334540  0.669802  0.436537  1
  Er  Er1  1  0.669316  0.333154  0.938523  1
  Er  Er2  1  0.669316  0.333154  0.561477  1
  Er  Er3  1  0.334540  0.669802  0.063463  1
  Mn  Mn4  1  0.661282  0.821214  0.750000  1
  Mn  Mn5  1  0.821534  0.658425  0.250000  1
  Mn  Mn6  1  0.160917  0.822869  0.750000  1
  Fe  Fe7  1  0.825237  0.163914  0.250000  1
  Os  Os8  1  0.175099  0.348178  0.750000  1
  Os  Os9  1  0.339799  0.172344  0.250000  1
  Os  Os10  1  0.004209  0.003571  0.998961  1
  Os  Os11  1  0.004209  0.003571  0.501039  1
