# generated using pymatgen
data_Sr7Ca3(InSb3)4
_symmetry_space_group_name_H-M   'P 1'
_cell_length_a   4.72693400
_cell_length_b   12.58427660
_cell_length_c   14.68503397
_cell_angle_alpha   89.92673750
_cell_angle_beta   90.00000000
_cell_angle_gamma   90.00000000
_symmetry_Int_Tables_number   1
_chemical_formula_structural   Sr7Ca3(InSb3)4
_chemical_formula_sum   'Sr7 Ca3 In4 Sb12'
_cell_volume   873.53919125
_cell_formula_units_Z   1
loop_
 _symmetry_equiv_pos_site_id
 _symmetry_equiv_pos_as_xyz
  1  'x, y, z'
loop_
 _atom_site_type_symbol
 _atom_site_label
 _atom_site_symmetry_multiplicity
 _atom_site_fract_x
 _atom_site_fract_y
 _atom_site_fract_z
 _atom_site_occupancy
  Sr  Sr0  1  0.500000  0.173359  0.016603  1
  Sr  Sr1  1  0.500000  0.411465  0.248292  1
  Sr  Sr2  1  0.500000  0.826293  0.980326  1
  Sr  Sr3  1  0.500000  0.324567  0.520160  1
  Sr  Sr4  1  0.500000  0.588664  0.751705  1
  Sr  Sr5  1  0.500000  0.911919  0.251215  1
  Sr  Sr6  1  0.500000  0.675388  0.482115  1
  Ca  Ca7  1  0.500000  0.088902  0.748124  1
  Ca  Ca8  1  0.500000  0.000557  0.501566  1
  Ca  Ca9  1  0.500000  0.498881  0.999425  1
  In  In10  1  0.000000  0.328456  0.714922  1
  In  In11  1  0.000000  0.170848  0.214467  1
  In  In12  1  0.000000  0.671042  0.285271  1
  In  In13  1  0.000000  0.829617  0.785751  1
  Sb  Sb14  1  0.000000  0.646987  0.909168  1
  Sb  Sb15  1  0.500000  0.662518  0.171097  1
  Sb  Sb16  1  0.000000  0.029070  0.899116  1
  Sb  Sb17  1  0.000000  0.473196  0.404781  1
  Sb  Sb18  1  0.500000  0.333621  0.827077  1
  Sb  Sb19  1  0.500000  0.162143  0.328870  1
  Sb  Sb20  1  0.000000  0.352404  0.090861  1
  Sb  Sb21  1  0.000000  0.143163  0.598052  1
  Sb  Sb22  1  0.000000  0.975244  0.092570  1
  Sb  Sb23  1  0.500000  0.842198  0.673765  1
  Sb  Sb24  1  0.000000  0.526705  0.595610  1
  Sb  Sb25  1  0.000000  0.852791  0.409092  1
