# generated using pymatgen
data_VH5F9
_symmetry_space_group_name_H-M   'P 1'
_cell_length_a   5.47744450
_cell_length_b   5.67923369
_cell_length_c   8.10261662
_cell_angle_alpha   108.69268550
_cell_angle_beta   95.35990490
_cell_angle_gamma   120.02473923
_symmetry_Int_Tables_number   1
_chemical_formula_structural   VH5F9
_chemical_formula_sum   'V1 H5 F9'
_cell_volume   196.57358383
_cell_formula_units_Z   1
loop_
 _symmetry_equiv_pos_site_id
 _symmetry_equiv_pos_as_xyz
  1  'x, y, z'
loop_
 _atom_site_type_symbol
 _atom_site_label
 _atom_site_symmetry_multiplicity
 _atom_site_fract_x
 _atom_site_fract_y
 _atom_site_fract_z
 _atom_site_occupancy
  V  V0  1  0.655216  0.380104  0.036759  1
  H  H1  1  0.694752  0.790662  0.579799  1
  H  H2  1  0.836139  0.187422  0.741518  1
  H  H3  1  0.664278  0.881057  0.036905  1
  H  H4  1  0.055571  0.543586  0.389972  1
  H  H5  1  0.845188  0.544745  0.567373  1
  F  F6  1  0.004898  0.558683  0.223259  1
  F  F7  1  0.534931  0.987814  0.032635  1
  F  F8  1  0.794198  0.772517  0.039243  1
  F  F9  1  0.383251  0.192840  0.821921  1
  F  F10  1  0.925433  0.348328  0.877730  1
  F  F11  1  0.068961  0.531830  0.511432  1
  F  F12  1  0.678902  0.560070  0.602261  1
  F  F13  1  0.467069  0.430869  0.198186  1
  F  F14  1  0.724338  0.981561  0.575307  1
