# generated using pymatgen
data_Ce2YIn3CuRh2
_symmetry_space_group_name_H-M   'P 1'
_cell_length_a   7.53682100
_cell_length_b   7.68029671
_cell_length_c   3.90363600
_cell_angle_alpha   90.00000000
_cell_angle_beta   90.00000000
_cell_angle_gamma   119.38394173
_symmetry_Int_Tables_number   1
_chemical_formula_structural   Ce2YIn3CuRh2
_chemical_formula_sum   'Ce2 Y1 In3 Cu1 Rh2'
_cell_volume   196.89234347
_cell_formula_units_Z   1
loop_
 _symmetry_equiv_pos_site_id
 _symmetry_equiv_pos_as_xyz
  1  'x, y, z'
loop_
 _atom_site_type_symbol
 _atom_site_label
 _atom_site_symmetry_multiplicity
 _atom_site_fract_x
 _atom_site_fract_y
 _atom_site_fract_z
 _atom_site_occupancy
  Ce  Ce0  1  0.000278  0.581146  0.500000  1
  Ce  Ce1  1  0.419131  0.418854  0.500000  1
  Y  Y2  1  0.588471  0.000000  0.500000  1
  In  In3  1  0.992304  0.240901  0.000000  1
  In  In4  1  0.257445  0.000000  0.000000  1
  In  In5  1  0.751403  0.759099  0.000000  1
  Cu  Cu6  1  0.005448  0.000000  0.500000  1
  Rh  Rh7  1  0.316341  0.647165  0.000000  1
  Rh  Rh8  1  0.669176  0.352835  0.000000  1
