# generated using pymatgen
data_HoEr3Ga4RuPt3
_symmetry_space_group_name_H-M   'P 1'
_cell_length_a   4.41712300
_cell_length_b   6.80229986
_cell_length_c   7.69595032
_cell_angle_alpha   89.47311387
_cell_angle_beta   90.00000000
_cell_angle_gamma   90.00000000
_symmetry_Int_Tables_number   1
_chemical_formula_structural   HoEr3Ga4RuPt3
_chemical_formula_sum   'Ho1 Er3 Ga4 Ru1 Pt3'
_cell_volume   231.22732630
_cell_formula_units_Z   1
loop_
 _symmetry_equiv_pos_site_id
 _symmetry_equiv_pos_as_xyz
  1  'x, y, z'
loop_
 _atom_site_type_symbol
 _atom_site_label
 _atom_site_symmetry_multiplicity
 _atom_site_fract_x
 _atom_site_fract_y
 _atom_site_fract_z
 _atom_site_occupancy
  Ho  Ho0  1  0.250000  0.980319  0.307325  1
  Er  Er1  1  0.250000  0.478116  0.189037  1
  Er  Er2  1  0.750000  0.018390  0.698363  1
  Er  Er3  1  0.750000  0.514433  0.804550  1
  Ga  Ga4  1  0.250000  0.329976  0.574309  1
  Ga  Ga5  1  0.250000  0.840691  0.926782  1
  Ga  Ga6  1  0.750000  0.666389  0.428668  1
  Ga  Ga7  1  0.750000  0.171284  0.069850  1
  Ru  Ru8  1  0.250000  0.231315  0.898063  1
  Pt  Pt9  1  0.250000  0.724520  0.604355  1
  Pt  Pt10  1  0.750000  0.771290  0.102184  1
  Pt  Pt11  1  0.750000  0.273275  0.396516  1
