# generated using pymatgen
data_PrZn7Ag5
_symmetry_space_group_name_H-M   'P 1'
_cell_length_a   7.11110637
_cell_length_b   7.11110736
_cell_length_c   7.11110606
_cell_angle_alpha   97.53399212
_cell_angle_beta   97.57341111
_cell_angle_gamma   137.48404493
_symmetry_Int_Tables_number   1
_chemical_formula_structural   PrZn7Ag5
_chemical_formula_sum   'Pr1 Zn7 Ag5'
_cell_volume   226.47637105
_cell_formula_units_Z   1
loop_
 _symmetry_equiv_pos_site_id
 _symmetry_equiv_pos_as_xyz
  1  'x, y, z'
loop_
 _atom_site_type_symbol
 _atom_site_label
 _atom_site_symmetry_multiplicity
 _atom_site_fract_x
 _atom_site_fract_y
 _atom_site_fract_z
 _atom_site_occupancy
  Pr  Pr0  1  0.000281  0.000000  0.000281  1
  Zn  Zn1  1  0.998404  0.996976  0.496355  1
  Zn  Zn2  1  0.499379  0.003024  0.001428  1
  Zn  Zn3  1  0.998404  0.502048  0.001428  1
  Zn  Zn4  1  0.499379  0.497952  0.496355  1
  Zn  Zn5  1  0.717554  0.500000  0.217554  1
  Zn  Zn6  1  0.500992  0.719337  0.220328  1
  Zn  Zn7  1  0.500992  0.280663  0.781655  1
  Ag  Ag8  1  0.293043  0.500000  0.793043  1
  Ag  Ag9  1  0.646168  0.000000  0.646168  1
  Ag  Ag10  1  0.999521  0.651440  0.650961  1
  Ag  Ag11  1  0.999521  0.348560  0.348082  1
  Ag  Ag12  1  0.346359  0.000000  0.346359  1
