# generated using pymatgen
data_Pr7Nd3(BiPb)4
_symmetry_space_group_name_H-M   'P 1'
_cell_length_a   8.49098600
_cell_length_b   8.52241692
_cell_length_c   16.22014600
_cell_angle_alpha   90.02662960
_cell_angle_beta   90.00000000
_cell_angle_gamma   90.00000000
_symmetry_Int_Tables_number   1
_chemical_formula_structural   Pr7Nd3(BiPb)4
_chemical_formula_sum   'Pr14 Nd6 Bi8 Pb8'
_cell_volume   1173.75002146
_cell_formula_units_Z   2
loop_
 _symmetry_equiv_pos_site_id
 _symmetry_equiv_pos_as_xyz
  1  'x, y, z'
loop_
 _atom_site_type_symbol
 _atom_site_label
 _atom_site_symmetry_multiplicity
 _atom_site_fract_x
 _atom_site_fract_y
 _atom_site_fract_z
 _atom_site_occupancy
  Pr  Pr0  1  0.608486  0.164502  0.381635  1
  Pr  Pr1  1  0.108486  0.335498  0.118365  1
  Pr  Pr2  1  0.608386  0.164448  0.118666  1
  Pr  Pr3  1  0.108386  0.335552  0.381334  1
  Pr  Pr4  1  0.391779  0.835589  0.618596  1
  Pr  Pr5  1  0.891779  0.664411  0.881404  1
  Pr  Pr6  1  0.548245  0.325406  0.893393  1
  Pr  Pr7  1  0.048245  0.174594  0.606607  1
  Pr  Pr8  1  0.451846  0.674633  0.393367  1
  Pr  Pr9  1  0.951846  0.825367  0.106633  1
  Pr  Pr10  1  0.451891  0.675003  0.106446  1
  Pr  Pr11  1  0.951891  0.824997  0.393554  1
  Pr  Pr12  1  0.548064  0.325546  0.606765  1
  Pr  Pr13  1  0.048064  0.174454  0.893235  1
  Nd  Nd14  1  0.390973  0.835968  0.880793  1
  Nd  Nd15  1  0.890973  0.664032  0.619207  1
  Nd  Nd16  1  0.218386  0.496741  0.749905  1
  Nd  Nd17  1  0.718386  0.003259  0.750095  1
  Nd  Nd18  1  0.781894  0.503273  0.250146  1
  Nd  Nd19  1  0.281894  0.996727  0.249854  1
  Bi  Bi20  1  0.269350  0.019497  0.045004  1
  Bi  Bi21  1  0.769350  0.480503  0.454996  1
  Bi  Bi22  1  0.731733  0.978685  0.545751  1
  Bi  Bi23  1  0.231733  0.521315  0.954249  1
  Bi  Bi24  1  0.729834  0.979304  0.954338  1
  Bi  Bi25  1  0.229834  0.520696  0.545662  1
  Bi  Bi26  1  0.268930  0.020001  0.454386  1
  Bi  Bi27  1  0.768930  0.479999  0.045614  1
  Pb  Pb28  1  0.587488  0.625808  0.750257  1
  Pb  Pb29  1  0.087488  0.874192  0.749743  1
  Pb  Pb30  1  0.412442  0.374976  0.250023  1
  Pb  Pb31  1  0.912442  0.125024  0.249977  1
  Pb  Pb32  1  0.353207  0.139731  0.750197  1
  Pb  Pb33  1  0.853207  0.360269  0.749803  1
  Pb  Pb34  1  0.647066  0.859932  0.250009  1
  Pb  Pb35  1  0.147066  0.640068  0.249991  1
