# generated using pymatgen
data_TbCeTaB2Ru5
_symmetry_space_group_name_H-M   'P 1'
_cell_length_a   9.71552106
_cell_length_b   9.71552106
_cell_length_c   3.14344700
_cell_angle_alpha   90.00000000
_cell_angle_beta   90.00000000
_cell_angle_gamma   89.98746224
_symmetry_Int_Tables_number   1
_chemical_formula_structural   TbCeTaB2Ru5
_chemical_formula_sum   'Tb2 Ce2 Ta2 B4 Ru10'
_cell_volume   296.71419709
_cell_formula_units_Z   2
loop_
 _symmetry_equiv_pos_site_id
 _symmetry_equiv_pos_as_xyz
  1  'x, y, z'
loop_
 _atom_site_type_symbol
 _atom_site_label
 _atom_site_symmetry_multiplicity
 _atom_site_fract_x
 _atom_site_fract_y
 _atom_site_fract_z
 _atom_site_occupancy
  Tb  Tb0  1  0.825003  0.674997  0.000000  1
  Tb  Tb1  1  0.174997  0.325003  0.000000  1
  Ce  Ce2  1  0.324140  0.824140  0.000000  1
  Ce  Ce3  1  0.675860  0.175860  0.000000  1
  Ta  Ta4  1  0.500000  0.500000  0.000000  1
  Ta  Ta5  1  0.000000  0.000000  0.000000  1
  B  B6  1  0.622791  0.877209  0.000000  1
  B  B7  1  0.377209  0.122791  0.000000  1
  B  B8  1  0.118835  0.618835  0.000000  1
  B  B9  1  0.881165  0.381165  0.000000  1
  Ru  Ru10  1  0.568592  0.719069  0.500000  1
  Ru  Ru11  1  0.431408  0.280931  0.500000  1
  Ru  Ru12  1  0.072245  0.781736  0.500000  1
  Ru  Ru13  1  0.927755  0.218264  0.500000  1
  Ru  Ru14  1  0.281736  0.572245  0.500000  1
  Ru  Ru15  1  0.718264  0.427755  0.500000  1
  Ru  Ru16  1  0.219069  0.068592  0.500000  1
  Ru  Ru17  1  0.780931  0.931408  0.500000  1
  Ru  Ru18  1  0.500000  0.000000  0.500000  1
  Ru  Ru19  1  0.000000  0.500000  0.500000  1
