# generated using pymatgen
data_YbAgAsO4
_symmetry_space_group_name_H-M   'P 1'
_cell_length_a   5.56847806
_cell_length_b   5.56847811
_cell_length_c   7.10833400
_cell_angle_alpha   90.00000000
_cell_angle_beta   90.00000000
_cell_angle_gamma   116.26371318
_symmetry_Int_Tables_number   1
_chemical_formula_structural   YbAgAsO4
_chemical_formula_sum   'Yb2 Ag2 As2 O8'
_cell_volume   197.66073457
_cell_formula_units_Z   2
loop_
 _symmetry_equiv_pos_site_id
 _symmetry_equiv_pos_as_xyz
  1  'x, y, z'
loop_
 _atom_site_type_symbol
 _atom_site_label
 _atom_site_symmetry_multiplicity
 _atom_site_fract_x
 _atom_site_fract_y
 _atom_site_fract_z
 _atom_site_occupancy
  Yb  Yb0  1  0.000000  0.000000  0.500000  1
  Yb  Yb1  1  0.000000  0.000000  0.000000  1
  Ag  Ag2  1  0.311338  0.688662  0.750000  1
  Ag  Ag3  1  0.688662  0.311338  0.250000  1
  As  As4  1  0.652280  0.347720  0.750000  1
  As  As5  1  0.347720  0.652280  0.250000  1
  O  O6  1  0.761043  0.238957  0.557595  1
  O  O7  1  0.238957  0.761043  0.442405  1
  O  O8  1  0.238957  0.761043  0.057595  1
  O  O9  1  0.761043  0.238957  0.942405  1
  O  O10  1  0.779282  0.695820  0.750000  1
  O  O11  1  0.220718  0.304180  0.250000  1
  O  O12  1  0.304180  0.220718  0.750000  1
  O  O13  1  0.695819  0.779282  0.250000  1
