# generated using pymatgen
data_HoU2(SnRu)3
_symmetry_space_group_name_H-M   'P 1'
_cell_length_a   7.48780913
_cell_length_b   7.20379810
_cell_length_c   3.97182600
_cell_angle_alpha   90.00000000
_cell_angle_beta   90.00000000
_cell_angle_gamma   118.75302664
_symmetry_Int_Tables_number   1
_chemical_formula_structural   HoU2(SnRu)3
_chemical_formula_sum   'Ho1 U2 Sn3 Ru3'
_cell_volume   187.82707084
_cell_formula_units_Z   1
loop_
 _symmetry_equiv_pos_site_id
 _symmetry_equiv_pos_as_xyz
  1  'x, y, z'
loop_
 _atom_site_type_symbol
 _atom_site_label
 _atom_site_symmetry_multiplicity
 _atom_site_fract_x
 _atom_site_fract_y
 _atom_site_fract_z
 _atom_site_occupancy
  Ho  Ho0  1  0.000000  0.409433  0.500000  1
  U  U1  1  0.586648  0.585076  0.500000  1
  U  U2  1  0.413352  0.998429  0.500000  1
  Sn  Sn3  1  0.000000  0.732009  0.000000  1
  Sn  Sn4  1  0.240740  0.253747  0.000000  1
  Sn  Sn5  1  0.759260  0.013008  0.000000  1
  Ru  Ru6  1  0.365648  0.696041  0.000000  1
  Ru  Ru7  1  0.634352  0.330392  0.000000  1
  Ru  Ru8  1  0.000000  0.981866  0.500000  1
