# generated using pymatgen
data_Lu4VReOs6
_symmetry_space_group_name_H-M   'P 1'
_cell_length_a   5.27651132
_cell_length_b   5.34514806
_cell_length_c   8.83590500
_cell_angle_alpha   90.00000000
_cell_angle_beta   90.00000000
_cell_angle_gamma   121.85393146
_symmetry_Int_Tables_number   1
_chemical_formula_structural   Lu4VReOs6
_chemical_formula_sum   'Lu4 V1 Re1 Os6'
_cell_volume   211.67424425
_cell_formula_units_Z   1
loop_
 _symmetry_equiv_pos_site_id
 _symmetry_equiv_pos_as_xyz
  1  'x, y, z'
loop_
 _atom_site_type_symbol
 _atom_site_label
 _atom_site_symmetry_multiplicity
 _atom_site_fract_x
 _atom_site_fract_y
 _atom_site_fract_z
 _atom_site_occupancy
  Lu  Lu0  1  0.337218  0.667547  0.436314  1
  Lu  Lu1  1  0.664532  0.336557  0.564960  1
  Lu  Lu2  1  0.664532  0.336557  0.935040  1
  Lu  Lu3  1  0.337218  0.667547  0.063686  1
  V  V4  1  0.334912  0.164286  0.250000  1
  Re  Re5  1  0.169092  0.338928  0.750000  1
  Os  Os6  1  0.171035  0.822462  0.750000  1
  Os  Os7  1  0.820239  0.644149  0.250000  1
  Os  Os8  1  0.658078  0.825857  0.750000  1
  Os  Os9  1  0.008778  0.013008  0.003285  1
  Os  Os10  1  0.825587  0.170097  0.250000  1
  Os  Os11  1  0.008778  0.013008  0.496715  1
