# generated using pymatgen
data_Y13Th3(CdIr)4
_symmetry_space_group_name_H-M   'P 1'
_cell_length_a   9.74998392
_cell_length_b   9.75543566
_cell_length_c   9.75543600
_cell_angle_alpha   59.99999883
_cell_angle_beta   59.98150046
_cell_angle_gamma   59.98150462
_symmetry_Int_Tables_number   1
_chemical_formula_structural   Y13Th3(CdIr)4
_chemical_formula_sum   'Y13 Th3 Cd4 Ir4'
_cell_volume   655.93494718
_cell_formula_units_Z   1
loop_
 _symmetry_equiv_pos_site_id
 _symmetry_equiv_pos_as_xyz
  1  'x, y, z'
loop_
 _atom_site_type_symbol
 _atom_site_label
 _atom_site_symmetry_multiplicity
 _atom_site_fract_x
 _atom_site_fract_y
 _atom_site_fract_z
 _atom_site_occupancy
  Y  Y0  1  0.947799  0.350734  0.350734  1
  Y  Y1  1  0.811271  0.189782  0.189782  1
  Y  Y2  1  0.188780  0.811606  0.811606  1
  Y  Y3  1  0.188780  0.811606  0.188007  1
  Y  Y4  1  0.811271  0.189782  0.809165  1
  Y  Y5  1  0.188780  0.188007  0.811606  1
  Y  Y6  1  0.811271  0.809165  0.189782  1
  Y  Y7  1  0.936547  0.563528  0.563528  1
  Y  Y8  1  0.564025  0.935750  0.935750  1
  Y  Y9  1  0.564025  0.935750  0.564474  1
  Y  Y10  1  0.936547  0.563528  0.936396  1
  Y  Y11  1  0.564025  0.564474  0.935750  1
  Y  Y12  1  0.936547  0.936396  0.563528  1
  Th  Th13  1  0.347216  0.349626  0.349626  1
  Th  Th14  1  0.347216  0.349626  0.953532  1
  Th  Th15  1  0.347216  0.953532  0.349626  1
  Cd  Cd16  1  0.583680  0.581163  0.581163  1
  Cd  Cd17  1  0.583680  0.581163  0.253995  1
  Cd  Cd18  1  0.583680  0.253995  0.581163  1
  Cd  Cd19  1  0.252105  0.582632  0.582632  1
  Ir  Ir20  1  0.145243  0.141599  0.141599  1
  Ir  Ir21  1  0.145243  0.141599  0.571559  1
  Ir  Ir22  1  0.145243  0.571559  0.141599  1
  Ir  Ir23  1  0.569814  0.143395  0.143395  1
