# generated using pymatgen
data_DyTa(NiAs)2
_symmetry_space_group_name_H-M   'P 1'
_cell_length_a   3.97191600
_cell_length_b   3.97191586
_cell_length_c   14.53257000
_cell_angle_alpha   90.00000000
_cell_angle_beta   90.00000000
_cell_angle_gamma   120.00000114
_symmetry_Int_Tables_number   1
_chemical_formula_structural   DyTa(NiAs)2
_chemical_formula_sum   'Dy2 Ta2 Ni4 As4'
_cell_volume   198.55148785
_cell_formula_units_Z   2
loop_
 _symmetry_equiv_pos_site_id
 _symmetry_equiv_pos_as_xyz
  1  'x, y, z'
loop_
 _atom_site_type_symbol
 _atom_site_label
 _atom_site_symmetry_multiplicity
 _atom_site_fract_x
 _atom_site_fract_y
 _atom_site_fract_z
 _atom_site_occupancy
  Dy  Dy0  1  0.000000  0.000000  0.000000  1
  Dy  Dy1  1  0.000000  0.000000  0.500000  1
  Ta  Ta2  1  0.000000  0.000000  0.250000  1
  Ta  Ta3  1  0.000000  0.000000  0.750000  1
  Ni  Ni4  1  0.333333  0.666667  0.164231  1
  Ni  Ni5  1  0.666667  0.333333  0.835769  1
  Ni  Ni6  1  0.666667  0.333333  0.664231  1
  Ni  Ni7  1  0.333333  0.666667  0.335769  1
  As  As8  1  0.333333  0.666667  0.623519  1
  As  As9  1  0.666667  0.333333  0.376481  1
  As  As10  1  0.666667  0.333333  0.123519  1
  As  As11  1  0.333333  0.666667  0.876481  1
