# generated using pymatgen
data_Er6UO12
_symmetry_space_group_name_H-M   'P 1'
_cell_length_a   6.51743106
_cell_length_b   6.51743057
_cell_length_c   6.51743151
_cell_angle_alpha   99.07313265
_cell_angle_beta   99.07313553
_cell_angle_gamma   99.07312153
_symmetry_Int_Tables_number   1
_chemical_formula_structural   Er6UO12
_chemical_formula_sum   'Er6 U1 O12'
_cell_volume   265.18265632
_cell_formula_units_Z   1
loop_
 _symmetry_equiv_pos_site_id
 _symmetry_equiv_pos_as_xyz
  1  'x, y, z'
loop_
 _atom_site_type_symbol
 _atom_site_label
 _atom_site_symmetry_multiplicity
 _atom_site_fract_x
 _atom_site_fract_y
 _atom_site_fract_z
 _atom_site_occupancy
  Er  Er0  1  0.390047  0.676660  0.854296  1
  Er  Er1  1  0.854296  0.390047  0.676660  1
  Er  Er2  1  0.676660  0.854296  0.390047  1
  Er  Er3  1  0.609953  0.323340  0.145704  1
  Er  Er4  1  0.145704  0.609953  0.323340  1
  Er  Er5  1  0.323340  0.145704  0.609953  1
  U  U6  1  0.000000  0.000000  0.000000  1
  O  O7  1  0.177641  0.427096  0.587539  1
  O  O8  1  0.587539  0.177641  0.427096  1
  O  O9  1  0.427096  0.587539  0.177641  1
  O  O10  1  0.822359  0.572904  0.412461  1
  O  O11  1  0.412461  0.822359  0.572904  1
  O  O12  1  0.572904  0.412461  0.822359  1
  O  O13  1  0.918954  0.047747  0.689441  1
  O  O14  1  0.952253  0.310559  0.081046  1
  O  O15  1  0.310559  0.081046  0.952253  1
  O  O16  1  0.081046  0.952253  0.310559  1
  O  O17  1  0.047747  0.689441  0.918954  1
  O  O18  1  0.689441  0.918954  0.047747  1
