# generated using pymatgen
data_Y20Cd6FeNi
_symmetry_space_group_name_H-M   'P 1'
_cell_length_a   9.62728000
_cell_length_b   9.62728082
_cell_length_c   9.81406400
_cell_angle_alpha   90.00000000
_cell_angle_beta   90.00000000
_cell_angle_gamma   119.99999717
_symmetry_Int_Tables_number   1
_chemical_formula_structural   Y20Cd6FeNi
_chemical_formula_sum   'Y20 Cd6 Fe1 Ni1'
_cell_volume   787.74702749
_cell_formula_units_Z   1
loop_
 _symmetry_equiv_pos_site_id
 _symmetry_equiv_pos_as_xyz
  1  'x, y, z'
loop_
 _atom_site_type_symbol
 _atom_site_label
 _atom_site_symmetry_multiplicity
 _atom_site_fract_x
 _atom_site_fract_y
 _atom_site_fract_z
 _atom_site_occupancy
  Y  Y0  1  0.000000  0.000000  0.499785  1
  Y  Y1  1  0.000000  0.000000  0.000215  1
  Y  Y2  1  0.541873  0.458127  0.250000  1
  Y  Y3  1  0.541873  0.083746  0.250000  1
  Y  Y4  1  0.916254  0.458127  0.250000  1
  Y  Y5  1  0.456515  0.543485  0.750000  1
  Y  Y6  1  0.456515  0.913030  0.750000  1
  Y  Y7  1  0.086970  0.543485  0.750000  1
  Y  Y8  1  0.211899  0.788101  0.435806  1
  Y  Y9  1  0.211899  0.423800  0.435806  1
  Y  Y10  1  0.576200  0.788101  0.435806  1
  Y  Y11  1  0.789276  0.210724  0.562723  1
  Y  Y12  1  0.789276  0.578551  0.562723  1
  Y  Y13  1  0.421449  0.210724  0.562723  1
  Y  Y14  1  0.789276  0.210724  0.937277  1
  Y  Y15  1  0.789276  0.578551  0.937277  1
  Y  Y16  1  0.421449  0.210724  0.937277  1
  Y  Y17  1  0.211899  0.788101  0.064194  1
  Y  Y18  1  0.211899  0.423800  0.064194  1
  Y  Y19  1  0.576200  0.788101  0.064194  1
  Cd  Cd20  1  0.884636  0.115364  0.250000  1
  Cd  Cd21  1  0.884636  0.769272  0.250000  1
  Cd  Cd22  1  0.230728  0.115364  0.250000  1
  Cd  Cd23  1  0.115435  0.884565  0.750000  1
  Cd  Cd24  1  0.115435  0.230870  0.750000  1
  Cd  Cd25  1  0.769130  0.884565  0.750000  1
  Fe  Fe26  1  0.333333  0.666667  0.250000  1
  Ni  Ni27  1  0.666667  0.333333  0.750000  1
