# generated using pymatgen
data_PrSm(Si2Tc)2
_symmetry_space_group_name_H-M   'P 1'
_cell_length_a   3.96497200
_cell_length_b   4.59936998
_cell_length_c   8.43665200
_cell_angle_alpha   79.08469885
_cell_angle_beta   90.00000000
_cell_angle_gamma   90.00000000
_symmetry_Int_Tables_number   1
_chemical_formula_structural   PrSm(Si2Tc)2
_chemical_formula_sum   'Pr1 Sm1 Si4 Tc2'
_cell_volume   151.07043644
_cell_formula_units_Z   1
loop_
 _symmetry_equiv_pos_site_id
 _symmetry_equiv_pos_as_xyz
  1  'x, y, z'
loop_
 _atom_site_type_symbol
 _atom_site_label
 _atom_site_symmetry_multiplicity
 _atom_site_fract_x
 _atom_site_fract_y
 _atom_site_fract_z
 _atom_site_occupancy
  Pr  Pr0  1  0.250000  0.573463  0.804106  1
  Sm  Sm1  1  0.750000  0.427131  0.198777  1
  Si  Si2  1  0.250000  0.965502  0.092306  1
  Si  Si3  1  0.750000  0.036563  0.909761  1
  Si  Si4  1  0.250000  0.346874  0.479688  1
  Si  Si5  1  0.750000  0.651323  0.517276  1
  Tc  Tc6  1  0.250000  0.889512  0.385185  1
  Tc  Tc7  1  0.750000  0.109634  0.612900  1
