# generated using pymatgen
data_PrNd3ZrP12Ru19
_symmetry_space_group_name_H-M   'P 1'
_cell_length_a   12.60086502
_cell_length_b   12.60055630
_cell_length_c   4.00738900
_cell_angle_alpha   90.00000000
_cell_angle_beta   90.00000000
_cell_angle_gamma   120.00664630
_symmetry_Int_Tables_number   1
_chemical_formula_structural   PrNd3ZrP12Ru19
_chemical_formula_sum   'Pr1 Nd3 Zr1 P12 Ru19'
_cell_volume   551.00193294
_cell_formula_units_Z   1
loop_
 _symmetry_equiv_pos_site_id
 _symmetry_equiv_pos_as_xyz
  1  'x, y, z'
loop_
 _atom_site_type_symbol
 _atom_site_label
 _atom_site_symmetry_multiplicity
 _atom_site_fract_x
 _atom_site_fract_y
 _atom_site_fract_z
 _atom_site_occupancy
  Pr  Pr0  1  0.185029  0.184822  0.500000  1
  Nd  Nd1  1  0.815113  0.000142  0.500000  1
  Nd  Nd2  1  0.999749  0.814942  0.500000  1
  Nd  Nd3  1  0.666702  0.333351  0.000000  1
  Zr  Zr4  1  0.333352  0.666684  0.000000  1
  P  P5  1  0.186820  0.997270  0.000000  1
  P  P6  1  0.002033  0.189215  0.000000  1
  P  P7  1  0.810784  0.813167  0.000000  1
  P  P8  1  0.519471  0.696647  0.500000  1
  P  P9  1  0.303406  0.822790  0.500000  1
  P  P10  1  0.177185  0.480584  0.500000  1
  P  P11  1  0.476137  0.170730  0.500000  1
  P  P12  1  0.694636  0.523907  0.500000  1
  P  P13  1  0.829231  0.305405  0.500000  1
  P  P14  1  0.626556  0.001019  0.000000  1
  P  P15  1  0.998981  0.625522  0.000000  1
  P  P16  1  0.374774  0.373759  0.000000  1
  Ru  Ru17  1  0.445215  0.998487  0.000000  1
  Ru  Ru18  1  0.001531  0.446741  0.000000  1
  Ru  Ru19  1  0.553365  0.554895  0.000000  1
  Ru  Ru20  1  0.285127  0.996888  0.500000  1
  Ru  Ru21  1  0.002683  0.288045  0.500000  1
  Ru  Ru22  1  0.712051  0.714952  0.500000  1
  Ru  Ru23  1  0.616210  0.804400  0.000000  1
  Ru  Ru24  1  0.195587  0.811769  0.000000  1
  Ru  Ru25  1  0.188132  0.384162  0.000000  1
  Ru  Ru26  1  0.378341  0.182707  0.000000  1
  Ru  Ru27  1  0.804818  0.622066  0.000000  1
  Ru  Ru28  1  0.817226  0.195169  0.000000  1
  Ru  Ru29  1  0.501162  0.870155  0.500000  1
  Ru  Ru30  1  0.129848  0.630983  0.500000  1
  Ru  Ru31  1  0.369105  0.498957  0.500000  1
  Ru  Ru32  1  0.489819  0.367376  0.500000  1
  Ru  Ru33  1  0.877581  0.510365  0.500000  1
  Ru  Ru34  1  0.632746  0.122423  0.500000  1
  Ru  Ru35  1  0.999498  0.999506  0.000000  1
