# generated using pymatgen
data_CeNbN3
_symmetry_space_group_name_H-M   'P 1'
_cell_length_a   5.62812400
_cell_length_b   5.75021800
_cell_length_c   7.99540300
_cell_angle_alpha   90.00000000
_cell_angle_beta   90.00000000
_cell_angle_gamma   90.00000000
_symmetry_Int_Tables_number   1
_chemical_formula_structural   CeNbN3
_chemical_formula_sum   'Ce4 Nb4 N12'
_cell_volume   258.75474701
_cell_formula_units_Z   4
loop_
 _symmetry_equiv_pos_site_id
 _symmetry_equiv_pos_as_xyz
  1  'x, y, z'
loop_
 _atom_site_type_symbol
 _atom_site_label
 _atom_site_symmetry_multiplicity
 _atom_site_fract_x
 _atom_site_fract_y
 _atom_site_fract_z
 _atom_site_occupancy
  Ce  Ce0  1  0.506471  0.548691  0.250000  1
  Ce  Ce1  1  0.993529  0.048691  0.250000  1
  Ce  Ce2  1  0.493529  0.451309  0.750000  1
  Ce  Ce3  1  0.006471  0.951309  0.750000  1
  Nb  Nb4  1  0.000000  0.500000  0.000000  1
  Nb  Nb5  1  0.500000  0.000000  0.500000  1
  Nb  Nb6  1  0.000000  0.500000  0.500000  1
  Nb  Nb7  1  0.500000  0.000000  0.000000  1
  N  N8  1  0.395285  0.966237  0.250000  1
  N  N9  1  0.104715  0.466237  0.250000  1
  N  N10  1  0.604715  0.033763  0.750000  1
  N  N11  1  0.895285  0.533763  0.750000  1
  N  N12  1  0.805404  0.806760  0.054302  1
  N  N13  1  0.694596  0.306760  0.445698  1
  N  N14  1  0.194596  0.193240  0.554302  1
  N  N15  1  0.305404  0.693240  0.945698  1
  N  N16  1  0.194596  0.193240  0.945698  1
  N  N17  1  0.305404  0.693240  0.554302  1
  N  N18  1  0.805404  0.806760  0.445698  1
  N  N19  1  0.694596  0.306760  0.054302  1
