# generated using pymatgen
data_Ho2TmIn4CoPt
_symmetry_space_group_name_H-M   'P 1'
_cell_length_a   7.91365012
_cell_length_b   7.90058856
_cell_length_c   3.68731300
_cell_angle_alpha   90.00000000
_cell_angle_beta   90.00000000
_cell_angle_gamma   120.03481652
_symmetry_Int_Tables_number   1
_chemical_formula_structural   Ho2TmIn4CoPt
_chemical_formula_sum   'Ho2 Tm1 In4 Co1 Pt1'
_cell_volume   199.58341751
_cell_formula_units_Z   1
loop_
 _symmetry_equiv_pos_site_id
 _symmetry_equiv_pos_as_xyz
  1  'x, y, z'
loop_
 _atom_site_type_symbol
 _atom_site_label
 _atom_site_symmetry_multiplicity
 _atom_site_fract_x
 _atom_site_fract_y
 _atom_site_fract_z
 _atom_site_occupancy
  Ho  Ho0  1  0.300590  0.258386  0.500000  1
  Ho  Ho1  1  0.741418  0.042030  0.500000  1
  Tm  Tm2  1  0.958682  0.700513  0.500000  1
  In  In3  1  0.081260  0.421381  0.000000  1
  In  In4  1  0.579039  0.660271  0.000000  1
  In  In5  1  0.339042  0.918265  0.000000  1
  In  In6  1  0.667004  0.333841  0.000000  1
  Co  Co7  1  0.333229  0.666895  0.500000  1
  Pt  Pt8  1  0.999737  0.998415  0.000000  1
