# generated using pymatgen
data_HfZr5Ga6Pt5Rh
_symmetry_space_group_name_H-M   'P 1'
_cell_length_a   7.20917526
_cell_length_b   7.22739854
_cell_length_c   7.09314000
_cell_angle_alpha   90.00000000
_cell_angle_beta   90.00000000
_cell_angle_gamma   120.18109055
_symmetry_Int_Tables_number   1
_chemical_formula_structural   HfZr5Ga6Pt5Rh
_chemical_formula_sum   'Hf1 Zr5 Ga6 Pt5 Rh1'
_cell_volume   319.47829606
_cell_formula_units_Z   1
loop_
 _symmetry_equiv_pos_site_id
 _symmetry_equiv_pos_as_xyz
  1  'x, y, z'
loop_
 _atom_site_type_symbol
 _atom_site_label
 _atom_site_symmetry_multiplicity
 _atom_site_fract_x
 _atom_site_fract_y
 _atom_site_fract_z
 _atom_site_occupancy
  Hf  Hf0  1  0.022225  0.611450  0.750000  1
  Zr  Zr1  1  0.405361  0.383389  0.250000  1
  Zr  Zr2  1  0.589576  0.977602  0.750000  1
  Zr  Zr3  1  0.387919  0.410741  0.750000  1
  Zr  Zr4  1  0.977183  0.595011  0.250000  1
  Zr  Zr5  1  0.616476  0.021827  0.250000  1
  Ga  Ga6  1  0.266310  0.999632  0.002949  1
  Ga  Ga7  1  0.266310  0.999632  0.497051  1
  Ga  Ga8  1  0.000124  0.265841  0.497587  1
  Ga  Ga9  1  0.000124  0.265841  0.002413  1
  Ga  Ga10  1  0.733121  0.733928  0.003222  1
  Ga  Ga11  1  0.733121  0.733928  0.496778  1
  Pt  Pt12  1  0.669710  0.335977  0.533460  1
  Pt  Pt13  1  0.999854  0.996423  0.750000  1
  Pt  Pt14  1  0.669710  0.335977  0.966540  1
  Pt  Pt15  1  0.331440  0.666577  0.030942  1
  Pt  Pt16  1  0.331440  0.666577  0.469058  1
  Rh  Rh17  1  0.999996  0.999647  0.250000  1
