# generated using pymatgen
data_Ca5Si2SbH
_symmetry_space_group_name_H-M   'P 1'
_cell_length_a   9.15814676
_cell_length_b   9.15814638
_cell_length_c   9.15814704
_cell_angle_alpha   129.58853849
_cell_angle_beta   129.58854059
_cell_angle_gamma   74.06541072
_symmetry_Int_Tables_number   1
_chemical_formula_structural   Ca5Si2SbH
_chemical_formula_sum   'Ca10 Si4 Sb2 H2'
_cell_volume   444.83416172
_cell_formula_units_Z   2
loop_
 _symmetry_equiv_pos_site_id
 _symmetry_equiv_pos_as_xyz
  1  'x, y, z'
loop_
 _atom_site_type_symbol
 _atom_site_label
 _atom_site_symmetry_multiplicity
 _atom_site_fract_x
 _atom_site_fract_y
 _atom_site_fract_z
 _atom_site_occupancy
  Ca  Ca0  1  0.500000  0.500000  0.000000  1
  Ca  Ca1  1  0.000000  0.000000  0.000000  1
  Ca  Ca2  1  0.520421  0.020421  0.825095  1
  Ca  Ca3  1  0.195328  0.695328  0.174905  1
  Ca  Ca4  1  0.020421  0.195328  0.500000  1
  Ca  Ca5  1  0.695328  0.520421  0.500000  1
  Ca  Ca6  1  0.479579  0.979579  0.174905  1
  Ca  Ca7  1  0.804672  0.304672  0.825095  1
  Ca  Ca8  1  0.979579  0.804672  0.500000  1
  Ca  Ca9  1  0.304672  0.479579  0.500000  1
  Si  Si10  1  0.884362  0.384362  0.268724  1
  Si  Si11  1  0.115638  0.615638  0.731276  1
  Si  Si12  1  0.384362  0.115638  0.500000  1
  Si  Si13  1  0.615638  0.884362  0.500000  1
  Sb  Sb14  1  0.250000  0.250000  0.000000  1
  Sb  Sb15  1  0.750000  0.750000  0.000000  1
  H  H16  1  0.250000  0.750000  0.500000  1
  H  H17  1  0.750000  0.250000  0.500000  1
