# generated using pymatgen
data_NaLa(BeP)4
_symmetry_space_group_name_H-M   'P 1'
_cell_length_a   6.63816294
_cell_length_b   6.63816379
_cell_length_c   5.09382200
_cell_angle_alpha   90.00000000
_cell_angle_beta   90.00000000
_cell_angle_gamma   135.03192396
_symmetry_Int_Tables_number   1
_chemical_formula_structural   NaLa(BeP)4
_chemical_formula_sum   'Na1 La1 Be4 P4'
_cell_volume   158.62897769
_cell_formula_units_Z   1
loop_
 _symmetry_equiv_pos_site_id
 _symmetry_equiv_pos_as_xyz
  1  'x, y, z'
loop_
 _atom_site_type_symbol
 _atom_site_label
 _atom_site_symmetry_multiplicity
 _atom_site_fract_x
 _atom_site_fract_y
 _atom_site_fract_z
 _atom_site_occupancy
  Na  Na0  1  0.000000  0.000000  0.000000  1
  La  La1  1  0.500000  0.500000  0.500000  1
  Be  Be2  1  0.500000  0.000000  0.754693  1
  Be  Be3  1  0.000000  0.500000  0.245307  1
  Be  Be4  1  0.000000  0.500000  0.754693  1
  Be  Be5  1  0.500000  0.000000  0.245307  1
  P  P6  1  0.356201  0.643799  0.000000  1
  P  P7  1  0.854266  0.145734  0.500000  1
  P  P8  1  0.145734  0.854266  0.500000  1
  P  P9  1  0.643799  0.356201  0.000000  1
