# generated using pymatgen
data_Yb3Pr16ErGa12
_symmetry_space_group_name_H-M   'P 1'
_cell_length_a   7.88628500
_cell_length_b   7.88628500
_cell_length_c   14.69150800
_cell_angle_alpha   90.00000000
_cell_angle_beta   90.00000000
_cell_angle_gamma   90.00000000
_symmetry_Int_Tables_number   1
_chemical_formula_structural   Yb3Pr16ErGa12
_chemical_formula_sum   'Yb3 Pr16 Er1 Ga12'
_cell_volume   913.71617206
_cell_formula_units_Z   1
loop_
 _symmetry_equiv_pos_site_id
 _symmetry_equiv_pos_as_xyz
  1  'x, y, z'
loop_
 _atom_site_type_symbol
 _atom_site_label
 _atom_site_symmetry_multiplicity
 _atom_site_fract_x
 _atom_site_fract_y
 _atom_site_fract_z
 _atom_site_occupancy
  Yb  Yb0  1  0.000000  0.500000  0.241000  1
  Yb  Yb1  1  0.500000  0.000000  0.258886  1
  Yb  Yb2  1  0.500000  0.000000  0.759088  1
  Pr  Pr3  1  0.822763  0.829978  0.602433  1
  Pr  Pr4  1  0.177235  0.830295  0.102452  1
  Pr  Pr5  1  0.169880  0.823156  0.397601  1
  Pr  Pr6  1  0.830120  0.176844  0.397601  1
  Pr  Pr7  1  0.676844  0.669880  0.397601  1
  Pr  Pr8  1  0.670022  0.322763  0.602433  1
  Pr  Pr9  1  0.329978  0.677237  0.602433  1
  Pr  Pr10  1  0.669705  0.677235  0.102452  1
  Pr  Pr11  1  0.677979  0.330512  0.897472  1
  Pr  Pr12  1  0.830512  0.822021  0.897472  1
  Pr  Pr13  1  0.323156  0.330120  0.397601  1
  Pr  Pr14  1  0.177237  0.170022  0.602433  1
  Pr  Pr15  1  0.822765  0.169705  0.102452  1
  Pr  Pr16  1  0.322021  0.669488  0.897472  1
  Pr  Pr17  1  0.330295  0.322765  0.102452  1
  Pr  Pr18  1  0.169488  0.177979  0.897472  1
  Er  Er19  1  0.000000  0.500000  0.739461  1
  Ga  Ga20  1  0.616692  0.383421  0.249994  1
  Ga  Ga21  1  0.115287  0.878839  0.750128  1
  Ga  Ga22  1  0.378839  0.384713  0.750128  1
  Ga  Ga23  1  0.383308  0.616579  0.249994  1
  Ga  Ga24  1  0.883421  0.883308  0.249994  1
  Ga  Ga25  1  0.621161  0.615287  0.750128  1
  Ga  Ga26  1  0.000000  0.500000  0.506081  1
  Ga  Ga27  1  0.884713  0.121161  0.750128  1
  Ga  Ga28  1  0.500000  0.000000  0.495728  1
  Ga  Ga29  1  0.500000  0.000000  0.996061  1
  Ga  Ga30  1  0.116579  0.116692  0.249994  1
  Ga  Ga31  1  0.000000  0.500000  0.003373  1
