# generated using pymatgen
data_Tb6RhAu7
_symmetry_space_group_name_H-M   'P 1'
_cell_length_a   8.11228041
_cell_length_b   8.11228015
_cell_length_c   8.11227992
_cell_angle_alpha   114.32153374
_cell_angle_beta   114.32152123
_cell_angle_gamma   114.32154207
_symmetry_Int_Tables_number   1
_chemical_formula_structural   Tb6RhAu7
_chemical_formula_sum   'Tb6 Rh1 Au7'
_cell_volume   316.46725603
_cell_formula_units_Z   1
loop_
 _symmetry_equiv_pos_site_id
 _symmetry_equiv_pos_as_xyz
  1  'x, y, z'
loop_
 _atom_site_type_symbol
 _atom_site_label
 _atom_site_symmetry_multiplicity
 _atom_site_fract_x
 _atom_site_fract_y
 _atom_site_fract_z
 _atom_site_occupancy
  Tb  Tb0  1  0.736444  0.616285  0.987138  1
  Tb  Tb1  1  0.987138  0.736444  0.616285  1
  Tb  Tb2  1  0.616285  0.987138  0.736444  1
  Tb  Tb3  1  0.263556  0.383715  0.012862  1
  Tb  Tb4  1  0.012862  0.263556  0.383715  1
  Tb  Tb5  1  0.383715  0.012862  0.263556  1
  Rh  Rh6  1  0.000000  0.000000  0.000000  1
  Au  Au7  1  0.567654  0.235392  0.072523  1
  Au  Au8  1  0.072523  0.567654  0.235392  1
  Au  Au9  1  0.235392  0.072523  0.567654  1
  Au  Au10  1  0.432346  0.764608  0.927477  1
  Au  Au11  1  0.927477  0.432346  0.764608  1
  Au  Au12  1  0.764608  0.927477  0.432346  1
  Au  Au13  1  0.500000  0.500000  0.500000  1
