# generated using pymatgen
data_HoTm3Tc8
_symmetry_space_group_name_H-M   'P 1'
_cell_length_a   5.36248700
_cell_length_b   5.36248728
_cell_length_c   8.80096000
_cell_angle_alpha   90.00000000
_cell_angle_beta   90.00000000
_cell_angle_gamma   120.00000446
_symmetry_Int_Tables_number   1
_chemical_formula_structural   HoTm3Tc8
_chemical_formula_sum   'Ho1 Tm3 Tc8'
_cell_volume   219.17609573
_cell_formula_units_Z   1
loop_
 _symmetry_equiv_pos_site_id
 _symmetry_equiv_pos_as_xyz
  1  'x, y, z'
loop_
 _atom_site_type_symbol
 _atom_site_label
 _atom_site_symmetry_multiplicity
 _atom_site_fract_x
 _atom_site_fract_y
 _atom_site_fract_z
 _atom_site_occupancy
  Ho  Ho0  1  0.333333  0.666667  0.062005  1
  Tm  Tm1  1  0.333333  0.666667  0.438224  1
  Tm  Tm2  1  0.666667  0.333333  0.562105  1
  Tm  Tm3  1  0.666667  0.333333  0.937566  1
  Tc  Tc4  1  0.000000  0.000000  0.500148  1
  Tc  Tc5  1  0.000000  0.000000  0.000070  1
  Tc  Tc6  1  0.828930  0.171070  0.250510  1
  Tc  Tc7  1  0.828930  0.657861  0.250510  1
  Tc  Tc8  1  0.342139  0.171070  0.250510  1
  Tc  Tc9  1  0.171010  0.828990  0.749451  1
  Tc  Tc10  1  0.171010  0.342020  0.749451  1
  Tc  Tc11  1  0.657980  0.828990  0.749451  1
