# generated using pymatgen
data_Tb17(PrRh4)3
_symmetry_space_group_name_H-M   'P 1'
_cell_length_a   11.02230135
_cell_length_b   11.00963220
_cell_length_c   6.41879361
_cell_angle_alpha   89.96763733
_cell_angle_beta   90.03772625
_cell_angle_gamma   89.95738175
_symmetry_Int_Tables_number   1
_chemical_formula_structural   Tb17(PrRh4)3
_chemical_formula_sum   'Tb17 Pr3 Rh12'
_cell_volume   778.92962042
_cell_formula_units_Z   1
loop_
 _symmetry_equiv_pos_site_id
 _symmetry_equiv_pos_as_xyz
  1  'x, y, z'
loop_
 _atom_site_type_symbol
 _atom_site_label
 _atom_site_symmetry_multiplicity
 _atom_site_fract_x
 _atom_site_fract_y
 _atom_site_fract_z
 _atom_site_occupancy
  Tb  Tb0  1  0.293341  0.087044  0.383615  1
  Tb  Tb1  1  0.293253  0.912962  0.883885  1
  Tb  Tb2  1  0.706595  0.086857  0.883641  1
  Tb  Tb3  1  0.708472  0.910927  0.382220  1
  Tb  Tb4  1  0.588619  0.791311  0.883256  1
  Tb  Tb5  1  0.588047  0.208520  0.382083  1
  Tb  Tb6  1  0.412462  0.791632  0.382297  1
  Tb  Tb7  1  0.412380  0.208724  0.881787  1
  Tb  Tb8  1  0.210857  0.410252  0.618445  1
  Tb  Tb9  1  0.209460  0.590997  0.118946  1
  Tb  Tb10  1  0.789303  0.411914  0.118299  1
  Tb  Tb11  1  0.789767  0.591890  0.618605  1
  Tb  Tb12  1  0.907967  0.707680  0.118506  1
  Tb  Tb13  1  0.999913  0.999697  0.495795  1
  Tb  Tb14  1  0.998814  0.997687  0.996657  1
  Tb  Tb15  1  0.499854  0.500611  0.999254  1
  Tb  Tb16  1  0.500469  0.500378  0.498585  1
  Pr  Pr17  1  0.906965  0.289052  0.621796  1
  Pr  Pr18  1  0.091021  0.711491  0.621705  1
  Pr  Pr19  1  0.092504  0.288678  0.121700  1
  Rh  Rh20  1  0.841773  0.149716  0.245699  1
  Rh  Rh21  1  0.842732  0.848353  0.751810  1
  Rh  Rh22  1  0.158247  0.149602  0.745165  1
  Rh  Rh23  1  0.155232  0.848675  0.242945  1
  Rh  Rh24  1  0.649458  0.346853  0.752054  1
  Rh  Rh25  1  0.653509  0.653895  0.249875  1
  Rh  Rh26  1  0.350611  0.346750  0.251770  1
  Rh  Rh27  1  0.350753  0.652848  0.751146  1
  Rh  Rh28  1  0.500371  0.999628  0.124701  1
  Rh  Rh29  1  0.500009  0.999608  0.624329  1
  Rh  Rh30  1  0.998559  0.503151  0.877429  1
  Rh  Rh31  1  0.998682  0.502619  0.371999  1
