# generated using pymatgen
data_Sr2BeZn8Cu17
_symmetry_space_group_name_H-M   'P 1'
_cell_length_a   8.31030318
_cell_length_b   8.31030232
_cell_length_c   8.39721500
_cell_angle_alpha   120.10353166
_cell_angle_beta   120.10347245
_cell_angle_gamma   89.22015588
_symmetry_Int_Tables_number   1
_chemical_formula_structural   Sr2BeZn8Cu17
_chemical_formula_sum   'Sr2 Be1 Zn8 Cu17'
_cell_volume   411.51137583
_cell_formula_units_Z   1
loop_
 _symmetry_equiv_pos_site_id
 _symmetry_equiv_pos_as_xyz
  1  'x, y, z'
loop_
 _atom_site_type_symbol
 _atom_site_label
 _atom_site_symmetry_multiplicity
 _atom_site_fract_x
 _atom_site_fract_y
 _atom_site_fract_z
 _atom_site_occupancy
  Sr  Sr0  1  0.249997  0.250003  0.500000  1
  Sr  Sr1  1  0.750003  0.749997  0.500000  1
  Be  Be2  1  0.500000  0.000000  0.000000  1
  Zn  Zn3  1  0.800084  0.300084  0.239500  1
  Zn  Zn4  1  0.303832  0.441585  0.245411  1
  Zn  Zn5  1  0.941585  0.803832  0.245411  1
  Zn  Zn6  1  0.439401  0.939401  0.239498  1
  Zn  Zn7  1  0.560598  0.060599  0.760502  1
  Zn  Zn8  1  0.058415  0.196168  0.754589  1
  Zn  Zn9  1  0.696168  0.558414  0.754589  1
  Zn  Zn10  1  0.199916  0.699916  0.760500  1
  Cu  Cu11  1  0.213841  0.062570  0.000029  1
  Cu  Cu12  1  0.938591  0.201152  0.000061  1
  Cu  Cu13  1  0.437429  0.286157  0.999969  1
  Cu  Cu14  1  0.701152  0.438592  0.000061  1
  Cu  Cu15  1  0.000000  0.500000  0.000000  1
  Cu  Cu16  1  0.298847  0.561409  0.999939  1
  Cu  Cu17  1  0.562571  0.713840  0.000030  1
  Cu  Cu18  1  0.061408  0.798847  0.999939  1
  Cu  Cu19  1  0.786158  0.937429  0.999969  1
  Cu  Cu20  1  0.784909  0.064265  0.349181  1
  Cu  Cu21  1  0.564266  0.284910  0.349182  1
  Cu  Cu22  1  0.062147  0.562147  0.355153  1
  Cu  Cu23  1  0.293024  0.793024  0.355180  1
  Cu  Cu24  1  0.706975  0.206975  0.644820  1
  Cu  Cu25  1  0.937854  0.437854  0.644847  1
  Cu  Cu26  1  0.435735  0.715090  0.650818  1
  Cu  Cu27  1  0.215090  0.935734  0.650817  1
