# generated using pymatgen
data_CdNi(SO4)2
_symmetry_space_group_name_H-M   'P 1'
_cell_length_a   4.85784269
_cell_length_b   4.85784226
_cell_length_c   6.92554049
_cell_angle_alpha   89.42801200
_cell_angle_beta   90.57198695
_cell_angle_gamma   114.37827050
_symmetry_Int_Tables_number   1
_chemical_formula_structural   CdNi(SO4)2
_chemical_formula_sum   'Cd1 Ni1 S2 O8'
_cell_volume   148.85112175
_cell_formula_units_Z   1
loop_
 _symmetry_equiv_pos_site_id
 _symmetry_equiv_pos_as_xyz
  1  'x, y, z'
loop_
 _atom_site_type_symbol
 _atom_site_label
 _atom_site_symmetry_multiplicity
 _atom_site_fract_x
 _atom_site_fract_y
 _atom_site_fract_z
 _atom_site_occupancy
  Cd  Cd0  1  0.000000  0.000000  0.500000  1
  Ni  Ni1  1  0.000000  0.000000  0.000000  1
  S  S2  1  0.646729  0.353271  0.765282  1
  S  S3  1  0.353271  0.646729  0.234718  1
  O  O4  1  0.229442  0.304926  0.225942  1
  O  O5  1  0.770558  0.695074  0.774058  1
  O  O6  1  0.304926  0.229442  0.774058  1
  O  O7  1  0.695074  0.770558  0.225942  1
  O  O8  1  0.272378  0.727622  0.424001  1
  O  O9  1  0.758038  0.241962  0.932196  1
  O  O10  1  0.727622  0.272378  0.575999  1
  O  O11  1  0.241962  0.758038  0.067804  1
