# generated using pymatgen
data_Y3Ta3(B2Ru5)2
_symmetry_space_group_name_H-M   'P 1'
_cell_length_a   9.61643892
_cell_length_b   9.61643892
_cell_length_c   3.12230300
_cell_angle_alpha   90.00000000
_cell_angle_beta   90.00000000
_cell_angle_gamma   90.41120565
_symmetry_Int_Tables_number   1
_chemical_formula_structural   Y3Ta3(B2Ru5)2
_chemical_formula_sum   'Y3 Ta3 B4 Ru10'
_cell_volume   288.73033582
_cell_formula_units_Z   1
loop_
 _symmetry_equiv_pos_site_id
 _symmetry_equiv_pos_as_xyz
  1  'x, y, z'
loop_
 _atom_site_type_symbol
 _atom_site_label
 _atom_site_symmetry_multiplicity
 _atom_site_fract_x
 _atom_site_fract_y
 _atom_site_fract_z
 _atom_site_occupancy
  Y  Y0  1  0.823782  0.675228  0.000000  1
  Y  Y1  1  0.175228  0.323782  0.000000  1
  Y  Y2  1  0.325659  0.825659  0.000000  1
  Ta  Ta3  1  0.676127  0.176127  0.000000  1
  Ta  Ta4  1  0.498274  0.502245  0.000000  1
  Ta  Ta5  1  0.002245  0.998274  0.000000  1
  B  B6  1  0.622882  0.881201  0.000000  1
  B  B7  1  0.381201  0.122882  0.000000  1
  B  B8  1  0.119260  0.619260  0.000000  1
  B  B9  1  0.876276  0.376276  0.000000  1
  Ru  Ru10  1  0.571043  0.721886  0.500000  1
  Ru  Ru11  1  0.441824  0.280007  0.500000  1
  Ru  Ru12  1  0.069104  0.780694  0.500000  1
  Ru  Ru13  1  0.915324  0.213215  0.500000  1
  Ru  Ru14  1  0.280694  0.569104  0.500000  1
  Ru  Ru15  1  0.713215  0.415324  0.500000  1
  Ru  Ru16  1  0.221886  0.071043  0.500000  1
  Ru  Ru17  1  0.780007  0.941824  0.500000  1
  Ru  Ru18  1  0.510019  0.010019  0.500000  1
  Ru  Ru19  1  0.995949  0.495949  0.500000  1
