# generated using pymatgen
data_Ho3As4Pd6Pt
_symmetry_space_group_name_H-M   'P 1'
_cell_length_a   8.10427349
_cell_length_b   8.10427336
_cell_length_c   9.62509025
_cell_angle_alpha   55.56757228
_cell_angle_beta   55.56757396
_cell_angle_gamma   29.59508819
_symmetry_Int_Tables_number   1
_chemical_formula_structural   Ho3As4Pd6Pt
_chemical_formula_sum   'Ho3 As4 Pd6 Pt1'
_cell_volume   253.24887907
_cell_formula_units_Z   1
loop_
 _symmetry_equiv_pos_site_id
 _symmetry_equiv_pos_as_xyz
  1  'x, y, z'
loop_
 _atom_site_type_symbol
 _atom_site_label
 _atom_site_symmetry_multiplicity
 _atom_site_fract_x
 _atom_site_fract_y
 _atom_site_fract_z
 _atom_site_occupancy
  Ho  Ho0  1  0.676134  0.676134  0.330169  1
  Ho  Ho1  1  0.323866  0.323866  0.669831  1
  Ho  Ho2  1  0.000000  0.000000  0.000000  1
  As  As3  1  0.341270  0.341270  0.249679  1
  As  As4  1  0.658730  0.658730  0.750321  1
  As  As5  1  0.893717  0.893717  0.823896  1
  As  As6  1  0.106283  0.106283  0.176104  1
  Pd  Pd7  1  0.305257  0.305257  0.026059  1
  Pd  Pd8  1  0.694743  0.694743  0.973941  1
  Pd  Pd9  1  0.512766  0.512766  0.704803  1
  Pd  Pd10  1  0.832101  0.832101  0.428200  1
  Pd  Pd11  1  0.487234  0.487234  0.295197  1
  Pd  Pd12  1  0.167899  0.167899  0.571800  1
  Pt  Pt13  1  0.000000  0.000000  0.500000  1
