# generated using pymatgen
data_HoTm4(In2Rh)2
_symmetry_space_group_name_H-M   'P 1'
_cell_length_a   3.56406700
_cell_length_b   7.98685500
_cell_length_c   18.19590900
_cell_angle_alpha   90.00000000
_cell_angle_beta   90.00000000
_cell_angle_gamma   90.00000000
_symmetry_Int_Tables_number   1
_chemical_formula_structural   HoTm4(In2Rh)2
_chemical_formula_sum   'Ho2 Tm8 In8 Rh4'
_cell_volume   517.95903825
_cell_formula_units_Z   2
loop_
 _symmetry_equiv_pos_site_id
 _symmetry_equiv_pos_as_xyz
  1  'x, y, z'
loop_
 _atom_site_type_symbol
 _atom_site_label
 _atom_site_symmetry_multiplicity
 _atom_site_fract_x
 _atom_site_fract_y
 _atom_site_fract_z
 _atom_site_occupancy
  Ho  Ho0  1  0.000000  0.500000  0.500000  1
  Ho  Ho1  1  0.000000  0.000000  0.000000  1
  Tm  Tm2  1  0.000000  0.745546  0.278634  1
  Tm  Tm3  1  0.000000  0.254454  0.721366  1
  Tm  Tm4  1  0.000000  0.754454  0.778634  1
  Tm  Tm5  1  0.000000  0.245546  0.221366  1
  Tm  Tm6  1  0.000000  0.617876  0.087374  1
  Tm  Tm7  1  0.000000  0.382124  0.912626  1
  Tm  Tm8  1  0.000000  0.882124  0.587374  1
  Tm  Tm9  1  0.000000  0.117876  0.412626  1
  In  In10  1  0.500000  0.705803  0.931791  1
  In  In11  1  0.500000  0.294197  0.068209  1
  In  In12  1  0.500000  0.794197  0.431791  1
  In  In13  1  0.500000  0.205803  0.568209  1
  In  In14  1  0.500000  0.572418  0.650629  1
  In  In15  1  0.500000  0.427582  0.349371  1
  In  In16  1  0.500000  0.927582  0.150629  1
  In  In17  1  0.500000  0.072418  0.849371  1
  Rh  Rh18  1  0.500000  0.524973  0.195500  1
  Rh  Rh19  1  0.500000  0.475027  0.804500  1
  Rh  Rh20  1  0.500000  0.975027  0.695500  1
  Rh  Rh21  1  0.500000  0.024973  0.304500  1
