# generated using pymatgen
data_ErTm15(CdCo)4
_symmetry_space_group_name_H-M   'P 1'
_cell_length_a   9.35572822
_cell_length_b   9.35572746
_cell_length_c   9.35572760
_cell_angle_alpha   60.05223383
_cell_angle_beta   60.05223665
_cell_angle_gamma   60.05224428
_symmetry_Int_Tables_number   1
_chemical_formula_structural   ErTm15(CdCo)4
_chemical_formula_sum   'Er1 Tm15 Cd4 Co4'
_cell_volume   579.73780538
_cell_formula_units_Z   1
loop_
 _symmetry_equiv_pos_site_id
 _symmetry_equiv_pos_as_xyz
  1  'x, y, z'
loop_
 _atom_site_type_symbol
 _atom_site_label
 _atom_site_symmetry_multiplicity
 _atom_site_fract_x
 _atom_site_fract_y
 _atom_site_fract_z
 _atom_site_occupancy
  Er  Er0  1  0.346337  0.346337  0.346337  1
  Tm  Tm1  1  0.346381  0.346381  0.960588  1
  Tm  Tm2  1  0.346381  0.960588  0.346381  1
  Tm  Tm3  1  0.960588  0.346381  0.346381  1
  Tm  Tm4  1  0.812543  0.187617  0.187617  1
  Tm  Tm5  1  0.187774  0.812256  0.812256  1
  Tm  Tm6  1  0.187617  0.812543  0.187617  1
  Tm  Tm7  1  0.812256  0.187774  0.812256  1
  Tm  Tm8  1  0.187617  0.187617  0.812543  1
  Tm  Tm9  1  0.812256  0.812256  0.187774  1
  Tm  Tm10  1  0.938595  0.561576  0.561576  1
  Tm  Tm11  1  0.561407  0.938823  0.938823  1
  Tm  Tm12  1  0.561576  0.938595  0.561576  1
  Tm  Tm13  1  0.938823  0.561407  0.938823  1
  Tm  Tm14  1  0.561576  0.561576  0.938595  1
  Tm  Tm15  1  0.938823  0.938823  0.561407  1
  Cd  Cd16  1  0.580564  0.580564  0.580564  1
  Cd  Cd17  1  0.580649  0.580649  0.258320  1
  Cd  Cd18  1  0.580649  0.258320  0.580649  1
  Cd  Cd19  1  0.258320  0.580649  0.580649  1
  Co  Co20  1  0.141325  0.141325  0.141325  1
  Co  Co21  1  0.140841  0.140841  0.576259  1
  Co  Co22  1  0.140841  0.576259  0.140841  1
  Co  Co23  1  0.576259  0.140841  0.140841  1
