# generated using pymatgen
data_Cr2In(BiO4)3
_symmetry_space_group_name_H-M   'P 1'
_cell_length_a   10.24287708
_cell_length_b   10.24287675
_cell_length_c   5.41120612
_cell_angle_alpha   79.78643148
_cell_angle_beta   79.78642939
_cell_angle_gamma   71.11822365
_symmetry_Int_Tables_number   1
_chemical_formula_structural   Cr2In(BiO4)3
_chemical_formula_sum   'Cr4 In2 Bi6 O24'
_cell_volume   524.25924423
_cell_formula_units_Z   2
loop_
 _symmetry_equiv_pos_site_id
 _symmetry_equiv_pos_as_xyz
  1  'x, y, z'
loop_
 _atom_site_type_symbol
 _atom_site_label
 _atom_site_symmetry_multiplicity
 _atom_site_fract_x
 _atom_site_fract_y
 _atom_site_fract_z
 _atom_site_occupancy
  Cr  Cr0  1  0.538713  0.799398  0.556150  1
  Cr  Cr1  1  0.461287  0.200602  0.443850  1
  Cr  Cr2  1  0.200602  0.461287  0.943850  1
  Cr  Cr3  1  0.799398  0.538713  0.056150  1
  In  In4  1  0.087338  0.912662  0.750000  1
  In  In5  1  0.912662  0.087338  0.250000  1
  Bi  Bi6  1  0.721076  0.954404  0.935619  1
  Bi  Bi7  1  0.278924  0.045596  0.064381  1
  Bi  Bi8  1  0.045596  0.278924  0.564381  1
  Bi  Bi9  1  0.954404  0.721076  0.435619  1
  Bi  Bi10  1  0.669716  0.330284  0.750000  1
  Bi  Bi11  1  0.330284  0.669716  0.250000  1
  O  O12  1  0.549613  0.643756  0.702268  1
  O  O13  1  0.450387  0.356244  0.297732  1
  O  O14  1  0.356244  0.450387  0.797732  1
  O  O15  1  0.643756  0.549613  0.202268  1
  O  O16  1  0.887683  0.933871  0.593578  1
  O  O17  1  0.112317  0.066129  0.406422  1
  O  O18  1  0.066129  0.112317  0.906422  1
  O  O19  1  0.933871  0.887683  0.093578  1
  O  O20  1  0.593145  0.159052  0.632041  1
  O  O21  1  0.406855  0.840948  0.367959  1
  O  O22  1  0.840948  0.406855  0.867959  1
  O  O23  1  0.159052  0.593145  0.132041  1
  O  O24  1  0.310671  0.194691  0.622655  1
  O  O25  1  0.689329  0.805309  0.377345  1
  O  O26  1  0.805309  0.689329  0.877345  1
  O  O27  1  0.194691  0.310671  0.122655  1
  O  O28  1  0.748583  0.150853  0.017797  1
  O  O29  1  0.251417  0.849147  0.982203  1
  O  O30  1  0.849147  0.251417  0.482203  1
  O  O31  1  0.150853  0.748583  0.517797  1
  O  O32  1  0.505198  0.908535  0.768955  1
  O  O33  1  0.494802  0.091465  0.231045  1
  O  O34  1  0.091465  0.494802  0.731045  1
  O  O35  1  0.908535  0.505198  0.268955  1
