# generated using pymatgen
data_YTm2Hf(Al8Pt3)3
_symmetry_space_group_name_H-M   'P 1'
_cell_length_a   7.51498006
_cell_length_b   7.52201995
_cell_length_c   13.08543501
_cell_angle_alpha   84.55133027
_cell_angle_beta   79.02525773
_cell_angle_gamma   59.90362041
_symmetry_Int_Tables_number   1
_chemical_formula_structural   YTm2Hf(Al8Pt3)3
_chemical_formula_sum   'Y1 Tm2 Hf1 Al24 Pt9'
_cell_volume   628.26400452
_cell_formula_units_Z   1
loop_
 _symmetry_equiv_pos_site_id
 _symmetry_equiv_pos_as_xyz
  1  'x, y, z'
loop_
 _atom_site_type_symbol
 _atom_site_label
 _atom_site_symmetry_multiplicity
 _atom_site_fract_x
 _atom_site_fract_y
 _atom_site_fract_z
 _atom_site_occupancy
  Y  Y0  1  0.606579  0.831932  0.191270  1
  Tm  Tm1  1  0.734079  0.498734  0.807131  1
  Tm  Tm2  1  0.266578  0.501069  0.192431  1
  Hf  Hf3  1  0.393680  0.168435  0.807802  1
  Al  Al4  1  0.681548  0.836512  0.940616  1
  Al  Al5  1  0.316282  0.167137  0.053672  1
  Al  Al6  1  0.146400  0.832696  0.562741  1
  Al  Al7  1  0.852926  0.167212  0.438391  1
  Al  Al8  1  0.479919  0.166737  0.560654  1
  Al  Al9  1  0.519296  0.833848  0.441600  1
  Al  Al10  1  0.216981  0.165829  0.329619  1
  Al  Al11  1  0.779451  0.836406  0.674389  1
  Al  Al12  1  0.435677  0.504664  0.674868  1
  Al  Al13  1  0.562528  0.493396  0.328708  1
  Al  Al14  1  0.110336  0.159688  0.673710  1
  Al  Al15  1  0.890735  0.839745  0.329945  1
  Al  Al16  1  0.354922  0.495910  0.941031  1
  Al  Al17  1  0.647370  0.499772  0.055140  1
  Al  Al18  1  0.019303  0.168758  0.948698  1
  Al  Al19  1  0.985352  0.832319  0.046613  1
  Al  Al20  1  0.186739  0.499196  0.441483  1
  Al  Al21  1  0.813708  0.500298  0.559185  1
  Al  Al22  1  0.733432  0.164862  0.183409  1
  Al  Al23  1  0.266658  0.841034  0.816672  1
  Al  Al24  1  0.065767  0.626173  0.815367  1
  Al  Al25  1  0.940214  0.368058  0.184231  1
  Al  Al26  1  0.850024  0.042362  0.815875  1
  Al  Al27  1  0.144430  0.957917  0.183665  1
  Pt  Pt28  1  0.119971  0.489562  0.640248  1
  Pt  Pt29  1  0.879684  0.508775  0.361152  1
  Pt  Pt30  1  0.657225  0.172106  0.998703  1
  Pt  Pt31  1  0.343979  0.827528  0.999242  1
  Pt  Pt32  1  0.536825  0.167155  0.361461  1
  Pt  Pt33  1  0.463789  0.832969  0.640032  1
  Pt  Pt34  1  0.776897  0.176892  0.638532  1
  Pt  Pt35  1  0.220909  0.824157  0.362964  1
  Pt  Pt36  1  0.999808  0.500155  0.998745  1
