# generated using pymatgen
data_La12Ir(PtI4)3
_symmetry_space_group_name_H-M   'P 1'
_cell_length_a   11.09395633
_cell_length_b   11.01985916
_cell_length_c   11.01986097
_cell_angle_alpha   109.33461142
_cell_angle_beta   109.60748084
_cell_angle_gamma   109.60748223
_symmetry_Int_Tables_number   1
_chemical_formula_structural   La12Ir(PtI4)3
_chemical_formula_sum   'La12 Ir1 Pt3 I12'
_cell_volume   1035.34158110
_cell_formula_units_Z   1
loop_
 _symmetry_equiv_pos_site_id
 _symmetry_equiv_pos_as_xyz
  1  'x, y, z'
loop_
 _atom_site_type_symbol
 _atom_site_label
 _atom_site_symmetry_multiplicity
 _atom_site_fract_x
 _atom_site_fract_y
 _atom_site_fract_z
 _atom_site_occupancy
  La  La0  1  0.459456  0.482584  0.227538  1
  La  La1  1  0.750000  0.230573  0.269427  1
  La  La2  1  0.750000  0.019994  0.480006  1
  La  La3  1  0.230006  0.460012  0.480006  1
  La  La4  1  0.268083  0.744954  0.227538  1
  La  La5  1  0.040544  0.272462  0.017416  1
  La  La6  1  0.019427  0.038852  0.269427  1
  La  La7  1  0.476871  0.744954  0.017416  1
  La  La8  1  0.480573  0.230573  0.461148  1
  La  La9  1  0.023129  0.482584  0.755046  1
  La  La10  1  0.269994  0.019994  0.039988  1
  La  La11  1  0.231917  0.272462  0.755046  1
  Ir  Ir12  1  0.250000  0.500000  0.000000  1
  Pt  Pt13  1  0.250000  0.249955  0.250045  1
  Pt  Pt14  1  0.500045  0.000091  0.250045  1
  Pt  Pt15  1  0.999955  0.249955  0.499909  1
  I  I16  1  0.250000  0.759720  0.740280  1
  I  I17  1  0.519196  0.509262  0.759074  1
  I  I18  1  0.980804  0.740926  0.990738  1
  I  I19  1  0.739877  0.249814  0.759074  1
  I  I20  1  0.990280  0.980561  0.740280  1
  I  I21  1  0.250000  0.990666  0.509334  1
  I  I22  1  0.759334  0.518666  0.509334  1
  I  I23  1  0.509936  0.249814  0.990738  1
  I  I24  1  0.760123  0.740926  0.250186  1
  I  I25  1  0.740666  0.990666  0.981334  1
  I  I26  1  0.990064  0.509262  0.250186  1
  I  I27  1  0.509720  0.759720  0.519439  1
