# generated using pymatgen
data_Dy3Tm3Th2(MgRu)2
_symmetry_space_group_name_H-M   'P 1'
_cell_length_a   9.70727547
_cell_length_b   9.70727540
_cell_length_c   9.70727500
_cell_angle_alpha   59.99999795
_cell_angle_beta   59.99999818
_cell_angle_gamma   59.99999856
_symmetry_Int_Tables_number   1
_chemical_formula_structural   Dy3Tm3Th2(MgRu)2
_chemical_formula_sum   'Dy6 Tm6 Th4 Mg4 Ru4'
_cell_volume   646.81044202
_cell_formula_units_Z   2
loop_
 _symmetry_equiv_pos_site_id
 _symmetry_equiv_pos_as_xyz
  1  'x, y, z'
loop_
 _atom_site_type_symbol
 _atom_site_label
 _atom_site_symmetry_multiplicity
 _atom_site_fract_x
 _atom_site_fract_y
 _atom_site_fract_z
 _atom_site_occupancy
  Dy  Dy0  1  0.935655  0.564345  0.564345  1
  Dy  Dy1  1  0.564345  0.935655  0.935655  1
  Dy  Dy2  1  0.564345  0.935655  0.564345  1
  Dy  Dy3  1  0.935655  0.564345  0.935655  1
  Dy  Dy4  1  0.564345  0.564345  0.935655  1
  Dy  Dy5  1  0.935655  0.935655  0.564345  1
  Tm  Tm6  1  0.814365  0.185635  0.185635  1
  Tm  Tm7  1  0.185635  0.814365  0.814365  1
  Tm  Tm8  1  0.185635  0.814365  0.185635  1
  Tm  Tm9  1  0.814365  0.185635  0.814365  1
  Tm  Tm10  1  0.185635  0.185635  0.814365  1
  Tm  Tm11  1  0.814365  0.814365  0.185635  1
  Th  Th12  1  0.346392  0.346392  0.346392  1
  Th  Th13  1  0.346392  0.346392  0.960824  1
  Th  Th14  1  0.346392  0.960824  0.346392  1
  Th  Th15  1  0.960824  0.346392  0.346392  1
  Mg  Mg16  1  0.579934  0.579934  0.579934  1
  Mg  Mg17  1  0.579934  0.579934  0.260199  1
  Mg  Mg18  1  0.579934  0.260199  0.579934  1
  Mg  Mg19  1  0.260199  0.579934  0.579934  1
  Ru  Ru20  1  0.143083  0.143083  0.143083  1
  Ru  Ru21  1  0.143083  0.143083  0.570752  1
  Ru  Ru22  1  0.143083  0.570752  0.143083  1
  Ru  Ru23  1  0.570752  0.143083  0.143083  1
