# generated using pymatgen
data_ErScB6Ru
_symmetry_space_group_name_H-M   'P 1'
_cell_length_a   3.55081200
_cell_length_b   8.94813800
_cell_length_c   11.32179500
_cell_angle_alpha   90.00000000
_cell_angle_beta   90.00000000
_cell_angle_gamma   90.00000000
_symmetry_Int_Tables_number   1
_chemical_formula_structural   ErScB6Ru
_chemical_formula_sum   'Er4 Sc4 B24 Ru4'
_cell_volume   359.72915634
_cell_formula_units_Z   4
loop_
 _symmetry_equiv_pos_site_id
 _symmetry_equiv_pos_as_xyz
  1  'x, y, z'
loop_
 _atom_site_type_symbol
 _atom_site_label
 _atom_site_symmetry_multiplicity
 _atom_site_fract_x
 _atom_site_fract_y
 _atom_site_fract_z
 _atom_site_occupancy
  Er  Er0  1  0.500000  0.320580  0.414019  1
  Er  Er1  1  0.500000  0.679420  0.585981  1
  Er  Er2  1  0.500000  0.179420  0.914019  1
  Er  Er3  1  0.500000  0.820580  0.085981  1
  Sc  Sc4  1  0.500000  0.445399  0.126000  1
  Sc  Sc5  1  0.500000  0.554601  0.874000  1
  Sc  Sc6  1  0.500000  0.054601  0.626000  1
  Sc  Sc7  1  0.500000  0.945399  0.374000  1
  B  B8  1  0.000000  0.100834  0.472905  1
  B  B9  1  0.000000  0.899166  0.527095  1
  B  B10  1  0.000000  0.399166  0.972905  1
  B  B11  1  0.000000  0.600834  0.027095  1
  B  B12  1  0.000000  0.129743  0.317660  1
  B  B13  1  0.000000  0.870257  0.682340  1
  B  B14  1  0.000000  0.370257  0.817660  1
  B  B15  1  0.000000  0.629743  0.182340  1
  B  B16  1  0.000000  0.055068  0.066989  1
  B  B17  1  0.000000  0.944932  0.933011  1
  B  B18  1  0.000000  0.444932  0.566989  1
  B  B19  1  0.000000  0.555068  0.433011  1
  B  B20  1  0.000000  0.482269  0.285459  1
  B  B21  1  0.000000  0.517731  0.714541  1
  B  B22  1  0.000000  0.017731  0.785459  1
  B  B23  1  0.000000  0.982269  0.214541  1
  B  B24  1  0.000000  0.252932  0.080788  1
  B  B25  1  0.000000  0.747068  0.919212  1
  B  B26  1  0.000000  0.247068  0.580788  1
  B  B27  1  0.000000  0.752932  0.419212  1
  B  B28  1  0.000000  0.294034  0.234949  1
  B  B29  1  0.000000  0.705966  0.765051  1
  B  B30  1  0.000000  0.205966  0.734949  1
  B  B31  1  0.000000  0.794034  0.265051  1
  Ru  Ru32  1  0.500000  0.140389  0.181318  1
  Ru  Ru33  1  0.500000  0.859611  0.818682  1
  Ru  Ru34  1  0.500000  0.359611  0.681318  1
  Ru  Ru35  1  0.500000  0.640389  0.318682  1
