# generated using pymatgen
data_Dy7Tm(LuSb)12
_symmetry_space_group_name_H-M   'P 1'
_cell_length_a   8.07009539
_cell_length_b   9.13469700
_cell_length_c   11.74544056
_cell_angle_alpha   90.00000000
_cell_angle_beta   90.03539491
_cell_angle_gamma   90.00000000
_symmetry_Int_Tables_number   1
_chemical_formula_structural   Dy7Tm(LuSb)12
_chemical_formula_sum   'Dy7 Tm1 Lu12 Sb12'
_cell_volume   865.84876678
_cell_formula_units_Z   1
loop_
 _symmetry_equiv_pos_site_id
 _symmetry_equiv_pos_as_xyz
  1  'x, y, z'
loop_
 _atom_site_type_symbol
 _atom_site_label
 _atom_site_symmetry_multiplicity
 _atom_site_fract_x
 _atom_site_fract_y
 _atom_site_fract_z
 _atom_site_occupancy
  Dy  Dy0  1  0.175643  0.750000  0.228696  1
  Dy  Dy1  1  0.675951  0.250000  0.271017  1
  Dy  Dy2  1  0.824149  0.250000  0.770979  1
  Dy  Dy3  1  0.323887  0.750000  0.728977  1
  Dy  Dy4  1  0.658794  0.750000  0.290999  1
  Dy  Dy5  1  0.158820  0.250000  0.209131  1
  Dy  Dy6  1  0.341260  0.250000  0.709041  1
  Tm  Tm7  1  0.840648  0.750000  0.790738  1
  Lu  Lu8  1  0.809469  0.938951  0.065676  1
  Lu  Lu9  1  0.309611  0.061029  0.434116  1
  Lu  Lu10  1  0.190580  0.438933  0.934154  1
  Lu  Lu11  1  0.690593  0.561225  0.566367  1
  Lu  Lu12  1  0.190580  0.061067  0.934154  1
  Lu  Lu13  1  0.690593  0.938775  0.566367  1
  Lu  Lu14  1  0.809469  0.561049  0.065676  1
  Lu  Lu15  1  0.309611  0.438971  0.434116  1
  Lu  Lu16  1  0.524971  0.250000  0.995423  1
  Lu  Lu17  1  0.024658  0.750000  0.504953  1
  Lu  Lu18  1  0.475166  0.750000  0.004294  1
  Lu  Lu19  1  0.975109  0.250000  0.495655  1
  Sb  Sb20  1  0.937322  0.991178  0.327093  1
  Sb  Sb21  1  0.437263  0.008653  0.172829  1
  Sb  Sb22  1  0.062369  0.491715  0.673360  1
  Sb  Sb23  1  0.563771  0.509392  0.827065  1
  Sb  Sb24  1  0.062369  0.008285  0.673360  1
  Sb  Sb25  1  0.563771  0.990608  0.827065  1
  Sb  Sb26  1  0.937322  0.508822  0.327093  1
  Sb  Sb27  1  0.437263  0.491347  0.172829  1
  Sb  Sb28  1  0.901951  0.250000  0.024670  1
  Sb  Sb29  1  0.401936  0.750000  0.475357  1
  Sb  Sb30  1  0.096954  0.750000  0.974064  1
  Sb  Sb31  1  0.598144  0.250000  0.524690  1
