# generated using pymatgen
data_Ce3Y(Si5Os3)2
_symmetry_space_group_name_H-M   'P 1'
_cell_length_a   8.17383940
_cell_length_b   8.17706609
_cell_length_c   5.83848297
_cell_angle_alpha   70.58171625
_cell_angle_beta   70.47904040
_cell_angle_gamma   93.67691902
_symmetry_Int_Tables_number   1
_chemical_formula_structural   Ce3Y(Si5Os3)2
_chemical_formula_sum   'Ce3 Y1 Si10 Os6'
_cell_volume   340.07385498
_cell_formula_units_Z   1
loop_
 _symmetry_equiv_pos_site_id
 _symmetry_equiv_pos_as_xyz
  1  'x, y, z'
loop_
 _atom_site_type_symbol
 _atom_site_label
 _atom_site_symmetry_multiplicity
 _atom_site_fract_x
 _atom_site_fract_y
 _atom_site_fract_z
 _atom_site_occupancy
  Ce  Ce0  1  0.867785  0.600831  0.757760  1
  Ce  Ce1  1  0.399213  0.133091  0.742049  1
  Ce  Ce2  1  0.132485  0.399126  0.241681  1
  Y  Y3  1  0.601108  0.866974  0.257535  1
  Si  Si4  1  0.062036  0.262492  0.834779  1
  Si  Si5  1  0.738266  0.936820  0.664081  1
  Si  Si6  1  0.935348  0.739309  0.165114  1
  Si  Si7  1  0.261057  0.061357  0.335898  1
  Si  Si8  1  0.205971  0.791850  0.754638  1
  Si  Si9  1  0.791723  0.205408  0.248262  1
  Si  Si10  1  0.513574  0.487671  0.751030  1
  Si  Si11  1  0.488254  0.515563  0.246974  1
  Si  Si12  1  0.774042  0.224911  0.753056  1
  Si  Si13  1  0.227310  0.772894  0.248515  1
  Os  Os14  1  0.256326  0.543973  0.633754  1
  Os  Os15  1  0.458257  0.744925  0.865695  1
  Os  Os16  1  0.745066  0.456043  0.367271  1
  Os  Os17  1  0.540766  0.255279  0.134919  1
  Os  Os18  1  0.003173  0.997870  0.748828  1
  Os  Os19  1  0.998238  0.003615  0.248162  1
