# generated using pymatgen
data_CaNd3(Ga5Pt3)2
_symmetry_space_group_name_H-M   'P 1'
_cell_length_a   8.66532894
_cell_length_b   8.66432341
_cell_length_c   8.66432400
_cell_angle_alpha   139.59956959
_cell_angle_beta   106.94528222
_cell_angle_gamma   86.96078480
_symmetry_Int_Tables_number   1
_chemical_formula_structural   CaNd3(Ga5Pt3)2
_chemical_formula_sum   'Ca1 Nd3 Ga10 Pt6'
_cell_volume   388.04673842
_cell_formula_units_Z   1
loop_
 _symmetry_equiv_pos_site_id
 _symmetry_equiv_pos_as_xyz
  1  'x, y, z'
loop_
 _atom_site_type_symbol
 _atom_site_label
 _atom_site_symmetry_multiplicity
 _atom_site_fract_x
 _atom_site_fract_y
 _atom_site_fract_z
 _atom_site_occupancy
  Ca  Ca0  1  0.636960  0.367415  0.269546  1
  Nd  Nd1  1  0.364081  0.635570  0.728511  1
  Nd  Nd2  1  0.093894  0.865517  0.228376  1
  Nd  Nd3  1  0.904477  0.132230  0.772249  1
  Ga  Ga4  1  0.282607  0.532922  0.249591  1
  Ga  Ga5  1  0.717894  0.470213  0.751093  1
  Ga  Ga6  1  0.717894  0.966802  0.247681  1
  Ga  Ga7  1  0.282607  0.033016  0.749685  1
  Ga  Ga8  1  0.441204  0.100814  0.340390  1
  Ga  Ga9  1  0.557215  0.898254  0.658959  1
  Ga  Ga10  1  0.760853  0.602055  0.158800  1
  Ga  Ga11  1  0.241012  0.399567  0.841445  1
  Ga  Ga12  1  0.999444  0.249980  0.253283  1
  Ga  Ga13  1  0.999444  0.746160  0.749463  1
  Pt  Pt14  1  0.247010  0.142234  0.104777  1
  Pt  Pt15  1  0.753380  0.859734  0.893645  1
  Pt  Pt16  1  0.036135  0.640869  0.395266  1
  Pt  Pt17  1  0.963788  0.355782  0.608007  1
  Pt  Pt18  1  0.500051  0.250405  0.749587  1
  Pt  Pt19  1  0.500051  0.750464  0.249646  1
