# generated using pymatgen
data_Tb3Ce2TmRu2
_symmetry_space_group_name_H-M   'P 1'
_cell_length_a   6.35434939
_cell_length_b   7.10832998
_cell_length_c   9.55747816
_cell_angle_alpha   90.09236075
_cell_angle_beta   90.28807616
_cell_angle_gamma   89.79756367
_symmetry_Int_Tables_number   1
_chemical_formula_structural   Tb3Ce2TmRu2
_chemical_formula_sum   'Tb6 Ce4 Tm2 Ru4'
_cell_volume   431.69123704
_cell_formula_units_Z   2
loop_
 _symmetry_equiv_pos_site_id
 _symmetry_equiv_pos_as_xyz
  1  'x, y, z'
loop_
 _atom_site_type_symbol
 _atom_site_label
 _atom_site_symmetry_multiplicity
 _atom_site_fract_x
 _atom_site_fract_y
 _atom_site_fract_z
 _atom_site_occupancy
  Tb  Tb0  1  0.167929  0.175947  0.065366  1
  Tb  Tb1  1  0.832071  0.824053  0.934634  1
  Tb  Tb2  1  0.667483  0.324702  0.933721  1
  Tb  Tb3  1  0.831699  0.824296  0.563996  1
  Tb  Tb4  1  0.332517  0.675298  0.066279  1
  Tb  Tb5  1  0.168301  0.175704  0.436004  1
  Ce  Ce6  1  0.646349  0.051240  0.251186  1
  Ce  Ce7  1  0.353651  0.948760  0.748814  1
  Ce  Ce8  1  0.145261  0.448444  0.748653  1
  Ce  Ce9  1  0.854739  0.551556  0.251347  1
  Tm  Tm10  1  0.333243  0.675050  0.434942  1
  Tm  Tm11  1  0.666757  0.324950  0.565058  1
  Ru  Ru12  1  0.487761  0.366021  0.255302  1
  Ru  Ru13  1  0.512239  0.633979  0.744698  1
  Ru  Ru14  1  0.982922  0.136796  0.748452  1
  Ru  Ru15  1  0.017078  0.863204  0.251548  1
