# generated using pymatgen
data_Gd2Ir3W
_symmetry_space_group_name_H-M   'P 1'
_cell_length_a   5.63143054
_cell_length_b   5.63143062
_cell_length_c   5.25398120
_cell_angle_alpha   57.59363995
_cell_angle_beta   57.59363600
_cell_angle_gamma   59.99998135
_symmetry_Int_Tables_number   1
_chemical_formula_structural   Gd2Ir3W
_chemical_formula_sum   'Gd2 Ir3 W1'
_cell_volume   113.34895505
_cell_formula_units_Z   1
loop_
 _symmetry_equiv_pos_site_id
 _symmetry_equiv_pos_as_xyz
  1  'x, y, z'
loop_
 _atom_site_type_symbol
 _atom_site_label
 _atom_site_symmetry_multiplicity
 _atom_site_fract_x
 _atom_site_fract_y
 _atom_site_fract_z
 _atom_site_occupancy
  Gd  Gd0  1  0.499591  0.499591  0.501229  1
  Gd  Gd1  1  0.750409  0.750409  0.748771  1
  Ir  Ir2  1  0.625000  0.125000  0.125000  1
  Ir  Ir3  1  0.125000  0.125000  0.125000  1
  Ir  Ir4  1  0.125000  0.625000  0.125000  1
  W  W5  1  0.125000  0.125000  0.625000  1
