# generated using pymatgen
data_Er18LuMgIr12
_symmetry_space_group_name_H-M   'P 1'
_cell_length_a   10.76542500
_cell_length_b   10.76542500
_cell_length_c   6.28718700
_cell_angle_alpha   90.00000000
_cell_angle_beta   90.00000000
_cell_angle_gamma   90.00000000
_symmetry_Int_Tables_number   1
_chemical_formula_structural   Er18LuMgIr12
_chemical_formula_sum   'Er18 Lu1 Mg1 Ir12'
_cell_volume   728.64961058
_cell_formula_units_Z   1
loop_
 _symmetry_equiv_pos_site_id
 _symmetry_equiv_pos_as_xyz
  1  'x, y, z'
loop_
 _atom_site_type_symbol
 _atom_site_label
 _atom_site_symmetry_multiplicity
 _atom_site_fract_x
 _atom_site_fract_y
 _atom_site_fract_z
 _atom_site_occupancy
  Er  Er0  1  0.284869  0.084957  0.378270  1
  Er  Er1  1  0.290521  0.912056  0.879086  1
  Er  Er2  1  0.709479  0.087944  0.879086  1
  Er  Er3  1  0.715131  0.915043  0.378270  1
  Er  Er4  1  0.588538  0.791805  0.878198  1
  Er  Er5  1  0.587735  0.208280  0.376718  1
  Er  Er6  1  0.412265  0.791720  0.376718  1
  Er  Er7  1  0.411462  0.208195  0.878198  1
  Er  Er8  1  0.208280  0.412265  0.623282  1
  Er  Er9  1  0.208195  0.588538  0.121802  1
  Er  Er10  1  0.791805  0.411462  0.121802  1
  Er  Er11  1  0.791720  0.587735  0.623282  1
  Er  Er12  1  0.912056  0.709479  0.120914  1
  Er  Er13  1  0.915043  0.284869  0.621730  1
  Er  Er14  1  0.084957  0.715131  0.621730  1
  Er  Er15  1  0.087944  0.290521  0.120914  1
  Er  Er16  1  0.000000  0.000000  0.000000  1
  Er  Er17  1  0.500000  0.500000  0.000000  1
  Lu  Lu18  1  0.500000  0.500000  0.500000  1
  Mg  Mg19  1  0.000000  0.000000  0.500000  1
  Ir  Ir20  1  0.846067  0.154307  0.247952  1
  Ir  Ir21  1  0.845693  0.846067  0.752048  1
  Ir  Ir22  1  0.154307  0.153933  0.752048  1
  Ir  Ir23  1  0.153933  0.845693  0.247952  1
  Ir  Ir24  1  0.653786  0.346673  0.747942  1
  Ir  Ir25  1  0.653327  0.653786  0.252058  1
  Ir  Ir26  1  0.346673  0.346214  0.252058  1
  Ir  Ir27  1  0.346214  0.653327  0.747942  1
  Ir  Ir28  1  0.500000  0.000000  0.123599  1
  Ir  Ir29  1  0.500000  0.000000  0.620862  1
  Ir  Ir30  1  0.000000  0.500000  0.876401  1
  Ir  Ir31  1  0.000000  0.500000  0.379138  1
