# generated using pymatgen
data_LaPu(ThB8)2
_symmetry_space_group_name_H-M   'P 1'
_cell_length_a   7.22358747
_cell_length_b   7.22358687
_cell_length_c   4.10542100
_cell_angle_alpha   90.00000000
_cell_angle_beta   90.00000000
_cell_angle_gamma   89.51028469
_symmetry_Int_Tables_number   1
_chemical_formula_structural   LaPu(ThB8)2
_chemical_formula_sum   'La1 Pu1 Th2 B16'
_cell_volume   214.21391192
_cell_formula_units_Z   1
loop_
 _symmetry_equiv_pos_site_id
 _symmetry_equiv_pos_as_xyz
  1  'x, y, z'
loop_
 _atom_site_type_symbol
 _atom_site_label
 _atom_site_symmetry_multiplicity
 _atom_site_fract_x
 _atom_site_fract_y
 _atom_site_fract_z
 _atom_site_occupancy
  La  La0  1  0.183924  0.683924  0.000000  1
  Pu  Pu1  1  0.812826  0.312826  0.000000  1
  Th  Th2  1  0.686030  0.813472  0.000000  1
  Th  Th3  1  0.313472  0.186030  0.000000  1
  B  B4  1  0.327796  0.460028  0.500000  1
  B  B5  1  0.678799  0.535857  0.500000  1
  B  B6  1  0.543935  0.323042  0.500000  1
  B  B7  1  0.463296  0.672738  0.500000  1
  B  B8  1  0.997305  0.003119  0.202319  1
  B  B9  1  0.503119  0.497305  0.797681  1
  B  B10  1  0.997305  0.003119  0.797681  1
  B  B11  1  0.503119  0.497305  0.202319  1
  B  B12  1  0.587498  0.087498  0.500000  1
  B  B13  1  0.088558  0.410356  0.500000  1
  B  B14  1  0.910356  0.588558  0.500000  1
  B  B15  1  0.410997  0.910997  0.500000  1
  B  B16  1  0.035857  0.178799  0.500000  1
  B  B17  1  0.172738  0.963296  0.500000  1
  B  B18  1  0.823042  0.043935  0.500000  1
  B  B19  1  0.960028  0.827796  0.500000  1
