# generated using pymatgen
data_TmLuZn(Ni2P)6
_symmetry_space_group_name_H-M   'P 1'
_cell_length_a   9.08094400
_cell_length_b   9.08094383
_cell_length_c   3.64130500
_cell_angle_alpha   90.00000000
_cell_angle_beta   90.00000000
_cell_angle_gamma   120.00000061
_symmetry_Int_Tables_number   1
_chemical_formula_structural   TmLuZn(Ni2P)6
_chemical_formula_sum   'Tm1 Lu1 Zn1 Ni12 P6'
_cell_volume   260.04569794
_cell_formula_units_Z   1
loop_
 _symmetry_equiv_pos_site_id
 _symmetry_equiv_pos_as_xyz
  1  'x, y, z'
loop_
 _atom_site_type_symbol
 _atom_site_label
 _atom_site_symmetry_multiplicity
 _atom_site_fract_x
 _atom_site_fract_y
 _atom_site_fract_z
 _atom_site_occupancy
  Tm  Tm0  1  0.666667  0.333333  0.500000  1
  Lu  Lu1  1  0.333333  0.666667  0.000000  1
  Zn  Zn2  1  0.000000  0.000000  0.000000  1
  Ni  Ni3  1  0.439601  0.062633  0.000000  1
  Ni  Ni4  1  0.623032  0.560399  0.000000  1
  Ni  Ni5  1  0.937367  0.376968  0.000000  1
  Ni  Ni6  1  0.165540  0.296663  0.000000  1
  Ni  Ni7  1  0.131123  0.834460  0.000000  1
  Ni  Ni8  1  0.703337  0.868877  0.000000  1
  Ni  Ni9  1  0.384688  0.438057  0.500000  1
  Ni  Ni10  1  0.053369  0.615312  0.500000  1
  Ni  Ni11  1  0.561943  0.946631  0.500000  1
  Ni  Ni12  1  0.246172  0.109346  0.500000  1
  Ni  Ni13  1  0.863174  0.753828  0.500000  1
  Ni  Ni14  1  0.890654  0.136826  0.500000  1
  P  P15  1  0.404896  0.289605  0.000000  1
  P  P16  1  0.884710  0.595104  0.000000  1
  P  P17  1  0.710395  0.115290  0.000000  1
  P  P18  1  0.112816  0.405530  0.500000  1
  P  P19  1  0.292715  0.887184  0.500000  1
  P  P20  1  0.594470  0.707285  0.500000  1
