# generated using pymatgen
data_Tb9Ho(SiAs)4
_symmetry_space_group_name_H-M   'P 1'
_cell_length_a   8.25140802
_cell_length_b   8.25140752
_cell_length_c   7.67766402
_cell_angle_alpha   90.00393004
_cell_angle_beta   90.00392757
_cell_angle_gamma   124.94797814
_symmetry_Int_Tables_number   1
_chemical_formula_structural   Tb9Ho(SiAs)4
_chemical_formula_sum   'Tb9 Ho1 Si4 As4'
_cell_volume   428.47506724
_cell_formula_units_Z   1
loop_
 _symmetry_equiv_pos_site_id
 _symmetry_equiv_pos_as_xyz
  1  'x, y, z'
loop_
 _atom_site_type_symbol
 _atom_site_label
 _atom_site_symmetry_multiplicity
 _atom_site_fract_x
 _atom_site_fract_y
 _atom_site_fract_z
 _atom_site_occupancy
  Tb  Tb0  1  0.035743  0.307328  0.331982  1
  Tb  Tb1  1  0.964257  0.692672  0.668018  1
  Tb  Tb2  1  0.464141  0.192542  0.831989  1
  Tb  Tb3  1  0.807458  0.535859  0.168011  1
  Tb  Tb4  1  0.535859  0.807458  0.168011  1
  Tb  Tb5  1  0.192542  0.464141  0.831989  1
  Tb  Tb6  1  0.692672  0.964257  0.668018  1
  Tb  Tb7  1  0.307328  0.035743  0.331982  1
  Tb  Tb8  1  0.500000  0.500000  0.500000  1
  Ho  Ho9  1  0.000000  0.000000  0.000000  1
  Si  Si10  1  0.378770  0.378770  0.121602  1
  Si  Si11  1  0.621230  0.621230  0.878398  1
  Si  Si12  1  0.120849  0.120849  0.622079  1
  Si  Si13  1  0.879151  0.879151  0.377921  1
  As  As14  1  0.798389  0.201611  0.000000  1
  As  As15  1  0.201611  0.798389  0.000000  1
  As  As16  1  0.702044  0.297956  0.500000  1
  As  As17  1  0.297956  0.702044  0.500000  1
