# generated using pymatgen
data_Sm12AlGa7Rh8
_symmetry_space_group_name_H-M   'P 1'
_cell_length_a   5.61980200
_cell_length_b   8.07362267
_cell_length_c   13.67295154
_cell_angle_alpha   90.05296781
_cell_angle_beta   90.00000000
_cell_angle_gamma   90.00000000
_symmetry_Int_Tables_number   1
_chemical_formula_structural   Sm12AlGa7Rh8
_chemical_formula_sum   'Sm12 Al1 Ga7 Rh8'
_cell_volume   620.37109116
_cell_formula_units_Z   1
loop_
 _symmetry_equiv_pos_site_id
 _symmetry_equiv_pos_as_xyz
  1  'x, y, z'
loop_
 _atom_site_type_symbol
 _atom_site_label
 _atom_site_symmetry_multiplicity
 _atom_site_fract_x
 _atom_site_fract_y
 _atom_site_fract_z
 _atom_site_occupancy
  Sm  Sm0  1  0.634431  0.259393  0.251103  1
  Sm  Sm1  1  0.364733  0.739607  0.748825  1
  Sm  Sm2  1  0.364733  0.760393  0.251175  1
  Sm  Sm3  1  0.634431  0.240607  0.748897  1
  Sm  Sm4  1  0.147877  0.400534  0.099014  1
  Sm  Sm5  1  0.853082  0.602336  0.901455  1
  Sm  Sm6  1  0.850800  0.601409  0.598116  1
  Sm  Sm7  1  0.850800  0.898591  0.401884  1
  Sm  Sm8  1  0.149126  0.398815  0.402283  1
  Sm  Sm9  1  0.149126  0.101185  0.597717  1
  Sm  Sm10  1  0.147877  0.099466  0.900986  1
  Sm  Sm11  1  0.853082  0.897664  0.098545  1
  Al  Al12  1  0.627192  0.250000  0.000000  1
  Ga  Ga13  1  0.133408  0.111252  0.250023  1
  Ga  Ga14  1  0.865214  0.889855  0.749522  1
  Ga  Ga15  1  0.865214  0.610145  0.250478  1
  Ga  Ga16  1  0.133408  0.388748  0.749977  1
  Ga  Ga17  1  0.366259  0.750000  0.000000  1
  Ga  Ga18  1  0.361737  0.750000  0.500000  1
  Ga  Ga19  1  0.637763  0.250000  0.500000  1
  Rh  Rh20  1  0.360707  0.035318  0.092165  1
  Rh  Rh21  1  0.644160  0.969637  0.908874  1
  Rh  Rh22  1  0.641016  0.966137  0.591889  1
  Rh  Rh23  1  0.641016  0.533863  0.408111  1
  Rh  Rh24  1  0.358971  0.033833  0.407562  1
  Rh  Rh25  1  0.358971  0.466167  0.592438  1
  Rh  Rh26  1  0.360707  0.464682  0.907835  1
  Rh  Rh27  1  0.644160  0.530363  0.091126  1
