# generated using pymatgen
data_Rb2RuO3
_symmetry_space_group_name_H-M   'P 1'
_cell_length_a   6.66900500
_cell_length_b   6.66900460
_cell_length_c   7.88264700
_cell_angle_alpha   90.00000000
_cell_angle_beta   90.00000000
_cell_angle_gamma   120.00000693
_symmetry_Int_Tables_number   1
_chemical_formula_structural   Rb2RuO3
_chemical_formula_sum   'Rb4 Ru2 O6'
_cell_volume   303.61605986
_cell_formula_units_Z   2
loop_
 _symmetry_equiv_pos_site_id
 _symmetry_equiv_pos_as_xyz
  1  'x, y, z'
loop_
 _atom_site_type_symbol
 _atom_site_label
 _atom_site_symmetry_multiplicity
 _atom_site_fract_x
 _atom_site_fract_y
 _atom_site_fract_z
 _atom_site_occupancy
  Rb  Rb0  1  0.000000  0.000000  0.000000  1
  Rb  Rb1  1  0.666667  0.333333  0.737924  1
  Rb  Rb2  1  0.333333  0.666667  0.262076  1
  Rb  Rb3  1  0.000000  0.000000  0.500000  1
  Ru  Ru4  1  0.666667  0.333333  0.250410  1
  Ru  Ru5  1  0.333333  0.666667  0.749590  1
  O  O6  1  0.128307  0.765830  0.748590  1
  O  O7  1  0.362477  0.234170  0.251410  1
  O  O8  1  0.765830  0.128307  0.251410  1
  O  O9  1  0.871693  0.637523  0.251410  1
  O  O10  1  0.234170  0.362477  0.748590  1
  O  O11  1  0.637523  0.871693  0.748590  1
