# generated using pymatgen
data_Tb2YPa(Al3Co)6
_symmetry_space_group_name_H-M   'P 1'
_cell_length_a   7.41778235
_cell_length_b   7.41549332
_cell_length_c   9.31046800
_cell_angle_alpha   90.00000000
_cell_angle_beta   90.00000000
_cell_angle_gamma   119.23555675
_symmetry_Int_Tables_number   1
_chemical_formula_structural   Tb2YPa(Al3Co)6
_chemical_formula_sum   'Tb2 Y1 Pa1 Al18 Co6'
_cell_volume   446.90003301
_cell_formula_units_Z   1
loop_
 _symmetry_equiv_pos_site_id
 _symmetry_equiv_pos_as_xyz
  1  'x, y, z'
loop_
 _atom_site_type_symbol
 _atom_site_label
 _atom_site_symmetry_multiplicity
 _atom_site_fract_x
 _atom_site_fract_y
 _atom_site_fract_z
 _atom_site_occupancy
  Tb  Tb0  1  0.007053  0.328422  0.750000  1
  Tb  Tb1  1  0.673218  0.992170  0.250000  1
  Y  Y2  1  0.327652  0.006695  0.750000  1
  Pa  Pa3  1  0.994099  0.673165  0.250000  1
  Al  Al4  1  0.129919  0.128723  0.250000  1
  Al  Al5  1  0.874839  0.875907  0.750000  1
  Al  Al6  1  0.331983  0.331922  0.544197  1
  Al  Al7  1  0.664556  0.666740  0.042386  1
  Al  Al8  1  0.331983  0.331922  0.955803  1
  Al  Al9  1  0.664556  0.666740  0.457614  1
  Al  Al10  1  0.339760  0.552062  0.250000  1
  Al  Al11  1  0.659326  0.445177  0.750000  1
  Al  Al12  1  0.551837  0.341548  0.250000  1
  Al  Al13  1  0.445619  0.660733  0.750000  1
  Al  Al14  1  0.998313  0.332989  0.071216  1
  Al  Al15  1  0.001032  0.664456  0.573340  1
  Al  Al16  1  0.338722  0.001021  0.428870  1
  Al  Al17  1  0.665004  0.002678  0.928881  1
  Al  Al18  1  0.001032  0.664456  0.926660  1
  Al  Al19  1  0.998313  0.332989  0.428784  1
  Al  Al20  1  0.665004  0.002678  0.571119  1
  Al  Al21  1  0.338722  0.001021  0.071130  1
  Co  Co22  1  0.999370  0.995383  0.004382  1
  Co  Co23  1  0.999370  0.995383  0.495618  1
  Co  Co24  1  0.673616  0.331814  0.002714  1
  Co  Co25  1  0.325741  0.670697  0.497271  1
  Co  Co26  1  0.325741  0.670697  0.002729  1
  Co  Co27  1  0.673616  0.331814  0.497286  1
