# generated using pymatgen
data_Cs2KLuAs2
_symmetry_space_group_name_H-M   'P 1'
_cell_length_a   9.86338643
_cell_length_b   9.86338672
_cell_length_c   9.86338528
_cell_angle_alpha   132.63743876
_cell_angle_beta   66.14056613
_cell_angle_gamma   136.64694186
_symmetry_Int_Tables_number   1
_chemical_formula_structural   Cs2KLuAs2
_chemical_formula_sum   'Cs4 K2 Lu2 As4'
_cell_volume   477.18454835
_cell_formula_units_Z   2
loop_
 _symmetry_equiv_pos_site_id
 _symmetry_equiv_pos_as_xyz
  1  'x, y, z'
loop_
 _atom_site_type_symbol
 _atom_site_label
 _atom_site_symmetry_multiplicity
 _atom_site_fract_x
 _atom_site_fract_y
 _atom_site_fract_z
 _atom_site_occupancy
  Cs  Cs0  1  0.814325  0.239892  0.054217  1
  Cs  Cs1  1  0.685675  0.739892  0.425567  1
  Cs  Cs2  1  0.314325  0.260108  0.574434  1
  Cs  Cs3  1  0.185675  0.760108  0.945783  1
  K  K4  1  0.749999  0.249999  0.500000  1
  K  K5  1  0.249999  0.749999  0.500000  1
  Lu  Lu6  1  0.249999  0.249999  0.000000  1
  Lu  Lu7  1  0.750000  0.750000  0.000000  1
  As  As8  1  0.409051  0.693890  0.102940  1
  As  As9  1  0.090949  0.193889  0.284839  1
  As  As10  1  0.909051  0.806111  0.715161  1
  As  As11  1  0.590949  0.306111  0.897060  1
