# generated using pymatgen
data_Sr3Pr(PPd3)8
_symmetry_space_group_name_H-M   'P 1'
_cell_length_a   8.57741801
_cell_length_b   8.57741801
_cell_length_c   8.57741801
_cell_angle_alpha   89.87008376
_cell_angle_beta   90.12991624
_cell_angle_gamma   90.12991624
_symmetry_Int_Tables_number   1
_chemical_formula_structural   Sr3Pr(PPd3)8
_chemical_formula_sum   'Sr3 Pr1 P8 Pd24'
_cell_volume   631.05379427
_cell_formula_units_Z   1
loop_
 _symmetry_equiv_pos_site_id
 _symmetry_equiv_pos_as_xyz
  1  'x, y, z'
loop_
 _atom_site_type_symbol
 _atom_site_label
 _atom_site_symmetry_multiplicity
 _atom_site_fract_x
 _atom_site_fract_y
 _atom_site_fract_z
 _atom_site_occupancy
  Sr  Sr0  1  0.500000  0.000000  0.500000  1
  Sr  Sr1  1  0.000000  0.500000  0.500000  1
  Sr  Sr2  1  0.000000  0.000000  0.000000  1
  Pr  Pr3  1  0.500000  0.500000  0.000000  1
  P  P4  1  0.807304  0.307581  0.191246  1
  P  P5  1  0.191837  0.808163  0.308163  1
  P  P6  1  0.692419  0.691246  0.692696  1
  P  P7  1  0.308754  0.192696  0.807581  1
  P  P8  1  0.192696  0.692419  0.808754  1
  P  P9  1  0.808163  0.191837  0.691837  1
  P  P10  1  0.307581  0.308754  0.307304  1
  P  P11  1  0.691246  0.807304  0.192419  1
  Pd  Pd12  1  0.420498  0.845020  0.160665  1
  Pd  Pd13  1  0.578327  0.349782  0.334140  1
  Pd  Pd14  1  0.078580  0.152171  0.662556  1
  Pd  Pd15  1  0.921163  0.652823  0.837817  1
  Pd  Pd16  1  0.165860  0.421673  0.849782  1
  Pd  Pd17  1  0.339335  0.579502  0.345020  1
  Pd  Pd18  1  0.662183  0.078837  0.152823  1
  Pd  Pd19  1  0.837444  0.921420  0.652171  1
  Pd  Pd20  1  0.847829  0.162556  0.421420  1
  Pd  Pd21  1  0.347177  0.337817  0.578837  1
  Pd  Pd22  1  0.154980  0.660665  0.079502  1
  Pd  Pd23  1  0.650218  0.834140  0.921673  1
  Pd  Pd24  1  0.579502  0.154980  0.839335  1
  Pd  Pd25  1  0.421673  0.650218  0.665860  1
  Pd  Pd26  1  0.921420  0.847829  0.337444  1
  Pd  Pd27  1  0.078837  0.347177  0.162183  1
  Pd  Pd28  1  0.834140  0.578327  0.150218  1
  Pd  Pd29  1  0.660665  0.420498  0.654980  1
  Pd  Pd30  1  0.337817  0.921163  0.847177  1
  Pd  Pd31  1  0.162556  0.078580  0.347829  1
  Pd  Pd32  1  0.152171  0.837444  0.578580  1
  Pd  Pd33  1  0.652823  0.662183  0.421163  1
  Pd  Pd34  1  0.845020  0.339335  0.920498  1
  Pd  Pd35  1  0.349782  0.165860  0.078327  1
