# generated using pymatgen
data_Cs3ErIrBr9
_symmetry_space_group_name_H-M   'P 1'
_cell_length_a   7.96785000
_cell_length_b   7.96784906
_cell_length_c   20.07711500
_cell_angle_alpha   90.00000000
_cell_angle_beta   90.00000000
_cell_angle_gamma   119.99999562
_symmetry_Int_Tables_number   1
_chemical_formula_structural   Cs3ErIrBr9
_chemical_formula_sum   'Cs6 Er2 Ir2 Br18'
_cell_volume   1103.86053091
_cell_formula_units_Z   2
loop_
 _symmetry_equiv_pos_site_id
 _symmetry_equiv_pos_as_xyz
  1  'x, y, z'
loop_
 _atom_site_type_symbol
 _atom_site_label
 _atom_site_symmetry_multiplicity
 _atom_site_fract_x
 _atom_site_fract_y
 _atom_site_fract_z
 _atom_site_occupancy
  Cs  Cs0  1  0.666667  0.333333  0.940695  1
  Cs  Cs1  1  0.333333  0.666667  0.440695  1
  Cs  Cs2  1  0.666667  0.333333  0.571208  1
  Cs  Cs3  1  0.333333  0.666667  0.071208  1
  Cs  Cs4  1  0.000000  0.000000  0.746167  1
  Cs  Cs5  1  0.000000  0.000000  0.246167  1
  Er  Er6  1  0.666667  0.333333  0.336720  1
  Er  Er7  1  0.333333  0.666667  0.836720  1
  Ir  Ir8  1  0.333333  0.666667  0.668250  1
  Ir  Ir9  1  0.666667  0.333333  0.168250  1
  Br  Br10  1  0.832161  0.664322  0.408345  1
  Br  Br11  1  0.167839  0.335678  0.908345  1
  Br  Br12  1  0.167839  0.832161  0.908345  1
  Br  Br13  1  0.184570  0.369141  0.597275  1
  Br  Br14  1  0.664322  0.832161  0.908345  1
  Br  Br15  1  0.335678  0.167839  0.408345  1
  Br  Br16  1  0.025953  0.512976  0.740035  1
  Br  Br17  1  0.832161  0.167839  0.408345  1
  Br  Br18  1  0.512976  0.025953  0.240035  1
  Br  Br19  1  0.487024  0.512976  0.740035  1
  Br  Br20  1  0.512976  0.487024  0.240035  1
  Br  Br21  1  0.974047  0.487024  0.240035  1
  Br  Br22  1  0.369141  0.184570  0.097275  1
  Br  Br23  1  0.487024  0.974047  0.740035  1
  Br  Br24  1  0.815430  0.630859  0.097275  1
  Br  Br25  1  0.184570  0.815430  0.597275  1
  Br  Br26  1  0.630859  0.815430  0.597275  1
  Br  Br27  1  0.815430  0.184570  0.097275  1
