# generated using pymatgen
data_ErLuHf4Pb5
_symmetry_space_group_name_H-M   'P 1'
_cell_length_a   6.03769661
_cell_length_b   9.13082940
_cell_length_c   11.29911551
_cell_angle_alpha   113.89065127
_cell_angle_beta   105.49627009
_cell_angle_gamma   89.99999980
_symmetry_Int_Tables_number   1
_chemical_formula_structural   ErLuHf4Pb5
_chemical_formula_sum   'Er2 Lu2 Hf8 Pb10'
_cell_volume   544.68151256
_cell_formula_units_Z   2
loop_
 _symmetry_equiv_pos_site_id
 _symmetry_equiv_pos_as_xyz
  1  'x, y, z'
loop_
 _atom_site_type_symbol
 _atom_site_label
 _atom_site_symmetry_multiplicity
 _atom_site_fract_x
 _atom_site_fract_y
 _atom_site_fract_z
 _atom_site_occupancy
  Er  Er0  1  0.143872  0.253619  0.287743  1
  Er  Er1  1  0.856128  0.746381  0.712257  1
  Lu  Lu2  1  0.643949  0.034077  0.287898  1
  Lu  Lu3  1  0.356051  0.965923  0.712102  1
  Hf  Hf4  1  0.562125  0.312255  0.624282  1
  Hf  Hf5  1  0.437875  0.687745  0.375718  1
  Hf  Hf6  1  0.937842  0.687745  0.375718  1
  Hf  Hf7  1  0.062158  0.312255  0.624282  1
  Hf  Hf8  1  0.434073  0.671443  0.868146  1
  Hf  Hf9  1  0.565927  0.328557  0.131854  1
  Hf  Hf10  1  0.934110  0.196300  0.868220  1
  Hf  Hf11  1  0.065890  0.803700  0.131780  1
  Pb  Pb12  1  0.288828  0.590897  0.577655  1
  Pb  Pb13  1  0.711172  0.409103  0.422345  1
  Pb  Pb14  1  0.788526  0.987348  0.577053  1
  Pb  Pb15  1  0.211474  0.012652  0.422947  1
  Pb  Pb16  1  0.250258  0.000000  0.000000  1
  Pb  Pb17  1  0.749742  0.000000  0.000000  1
  Pb  Pb18  1  0.066984  0.461727  0.133967  1
  Pb  Pb19  1  0.933016  0.538273  0.866033  1
  Pb  Pb20  1  0.567184  0.673517  0.134368  1
  Pb  Pb21  1  0.432816  0.326483  0.865632  1
