# generated using pymatgen
data_Rb8Y6SiBr20
_symmetry_space_group_name_H-M   'P 1'
_cell_length_a   12.36707155
_cell_length_b   12.36707195
_cell_length_c   12.36707100
_cell_angle_alpha   59.99999986
_cell_angle_beta   59.99999879
_cell_angle_gamma   60.00000026
_symmetry_Int_Tables_number   1
_chemical_formula_structural   Rb8Y6SiBr20
_chemical_formula_sum   'Rb8 Y6 Si1 Br20'
_cell_volume   1337.47481641
_cell_formula_units_Z   1
loop_
 _symmetry_equiv_pos_site_id
 _symmetry_equiv_pos_as_xyz
  1  'x, y, z'
loop_
 _atom_site_type_symbol
 _atom_site_label
 _atom_site_symmetry_multiplicity
 _atom_site_fract_x
 _atom_site_fract_y
 _atom_site_fract_z
 _atom_site_occupancy
  Rb  Rb0  1  0.358665  0.358665  0.358665  1
  Rb  Rb1  1  0.641335  0.641335  0.641335  1
  Rb  Rb2  1  0.358665  0.358665  0.924005  1
  Rb  Rb3  1  0.358665  0.924005  0.358665  1
  Rb  Rb4  1  0.641335  0.641335  0.075995  1
  Rb  Rb5  1  0.641335  0.075995  0.641335  1
  Rb  Rb6  1  0.924005  0.358665  0.358665  1
  Rb  Rb7  1  0.075995  0.641335  0.641335  1
  Y  Y8  1  0.841466  0.158534  0.158534  1
  Y  Y9  1  0.158534  0.841466  0.841466  1
  Y  Y10  1  0.158534  0.841466  0.158534  1
  Y  Y11  1  0.841466  0.158534  0.841466  1
  Y  Y12  1  0.158534  0.158534  0.841466  1
  Y  Y13  1  0.841466  0.841466  0.158534  1
  Si  Si14  1  0.000000  0.000000  0.000000  1
  Br  Br15  1  0.330878  0.000000  0.000000  1
  Br  Br16  1  0.669122  0.000000  0.000000  1
  Br  Br17  1  0.000000  0.330878  0.669122  1
  Br  Br18  1  0.000000  0.669122  0.330878  1
  Br  Br19  1  0.000000  0.330878  0.000000  1
  Br  Br20  1  0.669122  0.000000  0.330878  1
  Br  Br21  1  0.000000  0.669122  0.000000  1
  Br  Br22  1  0.330878  0.000000  0.669122  1
  Br  Br23  1  0.000000  0.000000  0.330878  1
  Br  Br24  1  0.000000  0.000000  0.669122  1
  Br  Br25  1  0.669122  0.330878  0.000000  1
  Br  Br26  1  0.330878  0.669122  0.000000  1
  Br  Br27  1  0.677045  0.322955  0.322955  1
  Br  Br28  1  0.322955  0.677045  0.677045  1
  Br  Br29  1  0.322955  0.677045  0.322955  1
  Br  Br30  1  0.677045  0.322955  0.677045  1
  Br  Br31  1  0.322955  0.322955  0.677045  1
  Br  Br32  1  0.677045  0.677045  0.322955  1
  Br  Br33  1  0.250000  0.250000  0.250000  1
  Br  Br34  1  0.750000  0.750000  0.750000  1
