# generated using pymatgen
data_Np4Cu3Si4Rh
_symmetry_space_group_name_H-M   'P 1'
_cell_length_a   3.58145900
_cell_length_b   7.28737580
_cell_length_c   7.38595187
_cell_angle_alpha   89.77824926
_cell_angle_beta   90.00000000
_cell_angle_gamma   90.00000000
_symmetry_Int_Tables_number   1
_chemical_formula_structural   Np4Cu3Si4Rh
_chemical_formula_sum   'Np4 Cu3 Si4 Rh1'
_cell_volume   192.76774658
_cell_formula_units_Z   1
loop_
 _symmetry_equiv_pos_site_id
 _symmetry_equiv_pos_as_xyz
  1  'x, y, z'
loop_
 _atom_site_type_symbol
 _atom_site_label
 _atom_site_symmetry_multiplicity
 _atom_site_fract_x
 _atom_site_fract_y
 _atom_site_fract_z
 _atom_site_occupancy
  Np  Np0  1  0.750000  0.616085  0.495492  1
  Np  Np1  1  0.250000  0.390460  0.502913  1
  Np  Np2  1  0.750000  0.886915  0.986932  1
  Np  Np3  1  0.250000  0.111425  0.008007  1
  Cu  Cu4  1  0.250000  0.567078  0.126380  1
  Cu  Cu5  1  0.750000  0.431142  0.871153  1
  Cu  Cu6  1  0.250000  0.933483  0.631247  1
  Si  Si7  1  0.750000  0.143525  0.700788  1
  Si  Si8  1  0.250000  0.858889  0.299145  1
  Si  Si9  1  0.750000  0.357795  0.198782  1
  Si  Si10  1  0.250000  0.639412  0.801334  1
  Rh  Rh11  1  0.750000  0.063791  0.377826  1
