# generated using pymatgen
data_Dy15Lu5(Bi2Os)4
_symmetry_space_group_name_H-M   'P 1'
_cell_length_a   7.92697563
_cell_length_b   9.03491465
_cell_length_c   12.46929065
_cell_angle_alpha   89.84150029
_cell_angle_beta   90.07621146
_cell_angle_gamma   90.05382630
_symmetry_Int_Tables_number   1
_chemical_formula_structural   Dy15Lu5(Bi2Os)4
_chemical_formula_sum   'Dy15 Lu5 Bi8 Os4'
_cell_volume   893.04036533
_cell_formula_units_Z   1
loop_
 _symmetry_equiv_pos_site_id
 _symmetry_equiv_pos_as_xyz
  1  'x, y, z'
loop_
 _atom_site_type_symbol
 _atom_site_label
 _atom_site_symmetry_multiplicity
 _atom_site_fract_x
 _atom_site_fract_y
 _atom_site_fract_z
 _atom_site_occupancy
  Dy  Dy0  1  0.841333  0.751250  0.791965  1
  Dy  Dy1  1  0.158967  0.248894  0.208555  1
  Dy  Dy2  1  0.341599  0.248772  0.707407  1
  Dy  Dy3  1  0.658277  0.750644  0.292029  1
  Dy  Dy4  1  0.375151  0.751381  0.691015  1
  Dy  Dy5  1  0.622854  0.248485  0.309243  1
  Dy  Dy6  1  0.875786  0.247955  0.808433  1
  Dy  Dy7  1  0.124117  0.752008  0.191896  1
  Dy  Dy8  1  0.943549  0.751316  0.504281  1
  Dy  Dy9  1  0.058721  0.248968  0.495411  1
  Dy  Dy10  1  0.442365  0.247748  0.995756  1
  Dy  Dy11  1  0.557154  0.752064  0.004454  1
  Dy  Dy12  1  0.674322  0.458656  0.564284  1
  Dy  Dy13  1  0.825148  0.458120  0.064675  1
  Dy  Dy14  1  0.175311  0.541689  0.935255  1
  Lu  Lu15  1  0.669790  0.041553  0.564269  1
  Lu  Lu16  1  0.329581  0.957242  0.435336  1
  Lu  Lu17  1  0.170199  0.957535  0.935793  1
  Lu  Lu18  1  0.328502  0.543149  0.435493  1
  Lu  Lu19  1  0.830225  0.042321  0.064320  1
  Bi  Bi20  1  0.568316  0.493474  0.827943  1
  Bi  Bi21  1  0.431272  0.506481  0.172383  1
  Bi  Bi22  1  0.068151  0.506384  0.672251  1
  Bi  Bi23  1  0.433560  0.993617  0.172444  1
  Bi  Bi24  1  0.933218  0.493816  0.328365  1
  Bi  Bi25  1  0.566335  0.006279  0.827479  1
  Bi  Bi26  1  0.933080  0.006432  0.327899  1
  Bi  Bi27  1  0.066523  0.993753  0.672292  1
  Os  Os28  1  0.571817  0.751139  0.508775  1
  Os  Os29  1  0.424768  0.248898  0.490216  1
  Os  Os30  1  0.074146  0.247880  0.990641  1
  Os  Os31  1  0.925862  0.752096  0.009442  1
