# generated using pymatgen
data_Tm2Ti3Si4
_symmetry_space_group_name_H-M   'P 1'
_cell_length_a   7.00416952
_cell_length_b   7.00032800
_cell_length_c   6.81182671
_cell_angle_alpha   90.00273279
_cell_angle_beta   108.94340779
_cell_angle_gamma   89.99615300
_symmetry_Int_Tables_number   1
_chemical_formula_structural   Tm2Ti3Si4
_chemical_formula_sum   'Tm4 Ti6 Si8'
_cell_volume   315.90475282
_cell_formula_units_Z   2
loop_
 _symmetry_equiv_pos_site_id
 _symmetry_equiv_pos_as_xyz
  1  'x, y, z'
loop_
 _atom_site_type_symbol
 _atom_site_label
 _atom_site_symmetry_multiplicity
 _atom_site_fract_x
 _atom_site_fract_y
 _atom_site_fract_z
 _atom_site_occupancy
  Tm  Tm0  1  0.189303  0.169339  0.066962  1
  Tm  Tm1  1  0.810656  0.669334  0.433014  1
  Tm  Tm2  1  0.189333  0.330624  0.567011  1
  Tm  Tm3  1  0.810669  0.830696  0.933013  1
  Ti  Ti4  1  0.500082  0.499931  0.000019  1
  Ti  Ti5  1  0.255529  0.677345  0.248870  1
  Ti  Ti6  1  0.744446  0.177274  0.251075  1
  Ti  Ti7  1  0.500082  0.000074  0.500033  1
  Ti  Ti8  1  0.255566  0.822704  0.748903  1
  Ti  Ti9  1  0.744492  0.322688  0.751136  1
  Si  Si10  1  0.505232  0.874604  0.131310  1
  Si  Si11  1  0.916357  0.461136  0.131617  1
  Si  Si12  1  0.083384  0.961274  0.368358  1
  Si  Si13  1  0.494893  0.374487  0.368759  1
  Si  Si14  1  0.505249  0.625376  0.631353  1
  Si  Si15  1  0.916432  0.038853  0.631592  1
  Si  Si16  1  0.083413  0.538746  0.868235  1
  Si  Si17  1  0.494884  0.125515  0.868743  1
