# generated using pymatgen
data_La8Er12Ga7Si9
_symmetry_space_group_name_H-M   'P 1'
_cell_length_a   7.88665044
_cell_length_b   7.86576809
_cell_length_c   14.68872135
_cell_angle_alpha   90.04790421
_cell_angle_beta   89.98900416
_cell_angle_gamma   89.96326586
_symmetry_Int_Tables_number   1
_chemical_formula_structural   La8Er12Ga7Si9
_chemical_formula_sum   'La8 Er12 Ga7 Si9'
_cell_volume   911.20789320
_cell_formula_units_Z   1
loop_
 _symmetry_equiv_pos_site_id
 _symmetry_equiv_pos_as_xyz
  1  'x, y, z'
loop_
 _atom_site_type_symbol
 _atom_site_label
 _atom_site_symmetry_multiplicity
 _atom_site_fract_x
 _atom_site_fract_y
 _atom_site_fract_z
 _atom_site_occupancy
  La  La0  1  0.989518  0.645954  0.041020  1
  La  La1  1  0.012137  0.356701  0.540648  1
  La  La2  1  0.642442  0.987616  0.959658  1
  La  La3  1  0.143645  0.513495  0.792031  1
  La  La4  1  0.856571  0.487270  0.289639  1
  La  La5  1  0.509661  0.141120  0.208119  1
  La  La6  1  0.486923  0.857078  0.709360  1
  La  La7  1  0.356035  0.012503  0.459065  1
  Er  Er8  1  0.358894  0.487254  0.376376  1
  Er  Er9  1  0.858826  0.013220  0.371674  1
  Er  Er10  1  0.991073  0.138236  0.125800  1
  Er  Er11  1  0.012403  0.858206  0.627469  1
  Er  Er12  1  0.640670  0.512321  0.878862  1
  Er  Er13  1  0.487402  0.358922  0.622626  1
  Er  Er14  1  0.511946  0.642091  0.122176  1
  Er  Er15  1  0.140945  0.987499  0.873701  1
  Er  Er16  1  0.682495  0.683349  0.499381  1
  Er  Er17  1  0.816827  0.182496  0.749796  1
  Er  Er18  1  0.183582  0.818474  0.249263  1
  Er  Er19  1  0.319613  0.311767  0.001834  1
  Ga  Ga20  1  0.064921  0.715111  0.435922  1
  Ga  Ga21  1  0.936252  0.285660  0.937494  1
  Ga  Ga22  1  0.714056  0.064301  0.562864  1
  Ga  Ga23  1  0.212560  0.436549  0.186271  1
  Ga  Ga24  1  0.785640  0.564028  0.687568  1
  Ga  Ga25  1  0.435513  0.215577  0.813834  1
  Ga  Ga26  1  0.563642  0.786485  0.312495  1
  Si  Si27  1  0.288131  0.932951  0.062153  1
  Si  Si28  1  0.847264  0.798648  0.808693  1
  Si  Si29  1  0.152294  0.201813  0.307244  1
  Si  Si30  1  0.797718  0.848364  0.191277  1
  Si  Si31  1  0.298804  0.652801  0.557299  1
  Si  Si32  1  0.702895  0.347078  0.058877  1
  Si  Si33  1  0.652416  0.298671  0.441755  1
  Si  Si34  1  0.346185  0.702716  0.944649  1
  Si  Si35  1  0.200101  0.153674  0.693109  1
