# generated using pymatgen
data_Pr(Ga3Pt)3
_symmetry_space_group_name_H-M   'P 1'
_cell_length_a   10.53250238
_cell_length_b   10.53250326
_cell_length_c   10.53250088
_cell_angle_alpha   42.61390444
_cell_angle_beta   42.61389998
_cell_angle_gamma   42.61390775
_symmetry_Int_Tables_number   1
_chemical_formula_structural   Pr(Ga3Pt)3
_chemical_formula_sum   'Pr2 Ga18 Pt6'
_cell_volume   485.08913707
_cell_formula_units_Z   2
loop_
 _symmetry_equiv_pos_site_id
 _symmetry_equiv_pos_as_xyz
  1  'x, y, z'
loop_
 _atom_site_type_symbol
 _atom_site_label
 _atom_site_symmetry_multiplicity
 _atom_site_fract_x
 _atom_site_fract_y
 _atom_site_fract_z
 _atom_site_occupancy
  Pr  Pr0  1  0.166820  0.166820  0.166820  1
  Pr  Pr1  1  0.833180  0.833180  0.833180  1
  Ga  Ga2  1  0.048771  0.048771  0.048771  1
  Ga  Ga3  1  0.701313  0.500000  0.298687  1
  Ga  Ga4  1  0.666377  0.333623  0.000000  1
  Ga  Ga5  1  0.107209  0.436688  0.765726  1
  Ga  Ga6  1  0.436688  0.765726  0.107209  1
  Ga  Ga7  1  0.384177  0.384177  0.384177  1
  Ga  Ga8  1  0.333623  0.000000  0.666377  1
  Ga  Ga9  1  0.615823  0.615823  0.615823  1
  Ga  Ga10  1  0.234274  0.563312  0.892791  1
  Ga  Ga11  1  0.563312  0.892791  0.234274  1
  Ga  Ga12  1  0.500000  0.298687  0.701313  1
  Ga  Ga13  1  0.765726  0.107209  0.436688  1
  Ga  Ga14  1  0.951229  0.951229  0.951229  1
  Ga  Ga15  1  0.298687  0.701313  0.500000  1
  Ga  Ga16  1  0.000000  0.666377  0.333623  1
  Ga  Ga17  1  0.714556  0.714556  0.714556  1
  Ga  Ga18  1  0.285444  0.285444  0.285444  1
  Ga  Ga19  1  0.892791  0.234274  0.563312  1
  Pt  Pt20  1  0.242043  0.921034  0.581995  1
  Pt  Pt21  1  0.921034  0.581995  0.242043  1
  Pt  Pt22  1  0.757957  0.418005  0.078966  1
  Pt  Pt23  1  0.078966  0.757957  0.418005  1
  Pt  Pt24  1  0.418005  0.078966  0.757957  1
  Pt  Pt25  1  0.581995  0.242043  0.921034  1
