# generated using pymatgen
data_SrTc2F10
_symmetry_space_group_name_H-M   'P 1'
_cell_length_a   11.01770100
_cell_length_b   5.99576575
_cell_length_c   7.85053103
_cell_angle_alpha   71.79294681
_cell_angle_beta   90.00000000
_cell_angle_gamma   90.00000000
_symmetry_Int_Tables_number   1
_chemical_formula_structural   SrTc2F10
_chemical_formula_sum   'Sr2 Tc4 F20'
_cell_volume   492.63801439
_cell_formula_units_Z   2
loop_
 _symmetry_equiv_pos_site_id
 _symmetry_equiv_pos_as_xyz
  1  'x, y, z'
loop_
 _atom_site_type_symbol
 _atom_site_label
 _atom_site_symmetry_multiplicity
 _atom_site_fract_x
 _atom_site_fract_y
 _atom_site_fract_z
 _atom_site_occupancy
  Sr  Sr0  1  0.759083  0.480415  0.748464  1
  Sr  Sr1  1  0.240917  0.480415  0.248464  1
  Tc  Tc2  1  0.004607  0.089652  0.602178  1
  Tc  Tc3  1  0.501566  0.908201  0.899582  1
  Tc  Tc4  1  0.498434  0.908201  0.399582  1
  Tc  Tc5  1  0.995393  0.089652  0.102178  1
  F  F6  1  0.120257  0.350519  0.539117  1
  F  F7  1  0.616245  0.650194  0.908675  1
  F  F8  1  0.383755  0.650194  0.408675  1
  F  F9  1  0.879743  0.350519  0.039117  1
  F  F10  1  0.871913  0.321496  0.536181  1
  F  F11  1  0.375221  0.678909  0.004027  1
  F  F12  1  0.624779  0.678909  0.504027  1
  F  F13  1  0.128087  0.321496  0.036181  1
  F  F14  1  0.635002  0.128373  0.804520  1
  F  F15  1  0.132948  0.871285  0.681506  1
  F  F16  1  0.867052  0.871285  0.181506  1
  F  F17  1  0.364998  0.128373  0.304520  1
  F  F18  1  0.393403  0.159134  0.883389  1
  F  F19  1  0.888017  0.831138  0.646839  1
  F  F20  1  0.111983  0.831138  0.146839  1
  F  F21  1  0.606597  0.159134  0.383389  1
  F  F22  1  0.962687  0.098181  0.849094  1
  F  F23  1  0.449271  0.903357  0.650968  1
  F  F24  1  0.550729  0.903357  0.150968  1
  F  F25  1  0.037313  0.098181  0.349094  1
