# generated using pymatgen
data_Pr8YLuSn6
_symmetry_space_group_name_H-M   'P 1'
_cell_length_a   9.27864000
_cell_length_b   9.27863968
_cell_length_c   6.81074300
_cell_angle_alpha   90.00000000
_cell_angle_beta   90.00000000
_cell_angle_gamma   120.00000829
_symmetry_Int_Tables_number   1
_chemical_formula_structural   Pr8YLuSn6
_chemical_formula_sum   'Pr8 Y1 Lu1 Sn6'
_cell_volume   507.80119998
_cell_formula_units_Z   1
loop_
 _symmetry_equiv_pos_site_id
 _symmetry_equiv_pos_as_xyz
  1  'x, y, z'
loop_
 _atom_site_type_symbol
 _atom_site_label
 _atom_site_symmetry_multiplicity
 _atom_site_fract_x
 _atom_site_fract_y
 _atom_site_fract_z
 _atom_site_occupancy
  Pr  Pr0  1  0.666667  0.333333  0.000000  1
  Pr  Pr1  1  0.333333  0.666667  0.000000  1
  Pr  Pr2  1  0.757536  0.757357  0.747506  1
  Pr  Pr3  1  0.242643  0.000179  0.747506  1
  Pr  Pr4  1  0.999821  0.242464  0.747506  1
  Pr  Pr5  1  0.242643  0.242464  0.252494  1
  Pr  Pr6  1  0.757536  0.000179  0.252494  1
  Pr  Pr7  1  0.999821  0.757357  0.252494  1
  Y  Y8  1  0.333333  0.666667  0.500000  1
  Lu  Lu9  1  0.666667  0.333333  0.500000  1
  Sn  Sn10  1  0.397629  0.396817  0.740051  1
  Sn  Sn11  1  0.603183  0.000813  0.740051  1
  Sn  Sn12  1  0.999187  0.602371  0.740051  1
  Sn  Sn13  1  0.603183  0.602371  0.259949  1
  Sn  Sn14  1  0.397629  0.000813  0.259949  1
  Sn  Sn15  1  0.999187  0.396817  0.259949  1
