# generated using pymatgen
data_Ag(IrSe4)2
_symmetry_space_group_name_H-M   'P 1'
_cell_length_a   6.13550483
_cell_length_b   6.27424317
_cell_length_c   6.12753893
_cell_angle_alpha   91.40819193
_cell_angle_beta   90.47870396
_cell_angle_gamma   93.20836594
_symmetry_Int_Tables_number   1
_chemical_formula_structural   Ag(IrSe4)2
_chemical_formula_sum   'Ag1 Ir2 Se8'
_cell_volume   235.43155062
_cell_formula_units_Z   1
loop_
 _symmetry_equiv_pos_site_id
 _symmetry_equiv_pos_as_xyz
  1  'x, y, z'
loop_
 _atom_site_type_symbol
 _atom_site_label
 _atom_site_symmetry_multiplicity
 _atom_site_fract_x
 _atom_site_fract_y
 _atom_site_fract_z
 _atom_site_occupancy
  Ag  Ag0  1  0.500000  0.000000  0.500000  1
  Ir  Ir1  1  0.000000  0.500000  0.500000  1
  Ir  Ir2  1  0.500000  0.500000  0.000000  1
  Se  Se3  1  0.621787  0.885501  0.095185  1
  Se  Se4  1  0.913311  0.123580  0.621139  1
  Se  Se5  1  0.127243  0.610534  0.883853  1
  Se  Se6  1  0.630684  0.598877  0.628605  1
  Se  Se7  1  0.369316  0.401123  0.371395  1
  Se  Se8  1  0.872757  0.389466  0.116147  1
  Se  Se9  1  0.086689  0.876420  0.378861  1
  Se  Se10  1  0.378213  0.114499  0.904815  1
