# generated using pymatgen
data_Rb4Sn2BiAu6
_symmetry_space_group_name_H-M   'P 1'
_cell_length_a   11.01777272
_cell_length_b   11.01777259
_cell_length_c   11.01777280
_cell_angle_alpha   37.04893920
_cell_angle_beta   37.04894103
_cell_angle_gamma   37.04893775
_symmetry_Int_Tables_number   1
_chemical_formula_structural   Rb4Sn2BiAu6
_chemical_formula_sum   'Rb4 Sn2 Bi1 Au6'
_cell_volume   435.05564217
_cell_formula_units_Z   1
loop_
 _symmetry_equiv_pos_site_id
 _symmetry_equiv_pos_as_xyz
  1  'x, y, z'
loop_
 _atom_site_type_symbol
 _atom_site_label
 _atom_site_symmetry_multiplicity
 _atom_site_fract_x
 _atom_site_fract_y
 _atom_site_fract_z
 _atom_site_occupancy
  Rb  Rb0  1  0.683727  0.683727  0.683727  1
  Rb  Rb1  1  0.316273  0.316273  0.316273  1
  Rb  Rb2  1  0.812677  0.812677  0.812677  1
  Rb  Rb3  1  0.187323  0.187323  0.187323  1
  Sn  Sn4  1  0.452346  0.452346  0.452346  1
  Sn  Sn5  1  0.547654  0.547654  0.547654  1
  Bi  Bi6  1  0.000000  0.000000  0.000000  1
  Au  Au7  1  0.196057  0.781590  0.781590  1
  Au  Au8  1  0.781590  0.781590  0.196057  1
  Au  Au9  1  0.781590  0.196057  0.781590  1
  Au  Au10  1  0.218410  0.803943  0.218410  1
  Au  Au11  1  0.803943  0.218410  0.218410  1
  Au  Au12  1  0.218410  0.218410  0.803943  1
