# generated using pymatgen
data_TbHo10Cd8InPd4
_symmetry_space_group_name_H-M   'P 1'
_cell_length_a   13.11728657
_cell_length_b   13.14081115
_cell_length_c   3.67970900
_cell_angle_alpha   90.00000000
_cell_angle_beta   90.00000000
_cell_angle_gamma   112.31025929
_symmetry_Int_Tables_number   1
_chemical_formula_structural   TbHo10Cd8InPd4
_chemical_formula_sum   'Tb1 Ho10 Cd8 In1 Pd4'
_cell_volume   586.79707455
_cell_formula_units_Z   1
loop_
 _symmetry_equiv_pos_site_id
 _symmetry_equiv_pos_as_xyz
  1  'x, y, z'
loop_
 _atom_site_type_symbol
 _atom_site_label
 _atom_site_symmetry_multiplicity
 _atom_site_fract_x
 _atom_site_fract_y
 _atom_site_fract_z
 _atom_site_occupancy
  Tb  Tb0  1  0.999713  0.000916  0.000000  1
  Ho  Ho1  1  0.416050  0.074419  0.000000  1
  Ho  Ho2  1  0.584991  0.925806  0.000000  1
  Ho  Ho3  1  0.075660  0.415725  0.000000  1
  Ho  Ho4  1  0.925693  0.583039  0.000000  1
  Ho  Ho5  1  0.161647  0.837059  0.000000  1
  Ho  Ho6  1  0.837491  0.163747  0.000000  1
  Ho  Ho7  1  0.371907  0.628572  0.000000  1
  Ho  Ho8  1  0.628611  0.372200  0.000000  1
  Ho  Ho9  1  0.304287  0.302847  0.000000  1
  Ho  Ho10  1  0.692811  0.693636  0.000000  1
  Cd  Cd11  1  0.366132  0.842855  0.500000  1
  Cd  Cd12  1  0.634015  0.158354  0.500000  1
  Cd  Cd13  1  0.841100  0.366589  0.500000  1
  Cd  Cd14  1  0.159211  0.634013  0.500000  1
  Cd  Cd15  1  0.215793  0.069439  0.500000  1
  Cd  Cd16  1  0.785596  0.929191  0.500000  1
  Cd  Cd17  1  0.069134  0.215522  0.500000  1
  Cd  Cd18  1  0.500118  0.499083  0.500000  1
  In  In19  1  0.928307  0.785854  0.500000  1
  Pd  Pd20  1  0.450013  0.249003  0.500000  1
  Pd  Pd21  1  0.548883  0.750303  0.500000  1
  Pd  Pd22  1  0.251175  0.450361  0.500000  1
  Pd  Pd23  1  0.751662  0.551465  0.500000  1
