# generated using pymatgen
data_Dy7Ho9In3AgIr4
_symmetry_space_group_name_H-M   'P 1'
_cell_length_a   9.61137577
_cell_length_b   9.61137462
_cell_length_c   9.60814967
_cell_angle_alpha   59.98624036
_cell_angle_beta   59.98624255
_cell_angle_gamma   60.02450708
_symmetry_Int_Tables_number   1
_chemical_formula_structural   Dy7Ho9In3AgIr4
_chemical_formula_sum   'Dy7 Ho9 In3 Ag1 Ir4'
_cell_volume   627.60416164
_cell_formula_units_Z   1
loop_
 _symmetry_equiv_pos_site_id
 _symmetry_equiv_pos_as_xyz
  1  'x, y, z'
loop_
 _atom_site_type_symbol
 _atom_site_label
 _atom_site_symmetry_multiplicity
 _atom_site_fract_x
 _atom_site_fract_y
 _atom_site_fract_z
 _atom_site_occupancy
  Dy  Dy0  1  0.060008  0.060008  0.438843  1
  Dy  Dy1  1  0.185489  0.811129  0.811372  1
  Dy  Dy2  1  0.810014  0.189362  0.189181  1
  Dy  Dy3  1  0.811129  0.185489  0.811372  1
  Dy  Dy4  1  0.189362  0.810014  0.189181  1
  Dy  Dy5  1  0.811233  0.811233  0.185402  1
  Dy  Dy6  1  0.189265  0.189265  0.810200  1
  Ho  Ho7  1  0.599199  0.599199  0.599358  1
  Ho  Ho8  1  0.599832  0.599832  0.201207  1
  Ho  Ho9  1  0.599678  0.201242  0.599942  1
  Ho  Ho10  1  0.201242  0.599678  0.599942  1
  Ho  Ho11  1  0.059085  0.441174  0.440824  1
  Ho  Ho12  1  0.438949  0.060124  0.059874  1
  Ho  Ho13  1  0.441174  0.059085  0.440824  1
  Ho  Ho14  1  0.060124  0.438949  0.059874  1
  Ho  Ho15  1  0.440918  0.440918  0.059093  1
  In  In16  1  0.832303  0.832303  0.504775  1
  In  In17  1  0.832436  0.504516  0.832428  1
  In  In18  1  0.504516  0.832436  0.832428  1
  Ag  Ag19  1  0.833140  0.833140  0.833179  1
  Ir  Ir20  1  0.392090  0.392090  0.392184  1
  Ir  Ir21  1  0.391288  0.391288  0.826006  1
  Ir  Ir22  1  0.391725  0.825801  0.391257  1
  Ir  Ir23  1  0.825801  0.391725  0.391257  1
