# generated using pymatgen
data_BeCr4B2P
_symmetry_space_group_name_H-M   'P 1'
_cell_length_a   6.41415394
_cell_length_b   6.41415296
_cell_length_c   6.41415403
_cell_angle_alpha   130.09508565
_cell_angle_beta   130.09507207
_cell_angle_gamma   73.25480840
_symmetry_Int_Tables_number   1
_chemical_formula_structural   BeCr4B2P
_chemical_formula_sum   'Be2 Cr8 B4 P2'
_cell_volume   150.76129866
_cell_formula_units_Z   2
loop_
 _symmetry_equiv_pos_site_id
 _symmetry_equiv_pos_as_xyz
  1  'x, y, z'
loop_
 _atom_site_type_symbol
 _atom_site_label
 _atom_site_symmetry_multiplicity
 _atom_site_fract_x
 _atom_site_fract_y
 _atom_site_fract_z
 _atom_site_occupancy
  Be  Be0  1  0.000000  0.000000  0.000000  1
  Be  Be1  1  0.500000  0.500000  0.000000  1
  Cr  Cr2  1  0.191820  0.691820  0.161539  1
  Cr  Cr3  1  0.469719  0.969719  0.161539  1
  Cr  Cr4  1  0.530281  0.030281  0.838461  1
  Cr  Cr5  1  0.030281  0.191820  0.500000  1
  Cr  Cr6  1  0.691820  0.530281  0.500000  1
  Cr  Cr7  1  0.969719  0.808180  0.500000  1
  Cr  Cr8  1  0.308180  0.469719  0.500000  1
  Cr  Cr9  1  0.808180  0.308180  0.838461  1
  B  B10  1  0.879747  0.379747  0.259493  1
  B  B11  1  0.379747  0.120253  0.500000  1
  B  B12  1  0.620253  0.879747  0.500000  1
  B  B13  1  0.120253  0.620253  0.740507  1
  P  P14  1  0.750000  0.750000  0.000000  1
  P  P15  1  0.250000  0.250000  0.000000  1
