# generated using pymatgen
data_Al12Fe3Si8Os
_symmetry_space_group_name_H-M   'P 1'
_cell_length_a   6.12329224
_cell_length_b   6.12363100
_cell_length_c   9.52626900
_cell_angle_alpha   90.00000000
_cell_angle_beta   90.16481399
_cell_angle_gamma   90.00000000
_symmetry_Int_Tables_number   1
_chemical_formula_structural   Al12Fe3Si8Os
_chemical_formula_sum   'Al12 Fe3 Si8 Os1'
_cell_volume   357.20295585
_cell_formula_units_Z   1
loop_
 _symmetry_equiv_pos_site_id
 _symmetry_equiv_pos_as_xyz
  1  'x, y, z'
loop_
 _atom_site_type_symbol
 _atom_site_label
 _atom_site_symmetry_multiplicity
 _atom_site_fract_x
 _atom_site_fract_y
 _atom_site_fract_z
 _atom_site_occupancy
  Al  Al0  1  0.997720  0.000599  0.993578  1
  Al  Al1  1  0.499660  0.500664  0.998755  1
  Al  Al2  1  0.002280  0.000599  0.506422  1
  Al  Al3  1  0.500340  0.500664  0.501245  1
  Al  Al4  1  0.141489  0.632350  0.863411  1
  Al  Al5  1  0.635490  0.863574  0.134346  1
  Al  Al6  1  0.858511  0.632350  0.636589  1
  Al  Al7  1  0.364510  0.863574  0.365654  1
  Al  Al8  1  0.858788  0.374585  0.135314  1
  Al  Al9  1  0.361896  0.133803  0.863871  1
  Al  Al10  1  0.141212  0.374585  0.364686  1
  Al  Al11  1  0.638104  0.133803  0.636129  1
  Fe  Fe12  1  0.500000  0.488543  0.750000  1
  Fe  Fe13  1  0.000000  0.988385  0.750000  1
  Fe  Fe14  1  0.500000  0.510623  0.250000  1
  Si  Si15  1  0.167989  0.663887  0.150992  1
  Si  Si16  1  0.661893  0.827146  0.844412  1
  Si  Si17  1  0.832011  0.663887  0.349008  1
  Si  Si18  1  0.338107  0.827146  0.655588  1
  Si  Si19  1  0.835733  0.329923  0.844122  1
  Si  Si20  1  0.347711  0.173680  0.153091  1
  Si  Si21  1  0.164267  0.329923  0.655878  1
  Si  Si22  1  0.652289  0.173680  0.346909  1
  Os  Os23  1  0.000000  0.012029  0.250000  1
