# generated using pymatgen
data_Pa12Al9Cr2Re13
_symmetry_space_group_name_H-M   'P 1'
_cell_length_a   9.48394600
_cell_length_b   9.48394486
_cell_length_c   8.55991800
_cell_angle_alpha   90.00000000
_cell_angle_beta   90.00000000
_cell_angle_gamma   119.99999003
_symmetry_Int_Tables_number   1
_chemical_formula_structural   Pa12Al9Cr2Re13
_chemical_formula_sum   'Pa12 Al9 Cr2 Re13'
_cell_volume   666.77356348
_cell_formula_units_Z   1
loop_
 _symmetry_equiv_pos_site_id
 _symmetry_equiv_pos_as_xyz
  1  'x, y, z'
loop_
 _atom_site_type_symbol
 _atom_site_label
 _atom_site_symmetry_multiplicity
 _atom_site_fract_x
 _atom_site_fract_y
 _atom_site_fract_z
 _atom_site_occupancy
  Pa  Pa0  1  0.330256  0.997424  0.063830  1
  Pa  Pa1  1  0.667168  0.997424  0.936170  1
  Pa  Pa2  1  0.002576  0.332832  0.063830  1
  Pa  Pa3  1  0.670382  0.001841  0.564068  1
  Pa  Pa4  1  0.998159  0.329618  0.435932  1
  Pa  Pa5  1  0.002576  0.669744  0.936170  1
  Pa  Pa6  1  0.331459  0.001841  0.435932  1
  Pa  Pa7  1  0.998159  0.668541  0.564068  1
  Pa  Pa8  1  0.667168  0.669744  0.063830  1
  Pa  Pa9  1  0.330256  0.332832  0.936170  1
  Pa  Pa10  1  0.331459  0.329618  0.564068  1
  Pa  Pa11  1  0.670382  0.668541  0.435932  1
  Al  Al12  1  0.666667  0.333333  0.500000  1
  Al  Al13  1  0.666667  0.333333  0.000000  1
  Al  Al14  1  0.333333  0.666667  0.000000  1
  Al  Al15  1  0.167855  0.001971  0.750193  1
  Al  Al16  1  0.834116  0.001971  0.249807  1
  Al  Al17  1  0.998029  0.165884  0.750193  1
  Al  Al18  1  0.998029  0.832145  0.249807  1
  Al  Al19  1  0.834116  0.832145  0.750193  1
  Al  Al20  1  0.167855  0.165884  0.249807  1
  Cr  Cr21  1  0.000000  0.000000  0.500000  1
  Cr  Cr22  1  0.000000  0.000000  0.000000  1
  Re  Re23  1  0.164580  0.491666  0.752724  1
  Re  Re24  1  0.850507  0.503865  0.251091  1
  Re  Re25  1  0.508334  0.672915  0.752724  1
  Re  Re26  1  0.496135  0.149493  0.748909  1
  Re  Re27  1  0.496135  0.346641  0.251091  1
  Re  Re28  1  0.508334  0.835420  0.247276  1
  Re  Re29  1  0.327085  0.835420  0.752724  1
  Re  Re30  1  0.653359  0.503865  0.748909  1
  Re  Re31  1  0.653359  0.149493  0.251091  1
  Re  Re32  1  0.327085  0.491666  0.247276  1
  Re  Re33  1  0.850507  0.346641  0.748909  1
  Re  Re34  1  0.164580  0.672915  0.247276  1
  Re  Re35  1  0.333333  0.666667  0.500000  1
