# generated using pymatgen
data_La11Nd5(ErIr3)4
_symmetry_space_group_name_H-M   'P 1'
_cell_length_a   11.31839809
_cell_length_b   11.31142031
_cell_length_c   6.53369113
_cell_angle_alpha   90.02228157
_cell_angle_beta   89.99871780
_cell_angle_gamma   90.05041474
_symmetry_Int_Tables_number   1
_chemical_formula_structural   La11Nd5(ErIr3)4
_chemical_formula_sum   'La11 Nd5 Er4 Ir12'
_cell_volume   836.48951912
_cell_formula_units_Z   1
loop_
 _symmetry_equiv_pos_site_id
 _symmetry_equiv_pos_as_xyz
  1  'x, y, z'
loop_
 _atom_site_type_symbol
 _atom_site_label
 _atom_site_symmetry_multiplicity
 _atom_site_fract_x
 _atom_site_fract_y
 _atom_site_fract_z
 _atom_site_occupancy
  La  La0  1  0.286580  0.089227  0.387075  1
  La  La1  1  0.286679  0.910251  0.887234  1
  La  La2  1  0.713627  0.089510  0.887914  1
  La  La3  1  0.713255  0.909953  0.388780  1
  La  La4  1  0.590586  0.786345  0.888380  1
  La  La5  1  0.590135  0.212668  0.391254  1
  La  La6  1  0.410328  0.787307  0.388656  1
  La  La7  1  0.410171  0.212630  0.890809  1
  La  La8  1  0.210890  0.413321  0.609757  1
  La  La9  1  0.210304  0.587146  0.109703  1
  La  La10  1  0.789320  0.414346  0.109929  1
  Nd  Nd11  1  0.790303  0.586285  0.610699  1
  Nd  Nd12  1  0.913692  0.712552  0.111458  1
  Nd  Nd13  1  0.915145  0.288648  0.609482  1
  Nd  Nd14  1  0.082957  0.712208  0.610749  1
  Nd  Nd15  1  0.085133  0.286838  0.109997  1
  Er  Er16  1  0.999349  0.999952  0.498811  1
  Er  Er17  1  0.999929  0.999645  0.998597  1
  Er  Er18  1  0.499905  0.499919  0.004132  1
  Er  Er19  1  0.501744  0.501031  0.504797  1
  Ir  Ir20  1  0.852733  0.146944  0.247597  1
  Ir  Ir21  1  0.852729  0.851818  0.747750  1
  Ir  Ir22  1  0.147257  0.146602  0.746852  1
  Ir  Ir23  1  0.146382  0.852356  0.247251  1
  Ir  Ir24  1  0.649066  0.353316  0.750929  1
  Ir  Ir25  1  0.646693  0.649243  0.250975  1
  Ir  Ir26  1  0.352697  0.351633  0.252827  1
  Ir  Ir27  1  0.352141  0.648245  0.751310  1
  Ir  Ir28  1  0.500143  0.000260  0.124764  1
  Ir  Ir29  1  0.500227  0.999939  0.625721  1
  Ir  Ir30  1  0.000426  0.499610  0.879247  1
  Ir  Ir31  1  0.999473  0.500253  0.376566  1
