# generated using pymatgen
data_Tm4AlB4Ir6Ru4W
_symmetry_space_group_name_H-M   'P 1'
_cell_length_a   9.59105300
_cell_length_b   9.58657628
_cell_length_c   3.06510600
_cell_angle_alpha   90.00000000
_cell_angle_beta   90.00000000
_cell_angle_gamma   90.01377024
_symmetry_Int_Tables_number   1
_chemical_formula_structural   Tm4AlB4Ir6Ru4W
_chemical_formula_sum   'Tm4 Al1 B4 Ir6 Ru4 W1'
_cell_volume   281.82227002
_cell_formula_units_Z   1
loop_
 _symmetry_equiv_pos_site_id
 _symmetry_equiv_pos_as_xyz
  1  'x, y, z'
loop_
 _atom_site_type_symbol
 _atom_site_label
 _atom_site_symmetry_multiplicity
 _atom_site_fract_x
 _atom_site_fract_y
 _atom_site_fract_z
 _atom_site_occupancy
  Tm  Tm0  1  0.177513  0.673951  0.000000  1
  Tm  Tm1  1  0.323682  0.174959  0.000000  1
  Tm  Tm2  1  0.671348  0.823191  0.000000  1
  Tm  Tm3  1  0.826016  0.326301  0.000000  1
  Al  Al4  1  0.499440  0.500073  0.000000  1
  B  B5  1  0.123751  0.381589  0.000000  1
  B  B6  1  0.381091  0.876392  0.000000  1
  B  B7  1  0.615240  0.123782  0.000000  1
  B  B8  1  0.876100  0.615714  0.000000  1
  Ir  Ir9  1  0.283529  0.429763  0.500000  1
  Ir  Ir10  1  0.430568  0.716423  0.500000  1
  Ir  Ir11  1  0.570748  0.283466  0.500000  1
  Ir  Ir12  1  0.716653  0.569684  0.500000  1
  Ir  Ir13  1  0.782327  0.069463  0.500000  1
  Ir  Ir14  1  0.928598  0.783131  0.500000  1
  Ru  Ru15  1  0.000415  0.501343  0.500000  1
  Ru  Ru16  1  0.069138  0.218419  0.500000  1
  Ru  Ru17  1  0.217607  0.928542  0.500000  1
  Ru  Ru18  1  0.499532  0.000460  0.500000  1
  W  W19  1  0.006706  0.003354  0.000000  1
