# generated using pymatgen
data_Nd20(IrPt3)3
_symmetry_space_group_name_H-M   'P 1'
_cell_length_a   11.38080300
_cell_length_b   11.38080300
_cell_length_c   6.70027100
_cell_angle_alpha   90.00000000
_cell_angle_beta   90.00000000
_cell_angle_gamma   90.00000000
_symmetry_Int_Tables_number   1
_chemical_formula_structural   Nd20(IrPt3)3
_chemical_formula_sum   'Nd20 Ir3 Pt9'
_cell_volume   867.83703604
_cell_formula_units_Z   1
loop_
 _symmetry_equiv_pos_site_id
 _symmetry_equiv_pos_as_xyz
  1  'x, y, z'
loop_
 _atom_site_type_symbol
 _atom_site_label
 _atom_site_symmetry_multiplicity
 _atom_site_fract_x
 _atom_site_fract_y
 _atom_site_fract_z
 _atom_site_occupancy
  Nd  Nd0  1  0.090152  0.295905  0.120479  1
  Nd  Nd1  1  0.795905  0.409848  0.120479  1
  Nd  Nd2  1  0.204095  0.590152  0.120479  1
  Nd  Nd3  1  0.909848  0.704095  0.120479  1
  Nd  Nd4  1  0.409868  0.796443  0.376421  1
  Nd  Nd5  1  0.590132  0.203557  0.376421  1
  Nd  Nd6  1  0.296443  0.090132  0.376421  1
  Nd  Nd7  1  0.703557  0.909868  0.376421  1
  Nd  Nd8  1  0.410209  0.203331  0.876705  1
  Nd  Nd9  1  0.703331  0.089791  0.876705  1
  Nd  Nd10  1  0.296669  0.910209  0.876705  1
  Nd  Nd11  1  0.589791  0.796669  0.876705  1
  Nd  Nd12  1  0.090116  0.704302  0.626826  1
  Nd  Nd13  1  0.909884  0.295698  0.626826  1
  Nd  Nd14  1  0.204302  0.409884  0.626826  1
  Nd  Nd15  1  0.795698  0.590116  0.626826  1
  Nd  Nd16  1  0.000000  0.000000  0.999693  1
  Nd  Nd17  1  0.500000  0.500000  0.999693  1
  Nd  Nd18  1  0.500000  0.500000  0.499698  1
  Nd  Nd19  1  0.000000  0.000000  0.499698  1
  Ir  Ir20  1  0.500000  0.000000  0.119802  1
  Ir  Ir21  1  0.500000  0.000000  0.618792  1
  Ir  Ir22  1  0.000000  0.500000  0.880901  1
  Pt  Pt23  1  0.152251  0.846000  0.249800  1
  Pt  Pt24  1  0.346000  0.347749  0.249800  1
  Pt  Pt25  1  0.654000  0.652251  0.249800  1
  Pt  Pt26  1  0.847749  0.154000  0.249800  1
  Pt  Pt27  1  0.346970  0.652962  0.749886  1
  Pt  Pt28  1  0.152962  0.153030  0.749886  1
  Pt  Pt29  1  0.847038  0.846970  0.749886  1
  Pt  Pt30  1  0.653030  0.347038  0.749886  1
  Pt  Pt31  1  0.000000  0.500000  0.381255  1
