# generated using pymatgen
data_Tb15Lu(AgRh)4
_symmetry_space_group_name_H-M   'P 1'
_cell_length_a   9.55726866
_cell_length_b   9.55726902
_cell_length_c   9.52056300
_cell_angle_alpha   60.12696964
_cell_angle_beta   60.12696841
_cell_angle_gamma   60.14367044
_symmetry_Int_Tables_number   1
_chemical_formula_structural   Tb15Lu(AgRh)4
_chemical_formula_sum   'Tb15 Lu1 Ag4 Rh4'
_cell_volume   616.76140424
_cell_formula_units_Z   1
loop_
 _symmetry_equiv_pos_site_id
 _symmetry_equiv_pos_as_xyz
  1  'x, y, z'
loop_
 _atom_site_type_symbol
 _atom_site_label
 _atom_site_symmetry_multiplicity
 _atom_site_fract_x
 _atom_site_fract_y
 _atom_site_fract_z
 _atom_site_occupancy
  Tb  Tb0  1  0.812769  0.186812  0.813250  1
  Tb  Tb1  1  0.187943  0.187943  0.812057  1
  Tb  Tb2  1  0.647141  0.058688  0.647085  1
  Tb  Tb3  1  0.064724  0.064724  0.435276  1
  Tb  Tb4  1  0.435842  0.435842  0.064158  1
  Tb  Tb5  1  0.647281  0.647281  0.646230  1
  Tb  Tb6  1  0.812769  0.186812  0.187169  1
  Tb  Tb7  1  0.186812  0.812769  0.813250  1
  Tb  Tb8  1  0.058688  0.647141  0.647085  1
  Tb  Tb9  1  0.436474  0.063529  0.064725  1
  Tb  Tb10  1  0.436474  0.063529  0.435272  1
  Tb  Tb11  1  0.063529  0.436474  0.064725  1
  Tb  Tb12  1  0.647281  0.647281  0.059207  1
  Tb  Tb13  1  0.186812  0.812769  0.187169  1
  Tb  Tb14  1  0.063529  0.436474  0.435272  1
  Lu  Lu15  1  0.813345  0.813345  0.186655  1
  Ag  Ag16  1  0.417709  0.417709  0.417941  1
  Ag  Ag17  1  0.417709  0.417709  0.746641  1
  Ag  Ag18  1  0.418176  0.746243  0.417790  1
  Ag  Ag19  1  0.746243  0.418176  0.417790  1
  Rh  Rh20  1  0.855823  0.430866  0.856655  1
  Rh  Rh21  1  0.856030  0.856030  0.859644  1
  Rh  Rh22  1  0.856030  0.856030  0.428296  1
  Rh  Rh23  1  0.430866  0.855823  0.856655  1
