# generated using pymatgen
data_Sm8Si15Ni
_symmetry_space_group_name_H-M   'P 1'
_cell_length_a   8.12153900
_cell_length_b   8.12153867
_cell_length_c   8.26812600
_cell_angle_alpha   90.00000000
_cell_angle_beta   90.00000000
_cell_angle_gamma   119.99999727
_symmetry_Int_Tables_number   1
_chemical_formula_structural   Sm8Si15Ni
_chemical_formula_sum   'Sm8 Si15 Ni1'
_cell_volume   472.29612313
_cell_formula_units_Z   1
loop_
 _symmetry_equiv_pos_site_id
 _symmetry_equiv_pos_as_xyz
  1  'x, y, z'
loop_
 _atom_site_type_symbol
 _atom_site_label
 _atom_site_symmetry_multiplicity
 _atom_site_fract_x
 _atom_site_fract_y
 _atom_site_fract_z
 _atom_site_occupancy
  Sm  Sm0  1  0.000000  0.000000  0.749053  1
  Sm  Sm1  1  0.000000  0.000000  0.250974  1
  Sm  Sm2  1  0.500364  0.499636  0.746807  1
  Sm  Sm3  1  0.500364  0.000731  0.746807  1
  Sm  Sm4  1  0.999269  0.499636  0.746807  1
  Sm  Sm5  1  0.500753  0.499247  0.253183  1
  Sm  Sm6  1  0.998495  0.499247  0.253183  1
  Sm  Sm7  1  0.500753  0.001505  0.253183  1
  Si  Si8  1  0.666667  0.333333  0.999625  1
  Si  Si9  1  0.666667  0.333333  0.500791  1
  Si  Si10  1  0.333333  0.666667  0.499163  1
  Si  Si11  1  0.836161  0.163839  0.999843  1
  Si  Si12  1  0.836161  0.672321  0.999843  1
  Si  Si13  1  0.327679  0.163839  0.999843  1
  Si  Si14  1  0.833133  0.166867  0.500007  1
  Si  Si15  1  0.833133  0.666267  0.500007  1
  Si  Si16  1  0.333733  0.166867  0.500007  1
  Si  Si17  1  0.166209  0.833791  0.500028  1
  Si  Si18  1  0.667583  0.833791  0.500028  1
  Si  Si19  1  0.166209  0.332417  0.500028  1
  Si  Si20  1  0.174312  0.825688  0.000176  1
  Si  Si21  1  0.651376  0.825688  0.000176  1
  Si  Si22  1  0.174312  0.348624  0.000176  1
  Ni  Ni23  1  0.333333  0.666667  0.000260  1
