# generated using pymatgen
data_CaHo3Al18OsPd5
_symmetry_space_group_name_H-M   'P 1'
_cell_length_a   7.63495458
_cell_length_b   7.63055005
_cell_length_c   9.48057068
_cell_angle_alpha   90.06418257
_cell_angle_beta   90.09236650
_cell_angle_gamma   119.66182497
_symmetry_Int_Tables_number   1
_chemical_formula_structural   CaHo3Al18OsPd5
_chemical_formula_sum   'Ca1 Ho3 Al18 Os1 Pd5'
_cell_volume   479.94963339
_cell_formula_units_Z   1
loop_
 _symmetry_equiv_pos_site_id
 _symmetry_equiv_pos_as_xyz
  1  'x, y, z'
loop_
 _atom_site_type_symbol
 _atom_site_label
 _atom_site_symmetry_multiplicity
 _atom_site_fract_x
 _atom_site_fract_y
 _atom_site_fract_z
 _atom_site_occupancy
  Ca  Ca0  1  0.994824  0.670194  0.248825  1
  Ho  Ho1  1  0.004839  0.330919  0.750924  1
  Ho  Ho2  1  0.670165  0.996184  0.248830  1
  Ho  Ho3  1  0.329945  0.003870  0.751266  1
  Al  Al4  1  0.128931  0.132898  0.249121  1
  Al  Al5  1  0.870251  0.871834  0.750776  1
  Al  Al6  1  0.995733  0.334839  0.074878  1
  Al  Al7  1  0.995130  0.659469  0.925241  1
  Al  Al8  1  0.998888  0.665971  0.578204  1
  Al  Al9  1  0.333908  0.000774  0.422381  1
  Al  Al10  1  0.000709  0.334623  0.423829  1
  Al  Al11  1  0.665271  0.999630  0.577610  1
  Al  Al12  1  0.665927  0.003180  0.924040  1
  Al  Al13  1  0.339739  0.003935  0.074800  1
  Al  Al14  1  0.333439  0.333816  0.560351  1
  Al  Al15  1  0.665074  0.666233  0.442061  1
  Al  Al16  1  0.668241  0.662077  0.052329  1
  Al  Al17  1  0.336736  0.331451  0.945894  1
  Al  Al18  1  0.341504  0.547831  0.249051  1
  Al  Al19  1  0.660477  0.452065  0.753219  1
  Al  Al20  1  0.546796  0.337367  0.246083  1
  Al  Al21  1  0.454403  0.662433  0.750977  1
  Os  Os22  1  0.670740  0.325664  0.998650  1
  Pd  Pd23  1  0.328389  0.671670  0.998980  1
  Pd  Pd24  1  0.327897  0.672167  0.500929  1
  Pd  Pd25  1  0.671073  0.327458  0.500882  1
  Pd  Pd26  1  0.000890  0.000603  0.999110  1
  Pd  Pd27  1  0.000085  0.000849  0.500760  1
