# generated using pymatgen
data_K4Re2NCl10
_symmetry_space_group_name_H-M   'P 1'
_cell_length_a   7.12970145
_cell_length_b   7.16238950
_cell_length_c   10.36243776
_cell_angle_alpha   110.11573318
_cell_angle_beta   110.01812521
_cell_angle_gamma   90.29500001
_symmetry_Int_Tables_number   1
_chemical_formula_structural   K4Re2NCl10
_chemical_formula_sum   'K4 Re2 N1 Cl10'
_cell_volume   462.31613110
_cell_formula_units_Z   1
loop_
 _symmetry_equiv_pos_site_id
 _symmetry_equiv_pos_as_xyz
  1  'x, y, z'
loop_
 _atom_site_type_symbol
 _atom_site_label
 _atom_site_symmetry_multiplicity
 _atom_site_fract_x
 _atom_site_fract_y
 _atom_site_fract_z
 _atom_site_occupancy
  K  K0  1  0.500000  0.000000  0.000000  1
  K  K1  1  0.000000  0.500000  0.000000  1
  K  K2  1  0.749934  0.249886  0.499831  1
  K  K3  1  0.250066  0.750114  0.500169  1
  Re  Re4  1  0.100696  0.100699  0.201446  1
  Re  Re5  1  0.899304  0.899301  0.798555  1
  N  N6  1  0.000000  0.000000  0.000000  1
  Cl  Cl7  1  0.347619  0.347296  0.221211  1
  Cl  Cl8  1  0.874047  0.346797  0.221242  1
  Cl  Cl9  1  0.347160  0.874396  0.221241  1
  Cl  Cl10  1  0.873466  0.873797  0.221133  1
  Cl  Cl11  1  0.238460  0.238448  0.477014  1
  Cl  Cl12  1  0.761541  0.761553  0.522986  1
  Cl  Cl13  1  0.126534  0.126203  0.778867  1
  Cl  Cl14  1  0.652840  0.125604  0.778759  1
  Cl  Cl15  1  0.125953  0.653203  0.778758  1
  Cl  Cl16  1  0.652381  0.652704  0.778789  1
