# generated using pymatgen
data_Nd4MgMn2NiO12
_symmetry_space_group_name_H-M   'P 1'
_cell_length_a   5.46453077
_cell_length_b   5.58211964
_cell_length_c   7.75524929
_cell_angle_alpha   90.10965149
_cell_angle_beta   90.07819307
_cell_angle_gamma   89.97069097
_symmetry_Int_Tables_number   1
_chemical_formula_structural   Nd4MgMn2NiO12
_chemical_formula_sum   'Nd4 Mg1 Mn2 Ni1 O12'
_cell_volume   236.56283844
_cell_formula_units_Z   1
loop_
 _symmetry_equiv_pos_site_id
 _symmetry_equiv_pos_as_xyz
  1  'x, y, z'
loop_
 _atom_site_type_symbol
 _atom_site_label
 _atom_site_symmetry_multiplicity
 _atom_site_fract_x
 _atom_site_fract_y
 _atom_site_fract_z
 _atom_site_occupancy
  Nd  Nd0  1  0.986414  0.049545  0.250178  1
  Nd  Nd1  1  0.510540  0.550809  0.251070  1
  Nd  Nd2  1  0.489459  0.449190  0.748931  1
  Nd  Nd3  1  0.013586  0.950454  0.749822  1
  Mg  Mg4  1  0.000000  0.499999  0.000000  1
  Mn  Mn5  1  0.500001  0.000000  0.000000  1
  Mn  Mn6  1  0.000000  0.499999  0.500000  1
  Ni  Ni7  1  0.500001  0.000000  0.500000  1
  O  O8  1  0.780327  0.798790  0.044653  1
  O  O9  1  0.699107  0.281239  0.046841  1
  O  O10  1  0.413020  0.977274  0.241672  1
  O  O11  1  0.084374  0.477355  0.259314  1
  O  O12  1  0.800286  0.782302  0.452859  1
  O  O13  1  0.717570  0.298642  0.455115  1
  O  O14  1  0.282429  0.701356  0.544884  1
  O  O15  1  0.199714  0.217697  0.547141  1
  O  O16  1  0.915625  0.522644  0.740687  1
  O  O17  1  0.586981  0.022726  0.758328  1
  O  O18  1  0.300894  0.718762  0.953158  1
  O  O19  1  0.219673  0.201211  0.955347  1
