# generated using pymatgen
data_Zr3Sc(AlTc3)2
_symmetry_space_group_name_H-M   'P 1'
_cell_length_a   5.25191100
_cell_length_b   5.25191232
_cell_length_c   8.64273300
_cell_angle_alpha   90.00000000
_cell_angle_beta   90.00000000
_cell_angle_gamma   120.00001060
_symmetry_Int_Tables_number   1
_chemical_formula_structural   Zr3Sc(AlTc3)2
_chemical_formula_sum   'Zr3 Sc1 Al2 Tc6'
_cell_volume   206.45076976
_cell_formula_units_Z   1
loop_
 _symmetry_equiv_pos_site_id
 _symmetry_equiv_pos_as_xyz
  1  'x, y, z'
loop_
 _atom_site_type_symbol
 _atom_site_label
 _atom_site_symmetry_multiplicity
 _atom_site_fract_x
 _atom_site_fract_y
 _atom_site_fract_z
 _atom_site_occupancy
  Zr  Zr0  1  0.333333  0.666667  0.431767  1
  Zr  Zr1  1  0.666667  0.333333  0.565961  1
  Zr  Zr2  1  0.666667  0.333333  0.935809  1
  Sc  Sc3  1  0.333333  0.666667  0.065282  1
  Al  Al4  1  0.000000  0.000000  0.500409  1
  Al  Al5  1  0.000000  0.000000  0.000527  1
  Tc  Tc6  1  0.829056  0.170944  0.250348  1
  Tc  Tc7  1  0.829056  0.658113  0.250348  1
  Tc  Tc8  1  0.341887  0.170944  0.250348  1
  Tc  Tc9  1  0.171238  0.828762  0.749734  1
  Tc  Tc10  1  0.171238  0.342474  0.749734  1
  Tc  Tc11  1  0.657526  0.828762  0.749734  1
