# generated using pymatgen
data_TbDy3CdNi
_symmetry_space_group_name_H-M   'P 1'
_cell_length_a   9.57511266
_cell_length_b   9.57511190
_cell_length_c   9.57511200
_cell_angle_alpha   59.99999966
_cell_angle_beta   60.00000229
_cell_angle_gamma   59.99999890
_symmetry_Int_Tables_number   1
_chemical_formula_structural   TbDy3CdNi
_chemical_formula_sum   'Tb4 Dy12 Cd4 Ni4'
_cell_volume   620.74984293
_cell_formula_units_Z   4
loop_
 _symmetry_equiv_pos_site_id
 _symmetry_equiv_pos_as_xyz
  1  'x, y, z'
loop_
 _atom_site_type_symbol
 _atom_site_label
 _atom_site_symmetry_multiplicity
 _atom_site_fract_x
 _atom_site_fract_y
 _atom_site_fract_z
 _atom_site_occupancy
  Tb  Tb0  1  0.598838  0.598838  0.598838  1
  Tb  Tb1  1  0.598838  0.598838  0.203488  1
  Tb  Tb2  1  0.598838  0.203488  0.598838  1
  Tb  Tb3  1  0.203488  0.598838  0.598838  1
  Dy  Dy4  1  0.061615  0.438385  0.438385  1
  Dy  Dy5  1  0.438385  0.061615  0.061615  1
  Dy  Dy6  1  0.438385  0.061615  0.438385  1
  Dy  Dy7  1  0.061615  0.438385  0.061615  1
  Dy  Dy8  1  0.438385  0.438385  0.061615  1
  Dy  Dy9  1  0.061615  0.061615  0.438385  1
  Dy  Dy10  1  0.185937  0.814063  0.814063  1
  Dy  Dy11  1  0.814063  0.185937  0.185937  1
  Dy  Dy12  1  0.814063  0.185937  0.814063  1
  Dy  Dy13  1  0.185937  0.814063  0.185937  1
  Dy  Dy14  1  0.814063  0.814063  0.185937  1
  Dy  Dy15  1  0.185937  0.185937  0.814063  1
  Cd  Cd16  1  0.831292  0.831292  0.831292  1
  Cd  Cd17  1  0.831292  0.831292  0.506125  1
  Cd  Cd18  1  0.831292  0.506125  0.831292  1
  Cd  Cd19  1  0.506125  0.831292  0.831292  1
  Ni  Ni20  1  0.392296  0.392296  0.392296  1
  Ni  Ni21  1  0.392296  0.392296  0.823111  1
  Ni  Ni22  1  0.392296  0.823111  0.392296  1
  Ni  Ni23  1  0.823111  0.392296  0.392296  1
