# generated using pymatgen
data_Pr8Er2Si5Sn
_symmetry_space_group_name_H-M   'P 1'
_cell_length_a   7.71810683
_cell_length_b   7.71810811
_cell_length_c   9.20133400
_cell_angle_alpha   114.79681947
_cell_angle_beta   114.79681342
_cell_angle_gamma   90.00000003
_symmetry_Int_Tables_number   1
_chemical_formula_structural   Pr8Er2Si5Sn
_chemical_formula_sum   'Pr8 Er2 Si5 Sn1'
_cell_volume   441.29445250
_cell_formula_units_Z   1
loop_
 _symmetry_equiv_pos_site_id
 _symmetry_equiv_pos_as_xyz
  1  'x, y, z'
loop_
 _atom_site_type_symbol
 _atom_site_label
 _atom_site_symmetry_multiplicity
 _atom_site_fract_x
 _atom_site_fract_y
 _atom_site_fract_z
 _atom_site_occupancy
  Pr  Pr0  1  0.973530  0.827142  0.281841  1
  Pr  Pr1  1  0.308311  0.454699  0.281841  1
  Pr  Pr2  1  0.827142  0.308311  0.281841  1
  Pr  Pr3  1  0.454699  0.973530  0.281841  1
  Pr  Pr4  1  0.045301  0.191689  0.718159  1
  Pr  Pr5  1  0.672858  0.526470  0.718159  1
  Pr  Pr6  1  0.191689  0.672858  0.718159  1
  Pr  Pr7  1  0.526470  0.045301  0.718159  1
  Er  Er8  1  0.512553  0.512553  0.025108  1
  Er  Er9  1  0.987447  0.987447  0.974892  1
  Si  Si10  1  0.250000  0.250000  0.500000  1
  Si  Si11  1  0.618996  0.881004  0.000000  1
  Si  Si12  1  0.381004  0.118996  0.000000  1
  Si  Si13  1  0.881004  0.381004  0.000000  1
  Si  Si14  1  0.118996  0.618996  0.000000  1
  Sn  Sn15  1  0.750000  0.750000  0.500000  1
