# generated using pymatgen
data_Zr6Ti6Mn(Al5Ir3)2
_symmetry_space_group_name_H-M   'P 1'
_cell_length_a   8.84275152
_cell_length_b   8.79189917
_cell_length_c   8.79189946
_cell_angle_alpha   59.62233963
_cell_angle_beta   59.80847790
_cell_angle_gamma   59.80847640
_symmetry_Int_Tables_number   1
_chemical_formula_structural   Zr6Ti6Mn(Al5Ir3)2
_chemical_formula_sum   'Zr6 Ti6 Mn1 Al10 Ir6'
_cell_volume   480.53696985
_cell_formula_units_Z   1
loop_
 _symmetry_equiv_pos_site_id
 _symmetry_equiv_pos_as_xyz
  1  'x, y, z'
loop_
 _atom_site_type_symbol
 _atom_site_label
 _atom_site_symmetry_multiplicity
 _atom_site_fract_x
 _atom_site_fract_y
 _atom_site_fract_z
 _atom_site_occupancy
  Zr  Zr0  1  0.687530  0.694901  0.310634  1
  Zr  Zr1  1  0.306935  0.694901  0.310634  1
  Zr  Zr2  1  0.695526  0.304474  0.304474  1
  Zr  Zr3  1  0.306935  0.310634  0.694901  1
  Zr  Zr4  1  0.687530  0.310634  0.694901  1
  Zr  Zr5  1  0.311658  0.688342  0.688342  1
  Ti  Ti6  1  0.881201  0.887588  0.350012  1
  Ti  Ti7  1  0.881201  0.350012  0.887588  1
  Ti  Ti8  1  0.357663  0.883273  0.883273  1
  Ti  Ti9  1  0.875793  0.883273  0.883273  1
  Ti  Ti10  1  0.118954  0.117717  0.644374  1
  Ti  Ti11  1  0.118954  0.644374  0.117717  1
  Mn  Mn12  1  0.008307  0.991693  0.991693  1
  Al  Al13  1  0.648701  0.117132  0.117132  1
  Al  Al14  1  0.117034  0.117132  0.117132  1
  Al  Al15  1  0.664628  0.661721  0.009023  1
  Al  Al16  1  0.664628  0.009023  0.661721  1
  Al  Al17  1  0.007186  0.663308  0.663308  1
  Al  Al18  1  0.666197  0.663308  0.663308  1
  Al  Al19  1  0.334640  0.334209  0.996510  1
  Al  Al20  1  0.334640  0.996510  0.334209  1
  Al  Al21  1  0.992064  0.335503  0.335503  1
  Al  Al22  1  0.336931  0.335503  0.335503  1
  Ir  Ir23  1  0.999456  0.999423  0.502974  1
  Ir  Ir24  1  0.498145  0.999423  0.502974  1
  Ir  Ir25  1  0.999736  0.500264  0.500264  1
  Ir  Ir26  1  0.498145  0.502974  0.999423  1
  Ir  Ir27  1  0.999456  0.502974  0.999423  1
  Ir  Ir28  1  0.500223  0.999777  0.999777  1
