# generated using pymatgen
data_Nd5Th3(Sc3Sn4)4
_symmetry_space_group_name_H-M   'P 1'
_cell_length_a   7.88392477
_cell_length_b   8.00341474
_cell_length_c   15.03333055
_cell_angle_alpha   90.04670286
_cell_angle_beta   89.95226631
_cell_angle_gamma   89.98371546
_symmetry_Int_Tables_number   1
_chemical_formula_structural   Nd5Th3(Sc3Sn4)4
_chemical_formula_sum   'Nd5 Th3 Sc12 Sn16'
_cell_volume   948.57721472
_cell_formula_units_Z   1
loop_
 _symmetry_equiv_pos_site_id
 _symmetry_equiv_pos_as_xyz
  1  'x, y, z'
loop_
 _atom_site_type_symbol
 _atom_site_label
 _atom_site_symmetry_multiplicity
 _atom_site_fract_x
 _atom_site_fract_y
 _atom_site_fract_z
 _atom_site_occupancy
  Nd  Nd0  1  0.515630  0.324935  0.904910  1
  Nd  Nd1  1  0.015820  0.174560  0.595064  1
  Nd  Nd2  1  0.484420  0.674660  0.405015  1
  Nd  Nd3  1  0.984723  0.825322  0.095291  1
  Nd  Nd4  1  0.485085  0.674881  0.095006  1
  Th  Th5  1  0.985305  0.825035  0.404785  1
  Th  Th6  1  0.514773  0.325314  0.594891  1
  Th  Th7  1  0.014678  0.174607  0.905371  1
  Sc  Sc8  1  0.352289  0.839622  0.873858  1
  Sc  Sc9  1  0.852400  0.660647  0.625956  1
  Sc  Sc10  1  0.647294  0.160682  0.373961  1
  Sc  Sc11  1  0.147025  0.339214  0.126086  1
  Sc  Sc12  1  0.647570  0.160382  0.126215  1
  Sc  Sc13  1  0.147711  0.339749  0.373737  1
  Sc  Sc14  1  0.352520  0.839596  0.626069  1
  Sc  Sc15  1  0.852576  0.660384  0.873796  1
  Sc  Sc16  1  0.183722  0.502521  0.750234  1
  Sc  Sc17  1  0.683497  0.997649  0.749839  1
  Sc  Sc18  1  0.816759  0.497809  0.250272  1
  Sc  Sc19  1  0.316310  0.003110  0.249911  1
  Sn  Sn20  1  0.311867  0.045667  0.043759  1
  Sn  Sn21  1  0.811781  0.454886  0.456114  1
  Sn  Sn22  1  0.688530  0.954954  0.543991  1
  Sn  Sn23  1  0.187679  0.544765  0.955664  1
  Sn  Sn24  1  0.687811  0.954517  0.956013  1
  Sn  Sn25  1  0.187733  0.545899  0.543830  1
  Sn  Sn26  1  0.312129  0.045843  0.456354  1
  Sn  Sn27  1  0.813002  0.454015  0.043719  1
  Sn  Sn28  1  0.546934  0.632820  0.749520  1
  Sn  Sn29  1  0.047098  0.867584  0.750507  1
  Sn  Sn30  1  0.452766  0.367109  0.250005  1
  Sn  Sn31  1  0.952558  0.132469  0.250650  1
  Sn  Sn32  1  0.322576  0.141968  0.750363  1
  Sn  Sn33  1  0.822528  0.357945  0.749623  1
  Sn  Sn34  1  0.676925  0.857395  0.250043  1
  Sn  Sn35  1  0.177976  0.641484  0.249577  1
