# generated using pymatgen
data_ScTaFe12P7
_symmetry_space_group_name_H-M   'P 1'
_cell_length_a   8.83417800
_cell_length_b   8.83417751
_cell_length_c   3.56443500
_cell_angle_alpha   90.00000000
_cell_angle_beta   90.00000000
_cell_angle_gamma   120.00000185
_symmetry_Int_Tables_number   1
_chemical_formula_structural   ScTaFe12P7
_chemical_formula_sum   'Sc1 Ta1 Fe12 P7'
_cell_volume   240.90931350
_cell_formula_units_Z   1
loop_
 _symmetry_equiv_pos_site_id
 _symmetry_equiv_pos_as_xyz
  1  'x, y, z'
loop_
 _atom_site_type_symbol
 _atom_site_label
 _atom_site_symmetry_multiplicity
 _atom_site_fract_x
 _atom_site_fract_y
 _atom_site_fract_z
 _atom_site_occupancy
  Sc  Sc0  1  0.000000  0.000000  0.500000  1
  Ta  Ta1  1  0.333333  0.666667  0.000000  1
  Fe  Fe2  1  0.724699  0.959798  0.000000  1
  Fe  Fe3  1  0.235101  0.275301  0.000000  1
  Fe  Fe4  1  0.040202  0.764899  0.000000  1
  Fe  Fe5  1  0.944393  0.454067  0.000000  1
  Fe  Fe6  1  0.509675  0.055607  0.000000  1
  Fe  Fe7  1  0.545933  0.490325  0.000000  1
  Fe  Fe8  1  0.108490  0.394116  0.500000  1
  Fe  Fe9  1  0.285627  0.891510  0.500000  1
  Fe  Fe10  1  0.605884  0.714373  0.500000  1
  Fe  Fe11  1  0.767035  0.211993  0.500000  1
  Fe  Fe12  1  0.444958  0.232965  0.500000  1
  Fe  Fe13  1  0.788007  0.555042  0.500000  1
  P  P14  1  0.962521  0.214910  0.000000  1
  P  P15  1  0.252389  0.037479  0.000000  1
  P  P16  1  0.785090  0.747611  0.000000  1
  P  P17  1  0.072726  0.624447  0.500000  1
  P  P18  1  0.551721  0.927274  0.500000  1
  P  P19  1  0.375553  0.448279  0.500000  1
  P  P20  1  0.666667  0.333333  0.000000  1
