# generated using pymatgen
data_Ac4LuMgSi4
_symmetry_space_group_name_H-M   'P 1'
_cell_length_a   7.76624100
_cell_length_b   7.76624100
_cell_length_c   4.68925000
_cell_angle_alpha   90.00000000
_cell_angle_beta   90.00000000
_cell_angle_gamma   90.00000000
_symmetry_Int_Tables_number   1
_chemical_formula_structural   Ac4LuMgSi4
_chemical_formula_sum   'Ac4 Lu1 Mg1 Si4'
_cell_volume   282.82976570
_cell_formula_units_Z   1
loop_
 _symmetry_equiv_pos_site_id
 _symmetry_equiv_pos_as_xyz
  1  'x, y, z'
loop_
 _atom_site_type_symbol
 _atom_site_label
 _atom_site_symmetry_multiplicity
 _atom_site_fract_x
 _atom_site_fract_y
 _atom_site_fract_z
 _atom_site_occupancy
  Ac  Ac0  1  0.674196  0.187274  0.500000  1
  Ac  Ac1  1  0.325804  0.812726  0.500000  1
  Ac  Ac2  1  0.187274  0.325804  0.500000  1
  Ac  Ac3  1  0.812726  0.674196  0.500000  1
  Lu  Lu4  1  0.000000  0.000000  0.000000  1
  Mg  Mg5  1  0.500000  0.500000  0.000000  1
  Si  Si6  1  0.104482  0.619970  0.000000  1
  Si  Si7  1  0.895518  0.380030  0.000000  1
  Si  Si8  1  0.619970  0.895518  0.000000  1
  Si  Si9  1  0.380030  0.104482  0.000000  1
