# generated using pymatgen
data_Ac3(MgSb3)2
_symmetry_space_group_name_H-M   'P 1'
_cell_length_a   4.41365400
_cell_length_b   11.67026900
_cell_length_c   13.77245400
_cell_angle_alpha   90.00000000
_cell_angle_beta   90.00000000
_cell_angle_gamma   90.00000000
_symmetry_Int_Tables_number   1
_chemical_formula_structural   Ac3(MgSb3)2
_chemical_formula_sum   'Ac6 Mg4 Sb12'
_cell_volume   709.39885250
_cell_formula_units_Z   2
loop_
 _symmetry_equiv_pos_site_id
 _symmetry_equiv_pos_as_xyz
  1  'x, y, z'
loop_
 _atom_site_type_symbol
 _atom_site_label
 _atom_site_symmetry_multiplicity
 _atom_site_fract_x
 _atom_site_fract_y
 _atom_site_fract_z
 _atom_site_occupancy
  Ac  Ac0  1  0.750000  0.267670  0.750000  1
  Ac  Ac1  1  0.750000  0.275808  0.411937  1
  Ac  Ac2  1  0.250000  0.724192  0.911937  1
  Ac  Ac3  1  0.250000  0.724192  0.588063  1
  Ac  Ac4  1  0.250000  0.732330  0.250000  1
  Ac  Ac5  1  0.750000  0.275808  0.088063  1
  Mg  Mg6  1  0.250000  0.003258  0.095649  1
  Mg  Mg7  1  0.250000  0.003258  0.404351  1
  Mg  Mg8  1  0.750000  0.996742  0.595649  1
  Mg  Mg9  1  0.750000  0.996742  0.904351  1
  Sb  Sb10  1  0.750000  0.503729  0.250000  1
  Sb  Sb11  1  0.750000  0.494193  0.916349  1
  Sb  Sb12  1  0.750000  0.833459  0.750000  1
  Sb  Sb13  1  0.750000  0.842494  0.421345  1
  Sb  Sb14  1  0.250000  0.157506  0.921345  1
  Sb  Sb15  1  0.250000  0.157506  0.578655  1
  Sb  Sb16  1  0.250000  0.166541  0.250000  1
  Sb  Sb17  1  0.250000  0.505807  0.083651  1
  Sb  Sb18  1  0.250000  0.496271  0.750000  1
  Sb  Sb19  1  0.250000  0.505807  0.416349  1
  Sb  Sb20  1  0.750000  0.494193  0.583651  1
  Sb  Sb21  1  0.750000  0.842494  0.078655  1
