# generated using pymatgen
data_TbSc7(Si4Tc3)4
_symmetry_space_group_name_H-M   'P 1'
_cell_length_a   6.66826153
_cell_length_b   6.66206324
_cell_length_c   12.38892932
_cell_angle_alpha   89.87667917
_cell_angle_beta   90.29333422
_cell_angle_gamma   89.95045044
_symmetry_Int_Tables_number   1
_chemical_formula_structural   TbSc7(Si4Tc3)4
_chemical_formula_sum   'Tb1 Sc7 Si16 Tc12'
_cell_volume   550.36180507
_cell_formula_units_Z   1
loop_
 _symmetry_equiv_pos_site_id
 _symmetry_equiv_pos_as_xyz
  1  'x, y, z'
loop_
 _atom_site_type_symbol
 _atom_site_label
 _atom_site_symmetry_multiplicity
 _atom_site_fract_x
 _atom_site_fract_y
 _atom_site_fract_z
 _atom_site_occupancy
  Tb  Tb0  1  0.999671  0.662177  0.030349  1
  Sc  Sc1  1  0.343205  0.998150  0.469858  1
  Sc  Sc2  1  0.500668  0.842204  0.719182  1
  Sc  Sc3  1  0.496935  0.157358  0.221197  1
  Sc  Sc4  1  0.842005  0.500668  0.281020  1
  Sc  Sc5  1  0.156412  0.496357  0.780199  1
  Sc  Sc6  1  0.655794  0.002966  0.968608  1
  Sc  Sc7  1  0.998979  0.343012  0.529875  1
  Si  Si8  1  0.192843  0.125116  0.682565  1
  Si  Si9  1  0.382736  0.692451  0.932374  1
  Si  Si10  1  0.624142  0.307758  0.434827  1
  Si  Si11  1  0.688041  0.374989  0.065962  1
  Si  Si12  1  0.307335  0.625193  0.566030  1
  Si  Si13  1  0.802918  0.881594  0.188309  1
  Si  Si14  1  0.123470  0.191524  0.317177  1
  Si  Si15  1  0.876342  0.808724  0.812462  1
  Si  Si16  1  0.281800  0.976066  0.064633  1
  Si  Si17  1  0.528450  0.779628  0.316418  1
  Si  Si18  1  0.470082  0.216893  0.814237  1
  Si  Si19  1  0.783681  0.530818  0.682453  1
  Si  Si20  1  0.223144  0.468603  0.188589  1
  Si  Si21  1  0.716326  0.030914  0.566379  1
  Si  Si22  1  0.971799  0.270412  0.934600  1
  Si  Si23  1  0.030252  0.717252  0.434044  1
  Tc  Tc24  1  0.331553  0.327165  0.999568  1
  Tc  Tc25  1  0.171053  0.830634  0.253173  1
  Tc  Tc26  1  0.830082  0.167829  0.748929  1
  Tc  Tc27  1  0.669269  0.669922  0.499936  1
  Tc  Tc28  1  0.185444  0.976567  0.866763  1
  Tc  Tc29  1  0.518245  0.682026  0.121713  1
  Tc  Tc30  1  0.479175  0.323855  0.622007  1
  Tc  Tc31  1  0.676483  0.516516  0.873501  1
  Tc  Tc32  1  0.319851  0.475783  0.381523  1
  Tc  Tc33  1  0.823478  0.021631  0.375035  1
  Tc  Tc34  1  0.976584  0.181954  0.130984  1
  Tc  Tc35  1  0.021751  0.825293  0.625520  1
