# generated using pymatgen
data_Sc6Zn23Pd
_symmetry_space_group_name_H-M   'P 1'
_cell_length_a   8.83582579
_cell_length_b   8.83505965
_cell_length_c   8.83583123
_cell_angle_alpha   119.99588499
_cell_angle_beta   90.01217122
_cell_angle_gamma   119.99592366
_symmetry_Int_Tables_number   1
_chemical_formula_structural   Sc6Zn23Pd
_chemical_formula_sum   'Sc6 Zn23 Pd1'
_cell_volume   487.74932489
_cell_formula_units_Z   1
loop_
 _symmetry_equiv_pos_site_id
 _symmetry_equiv_pos_as_xyz
  1  'x, y, z'
loop_
 _atom_site_type_symbol
 _atom_site_label
 _atom_site_symmetry_multiplicity
 _atom_site_fract_x
 _atom_site_fract_y
 _atom_site_fract_z
 _atom_site_occupancy
  Sc  Sc0  1  0.279470  0.000006  0.279467  1
  Sc  Sc1  1  0.720411  0.999999  0.279587  1
  Sc  Sc2  1  0.279485  0.558970  0.279486  1
  Sc  Sc3  1  0.279589  0.000001  0.720413  1
  Sc  Sc4  1  0.720530  0.999994  0.720533  1
  Sc  Sc5  1  0.720515  0.441030  0.720514  1
  Zn  Zn6  1  0.499999  0.000000  0.000000  1
  Zn  Zn7  1  0.000000  0.499999  0.000000  1
  Zn  Zn8  1  0.499999  0.499999  0.000000  1
  Zn  Zn9  1  0.343195  0.686401  0.029635  1
  Zn  Zn10  1  0.370565  0.247053  0.123524  1
  Zn  Zn11  1  0.876472  0.247017  0.123540  1
  Zn  Zn12  1  0.876460  0.752987  0.123539  1
  Zn  Zn13  1  0.656772  0.313557  0.343239  1
  Zn  Zn14  1  0.029645  0.686410  0.343192  1
  Zn  Zn15  1  0.656754  0.686444  0.343224  1
  Zn  Zn16  1  0.123527  0.247050  0.370576  1
  Zn  Zn17  1  0.000000  0.000000  0.499999  1
  Zn  Zn18  1  0.000000  0.499999  0.499999  1
  Zn  Zn19  1  0.499999  0.499999  0.499999  1
  Zn  Zn20  1  0.500000  0.000000  0.500000  1
  Zn  Zn21  1  0.876473  0.752950  0.629424  1
  Zn  Zn22  1  0.343228  0.686443  0.656761  1
  Zn  Zn23  1  0.343246  0.313556  0.656776  1
  Zn  Zn24  1  0.970355  0.313590  0.656808  1
  Zn  Zn25  1  0.123540  0.247013  0.876461  1
  Zn  Zn26  1  0.123528  0.752983  0.876460  1
  Zn  Zn27  1  0.629435  0.752947  0.876476  1
  Zn  Zn28  1  0.656805  0.313599  0.970365  1
  Pd  Pd29  1  0.000000  0.000000  0.000000  1
