# generated using pymatgen
data_Ho5Lu5InSb5
_symmetry_space_group_name_H-M   'P 1'
_cell_length_a   8.85368400
_cell_length_b   8.86579010
_cell_length_c   6.30104300
_cell_angle_alpha   90.00000000
_cell_angle_beta   90.00000000
_cell_angle_gamma   119.95484041
_symmetry_Int_Tables_number   1
_chemical_formula_structural   Ho5Lu5InSb5
_chemical_formula_sum   'Ho5 Lu5 In1 Sb5'
_cell_volume   428.53074587
_cell_formula_units_Z   1
loop_
 _symmetry_equiv_pos_site_id
 _symmetry_equiv_pos_as_xyz
  1  'x, y, z'
loop_
 _atom_site_type_symbol
 _atom_site_label
 _atom_site_symmetry_multiplicity
 _atom_site_fract_x
 _atom_site_fract_y
 _atom_site_fract_z
 _atom_site_occupancy
  Ho  Ho0  1  0.753821  0.756834  0.250000  1
  Ho  Ho1  1  0.996987  0.243166  0.250000  1
  Ho  Ho2  1  0.004738  0.758500  0.750000  1
  Ho  Ho3  1  0.246238  0.241500  0.750000  1
  Ho  Ho4  1  0.242621  0.000000  0.250000  1
  Lu  Lu5  1  0.333722  0.669082  0.000368  1
  Lu  Lu6  1  0.664641  0.330918  0.499632  1
  Lu  Lu7  1  0.664641  0.330918  0.000368  1
  Lu  Lu8  1  0.333722  0.669082  0.499632  1
  Lu  Lu9  1  0.757218  0.000000  0.750000  1
  In  In10  1  0.398016  0.000000  0.750000  1
  Sb  Sb11  1  0.389823  0.391671  0.250000  1
  Sb  Sb12  1  0.998153  0.608329  0.250000  1
  Sb  Sb13  1  0.999450  0.389146  0.750000  1
  Sb  Sb14  1  0.610305  0.610854  0.750000  1
  Sb  Sb15  1  0.605906  0.000000  0.250000  1
