# generated using pymatgen
data_Sc22TcIr2Ru5
_symmetry_space_group_name_H-M   'P 1'
_cell_length_a   9.48882292
_cell_length_b   9.38710951
_cell_length_c   9.48882374
_cell_angle_alpha   60.35396557
_cell_angle_beta   60.20054456
_cell_angle_gamma   60.35396770
_symmetry_Int_Tables_number   1
_chemical_formula_structural   Sc22TcIr2Ru5
_chemical_formula_sum   'Sc22 Tc1 Ir2 Ru5'
_cell_volume   601.73523745
_cell_formula_units_Z   1
loop_
 _symmetry_equiv_pos_site_id
 _symmetry_equiv_pos_as_xyz
  1  'x, y, z'
loop_
 _atom_site_type_symbol
 _atom_site_label
 _atom_site_symmetry_multiplicity
 _atom_site_fract_x
 _atom_site_fract_y
 _atom_site_fract_z
 _atom_site_occupancy
  Sc  Sc0  1  0.805052  0.799921  0.194948  1
  Sc  Sc1  1  0.198465  0.801535  0.198465  1
  Sc  Sc2  1  0.805052  0.200079  0.194948  1
  Sc  Sc3  1  0.194948  0.200079  0.805052  1
  Sc  Sc4  1  0.801535  0.198465  0.801535  1
  Sc  Sc5  1  0.194948  0.799921  0.805052  1
  Sc  Sc6  1  0.617835  0.616858  0.148447  1
  Sc  Sc7  1  0.616225  0.149011  0.616225  1
  Sc  Sc8  1  0.148447  0.616858  0.617835  1
  Sc  Sc9  1  0.616225  0.618537  0.616225  1
  Sc  Sc10  1  0.382165  0.383142  0.851553  1
  Sc  Sc11  1  0.383775  0.850989  0.383775  1
  Sc  Sc12  1  0.851553  0.383142  0.382165  1
  Sc  Sc13  1  0.383775  0.381463  0.383775  1
  Sc  Sc14  1  0.845418  0.844355  0.465871  1
  Sc  Sc15  1  0.841082  0.470932  0.841082  1
  Sc  Sc16  1  0.465871  0.844355  0.845418  1
  Sc  Sc17  1  0.841082  0.846902  0.841082  1
  Sc  Sc18  1  0.154582  0.155645  0.534129  1
  Sc  Sc19  1  0.158918  0.529068  0.158918  1
  Sc  Sc20  1  0.534129  0.155645  0.154582  1
  Sc  Sc21  1  0.158918  0.153098  0.158918  1
  Tc  Tc22  1  0.000000  0.500000  0.000000  1
  Ir  Ir23  1  0.500000  0.500000  0.500000  1
  Ir  Ir24  1  0.500000  0.000000  0.500000  1
  Ru  Ru25  1  0.000000  0.000000  0.000000  1
  Ru  Ru26  1  0.000000  0.000000  0.500000  1
  Ru  Ru27  1  0.000000  0.500000  0.500000  1
  Ru  Ru28  1  0.500000  0.500000  0.000000  1
  Ru  Ru29  1  0.500000  0.000000  0.000000  1
