# generated using pymatgen
data_Er8Ta11TiSi15P
_symmetry_space_group_name_H-M   'P 1'
_cell_length_a   7.00619724
_cell_length_b   7.00720673
_cell_length_c   12.92499167
_cell_angle_alpha   89.89805766
_cell_angle_beta   89.96251326
_cell_angle_gamma   90.00804409
_symmetry_Int_Tables_number   1
_chemical_formula_structural   Er8Ta11TiSi15P
_chemical_formula_sum   'Er8 Ta11 Ti1 Si15 P1'
_cell_volume   634.53674557
_cell_formula_units_Z   1
loop_
 _symmetry_equiv_pos_site_id
 _symmetry_equiv_pos_as_xyz
  1  'x, y, z'
loop_
 _atom_site_type_symbol
 _atom_site_label
 _atom_site_symmetry_multiplicity
 _atom_site_fract_x
 _atom_site_fract_y
 _atom_site_fract_z
 _atom_site_occupancy
  Er  Er0  1  0.341452  0.001640  0.469046  1
  Er  Er1  1  0.495899  0.845141  0.718087  1
  Er  Er2  1  0.500602  0.158517  0.218610  1
  Er  Er3  1  0.841291  0.497646  0.281866  1
  Er  Er4  1  0.158348  0.497421  0.780542  1
  Er  Er5  1  0.659457  0.997370  0.968419  1
  Er  Er6  1  0.002687  0.340617  0.532828  1
  Er  Er7  1  0.998219  0.659778  0.031110  1
  Ta  Ta8  1  0.328794  0.329213  0.999296  1
  Ta  Ta9  1  0.170914  0.829093  0.250033  1
  Ta  Ta10  1  0.828896  0.172948  0.749286  1
  Ta  Ta11  1  0.670233  0.670118  0.499969  1
  Ta  Ta12  1  0.154439  0.008311  0.871102  1
  Ta  Ta13  1  0.492870  0.652653  0.124019  1
  Ta  Ta14  1  0.504633  0.344482  0.624868  1
  Ta  Ta15  1  0.653523  0.494705  0.876209  1
  Ta  Ta16  1  0.347562  0.505621  0.376418  1
  Ta  Ta17  1  0.846369  0.992753  0.374291  1
  Ta  Ta18  1  0.007049  0.152348  0.126312  1
  Ti  Ti19  1  0.996712  0.849116  0.627424  1
  Si  Si20  1  0.364678  0.704840  0.930273  1
  Si  Si21  1  0.634477  0.295175  0.432089  1
  Si  Si22  1  0.703828  0.365547  0.068866  1
  Si  Si23  1  0.295490  0.635008  0.569019  1
  Si  Si24  1  0.795278  0.865135  0.181152  1
  Si  Si25  1  0.134713  0.203905  0.319621  1
  Si  Si26  1  0.866139  0.796409  0.817438  1
  Si  Si27  1  0.295082  0.955229  0.063105  1
  Si  Si28  1  0.544279  0.795111  0.313988  1
  Si  Si29  1  0.459811  0.206304  0.816168  1
  Si  Si30  1  0.795188  0.547851  0.684500  1
  Si  Si31  1  0.204575  0.455025  0.186204  1
  Si  Si32  1  0.708189  0.042970  0.564331  1
  Si  Si33  1  0.954885  0.295245  0.936279  1
  Si  Si34  1  0.044403  0.705470  0.437479  1
  P  P35  1  0.199039  0.131289  0.679751  1
