# generated using pymatgen
data_Y4CrRuC4
_symmetry_space_group_name_H-M   'P 1'
_cell_length_a   5.06926500
_cell_length_b   6.48879821
_cell_length_c   9.83197450
_cell_angle_alpha   90.26689558
_cell_angle_beta   90.00000000
_cell_angle_gamma   90.00000000
_symmetry_Int_Tables_number   1
_chemical_formula_structural   Y4CrRuC4
_chemical_formula_sum   'Y8 Cr2 Ru2 C8'
_cell_volume   323.40393126
_cell_formula_units_Z   2
loop_
 _symmetry_equiv_pos_site_id
 _symmetry_equiv_pos_as_xyz
  1  'x, y, z'
loop_
 _atom_site_type_symbol
 _atom_site_label
 _atom_site_symmetry_multiplicity
 _atom_site_fract_x
 _atom_site_fract_y
 _atom_site_fract_z
 _atom_site_occupancy
  Y  Y0  1  0.250000  0.680485  0.558396  1
  Y  Y1  1  0.750000  0.319515  0.441604  1
  Y  Y2  1  0.750000  0.820120  0.054952  1
  Y  Y3  1  0.250000  0.179880  0.945048  1
  Y  Y4  1  0.250000  0.530433  0.216604  1
  Y  Y5  1  0.750000  0.469567  0.783396  1
  Y  Y6  1  0.750000  0.971907  0.715683  1
  Y  Y7  1  0.250000  0.028093  0.284317  1
  Cr  Cr8  1  0.250000  0.725821  0.861222  1
  Cr  Cr9  1  0.750000  0.274179  0.138778  1
  Ru  Ru10  1  0.750000  0.775363  0.361380  1
  Ru  Ru11  1  0.250000  0.224637  0.638620  1
  C  C12  1  0.250000  0.465221  0.764786  1
  C  C13  1  0.750000  0.534779  0.235214  1
  C  C14  1  0.750000  0.047445  0.254556  1
  C  C15  1  0.250000  0.952555  0.745444  1
  C  C16  1  0.250000  0.810983  0.038352  1
  C  C17  1  0.750000  0.189017  0.961648  1
  C  C18  1  0.750000  0.680301  0.545951  1
  C  C19  1  0.250000  0.319699  0.454049  1
