# generated using pymatgen
data_HfPa3Sn2Sb3
_symmetry_space_group_name_H-M   'P 1'
_cell_length_a   9.26841910
_cell_length_b   9.27473197
_cell_length_c   6.17982845
_cell_angle_alpha   90.01047690
_cell_angle_beta   89.95814427
_cell_angle_gamma   120.12309369
_symmetry_Int_Tables_number   1
_chemical_formula_structural   HfPa3Sn2Sb3
_chemical_formula_sum   'Hf2 Pa6 Sn4 Sb6'
_cell_volume   459.48774370
_cell_formula_units_Z   2
loop_
 _symmetry_equiv_pos_site_id
 _symmetry_equiv_pos_as_xyz
  1  'x, y, z'
loop_
 _atom_site_type_symbol
 _atom_site_label
 _atom_site_symmetry_multiplicity
 _atom_site_fract_x
 _atom_site_fract_y
 _atom_site_fract_z
 _atom_site_occupancy
  Hf  Hf0  1  0.000046  0.000240  0.000693  1
  Hf  Hf1  1  0.000024  0.000185  0.499238  1
  Pa  Pa2  1  0.615326  0.998140  0.250546  1
  Pa  Pa3  1  0.385638  0.998871  0.749293  1
  Pa  Pa4  1  0.998770  0.612833  0.250461  1
  Pa  Pa5  1  0.002372  0.387501  0.749791  1
  Pa  Pa6  1  0.385972  0.389539  0.250110  1
  Pa  Pa7  1  0.612610  0.613546  0.749677  1
  Sn  Sn8  1  0.274220  0.001135  0.249211  1
  Sn  Sn9  1  0.333207  0.667796  0.000410  1
  Sn  Sn10  1  0.665234  0.331993  0.000425  1
  Sn  Sn11  1  0.665287  0.331986  0.499572  1
  Sb  Sb12  1  0.728646  0.000962  0.750751  1
  Sb  Sb13  1  0.999152  0.271563  0.249357  1
  Sb  Sb14  1  0.999441  0.728045  0.750743  1
  Sb  Sb15  1  0.729165  0.727761  0.249443  1
  Sb  Sb16  1  0.271755  0.270185  0.750507  1
  Sb  Sb17  1  0.333136  0.667719  0.499772  1
