# generated using pymatgen
data_Gd2PdN2
_symmetry_space_group_name_H-M   'P 1'
_cell_length_a   3.50868604
_cell_length_b   3.50634908
_cell_length_c   6.88108401
_cell_angle_alpha   104.74278003
_cell_angle_beta   104.77070729
_cell_angle_gamma   90.00001360
_symmetry_Int_Tables_number   1
_chemical_formula_structural   Gd2PdN2
_chemical_formula_sum   'Gd2 Pd1 N2'
_cell_volume   78.97251068
_cell_formula_units_Z   1
loop_
 _symmetry_equiv_pos_site_id
 _symmetry_equiv_pos_as_xyz
  1  'x, y, z'
loop_
 _atom_site_type_symbol
 _atom_site_label
 _atom_site_symmetry_multiplicity
 _atom_site_fract_x
 _atom_site_fract_y
 _atom_site_fract_z
 _atom_site_occupancy
  Gd  Gd0  1  0.154598  0.155710  0.809195  1
  Gd  Gd1  1  0.845402  0.844290  0.190805  1
  Pd  Pd2  1  0.500000  0.500000  0.500000  1
  N  N3  1  0.665030  0.663094  0.830061  1
  N  N4  1  0.334970  0.336906  0.169939  1
