# generated using pymatgen
data_Ho2Si5Ir2Pt
_symmetry_space_group_name_H-M   'P 1'
_cell_length_a   8.15447979
_cell_length_b   8.14676418
_cell_length_c   8.14676364
_cell_angle_alpha   137.98598344
_cell_angle_beta   103.70304499
_cell_angle_gamma   91.13945344
_symmetry_Int_Tables_number   1
_chemical_formula_structural   Ho2Si5Ir2Pt
_chemical_formula_sum   'Ho4 Si10 Ir4 Pt2'
_cell_volume   335.57991637
_cell_formula_units_Z   2
loop_
 _symmetry_equiv_pos_site_id
 _symmetry_equiv_pos_as_xyz
  1  'x, y, z'
loop_
 _atom_site_type_symbol
 _atom_site_label
 _atom_site_symmetry_multiplicity
 _atom_site_fract_x
 _atom_site_fract_y
 _atom_site_fract_z
 _atom_site_occupancy
  Ho  Ho0  1  0.859972  0.629358  0.230615  1
  Ho  Ho1  1  0.140028  0.370642  0.769385  1
  Ho  Ho2  1  0.397378  0.130078  0.267300  1
  Ho  Ho3  1  0.602622  0.869922  0.732700  1
  Si  Si4  1  0.500000  0.757395  0.257395  1
  Si  Si5  1  0.500000  0.242605  0.742605  1
  Si  Si6  1  0.224186  0.974831  0.746942  1
  Si  Si7  1  0.775814  0.522756  0.750645  1
  Si  Si8  1  0.775814  0.025169  0.253058  1
  Si  Si9  1  0.224186  0.477244  0.249355  1
  Si  Si10  1  0.049799  0.893291  0.156508  1
  Si  Si11  1  0.950201  0.106709  0.843492  1
  Si  Si12  1  0.740176  0.393141  0.347035  1
  Si  Si13  1  0.259824  0.606859  0.652965  1
  Ir  Ir14  1  0.000000  0.752062  0.752062  1
  Ir  Ir15  1  0.000000  0.247938  0.247938  1
  Ir  Ir16  1  0.246860  0.861011  0.385850  1
  Ir  Ir17  1  0.753140  0.138989  0.614150  1
  Pt  Pt18  1  0.476052  0.361220  0.114832  1
  Pt  Pt19  1  0.523948  0.638780  0.885168  1
