# generated using pymatgen
data_CeTlAg4
_symmetry_space_group_name_H-M   'P 1'
_cell_length_a   5.71091434
_cell_length_b   5.71091424
_cell_length_c   5.71091600
_cell_angle_alpha   60.00000138
_cell_angle_beta   60.00000199
_cell_angle_gamma   60.00000072
_symmetry_Int_Tables_number   1
_chemical_formula_structural   CeTlAg4
_chemical_formula_sum   'Ce1 Tl1 Ag4'
_cell_volume   131.70494237
_cell_formula_units_Z   1
loop_
 _symmetry_equiv_pos_site_id
 _symmetry_equiv_pos_as_xyz
  1  'x, y, z'
loop_
 _atom_site_type_symbol
 _atom_site_label
 _atom_site_symmetry_multiplicity
 _atom_site_fract_x
 _atom_site_fract_y
 _atom_site_fract_z
 _atom_site_occupancy
  Ce  Ce0  1  0.000000  0.000000  0.000000  1
  Tl  Tl1  1  0.250000  0.250000  0.250000  1
  Ag  Ag2  1  0.624633  0.624633  0.126102  1
  Ag  Ag3  1  0.624633  0.126102  0.624633  1
  Ag  Ag4  1  0.126102  0.624633  0.624633  1
  Ag  Ag5  1  0.624633  0.624633  0.624633  1
