# generated using pymatgen
data_YHo2Be(PPd4)5
_symmetry_space_group_name_H-M   'P 1'
_cell_length_a   8.66553773
_cell_length_b   8.62992800
_cell_length_c   8.62992734
_cell_angle_alpha   60.26343086
_cell_angle_beta   59.86341113
_cell_angle_gamma   59.86340491
_symmetry_Int_Tables_number   1
_chemical_formula_structural   YHo2Be(PPd4)5
_chemical_formula_sum   'Y1 Ho2 Be1 P5 Pd20'
_cell_volume   456.29810538
_cell_formula_units_Z   1
loop_
 _symmetry_equiv_pos_site_id
 _symmetry_equiv_pos_as_xyz
  1  'x, y, z'
loop_
 _atom_site_type_symbol
 _atom_site_label
 _atom_site_symmetry_multiplicity
 _atom_site_fract_x
 _atom_site_fract_y
 _atom_site_fract_z
 _atom_site_occupancy
  Y  Y0  1  0.249668  0.250332  0.250332  1
  Ho  Ho1  1  0.749664  0.750336  0.750336  1
  Ho  Ho2  1  0.996288  0.003712  0.003712  1
  Be  Be3  1  0.733162  0.266838  0.266838  1
  P  P4  1  0.263213  0.736787  0.736787  1
  P  P5  1  0.265508  0.734473  0.264347  1
  P  P6  1  0.735672  0.264347  0.734473  1
  P  P7  1  0.265508  0.264347  0.734473  1
  P  P8  1  0.735672  0.734473  0.264347  1
  Pd  Pd9  1  0.386759  0.383006  0.383006  1
  Pd  Pd10  1  0.616312  0.615589  0.615589  1
  Pd  Pd11  1  0.384729  0.383943  0.846600  1
  Pd  Pd12  1  0.384729  0.846600  0.383943  1
  Pd  Pd13  1  0.617282  0.613531  0.151903  1
  Pd  Pd14  1  0.617282  0.151903  0.613531  1
  Pd  Pd15  1  0.847230  0.383006  0.383006  1
  Pd  Pd16  1  0.152508  0.615589  0.615589  1
  Pd  Pd17  1  0.343861  0.000824  0.000824  1
  Pd  Pd18  1  0.654492  0.000824  0.000824  1
  Pd  Pd19  1  0.999022  0.345674  0.656282  1
  Pd  Pd20  1  0.999022  0.656282  0.345674  1
  Pd  Pd21  1  0.996842  0.342594  0.003047  1
  Pd  Pd22  1  0.657517  0.003047  0.342594  1
  Pd  Pd23  1  0.000116  0.653421  0.999728  1
  Pd  Pd24  1  0.346735  0.999728  0.653421  1
  Pd  Pd25  1  0.996842  0.003047  0.342594  1
  Pd  Pd26  1  0.000116  0.999728  0.653421  1
  Pd  Pd27  1  0.657517  0.342594  0.003047  1
  Pd  Pd28  1  0.346735  0.653421  0.999728  1
