# generated using pymatgen
data_Hf8Co16Si7P5
_symmetry_space_group_name_H-M   'P 1'
_cell_length_a   12.18201663
_cell_length_b   12.17863597
_cell_length_c   3.64966300
_cell_angle_alpha   90.00000000
_cell_angle_beta   90.00000000
_cell_angle_gamma   119.90928973
_symmetry_Int_Tables_number   1
_chemical_formula_structural   Hf8Co16Si7P5
_chemical_formula_sum   'Hf8 Co16 Si7 P5'
_cell_volume   469.35070890
_cell_formula_units_Z   1
loop_
 _symmetry_equiv_pos_site_id
 _symmetry_equiv_pos_as_xyz
  1  'x, y, z'
loop_
 _atom_site_type_symbol
 _atom_site_label
 _atom_site_symmetry_multiplicity
 _atom_site_fract_x
 _atom_site_fract_y
 _atom_site_fract_z
 _atom_site_occupancy
  Hf  Hf0  1  0.818122  0.815009  0.500000  1
  Hf  Hf1  1  0.439726  0.440165  0.000000  1
  Hf  Hf2  1  0.997341  0.179693  0.500000  1
  Hf  Hf3  1  0.559045  0.999031  0.000000  1
  Hf  Hf4  1  0.333915  0.667436  0.000000  1
  Hf  Hf5  1  0.663773  0.333306  0.000000  1
  Hf  Hf6  1  0.002902  0.560065  0.000000  1
  Hf  Hf7  1  0.181485  0.001299  0.500000  1
  Co  Co8  1  0.621625  0.818518  0.000000  1
  Co  Co9  1  0.374281  0.197810  0.000000  1
  Co  Co10  1  0.003415  0.726862  0.500000  1
  Co  Co11  1  0.279223  0.280442  0.500000  1
  Co  Co12  1  0.882164  0.359391  0.500000  1
  Co  Co13  1  0.718235  0.995533  0.500000  1
  Co  Co14  1  0.825254  0.630237  0.000000  1
  Co  Co15  1  0.177511  0.804905  0.000000  1
  Co  Co16  1  0.356435  0.871804  0.500000  1
  Co  Co17  1  0.130958  0.488154  0.500000  1
  Co  Co18  1  0.639935  0.517027  0.500000  1
  Co  Co19  1  0.999908  0.994566  0.000000  1
  Co  Co20  1  0.514088  0.642582  0.500000  1
  Co  Co21  1  0.479208  0.124943  0.500000  1
  Co  Co22  1  0.197509  0.377035  0.000000  1
  Co  Co23  1  0.805547  0.176330  0.000000  1
  Si  Si24  1  0.000507  0.347554  0.000000  1
  Si  Si25  1  0.824069  0.515959  0.500000  1
  Si  Si26  1  0.694491  0.177759  0.500000  1
  Si  Si27  1  0.175225  0.177195  0.000000  1
  Si  Si28  1  0.650986  0.650779  0.000000  1
  Si  Si29  1  0.821545  0.996945  0.000000  1
  Si  Si30  1  0.348040  0.001105  0.000000  1
  P  P31  1  0.516670  0.824439  0.500000  1
  P  P32  1  0.176155  0.693421  0.500000  1
  P  P33  1  0.481739  0.307337  0.500000  1
  P  P34  1  0.000559  0.821772  0.000000  1
  P  P35  1  0.308408  0.483595  0.500000  1
