# generated using pymatgen
data_Pr2B4IrRu3
_symmetry_space_group_name_H-M   'P 1'
_cell_length_a   6.88415900
_cell_length_b   6.04513356
_cell_length_c   5.60061174
_cell_angle_alpha   72.36048031
_cell_angle_beta   56.80735733
_cell_angle_gamma   51.34056831
_symmetry_Int_Tables_number   1
_chemical_formula_structural   Pr2B4IrRu3
_chemical_formula_sum   'Pr2 B4 Ir1 Ru3'
_cell_volume   152.03335701
_cell_formula_units_Z   1
loop_
 _symmetry_equiv_pos_site_id
 _symmetry_equiv_pos_as_xyz
  1  'x, y, z'
loop_
 _atom_site_type_symbol
 _atom_site_label
 _atom_site_symmetry_multiplicity
 _atom_site_fract_x
 _atom_site_fract_y
 _atom_site_fract_z
 _atom_site_occupancy
  Pr  Pr0  1  0.998415  0.998415  0.001585  1
  Pr  Pr1  1  0.249926  0.249926  0.250074  1
  B  B2  1  0.678541  0.320417  0.679200  1
  B  B3  1  0.320417  0.678541  0.321842  1
  B  B4  1  0.933041  0.569067  0.930806  1
  B  B5  1  0.569067  0.933041  0.567086  1
  Ir  Ir6  1  0.615285  0.615285  0.884715  1
  Ru  Ru7  1  0.635415  0.635415  0.364584  1
  Ru  Ru8  1  0.364417  0.364418  0.635582  1
  Ru  Ru9  1  0.885475  0.885474  0.614525  1
