# generated using pymatgen
data_Sr3VCrO6
_symmetry_space_group_name_H-M   'P 1'
_cell_length_a   6.64699626
_cell_length_b   6.64704855
_cell_length_c   6.64699600
_cell_angle_alpha   92.58041333
_cell_angle_beta   92.57951902
_cell_angle_gamma   92.58086444
_symmetry_Int_Tables_number   1
_chemical_formula_structural   Sr3VCrO6
_chemical_formula_sum   'Sr6 V2 Cr2 O12'
_cell_volume   292.76255122
_cell_formula_units_Z   2
loop_
 _symmetry_equiv_pos_site_id
 _symmetry_equiv_pos_as_xyz
  1  'x, y, z'
loop_
 _atom_site_type_symbol
 _atom_site_label
 _atom_site_symmetry_multiplicity
 _atom_site_fract_x
 _atom_site_fract_y
 _atom_site_fract_z
 _atom_site_occupancy
  Sr  Sr0  1  0.614932  0.883378  0.247820  1
  Sr  Sr1  1  0.883368  0.248797  0.617365  1
  Sr  Sr2  1  0.253341  0.615764  0.885086  1
  Sr  Sr3  1  0.117322  0.748437  0.383239  1
  Sr  Sr4  1  0.748128  0.383504  0.114839  1
  Sr  Sr5  1  0.385091  0.115924  0.753391  1
  V  V6  1  0.248470  0.247758  0.253932  1
  V  V7  1  0.754002  0.748115  0.748032  1
  Cr  Cr8  1  0.499173  0.500689  0.500383  1
  Cr  Cr9  1  0.000088  0.000901  0.999228  1
  O  O10  1  0.528950  0.212620  0.399085  1
  O  O11  1  0.211006  0.403641  0.531124  1
  O  O12  1  0.403248  0.533124  0.213246  1
  O  O13  1  0.030815  0.903329  0.710944  1
  O  O14  1  0.899057  0.712738  0.029051  1
  O  O15  1  0.713103  0.033243  0.903475  1
  O  O16  1  0.469241  0.787657  0.599000  1
  O  O17  1  0.787961  0.599679  0.470969  1
  O  O18  1  0.595466  0.466547  0.787501  1
  O  O19  1  0.971090  0.099884  0.287918  1
  O  O20  1  0.098673  0.287604  0.968905  1
  O  O21  1  0.287475  0.966671  0.095467  1
