# generated using pymatgen
data_Mn4BeGaPd10
_symmetry_space_group_name_H-M   'P 1'
_cell_length_a   4.06779200
_cell_length_b   5.43453474
_cell_length_c   10.61736006
_cell_angle_alpha   89.37896330
_cell_angle_beta   90.00000000
_cell_angle_gamma   90.00000000
_symmetry_Int_Tables_number   1
_chemical_formula_structural   Mn4BeGaPd10
_chemical_formula_sum   'Mn4 Be1 Ga1 Pd10'
_cell_volume   234.69948704
_cell_formula_units_Z   1
loop_
 _symmetry_equiv_pos_site_id
 _symmetry_equiv_pos_as_xyz
  1  'x, y, z'
loop_
 _atom_site_type_symbol
 _atom_site_label
 _atom_site_symmetry_multiplicity
 _atom_site_fract_x
 _atom_site_fract_y
 _atom_site_fract_z
 _atom_site_occupancy
  Mn  Mn0  1  0.000000  0.821591  0.634991  1
  Mn  Mn1  1  0.000000  0.320277  0.858839  1
  Mn  Mn2  1  0.000000  0.178409  0.365009  1
  Mn  Mn3  1  0.000000  0.679723  0.141161  1
  Be  Be4  1  0.500000  0.500000  0.500000  1
  Ga  Ga5  1  0.500000  0.000000  0.000000  1
  Pd  Pd6  1  0.000000  0.810059  0.889841  1
  Pd  Pd7  1  0.000000  0.678189  0.397465  1
  Pd  Pd8  1  0.000000  0.321811  0.602535  1
  Pd  Pd9  1  0.500000  0.923006  0.242943  1
  Pd  Pd10  1  0.500000  0.424050  0.267093  1
  Pd  Pd11  1  0.500000  0.575950  0.732907  1
  Pd  Pd12  1  0.500000  0.076994  0.757057  1
  Pd  Pd13  1  0.500000  0.500000  0.000000  1
  Pd  Pd14  1  0.500000  0.000000  0.500000  1
  Pd  Pd15  1  0.000000  0.189941  0.110159  1
