# generated using pymatgen
data_Zr4Fe2Si3Ge
_symmetry_space_group_name_H-M   'P 1'
_cell_length_a   5.34990027
_cell_length_b   5.34990037
_cell_length_c   9.55680319
_cell_angle_alpha   63.61905498
_cell_angle_beta   63.61905177
_cell_angle_gamma   43.09338336
_symmetry_Int_Tables_number   1
_chemical_formula_structural   Zr4Fe2Si3Ge
_chemical_formula_sum   'Zr4 Fe2 Si3 Ge1'
_cell_volume   164.16956457
_cell_formula_units_Z   1
loop_
 _symmetry_equiv_pos_site_id
 _symmetry_equiv_pos_as_xyz
  1  'x, y, z'
loop_
 _atom_site_type_symbol
 _atom_site_label
 _atom_site_symmetry_multiplicity
 _atom_site_fract_x
 _atom_site_fract_y
 _atom_site_fract_z
 _atom_site_occupancy
  Zr  Zr0  1  0.811661  0.811661  0.105212  1
  Zr  Zr1  1  0.001901  0.001901  0.326607  1
  Zr  Zr2  1  0.184819  0.184819  0.899194  1
  Zr  Zr3  1  0.999856  0.999856  0.669289  1
  Fe  Fe4  1  0.727516  0.727516  0.620758  1
  Fe  Fe5  1  0.276284  0.276284  0.375812  1
  Si  Si6  1  0.352179  0.352179  0.570911  1
  Si  Si7  1  0.512384  0.512384  0.127965  1
  Si  Si8  1  0.648494  0.648494  0.429199  1
  Ge  Ge9  1  0.484908  0.484908  0.875053  1
