# generated using pymatgen
data_La2NdIn4Te
_symmetry_space_group_name_H-M   'P 1'
_cell_length_a   8.57530336
_cell_length_b   8.57530238
_cell_length_c   8.57530400
_cell_angle_alpha   119.26223884
_cell_angle_beta   119.26223520
_cell_angle_gamma   91.28266550
_symmetry_Int_Tables_number   1
_chemical_formula_structural   La2NdIn4Te
_chemical_formula_sum   'La4 Nd2 In8 Te2'
_cell_volume   450.74594279
_cell_formula_units_Z   2
loop_
 _symmetry_equiv_pos_site_id
 _symmetry_equiv_pos_as_xyz
  1  'x, y, z'
loop_
 _atom_site_type_symbol
 _atom_site_label
 _atom_site_symmetry_multiplicity
 _atom_site_fract_x
 _atom_site_fract_y
 _atom_site_fract_z
 _atom_site_occupancy
  La  La0  1  0.659220  0.159220  0.818440  1
  La  La1  1  0.340780  0.840780  0.181560  1
  La  La2  1  0.159220  0.340780  0.500000  1
  La  La3  1  0.840780  0.659220  0.500000  1
  Nd  Nd4  1  0.750000  0.750000  0.000000  1
  Nd  Nd5  1  0.250000  0.250000  0.000000  1
  In  In6  1  0.332733  0.832733  0.790972  1
  In  In7  1  0.667267  0.167267  0.209028  1
  In  In8  1  0.041761  0.541761  0.209028  1
  In  In9  1  0.832733  0.041761  0.500000  1
  In  In10  1  0.458239  0.667267  0.500000  1
  In  In11  1  0.958239  0.458239  0.790972  1
  In  In12  1  0.167267  0.958239  0.500000  1
  In  In13  1  0.541761  0.332733  0.500000  1
  Te  Te14  1  0.500000  0.500000  0.000000  1
  Te  Te15  1  0.000000  0.000000  0.000000  1
