# generated using pymatgen
data_Tb6Al24Ru5Pt3
_symmetry_space_group_name_H-M   'P 1'
_cell_length_a   8.86778108
_cell_length_b   8.86503343
_cell_length_c   9.53154934
_cell_angle_alpha   90.20481681
_cell_angle_beta   89.98999306
_cell_angle_gamma   119.81404985
_symmetry_Int_Tables_number   1
_chemical_formula_structural   Tb6Al24Ru5Pt3
_chemical_formula_sum   'Tb6 Al24 Ru5 Pt3'
_cell_volume   650.12471066
_cell_formula_units_Z   1
loop_
 _symmetry_equiv_pos_site_id
 _symmetry_equiv_pos_as_xyz
  1  'x, y, z'
loop_
 _atom_site_type_symbol
 _atom_site_label
 _atom_site_symmetry_multiplicity
 _atom_site_fract_x
 _atom_site_fract_y
 _atom_site_fract_z
 _atom_site_occupancy
  Tb  Tb0  1  0.384357  0.190614  0.249389  1
  Tb  Tb1  1  0.808530  0.193429  0.249687  1
  Tb  Tb2  1  0.810319  0.615291  0.248449  1
  Tb  Tb3  1  0.615643  0.809386  0.750611  1
  Tb  Tb4  1  0.191470  0.806571  0.750313  1
  Tb  Tb5  1  0.189681  0.384709  0.751551  1
  Al  Al6  1  0.437535  0.874398  0.246541  1
  Al  Al7  1  0.122559  0.560743  0.250592  1
  Al  Al8  1  0.436027  0.563381  0.250687  1
  Al  Al9  1  0.562465  0.125602  0.753459  1
  Al  Al10  1  0.877441  0.439257  0.749408  1
  Al  Al11  1  0.563973  0.436619  0.749313  1
  Al  Al12  1  0.158056  0.832753  0.423280  1
  Al  Al13  1  0.158157  0.324563  0.423529  1
  Al  Al14  1  0.677658  0.838194  0.421987  1
  Al  Al15  1  0.841944  0.167247  0.576720  1
  Al  Al16  1  0.841843  0.675437  0.576471  1
  Al  Al17  1  0.322342  0.161806  0.578013  1
  Al  Al18  1  0.837358  0.163893  0.923913  1
  Al  Al19  1  0.841925  0.675589  0.923222  1
  Al  Al20  1  0.324146  0.158037  0.923157  1
  Al  Al21  1  0.162642  0.836107  0.076087  1
  Al  Al22  1  0.158075  0.324411  0.076778  1
  Al  Al23  1  0.675854  0.841963  0.076843  1
  Al  Al24  1  0.327884  0.663628  0.526004  1
  Al  Al25  1  0.672116  0.336372  0.473996  1
  Al  Al26  1  0.669090  0.330361  0.022932  1
  Al  Al27  1  0.330910  0.669639  0.977068  1
  Al  Al28  1  0.002380  0.999968  0.249820  1
  Al  Al29  1  0.997620  0.000032  0.750180  1
  Ru  Ru30  1  0.000000  0.000000  0.500000  1
  Ru  Ru31  1  0.000000  0.000000  0.000000  1
  Ru  Ru32  1  0.000000  0.500000  0.500000  1
  Ru  Ru33  1  0.500000  0.000000  0.000000  1
  Ru  Ru34  1  0.000000  0.500000  0.000000  1
  Pt  Pt35  1  0.500000  0.000000  0.500000  1
  Pt  Pt36  1  0.500000  0.500000  0.500000  1
  Pt  Pt37  1  0.500000  0.500000  0.000000  1
