# generated using pymatgen
data_TbY2Sn3Pd2Rh
_symmetry_space_group_name_H-M   'P 1'
_cell_length_a   7.70947700
_cell_length_b   7.69870856
_cell_length_c   3.82545400
_cell_angle_alpha   90.00000000
_cell_angle_beta   90.00000000
_cell_angle_gamma   120.04627621
_symmetry_Int_Tables_number   1
_chemical_formula_structural   TbY2Sn3Pd2Rh
_chemical_formula_sum   'Tb1 Y2 Sn3 Pd2 Rh1'
_cell_volume   196.54124723
_cell_formula_units_Z   1
loop_
 _symmetry_equiv_pos_site_id
 _symmetry_equiv_pos_as_xyz
  1  'x, y, z'
loop_
 _atom_site_type_symbol
 _atom_site_label
 _atom_site_symmetry_multiplicity
 _atom_site_fract_x
 _atom_site_fract_y
 _atom_site_fract_z
 _atom_site_occupancy
  Tb  Tb0  1  0.401070  0.000000  0.500000  1
  Y  Y1  1  0.000180  0.400857  0.500000  1
  Y  Y2  1  0.599323  0.599143  0.500000  1
  Sn  Sn3  1  0.740360  0.000000  0.000000  1
  Sn  Sn4  1  0.999931  0.740041  0.000000  1
  Sn  Sn5  1  0.259889  0.259959  0.000000  1
  Pd  Pd6  1  0.333141  0.666872  0.000000  1
  Pd  Pd7  1  0.666270  0.333128  0.000000  1
  Rh  Rh8  1  0.999835  0.000000  0.500000  1
