# generated using pymatgen
data_Tb2Fe10P7Ru2
_symmetry_space_group_name_H-M   'P 1'
_cell_length_a   8.99742468
_cell_length_b   8.98976520
_cell_length_c   3.69200100
_cell_angle_alpha   90.00000000
_cell_angle_beta   90.00000000
_cell_angle_gamma   120.28291566
_symmetry_Int_Tables_number   1
_chemical_formula_structural   Tb2Fe10P7Ru2
_chemical_formula_sum   'Tb2 Fe10 P7 Ru2'
_cell_volume   257.87772537
_cell_formula_units_Z   1
loop_
 _symmetry_equiv_pos_site_id
 _symmetry_equiv_pos_as_xyz
  1  'x, y, z'
loop_
 _atom_site_type_symbol
 _atom_site_label
 _atom_site_symmetry_multiplicity
 _atom_site_fract_x
 _atom_site_fract_y
 _atom_site_fract_z
 _atom_site_occupancy
  Tb  Tb0  1  0.667432  0.334143  0.000000  1
  Tb  Tb1  1  0.334794  0.666421  0.500000  1
  Fe  Fe2  1  0.056501  0.633200  0.000000  1
  Fe  Fe3  1  0.573534  0.943379  0.000000  1
  Fe  Fe4  1  0.369081  0.425592  0.000000  1
  Fe  Fe5  1  0.274400  0.117702  0.000000  1
  Fe  Fe6  1  0.846617  0.724238  0.000000  1
  Fe  Fe7  1  0.879281  0.155122  0.000000  1
  Fe  Fe8  1  0.432705  0.048747  0.500000  1
  Fe  Fe9  1  0.615502  0.563291  0.500000  1
  Fe  Fe10  1  0.949507  0.386403  0.500000  1
  Fe  Fe11  1  0.097152  0.881967  0.500000  1
  P  P12  1  0.302344  0.889761  0.000000  1
  P  P13  1  0.587021  0.695877  0.000000  1
  P  P14  1  0.109557  0.414190  0.000000  1
  P  P15  1  0.405379  0.289030  0.500000  1
  P  P16  1  0.888217  0.598929  0.500000  1
  P  P17  1  0.707894  0.114800  0.500000  1
  P  P18  1  0.001182  0.999126  0.000000  1
  Ru  Ru19  1  0.784056  0.902635  0.500000  1
  Ru  Ru20  1  0.117845  0.215446  0.500000  1
