# generated using pymatgen
data_Ac4NdPb3Cl
_symmetry_space_group_name_H-M   'P 1'
_cell_length_a   10.05241800
_cell_length_b   10.05241856
_cell_length_c   7.16277000
_cell_angle_alpha   90.00000000
_cell_angle_beta   90.00000000
_cell_angle_gamma   119.99999817
_symmetry_Int_Tables_number   1
_chemical_formula_structural   Ac4NdPb3Cl
_chemical_formula_sum   'Ac8 Nd2 Pb6 Cl2'
_cell_volume   626.83429312
_cell_formula_units_Z   2
loop_
 _symmetry_equiv_pos_site_id
 _symmetry_equiv_pos_as_xyz
  1  'x, y, z'
loop_
 _atom_site_type_symbol
 _atom_site_label
 _atom_site_symmetry_multiplicity
 _atom_site_fract_x
 _atom_site_fract_y
 _atom_site_fract_z
 _atom_site_occupancy
  Ac  Ac0  1  0.263498  0.000000  0.252913  1
  Ac  Ac1  1  0.736502  0.000000  0.747087  1
  Ac  Ac2  1  0.000000  0.263498  0.252913  1
  Ac  Ac3  1  0.000000  0.736502  0.747087  1
  Ac  Ac4  1  0.736502  0.736502  0.252913  1
  Ac  Ac5  1  0.263498  0.263498  0.747087  1
  Ac  Ac6  1  0.333333  0.666667  0.000000  1
  Ac  Ac7  1  0.666667  0.333333  0.000000  1
  Nd  Nd8  1  0.666667  0.333333  0.500000  1
  Nd  Nd9  1  0.333333  0.666667  0.500000  1
  Pb  Pb10  1  0.611332  0.000000  0.257766  1
  Pb  Pb11  1  0.388668  0.000000  0.742234  1
  Pb  Pb12  1  0.000000  0.611332  0.257766  1
  Pb  Pb13  1  0.000000  0.388668  0.742234  1
  Pb  Pb14  1  0.388668  0.388668  0.257766  1
  Pb  Pb15  1  0.611332  0.611332  0.742234  1
  Cl  Cl16  1  0.000000  0.000000  0.000000  1
  Cl  Cl17  1  0.000000  0.000000  0.500000  1
