# generated using pymatgen
data_Er8Ga(Si5Mo4)3
_symmetry_space_group_name_H-M   'P 1'
_cell_length_a   6.74771616
_cell_length_b   6.92472712
_cell_length_c   12.94422109
_cell_angle_alpha   90.13848346
_cell_angle_beta   89.97142636
_cell_angle_gamma   90.06927649
_symmetry_Int_Tables_number   1
_chemical_formula_structural   Er8Ga(Si5Mo4)3
_chemical_formula_sum   'Er8 Ga1 Si15 Mo12'
_cell_volume   604.83059618
_cell_formula_units_Z   1
loop_
 _symmetry_equiv_pos_site_id
 _symmetry_equiv_pos_as_xyz
  1  'x, y, z'
loop_
 _atom_site_type_symbol
 _atom_site_label
 _atom_site_symmetry_multiplicity
 _atom_site_fract_x
 _atom_site_fract_y
 _atom_site_fract_z
 _atom_site_occupancy
  Er  Er0  1  0.996504  0.168884  0.093990  1
  Er  Er1  1  0.003601  0.831876  0.906486  1
  Er  Er2  1  0.502839  0.667970  0.906305  1
  Er  Er3  1  0.004704  0.832245  0.593569  1
  Er  Er4  1  0.495996  0.332109  0.093752  1
  Er  Er5  1  0.995107  0.167541  0.405534  1
  Er  Er6  1  0.498060  0.332189  0.405118  1
  Er  Er7  1  0.507348  0.668540  0.594326  1
  Ga  Ga8  1  0.166917  0.457412  0.545446  1
  Si  Si9  1  0.035075  0.133568  0.749182  1
  Si  Si10  1  0.963942  0.869127  0.248349  1
  Si  Si11  1  0.464803  0.633238  0.249473  1
  Si  Si12  1  0.532605  0.367603  0.750672  1
  Si  Si13  1  0.302977  0.866343  0.750501  1
  Si  Si14  1  0.696658  0.131383  0.249598  1
  Si  Si15  1  0.196611  0.369910  0.250257  1
  Si  Si16  1  0.805059  0.631271  0.750134  1
  Si  Si17  1  0.839176  0.543122  0.453278  1
  Si  Si18  1  0.338978  0.958127  0.453846  1
  Si  Si19  1  0.838534  0.542127  0.046226  1
  Si  Si20  1  0.661680  0.041671  0.546348  1
  Si  Si21  1  0.160903  0.457004  0.954342  1
  Si  Si22  1  0.660547  0.041275  0.953480  1
  Si  Si23  1  0.338295  0.957977  0.046700  1
  Mo  Mo24  1  0.165527  0.498900  0.753323  1
  Mo  Mo25  1  0.833559  0.500284  0.249487  1
  Mo  Mo26  1  0.332598  0.002337  0.249393  1
  Mo  Mo27  1  0.668217  0.998214  0.750669  1
  Mo  Mo28  1  0.335131  0.157617  0.627891  1
  Mo  Mo29  1  0.669692  0.835964  0.374436  1
  Mo  Mo30  1  0.167318  0.670534  0.370378  1
  Mo  Mo31  1  0.668285  0.835811  0.125155  1
  Mo  Mo32  1  0.823965  0.335703  0.626749  1
  Mo  Mo33  1  0.330307  0.163042  0.876072  1
  Mo  Mo34  1  0.828901  0.335603  0.875461  1
  Mo  Mo35  1  0.169581  0.663478  0.124077  1
