# generated using pymatgen
data_Ce2DyHo(ZnRh)4
_symmetry_space_group_name_H-M   'P 1'
_cell_length_a   3.95758400
_cell_length_b   7.04229912
_cell_length_c   8.33473104
_cell_angle_alpha   91.21162444
_cell_angle_beta   90.00000000
_cell_angle_gamma   90.00000000
_symmetry_Int_Tables_number   1
_chemical_formula_structural   Ce2DyHo(ZnRh)4
_chemical_formula_sum   'Ce2 Dy1 Ho1 Zn4 Rh4'
_cell_volume   232.24110332
_cell_formula_units_Z   1
loop_
 _symmetry_equiv_pos_site_id
 _symmetry_equiv_pos_as_xyz
  1  'x, y, z'
loop_
 _atom_site_type_symbol
 _atom_site_label
 _atom_site_symmetry_multiplicity
 _atom_site_fract_x
 _atom_site_fract_y
 _atom_site_fract_z
 _atom_site_occupancy
  Ce  Ce0  1  0.250000  0.542818  0.190081  1
  Ce  Ce1  1  0.750000  0.457125  0.809820  1
  Dy  Dy2  1  0.250000  0.047204  0.316980  1
  Ho  Ho3  1  0.750000  0.952630  0.683280  1
  Zn  Zn4  1  0.250000  0.122456  0.937406  1
  Zn  Zn5  1  0.750000  0.877412  0.062240  1
  Zn  Zn6  1  0.250000  0.637601  0.559304  1
  Zn  Zn7  1  0.750000  0.362649  0.440874  1
  Rh  Rh8  1  0.750000  0.746581  0.365527  1
  Rh  Rh9  1  0.250000  0.252925  0.634680  1
  Rh  Rh10  1  0.750000  0.262428  0.124399  1
  Rh  Rh11  1  0.250000  0.738170  0.875410  1
