# generated using pymatgen
data_Ac4MgSn4
_symmetry_space_group_name_H-M   'P 1'
_cell_length_a   8.19918200
_cell_length_b   8.99082900
_cell_length_c   16.80922000
_cell_angle_alpha   90.00000000
_cell_angle_beta   90.00000000
_cell_angle_gamma   90.00000000
_symmetry_Int_Tables_number   1
_chemical_formula_structural   Ac4MgSn4
_chemical_formula_sum   'Ac16 Mg4 Sn16'
_cell_volume   1239.13272230
_cell_formula_units_Z   4
loop_
 _symmetry_equiv_pos_site_id
 _symmetry_equiv_pos_as_xyz
  1  'x, y, z'
loop_
 _atom_site_type_symbol
 _atom_site_label
 _atom_site_symmetry_multiplicity
 _atom_site_fract_x
 _atom_site_fract_y
 _atom_site_fract_z
 _atom_site_occupancy
  Ac  Ac0  1  0.667748  0.174535  0.631430  1
  Ac  Ac1  1  0.167748  0.325465  0.868570  1
  Ac  Ac2  1  0.332252  0.825465  0.131430  1
  Ac  Ac3  1  0.832252  0.674535  0.368570  1
  Ac  Ac4  1  0.332252  0.825465  0.368570  1
  Ac  Ac5  1  0.832252  0.674535  0.131430  1
  Ac  Ac6  1  0.667748  0.174535  0.868570  1
  Ac  Ac7  1  0.167748  0.325465  0.631430  1
  Ac  Ac8  1  0.505558  0.687395  0.595490  1
  Ac  Ac9  1  0.005558  0.812605  0.904510  1
  Ac  Ac10  1  0.494442  0.312605  0.095490  1
  Ac  Ac11  1  0.994442  0.187395  0.404510  1
  Ac  Ac12  1  0.494442  0.312605  0.404510  1
  Ac  Ac13  1  0.994442  0.187395  0.095490  1
  Ac  Ac14  1  0.505558  0.687395  0.904510  1
  Ac  Ac15  1  0.005558  0.812605  0.595490  1
  Mg  Mg16  1  0.831586  0.531380  0.750000  1
  Mg  Mg17  1  0.331586  0.968620  0.750000  1
  Mg  Mg18  1  0.168414  0.468620  0.250000  1
  Mg  Mg19  1  0.668414  0.031380  0.250000  1
  Sn  Sn20  1  0.672162  0.966980  0.463572  1
  Sn  Sn21  1  0.172162  0.533020  0.036428  1
  Sn  Sn22  1  0.327838  0.033020  0.963572  1
  Sn  Sn23  1  0.827838  0.466980  0.536428  1
  Sn  Sn24  1  0.327838  0.033020  0.536428  1
  Sn  Sn25  1  0.827838  0.466980  0.963572  1
  Sn  Sn26  1  0.672162  0.966980  0.036428  1
  Sn  Sn27  1  0.172162  0.533020  0.463572  1
  Sn  Sn28  1  0.487646  0.425759  0.750000  1
  Sn  Sn29  1  0.987646  0.074241  0.750000  1
  Sn  Sn30  1  0.512354  0.574241  0.250000  1
  Sn  Sn31  1  0.012354  0.925759  0.250000  1
  Sn  Sn32  1  0.707155  0.855646  0.750000  1
  Sn  Sn33  1  0.207155  0.644354  0.750000  1
  Sn  Sn34  1  0.292845  0.144354  0.250000  1
  Sn  Sn35  1  0.792845  0.355646  0.250000  1
