# generated using pymatgen
data_CaTb4Ho2PtI12
_symmetry_space_group_name_H-M   'P 1'
_cell_length_a   9.81963985
_cell_length_b   9.81714159
_cell_length_c   9.82426000
_cell_angle_alpha   106.56024686
_cell_angle_beta   106.61693382
_cell_angle_gamma   106.54562461
_symmetry_Int_Tables_number   1
_chemical_formula_structural   CaTb4Ho2PtI12
_chemical_formula_sum   'Ca1 Tb4 Ho2 Pt1 I12'
_cell_volume   797.70838366
_cell_formula_units_Z   1
loop_
 _symmetry_equiv_pos_site_id
 _symmetry_equiv_pos_as_xyz
  1  'x, y, z'
loop_
 _atom_site_type_symbol
 _atom_site_label
 _atom_site_symmetry_multiplicity
 _atom_site_fract_x
 _atom_site_fract_y
 _atom_site_fract_z
 _atom_site_occupancy
  Ca  Ca0  1  0.000268  0.000327  0.000084  1
  Tb  Tb1  1  0.403552  0.476291  0.200100  1
  Tb  Tb2  1  0.199475  0.403609  0.475940  1
  Tb  Tb3  1  0.476085  0.199484  0.402993  1
  Tb  Tb4  1  0.597633  0.523865  0.800383  1
  Ho  Ho5  1  0.798011  0.596905  0.524361  1
  Ho  Ho6  1  0.523815  0.797718  0.596394  1
  Pt  Pt7  1  0.500166  0.500025  0.500287  1
  I  I8  1  0.044034  0.348819  0.121637  1
  I  I9  1  0.121784  0.044261  0.348546  1
  I  I10  1  0.348733  0.121899  0.043979  1
  I  I11  1  0.956394  0.651472  0.876358  1
  I  I12  1  0.876429  0.953900  0.650240  1
  I  I13  1  0.650568  0.878231  0.953982  1
  I  I14  1  0.724963  0.574723  0.178765  1
  I  I15  1  0.176990  0.724189  0.573967  1
  I  I16  1  0.573634  0.174970  0.722797  1
  I  I17  1  0.276914  0.426154  0.823313  1
  I  I18  1  0.823805  0.279432  0.426823  1
  I  I19  1  0.426747  0.823729  0.279048  1
