# generated using pymatgen
data_LaMn8BeSi4
_symmetry_space_group_name_H-M   'P 1'
_cell_length_a   8.01147299
_cell_length_b   8.01147362
_cell_length_c   8.01147342
_cell_angle_alpha   121.16119363
_cell_angle_beta   121.16118454
_cell_angle_gamma   88.00025953
_symmetry_Int_Tables_number   1
_chemical_formula_structural   LaMn8BeSi4
_chemical_formula_sum   'La2 Mn16 Be2 Si8'
_cell_volume   356.98083021
_cell_formula_units_Z   2
loop_
 _symmetry_equiv_pos_site_id
 _symmetry_equiv_pos_as_xyz
  1  'x, y, z'
loop_
 _atom_site_type_symbol
 _atom_site_label
 _atom_site_symmetry_multiplicity
 _atom_site_fract_x
 _atom_site_fract_y
 _atom_site_fract_z
 _atom_site_occupancy
  La  La0  1  0.250000  0.250000  0.000000  1
  La  La1  1  0.750000  0.750000  0.000000  1
  Mn  Mn2  1  0.941971  0.191404  0.133374  1
  Mn  Mn3  1  0.191404  0.058029  0.249433  1
  Mn  Mn4  1  0.808596  0.941971  0.750567  1
  Mn  Mn5  1  0.441971  0.308596  0.750567  1
  Mn  Mn6  1  0.058029  0.808596  0.866626  1
  Mn  Mn7  1  0.786167  0.055817  0.500000  1
  Mn  Mn8  1  0.555817  0.286167  0.500000  1
  Mn  Mn9  1  0.213833  0.944183  0.500000  1
  Mn  Mn10  1  0.444183  0.713833  0.500000  1
  Mn  Mn11  1  0.944183  0.444183  0.730349  1
  Mn  Mn12  1  0.713833  0.213833  0.269651  1
  Mn  Mn13  1  0.055817  0.555817  0.269651  1
  Mn  Mn14  1  0.691404  0.441971  0.133374  1
  Mn  Mn15  1  0.558029  0.691404  0.249433  1
  Mn  Mn16  1  0.286167  0.786167  0.730349  1
  Mn  Mn17  1  0.308596  0.558029  0.866626  1
  Be  Be18  1  0.500000  0.000000  0.500000  1
  Be  Be19  1  0.000000  0.500000  0.500000  1
  Si  Si20  1  0.799071  0.299071  0.852733  1
  Si  Si21  1  0.553662  0.053662  0.852733  1
  Si  Si22  1  0.053662  0.200929  0.500000  1
  Si  Si23  1  0.299071  0.446338  0.500000  1
  Si  Si24  1  0.946338  0.799071  0.500000  1
  Si  Si25  1  0.446338  0.946338  0.147267  1
  Si  Si26  1  0.200929  0.700929  0.147267  1
  Si  Si27  1  0.700929  0.553662  0.500000  1
