# generated using pymatgen
data_Hf4Ge2PdRh9
_symmetry_space_group_name_H-M   'P 1'
_cell_length_a   4.08560900
_cell_length_b   5.57598293
_cell_length_c   10.92815726
_cell_angle_alpha   89.52948712
_cell_angle_beta   90.00000000
_cell_angle_gamma   90.00000000
_symmetry_Int_Tables_number   1
_chemical_formula_structural   Hf4Ge2PdRh9
_chemical_formula_sum   'Hf4 Ge2 Pd1 Rh9'
_cell_volume   248.94908213
_cell_formula_units_Z   1
loop_
 _symmetry_equiv_pos_site_id
 _symmetry_equiv_pos_as_xyz
  1  'x, y, z'
loop_
 _atom_site_type_symbol
 _atom_site_label
 _atom_site_symmetry_multiplicity
 _atom_site_fract_x
 _atom_site_fract_y
 _atom_site_fract_z
 _atom_site_occupancy
  Hf  Hf0  1  0.500000  0.168599  0.639025  1
  Hf  Hf1  1  0.500000  0.822504  0.358213  1
  Hf  Hf2  1  0.500000  0.683949  0.862408  1
  Hf  Hf3  1  0.500000  0.323017  0.141408  1
  Ge  Ge4  1  0.000000  0.500808  0.496164  1
  Ge  Ge5  1  0.000000  0.001599  0.000517  1
  Pd  Pd6  1  0.000000  0.430272  0.744649  1
  Rh  Rh7  1  0.500000  0.189741  0.892608  1
  Rh  Rh8  1  0.500000  0.812729  0.107352  1
  Rh  Rh9  1  0.500000  0.682974  0.607217  1
  Rh  Rh10  1  0.500000  0.311450  0.393500  1
  Rh  Rh11  1  0.000000  0.570178  0.256557  1
  Rh  Rh12  1  0.000000  0.000788  0.500107  1
  Rh  Rh13  1  0.000000  0.502164  0.000483  1
  Rh  Rh14  1  0.000000  0.069838  0.243000  1
  Rh  Rh15  1  0.000000  0.929391  0.756794  1
