# generated using pymatgen
data_Hf4MgPt15
_symmetry_space_group_name_H-M   'P 1'
_cell_length_a   4.01715500
_cell_length_b   4.01715500
_cell_length_c   20.13230200
_cell_angle_alpha   90.00000000
_cell_angle_beta   90.00000000
_cell_angle_gamma   90.00000000
_symmetry_Int_Tables_number   1
_chemical_formula_structural   Hf4MgPt15
_chemical_formula_sum   'Hf4 Mg1 Pt15'
_cell_volume   324.88571394
_cell_formula_units_Z   1
loop_
 _symmetry_equiv_pos_site_id
 _symmetry_equiv_pos_as_xyz
  1  'x, y, z'
loop_
 _atom_site_type_symbol
 _atom_site_label
 _atom_site_symmetry_multiplicity
 _atom_site_fract_x
 _atom_site_fract_y
 _atom_site_fract_z
 _atom_site_occupancy
  Hf  Hf0  1  0.000000  0.000000  0.194926  1
  Hf  Hf1  1  0.000000  0.000000  0.398999  1
  Hf  Hf2  1  0.000000  0.000000  0.601001  1
  Hf  Hf3  1  0.000000  0.000000  0.805074  1
  Mg  Mg4  1  0.000000  0.000000  0.000000  1
  Pt  Pt5  1  0.500000  0.500000  0.000000  1
  Pt  Pt6  1  0.500000  0.500000  0.200144  1
  Pt  Pt7  1  0.500000  0.500000  0.400346  1
  Pt  Pt8  1  0.500000  0.500000  0.599654  1
  Pt  Pt9  1  0.500000  0.500000  0.799856  1
  Pt  Pt10  1  0.500000  0.000000  0.099678  1
  Pt  Pt11  1  0.500000  0.000000  0.299995  1
  Pt  Pt12  1  0.500000  0.000000  0.500000  1
  Pt  Pt13  1  0.500000  0.000000  0.700005  1
  Pt  Pt14  1  0.500000  0.000000  0.900322  1
  Pt  Pt15  1  0.000000  0.500000  0.099678  1
  Pt  Pt16  1  0.000000  0.500000  0.299995  1
  Pt  Pt17  1  0.000000  0.500000  0.500000  1
  Pt  Pt18  1  0.000000  0.500000  0.700005  1
  Pt  Pt19  1  0.000000  0.500000  0.900322  1
