# generated using pymatgen
data_Ho6Al24NiOs7
_symmetry_space_group_name_H-M   'P 1'
_cell_length_a   8.79076800
_cell_length_b   8.79076765
_cell_length_c   9.51293600
_cell_angle_alpha   90.00000000
_cell_angle_beta   90.00000000
_cell_angle_gamma   120.00000133
_symmetry_Int_Tables_number   1
_chemical_formula_structural   Ho6Al24NiOs7
_chemical_formula_sum   'Ho6 Al24 Ni1 Os7'
_cell_volume   636.64718135
_cell_formula_units_Z   1
loop_
 _symmetry_equiv_pos_site_id
 _symmetry_equiv_pos_as_xyz
  1  'x, y, z'
loop_
 _atom_site_type_symbol
 _atom_site_label
 _atom_site_symmetry_multiplicity
 _atom_site_fract_x
 _atom_site_fract_y
 _atom_site_fract_z
 _atom_site_occupancy
  Ho  Ho0  1  0.193939  0.387877  0.249369  1
  Ho  Ho1  1  0.806061  0.612123  0.750631  1
  Ho  Ho2  1  0.612123  0.806061  0.249369  1
  Ho  Ho3  1  0.387877  0.193939  0.750631  1
  Ho  Ho4  1  0.193939  0.806061  0.249369  1
  Ho  Ho5  1  0.806061  0.193939  0.750631  1
  Al  Al6  1  0.333333  0.666667  0.017122  1
  Al  Al7  1  0.666667  0.333333  0.982878  1
  Al  Al8  1  0.666667  0.333333  0.516227  1
  Al  Al9  1  0.333333  0.666667  0.483773  1
  Al  Al10  1  0.161973  0.323945  0.577232  1
  Al  Al11  1  0.838027  0.676055  0.422768  1
  Al  Al12  1  0.676055  0.838027  0.577232  1
  Al  Al13  1  0.838106  0.676212  0.076568  1
  Al  Al14  1  0.323945  0.161973  0.422768  1
  Al  Al15  1  0.161894  0.323788  0.923432  1
  Al  Al16  1  0.161973  0.838027  0.577232  1
  Al  Al17  1  0.323788  0.161894  0.076568  1
  Al  Al18  1  0.838027  0.161973  0.422768  1
  Al  Al19  1  0.676212  0.838106  0.923432  1
  Al  Al20  1  0.838106  0.161894  0.076568  1
  Al  Al21  1  0.161894  0.838106  0.923432  1
  Al  Al22  1  0.560468  0.120936  0.249756  1
  Al  Al23  1  0.439532  0.879064  0.750244  1
  Al  Al24  1  0.879064  0.439532  0.249756  1
  Al  Al25  1  0.120936  0.560468  0.750244  1
  Al  Al26  1  0.560468  0.439532  0.249756  1
  Al  Al27  1  0.439532  0.560468  0.750244  1
  Al  Al28  1  0.000000  0.000000  0.242967  1
  Al  Al29  1  0.000000  0.000000  0.757033  1
  Ni  Ni30  1  0.000000  0.000000  0.000000  1
  Os  Os31  1  0.500000  0.000000  0.000000  1
  Os  Os32  1  0.000000  0.500000  0.000000  1
  Os  Os33  1  0.500000  0.000000  0.500000  1
  Os  Os34  1  0.500000  0.500000  0.000000  1
  Os  Os35  1  0.000000  0.500000  0.500000  1
  Os  Os36  1  0.500000  0.500000  0.500000  1
  Os  Os37  1  0.000000  0.000000  0.500000  1
