# generated using pymatgen
data_Tb2InGa6Ni2Ag
_symmetry_space_group_name_H-M   'P 1'
_cell_length_a   4.20854453
_cell_length_b   6.49512479
_cell_length_c   8.08590790
_cell_angle_alpha   90.32298854
_cell_angle_beta   105.08428159
_cell_angle_gamma   90.00000028
_symmetry_Int_Tables_number   1
_chemical_formula_structural   Tb2InGa6Ni2Ag
_chemical_formula_sum   'Tb2 In1 Ga6 Ni2 Ag1'
_cell_volume   213.40908861
_cell_formula_units_Z   1
loop_
 _symmetry_equiv_pos_site_id
 _symmetry_equiv_pos_as_xyz
  1  'x, y, z'
loop_
 _atom_site_type_symbol
 _atom_site_label
 _atom_site_symmetry_multiplicity
 _atom_site_fract_x
 _atom_site_fract_y
 _atom_site_fract_z
 _atom_site_occupancy
  Tb  Tb0  1  0.873635  0.755469  0.747271  1
  Tb  Tb1  1  0.126365  0.244531  0.252729  1
  In  In2  1  0.500000  0.000000  0.000000  1
  Ga  Ga3  1  0.069786  0.727873  0.139570  1
  Ga  Ga4  1  0.930214  0.272127  0.860430  1
  Ga  Ga5  1  0.685204  0.546326  0.370409  1
  Ga  Ga6  1  0.314796  0.453674  0.629591  1
  Ga  Ga7  1  0.688514  0.947384  0.377028  1
  Ga  Ga8  1  0.311486  0.052616  0.622972  1
  Ni  Ni9  1  0.220531  0.749382  0.441063  1
  Ni  Ni10  1  0.779469  0.250618  0.558937  1
  Ag  Ag11  1  0.500000  0.500000  0.000000  1
