# generated using pymatgen
data_Tb9Mg(PPb3)2
_symmetry_space_group_name_H-M   'P 1'
_cell_length_a   9.20355300
_cell_length_b   9.20355364
_cell_length_c   6.73969400
_cell_angle_alpha   90.00000000
_cell_angle_beta   90.00000000
_cell_angle_gamma   120.00001567
_symmetry_Int_Tables_number   1
_chemical_formula_structural   Tb9Mg(PPb3)2
_chemical_formula_sum   'Tb9 Mg1 P2 Pb6'
_cell_volume   494.40380839
_cell_formula_units_Z   1
loop_
 _symmetry_equiv_pos_site_id
 _symmetry_equiv_pos_as_xyz
  1  'x, y, z'
loop_
 _atom_site_type_symbol
 _atom_site_label
 _atom_site_symmetry_multiplicity
 _atom_site_fract_x
 _atom_site_fract_y
 _atom_site_fract_z
 _atom_site_occupancy
  Tb  Tb0  1  0.762130  0.760223  0.752253  1
  Tb  Tb1  1  0.239777  0.001908  0.752253  1
  Tb  Tb2  1  0.998092  0.237870  0.752253  1
  Tb  Tb3  1  0.239777  0.237870  0.247747  1
  Tb  Tb4  1  0.762130  0.001908  0.247747  1
  Tb  Tb5  1  0.998092  0.760223  0.247747  1
  Tb  Tb6  1  0.333333  0.666667  0.000000  1
  Tb  Tb7  1  0.333333  0.666667  0.500000  1
  Tb  Tb8  1  0.666667  0.333333  0.500000  1
  Mg  Mg9  1  0.666667  0.333333  0.000000  1
  P  P10  1  0.000000  0.000000  0.000000  1
  P  P11  1  0.000000  0.000000  0.500000  1
  Pb  Pb12  1  0.401681  0.400864  0.750892  1
  Pb  Pb13  1  0.599136  0.000817  0.750892  1
  Pb  Pb14  1  0.999183  0.598319  0.750892  1
  Pb  Pb15  1  0.599136  0.598319  0.249108  1
  Pb  Pb16  1  0.401681  0.000817  0.249108  1
  Pb  Pb17  1  0.999183  0.400864  0.249108  1
