# generated using pymatgen
data_Ac2Al7Ir
_symmetry_space_group_name_H-M   'P 1'
_cell_length_a   6.32587708
_cell_length_b   6.32590959
_cell_length_c   11.83104496
_cell_angle_alpha   74.49374147
_cell_angle_beta   74.49381986
_cell_angle_gamma   90.00000378
_symmetry_Int_Tables_number   1
_chemical_formula_structural   Ac2Al7Ir
_chemical_formula_sum   'Ac4 Al14 Ir2'
_cell_volume   438.29982429
_cell_formula_units_Z   2
loop_
 _symmetry_equiv_pos_site_id
 _symmetry_equiv_pos_as_xyz
  1  'x, y, z'
loop_
 _atom_site_type_symbol
 _atom_site_label
 _atom_site_symmetry_multiplicity
 _atom_site_fract_x
 _atom_site_fract_y
 _atom_site_fract_z
 _atom_site_occupancy
  Ac  Ac0  1  0.995755  0.995755  0.008492  1
  Ac  Ac1  1  0.498579  0.498579  0.002840  1
  Ac  Ac2  1  0.748568  0.248568  0.502866  1
  Ac  Ac3  1  0.245759  0.745759  0.508484  1
  Al  Al4  1  0.200937  0.200937  0.598127  1
  Al  Al5  1  0.813643  0.813643  0.372714  1
  Al  Al6  1  0.604667  0.131410  0.253629  1
  Al  Al7  1  0.141703  0.614960  0.253629  1
  Al  Al8  1  0.604667  0.614960  0.253629  1
  Al  Al9  1  0.141703  0.131410  0.253629  1
  Al  Al10  1  0.864983  0.354618  0.753627  1
  Al  Al11  1  0.381390  0.891753  0.753627  1
  Al  Al12  1  0.864983  0.891753  0.753627  1
  Al  Al13  1  0.381390  0.354618  0.753627  1
  Al  Al14  1  0.691781  0.691781  0.616438  1
  Al  Al15  1  0.063660  0.563660  0.872680  1
  Al  Al16  1  0.450929  0.950929  0.098141  1
  Al  Al17  1  0.941801  0.441801  0.116397  1
  Ir  Ir18  1  0.313971  0.313971  0.372058  1
  Ir  Ir19  1  0.563964  0.063964  0.872073  1
