# generated using pymatgen
data_Ho2Er10InCo6
_symmetry_space_group_name_H-M   'P 1'
_cell_length_a   8.30304951
_cell_length_b   8.29899292
_cell_length_c   8.29891400
_cell_angle_alpha   109.46949557
_cell_angle_beta   109.46105517
_cell_angle_gamma   109.46155977
_symmetry_Int_Tables_number   1
_chemical_formula_structural   Ho2Er10InCo6
_chemical_formula_sum   'Ho2 Er10 In1 Co6'
_cell_volume   440.32956845
_cell_formula_units_Z   1
loop_
 _symmetry_equiv_pos_site_id
 _symmetry_equiv_pos_as_xyz
  1  'x, y, z'
loop_
 _atom_site_type_symbol
 _atom_site_label
 _atom_site_symmetry_multiplicity
 _atom_site_fract_x
 _atom_site_fract_y
 _atom_site_fract_z
 _atom_site_occupancy
  Ho  Ho0  1  0.107822  0.806436  0.301397  1
  Ho  Ho1  1  0.892178  0.193564  0.698603  1
  Er  Er2  1  0.806007  0.697631  0.504259  1
  Er  Er3  1  0.193993  0.302369  0.495741  1
  Er  Er4  1  0.193985  0.698254  0.891617  1
  Er  Er5  1  0.806015  0.301746  0.108383  1
  Er  Er6  1  0.697689  0.504629  0.806390  1
  Er  Er7  1  0.302311  0.495371  0.193610  1
  Er  Er8  1  0.697714  0.891281  0.193084  1
  Er  Er9  1  0.302286  0.108719  0.806916  1
  Er  Er10  1  0.504743  0.806369  0.698333  1
  Er  Er11  1  0.495257  0.193631  0.301667  1
  In  In12  1  0.000000  0.000000  0.000000  1
  Co  Co13  1  0.886044  0.386158  0.499900  1
  Co  Co14  1  0.113956  0.613842  0.500100  1
  Co  Co15  1  0.386235  0.500154  0.886092  1
  Co  Co16  1  0.613765  0.499846  0.113908  1
  Co  Co17  1  0.499996  0.886020  0.386022  1
  Co  Co18  1  0.500004  0.113980  0.613978  1
