# generated using pymatgen
data_Ce2Fe2CuSi2Au
_symmetry_space_group_name_H-M   'P 1'
_cell_length_a   9.03654087
_cell_length_b   9.03654072
_cell_length_c   4.05420800
_cell_angle_alpha   90.00000000
_cell_angle_beta   90.00000000
_cell_angle_gamma   154.47951199
_symmetry_Int_Tables_number   1
_chemical_formula_structural   Ce2Fe2CuSi2Au
_chemical_formula_sum   'Ce2 Fe2 Cu1 Si2 Au1'
_cell_volume   142.63307322
_cell_formula_units_Z   1
loop_
 _symmetry_equiv_pos_site_id
 _symmetry_equiv_pos_as_xyz
  1  'x, y, z'
loop_
 _atom_site_type_symbol
 _atom_site_label
 _atom_site_symmetry_multiplicity
 _atom_site_fract_x
 _atom_site_fract_y
 _atom_site_fract_z
 _atom_site_occupancy
  Ce  Ce0  1  0.622237  0.377763  0.250000  1
  Ce  Ce1  1  0.375271  0.624729  0.750000  1
  Fe  Fe2  1  0.248129  0.751871  0.250000  1
  Fe  Fe3  1  0.749518  0.250482  0.750000  1
  Cu  Cu4  1  0.048769  0.951231  0.750000  1
  Si  Si5  1  0.811041  0.188959  0.250000  1
  Si  Si6  1  0.185692  0.814308  0.750000  1
  Au  Au7  1  0.959345  0.040655  0.250000  1
