# generated using pymatgen
data_Tm3Lu2(SiBi)2
_symmetry_space_group_name_H-M   'P 1'
_cell_length_a   8.53212747
_cell_length_b   8.53212766
_cell_length_c   7.79421907
_cell_angle_alpha   89.98611049
_cell_angle_beta   90.01388930
_cell_angle_gamma   125.78134375
_symmetry_Int_Tables_number   1
_chemical_formula_structural   Tm3Lu2(SiBi)2
_chemical_formula_sum   'Tm6 Lu4 Si4 Bi4'
_cell_volume   460.30347676
_cell_formula_units_Z   2
loop_
 _symmetry_equiv_pos_site_id
 _symmetry_equiv_pos_as_xyz
  1  'x, y, z'
loop_
 _atom_site_type_symbol
 _atom_site_label
 _atom_site_symmetry_multiplicity
 _atom_site_fract_x
 _atom_site_fract_y
 _atom_site_fract_z
 _atom_site_occupancy
  Tm  Tm0  1  0.214526  0.456581  0.835724  1
  Tm  Tm1  1  0.956581  0.714526  0.664276  1
  Tm  Tm2  1  0.714552  0.956722  0.664338  1
  Tm  Tm3  1  0.456722  0.214552  0.835662  1
  Tm  Tm4  1  0.785565  0.543439  0.164434  1
  Tm  Tm5  1  0.043439  0.285565  0.335566  1
  Lu  Lu6  1  0.543846  0.784813  0.164170  1
  Lu  Lu7  1  0.284813  0.043846  0.335830  1
  Lu  Lu8  1  0.499850  0.499829  0.499615  1
  Lu  Lu9  1  0.999829  0.999850  0.000385  1
  Si  Si10  1  0.634710  0.634949  0.866891  1
  Si  Si11  1  0.134949  0.134710  0.633109  1
  Si  Si12  1  0.865130  0.865440  0.366151  1
  Si  Si13  1  0.365440  0.365130  0.133849  1
  Bi  Bi14  1  0.292820  0.708329  0.499230  1
  Bi  Bi15  1  0.208329  0.792820  0.000770  1
  Bi  Bi16  1  0.706941  0.291958  0.499663  1
  Bi  Bi17  1  0.791958  0.206941  0.000337  1
