# generated using pymatgen
data_Sm4Si3Sn5Rh16
_symmetry_space_group_name_H-M   'P 1'
_cell_length_a   4.25248200
_cell_length_b   9.47056614
_cell_length_c   11.82127400
_cell_angle_alpha   89.77791443
_cell_angle_beta   90.00000000
_cell_angle_gamma   90.00000000
_symmetry_Int_Tables_number   1
_chemical_formula_structural   Sm4Si3Sn5Rh16
_chemical_formula_sum   'Sm4 Si3 Sn5 Rh16'
_cell_volume   476.07946245
_cell_formula_units_Z   1
loop_
 _symmetry_equiv_pos_site_id
 _symmetry_equiv_pos_as_xyz
  1  'x, y, z'
loop_
 _atom_site_type_symbol
 _atom_site_label
 _atom_site_symmetry_multiplicity
 _atom_site_fract_x
 _atom_site_fract_y
 _atom_site_fract_z
 _atom_site_occupancy
  Sm  Sm0  1  0.250000  0.158448  0.823453  1
  Sm  Sm1  1  0.250000  0.354522  0.325916  1
  Sm  Sm2  1  0.750000  0.853124  0.178148  1
  Sm  Sm3  1  0.750000  0.642653  0.673254  1
  Si  Si4  1  0.250000  0.415101  0.632868  1
  Si  Si5  1  0.250000  0.088046  0.137456  1
  Si  Si6  1  0.750000  0.586674  0.365208  1
  Sn  Sn7  1  0.750000  0.917978  0.861985  1
  Sn  Sn8  1  0.250000  0.615215  0.062563  1
  Sn  Sn9  1  0.250000  0.880993  0.558294  1
  Sn  Sn10  1  0.750000  0.381190  0.940902  1
  Sn  Sn11  1  0.750000  0.117413  0.439052  1
  Rh  Rh12  1  0.250000  0.602484  0.496142  1
  Rh  Rh13  1  0.250000  0.896372  0.004243  1
  Rh  Rh14  1  0.750000  0.397685  0.501288  1
  Rh  Rh15  1  0.750000  0.112004  0.014248  1
  Rh  Rh16  1  0.250000  0.688189  0.281945  1
  Rh  Rh17  1  0.250000  0.795525  0.775852  1
  Rh  Rh18  1  0.750000  0.313727  0.716549  1
  Rh  Rh19  1  0.750000  0.192693  0.223911  1
  Rh  Rh20  1  0.250000  0.187530  0.567938  1
  Rh  Rh21  1  0.250000  0.318884  0.072803  1
  Rh  Rh22  1  0.750000  0.816392  0.429503  1
  Rh  Rh23  1  0.750000  0.664591  0.934849  1
  Rh  Rh24  1  0.250000  0.000921  0.329002  1
  Rh  Rh25  1  0.250000  0.494293  0.826600  1
  Rh  Rh26  1  0.750000  0.006800  0.652189  1
  Rh  Rh27  1  0.750000  0.500554  0.173841  1
