# generated using pymatgen
data_LiTh3(Al8Pt3)3
_symmetry_space_group_name_H-M   'P 1'
_cell_length_a   7.58816534
_cell_length_b   7.60025920
_cell_length_c   13.22768586
_cell_angle_alpha   84.53615548
_cell_angle_beta   78.95808648
_cell_angle_gamma   60.00339431
_symmetry_Int_Tables_number   1
_chemical_formula_structural   LiTh3(Al8Pt3)3
_chemical_formula_sum   'Li1 Th3 Al24 Pt9'
_cell_volume   648.45398219
_cell_formula_units_Z   1
loop_
 _symmetry_equiv_pos_site_id
 _symmetry_equiv_pos_as_xyz
  1  'x, y, z'
loop_
 _atom_site_type_symbol
 _atom_site_label
 _atom_site_symmetry_multiplicity
 _atom_site_fract_x
 _atom_site_fract_y
 _atom_site_fract_z
 _atom_site_occupancy
  Li  Li0  1  0.257946  0.499858  0.212216  1
  Th  Th1  1  0.394003  0.169569  0.808326  1
  Th  Th2  1  0.604757  0.832416  0.193729  1
  Th  Th3  1  0.732659  0.497418  0.808362  1
  Al  Al4  1  0.689084  0.834281  0.946395  1
  Al  Al5  1  0.311944  0.177674  0.060383  1
  Al  Al6  1  0.146461  0.832690  0.558230  1
  Al  Al7  1  0.854433  0.166919  0.436565  1
  Al  Al8  1  0.481207  0.167448  0.556071  1
  Al  Al9  1  0.519229  0.833235  0.441793  1
  Al  Al10  1  0.214361  0.174971  0.328062  1
  Al  Al11  1  0.788241  0.833882  0.663773  1
  Al  Al12  1  0.435961  0.510414  0.663378  1
  Al  Al13  1  0.557306  0.489609  0.327887  1
  Al  Al14  1  0.112783  0.155853  0.662751  1
  Al  Al15  1  0.900574  0.834283  0.329052  1
  Al  Al16  1  0.343712  0.504715  0.955729  1
  Al  Al17  1  0.635660  0.499747  0.060701  1
  Al  Al18  1  0.012815  0.163786  0.960842  1
  Al  Al19  1  0.990314  0.826140  0.051822  1
  Al  Al20  1  0.187416  0.499329  0.438494  1
  Al  Al21  1  0.815796  0.499470  0.555819  1
  Al  Al22  1  0.734879  0.164329  0.182439  1
  Al  Al23  1  0.262740  0.834807  0.816181  1
  Al  Al24  1  0.063831  0.633878  0.814288  1
  Al  Al25  1  0.939643  0.368934  0.183305  1
  Al  Al26  1  0.862909  0.035846  0.814980  1
  Al  Al27  1  0.145445  0.955475  0.182033  1
  Pt  Pt28  1  0.120766  0.491497  0.637177  1
  Pt  Pt29  1  0.876361  0.508441  0.360640  1
  Pt  Pt30  1  0.659813  0.169869  0.997467  1
  Pt  Pt31  1  0.345187  0.833459  0.997100  1
  Pt  Pt32  1  0.541424  0.162934  0.361228  1
  Pt  Pt33  1  0.463595  0.833104  0.637652  1
  Pt  Pt34  1  0.779122  0.175237  0.636176  1
  Pt  Pt35  1  0.221654  0.828325  0.361618  1
  Pt  Pt36  1  0.995961  0.500154  0.997330  1
