# generated using pymatgen
data_Tm3LuScPb3
_symmetry_space_group_name_H-M   'P 1'
_cell_length_a   6.40162100
_cell_length_b   8.87373648
_cell_length_c   8.87393801
_cell_angle_alpha   119.99924716
_cell_angle_beta   89.99851457
_cell_angle_gamma   90.00297911
_symmetry_Int_Tables_number   1
_chemical_formula_structural   Tm3LuScPb3
_chemical_formula_sum   'Tm6 Lu2 Sc2 Pb6'
_cell_volume   436.56287648
_cell_formula_units_Z   2
loop_
 _symmetry_equiv_pos_site_id
 _symmetry_equiv_pos_as_xyz
  1  'x, y, z'
loop_
 _atom_site_type_symbol
 _atom_site_label
 _atom_site_symmetry_multiplicity
 _atom_site_fract_x
 _atom_site_fract_y
 _atom_site_fract_z
 _atom_site_occupancy
  Tm  Tm0  1  0.750881  0.237428  0.000000  1
  Tm  Tm1  1  0.750883  0.762513  0.762529  1
  Tm  Tm2  1  0.750883  0.999984  0.237471  1
  Tm  Tm3  1  0.249113  0.762573  0.000000  1
  Tm  Tm4  1  0.249104  0.237486  0.237468  1
  Tm  Tm5  1  0.249104  0.000018  0.762532  1
  Lu  Lu6  1  0.500013  0.333329  0.666672  1
  Lu  Lu7  1  0.500013  0.666657  0.333328  1
  Sc  Sc8  1  0.999999  0.666666  0.333316  1
  Sc  Sc9  1  0.999999  0.333350  0.666684  1
  Pb  Pb10  1  0.754736  0.603471  0.000000  1
  Pb  Pb11  1  0.754731  0.396511  0.396521  1
  Pb  Pb12  1  0.754731  0.999990  0.603479  1
  Pb  Pb13  1  0.245252  0.396533  0.000000  1
  Pb  Pb14  1  0.245280  0.603488  0.603484  1
  Pb  Pb15  1  0.245280  0.000004  0.396516  1
