# generated using pymatgen
data_V5Tc(PbO3)8
_symmetry_space_group_name_H-M   'P 1'
_cell_length_a   9.70412450
_cell_length_b   9.70412393
_cell_length_c   9.70412403
_cell_angle_alpha   109.40228408
_cell_angle_beta   109.40227961
_cell_angle_gamma   109.60918031
_symmetry_Int_Tables_number   1
_chemical_formula_structural   V5Tc(PbO3)8
_chemical_formula_sum   'V5 Tc1 Pb8 O24'
_cell_volume   703.46952080
_cell_formula_units_Z   1
loop_
 _symmetry_equiv_pos_site_id
 _symmetry_equiv_pos_as_xyz
  1  'x, y, z'
loop_
 _atom_site_type_symbol
 _atom_site_label
 _atom_site_symmetry_multiplicity
 _atom_site_fract_x
 _atom_site_fract_y
 _atom_site_fract_z
 _atom_site_occupancy
  V  V0  1  0.375000  0.625000  0.750000  1
  V  V1  1  0.877344  0.252782  0.127168  1
  V  V2  1  0.625614  0.750176  0.372832  1
  V  V3  1  0.249824  0.122656  0.875438  1
  V  V4  1  0.747218  0.374386  0.624562  1
  Tc  Tc5  1  0.125000  0.875000  0.250000  1
  Pb  Pb6  1  0.345841  0.361276  0.326554  1
  Pb  Pb7  1  0.169085  0.490484  0.988525  1
  Pb  Pb8  1  0.001959  0.180560  0.511475  1
  Pb  Pb9  1  0.819440  0.830915  0.821399  1
  Pb  Pb10  1  0.534722  0.019287  0.173446  1
  Pb  Pb11  1  0.638724  0.465278  0.984565  1
  Pb  Pb12  1  0.509516  0.998041  0.678601  1
  Pb  Pb13  1  0.980713  0.654159  0.515435  1
  O  O14  1  0.306516  0.159722  0.079109  1
  O  O15  1  0.189198  0.264220  0.840856  1
  O  O16  1  0.923364  0.348342  0.659144  1
  O  O17  1  0.153772  0.076680  0.305144  1
  O  O18  1  0.807558  0.577451  0.647380  1
  O  O19  1  0.580614  0.227407  0.420891  1
  O  O20  1  0.271536  0.848629  0.194856  1
  O  O21  1  0.686760  0.348779  0.768106  1
  O  O22  1  0.344380  0.652722  0.922679  1
  O  O23  1  0.430070  0.160177  0.852620  1
  O  O24  1  0.230042  0.421700  0.577321  1
  O  O25  1  0.080673  0.918654  0.731894  1
  O  O26  1  0.081346  0.313240  0.162018  1
  O  O27  1  0.651658  0.810802  0.575022  1
  O  O28  1  0.651221  0.919327  0.337982  1
  O  O29  1  0.840278  0.419386  0.146793  1
  O  O30  1  0.422549  0.569930  0.230106  1
  O  O31  1  0.735780  0.076636  0.924978  1
  O  O32  1  0.839823  0.192442  0.269894  1
  O  O33  1  0.772593  0.693484  0.353207  1
  O  O34  1  0.578300  0.655620  0.808342  1
  O  O35  1  0.347278  0.769958  0.691658  1
  O  O36  1  0.923320  0.728464  0.077093  1
  O  O37  1  0.151371  0.846228  0.422907  1
