# generated using pymatgen
data_V3(B3W)2
_symmetry_space_group_name_H-M   'P 1'
_cell_length_a   10.99920139
_cell_length_b   10.99920165
_cell_length_c   3.08391000
_cell_angle_alpha   90.00000000
_cell_angle_beta   90.00000000
_cell_angle_gamma   164.11444537
_symmetry_Int_Tables_number   1
_chemical_formula_structural   V3(B3W)2
_chemical_formula_sum   'V3 B6 W2'
_cell_volume   102.12342376
_cell_formula_units_Z   1
loop_
 _symmetry_equiv_pos_site_id
 _symmetry_equiv_pos_as_xyz
  1  'x, y, z'
loop_
 _atom_site_type_symbol
 _atom_site_label
 _atom_site_symmetry_multiplicity
 _atom_site_fract_x
 _atom_site_fract_y
 _atom_site_fract_z
 _atom_site_occupancy
  V  V0  1  0.195553  0.804447  0.500000  1
  V  V1  1  0.386351  0.613649  0.000000  1
  V  V2  1  0.999479  0.000521  0.000000  1
  B  B3  1  0.916687  0.083313  0.500000  1
  B  B4  1  0.082756  0.917244  0.500000  1
  B  B5  1  0.538325  0.461675  0.500000  1
  B  B6  1  0.459306  0.540694  0.500000  1
  B  B7  1  0.725890  0.274110  0.000000  1
  B  B8  1  0.271697  0.728303  0.000000  1
  W  W9  1  0.807096  0.192904  0.500000  1
  W  W10  1  0.616861  0.383139  0.000000  1
