# generated using pymatgen
data_SmGePRu2
_symmetry_space_group_name_H-M   'P 1'
_cell_length_a   5.76856637
_cell_length_b   5.76856612
_cell_length_c   5.76856647
_cell_angle_alpha   137.52293383
_cell_angle_beta   137.52293096
_cell_angle_gamma   61.63444247
_symmetry_Int_Tables_number   1
_chemical_formula_structural   SmGePRu2
_chemical_formula_sum   'Sm1 Ge1 P1 Ru2'
_cell_volume   86.53247562
_cell_formula_units_Z   1
loop_
 _symmetry_equiv_pos_site_id
 _symmetry_equiv_pos_as_xyz
  1  'x, y, z'
loop_
 _atom_site_type_symbol
 _atom_site_label
 _atom_site_symmetry_multiplicity
 _atom_site_fract_x
 _atom_site_fract_y
 _atom_site_fract_z
 _atom_site_occupancy
  Sm  Sm0  1  0.001711  0.001711  0.000000  1
  Ge  Ge1  1  0.375929  0.375929  0.000000  1
  P  P2  1  0.636910  0.636910  0.000000  1
  Ru  Ru3  1  0.242725  0.742725  0.500000  1
  Ru  Ru4  1  0.742725  0.242725  0.500000  1
