# generated using pymatgen
data_DyEr2Zr3(SnIr)6
_symmetry_space_group_name_H-M   'P 1'
_cell_length_a   7.47038118
_cell_length_b   7.46339642
_cell_length_c   7.58570200
_cell_angle_alpha   90.00000000
_cell_angle_beta   90.00000000
_cell_angle_gamma   119.96655721
_symmetry_Int_Tables_number   1
_chemical_formula_structural   DyEr2Zr3(SnIr)6
_chemical_formula_sum   'Dy1 Er2 Zr3 Sn6 Ir6'
_cell_volume   366.39702323
_cell_formula_units_Z   1
loop_
 _symmetry_equiv_pos_site_id
 _symmetry_equiv_pos_as_xyz
  1  'x, y, z'
loop_
 _atom_site_type_symbol
 _atom_site_label
 _atom_site_symmetry_multiplicity
 _atom_site_fract_x
 _atom_site_fract_y
 _atom_site_fract_z
 _atom_site_occupancy
  Dy  Dy0  1  0.000095  0.406584  0.250000  1
  Er  Er1  1  0.405876  0.999836  0.250000  1
  Er  Er2  1  0.594090  0.594310  0.250000  1
  Zr  Zr3  1  0.607147  0.607705  0.750000  1
  Zr  Zr4  1  0.000476  0.392691  0.750000  1
  Zr  Zr5  1  0.392357  0.999543  0.750000  1
  Sn  Sn6  1  0.266190  0.265497  0.504589  1
  Sn  Sn7  1  0.266190  0.265497  0.995411  1
  Sn  Sn8  1  0.734230  0.000167  0.995352  1
  Sn  Sn9  1  0.999554  0.734100  0.505279  1
  Sn  Sn10  1  0.734230  0.000167  0.504648  1
  Sn  Sn11  1  0.999554  0.734100  0.994721  1
  Ir  Ir12  1  0.666063  0.333204  0.531228  1
  Ir  Ir13  1  0.666063  0.333204  0.968772  1
  Ir  Ir14  1  0.333960  0.667155  0.969975  1
  Ir  Ir15  1  0.333960  0.667155  0.530025  1
  Ir  Ir16  1  0.999989  0.000226  0.750000  1
  Ir  Ir17  1  0.999980  0.998860  0.250000  1
