# generated using pymatgen
data_Lu3Mn(P3Rh4)2
_symmetry_space_group_name_H-M   'P 1'
_cell_length_a   3.87637600
_cell_length_b   11.22829000
_cell_length_c   12.47969100
_cell_angle_alpha   90.00000000
_cell_angle_beta   90.00000000
_cell_angle_gamma   90.00000000
_symmetry_Int_Tables_number   1
_chemical_formula_structural   Lu3Mn(P3Rh4)2
_chemical_formula_sum   'Lu6 Mn2 P12 Rh16'
_cell_volume   543.17947274
_cell_formula_units_Z   2
loop_
 _symmetry_equiv_pos_site_id
 _symmetry_equiv_pos_as_xyz
  1  'x, y, z'
loop_
 _atom_site_type_symbol
 _atom_site_label
 _atom_site_symmetry_multiplicity
 _atom_site_fract_x
 _atom_site_fract_y
 _atom_site_fract_z
 _atom_site_occupancy
  Lu  Lu0  1  0.000000  0.500000  0.522764  1
  Lu  Lu1  1  0.500000  0.000000  0.477236  1
  Lu  Lu2  1  0.500000  0.819475  0.200976  1
  Lu  Lu3  1  0.500000  0.180525  0.200976  1
  Lu  Lu4  1  0.000000  0.680525  0.799024  1
  Lu  Lu5  1  0.000000  0.319475  0.799024  1
  Mn  Mn6  1  0.000000  0.500000  0.987949  1
  Mn  Mn7  1  0.500000  0.000000  0.012051  1
  P  P8  1  0.500000  0.500000  0.882632  1
  P  P9  1  0.000000  0.000000  0.117368  1
  P  P10  1  0.500000  0.500000  0.351419  1
  P  P11  1  0.000000  0.000000  0.648581  1
  P  P12  1  0.500000  0.314594  0.621484  1
  P  P13  1  0.500000  0.685406  0.621484  1
  P  P14  1  0.000000  0.185406  0.378516  1
  P  P15  1  0.000000  0.814594  0.378516  1
  P  P16  1  0.500000  0.849661  0.896824  1
  P  P17  1  0.500000  0.150339  0.896824  1
  P  P18  1  0.000000  0.650339  0.103176  1
  P  P19  1  0.000000  0.349661  0.103176  1
  Rh  Rh20  1  0.500000  0.500000  0.162726  1
  Rh  Rh21  1  0.000000  0.000000  0.837274  1
  Rh  Rh22  1  0.500000  0.500000  0.698385  1
  Rh  Rh23  1  0.000000  0.000000  0.301615  1
  Rh  Rh24  1  0.500000  0.333859  0.990975  1
  Rh  Rh25  1  0.500000  0.666141  0.990975  1
  Rh  Rh26  1  0.000000  0.166141  0.009025  1
  Rh  Rh27  1  0.000000  0.833859  0.009025  1
  Rh  Rh28  1  0.500000  0.295901  0.430654  1
  Rh  Rh29  1  0.500000  0.704099  0.430654  1
  Rh  Rh30  1  0.000000  0.204099  0.569346  1
  Rh  Rh31  1  0.000000  0.795901  0.569346  1
  Rh  Rh32  1  0.500000  0.871669  0.712484  1
  Rh  Rh33  1  0.500000  0.128331  0.712484  1
  Rh  Rh34  1  0.000000  0.628331  0.287516  1
  Rh  Rh35  1  0.000000  0.371669  0.287516  1
