# generated using pymatgen
data_Tm4MnB12Ir
_symmetry_space_group_name_H-M   'P 1'
_cell_length_a   3.57499600
_cell_length_b   9.04920855
_cell_length_c   11.41632250
_cell_angle_alpha   89.89834556
_cell_angle_beta   90.00000000
_cell_angle_gamma   90.00000000
_symmetry_Int_Tables_number   1
_chemical_formula_structural   Tm4MnB12Ir
_chemical_formula_sum   'Tm8 Mn2 B24 Ir2'
_cell_volume   369.32754801
_cell_formula_units_Z   2
loop_
 _symmetry_equiv_pos_site_id
 _symmetry_equiv_pos_as_xyz
  1  'x, y, z'
loop_
 _atom_site_type_symbol
 _atom_site_label
 _atom_site_symmetry_multiplicity
 _atom_site_fract_x
 _atom_site_fract_y
 _atom_site_fract_z
 _atom_site_occupancy
  Tm  Tm0  1  0.000000  0.327447  0.418193  1
  Tm  Tm1  1  0.000000  0.672553  0.581807  1
  Tm  Tm2  1  0.000000  0.816090  0.090398  1
  Tm  Tm3  1  0.000000  0.183910  0.909602  1
  Tm  Tm4  1  0.000000  0.939221  0.374659  1
  Tm  Tm5  1  0.000000  0.060779  0.625341  1
  Tm  Tm6  1  0.000000  0.448087  0.129389  1
  Tm  Tm7  1  0.000000  0.551913  0.870611  1
  Mn  Mn8  1  0.000000  0.638839  0.319753  1
  Mn  Mn9  1  0.000000  0.361161  0.680247  1
  B  B10  1  0.500000  0.553620  0.432407  1
  B  B11  1  0.500000  0.446380  0.567593  1
  B  B12  1  0.500000  0.053355  0.065859  1
  B  B13  1  0.500000  0.946645  0.934141  1
  B  B14  1  0.500000  0.745657  0.418917  1
  B  B15  1  0.500000  0.254343  0.581083  1
  B  B16  1  0.500000  0.250558  0.078675  1
  B  B17  1  0.500000  0.749442  0.921325  1
  B  B18  1  0.500000  0.790463  0.266908  1
  B  B19  1  0.500000  0.209537  0.733092  1
  B  B20  1  0.500000  0.292691  0.234749  1
  B  B21  1  0.500000  0.707309  0.765251  1
  B  B22  1  0.500000  0.631970  0.186551  1
  B  B23  1  0.500000  0.368030  0.813449  1
  B  B24  1  0.500000  0.131757  0.317044  1
  B  B25  1  0.500000  0.868243  0.682956  1
  B  B26  1  0.500000  0.980909  0.213393  1
  B  B27  1  0.500000  0.019091  0.786607  1
  B  B28  1  0.500000  0.484961  0.288287  1
  B  B29  1  0.500000  0.515039  0.711713  1
  B  B30  1  0.500000  0.608185  0.029480  1
  B  B31  1  0.500000  0.391815  0.970520  1
  B  B32  1  0.500000  0.109237  0.469672  1
  B  B33  1  0.500000  0.890763  0.530328  1
  Ir  Ir34  1  0.000000  0.137755  0.178274  1
  Ir  Ir35  1  0.000000  0.862245  0.821726  1
