# generated using pymatgen
data_Pr5ReRuO12
_symmetry_space_group_name_H-M   'P 1'
_cell_length_a   7.14511311
_cell_length_b   7.14511368
_cell_length_c   7.89063591
_cell_angle_alpha   73.76663356
_cell_angle_beta   73.76663295
_cell_angle_gamma   48.12114194
_symmetry_Int_Tables_number   1
_chemical_formula_structural   Pr5ReRuO12
_chemical_formula_sum   'Pr5 Re1 Ru1 O12'
_cell_volume   285.53414179
_cell_formula_units_Z   1
loop_
 _symmetry_equiv_pos_site_id
 _symmetry_equiv_pos_as_xyz
  1  'x, y, z'
loop_
 _atom_site_type_symbol
 _atom_site_label
 _atom_site_symmetry_multiplicity
 _atom_site_fract_x
 _atom_site_fract_y
 _atom_site_fract_z
 _atom_site_occupancy
  Pr  Pr0  1  0.291426  0.322552  0.354231  1
  Pr  Pr1  1  0.677448  0.708574  0.645769  1
  Pr  Pr2  1  0.680788  0.691119  0.168963  1
  Pr  Pr3  1  0.308881  0.319212  0.831037  1
  Pr  Pr4  1  0.990721  0.009279  0.500000  1
  Re  Re5  1  0.798474  0.201526  0.000000  1
  Ru  Ru6  1  0.231152  0.768848  0.000000  1
  O  O7  1  0.085318  0.599014  0.580335  1
  O  O8  1  0.996856  0.002891  0.194328  1
  O  O9  1  0.400986  0.914682  0.419665  1
  O  O10  1  0.515566  0.482673  0.163738  1
  O  O11  1  0.086505  0.577339  0.080748  1
  O  O12  1  0.892420  0.410752  0.428221  1
  O  O13  1  0.997109  0.003144  0.805672  1
  O  O14  1  0.589248  0.107579  0.571779  1
  O  O15  1  0.517327  0.484434  0.836262  1
  O  O16  1  0.606630  0.089517  0.077351  1
  O  O17  1  0.422661  0.913495  0.919252  1
  O  O18  1  0.910483  0.393370  0.922649  1
