# generated using pymatgen
data_Cr22SiC6
_symmetry_space_group_name_H-M   'P 1'
_cell_length_a   7.46202283
_cell_length_b   7.46202371
_cell_length_c   7.46202300
_cell_angle_alpha   59.99999870
_cell_angle_beta   59.99999483
_cell_angle_gamma   60.00000298
_symmetry_Int_Tables_number   1
_chemical_formula_structural   Cr22SiC6
_chemical_formula_sum   'Cr22 Si1 C6'
_cell_volume   293.80201639
_cell_formula_units_Z   1
loop_
 _symmetry_equiv_pos_site_id
 _symmetry_equiv_pos_as_xyz
  1  'x, y, z'
loop_
 _atom_site_type_symbol
 _atom_site_label
 _atom_site_symmetry_multiplicity
 _atom_site_fract_x
 _atom_site_fract_y
 _atom_site_fract_z
 _atom_site_occupancy
  Cr  Cr0  1  0.750000  0.750000  0.750000  1
  Cr  Cr1  1  0.250000  0.250000  0.250000  1
  Cr  Cr2  1  0.619425  0.619425  0.141725  1
  Cr  Cr3  1  0.619425  0.141725  0.619425  1
  Cr  Cr4  1  0.141725  0.619425  0.619425  1
  Cr  Cr5  1  0.619425  0.619425  0.619425  1
  Cr  Cr6  1  0.380575  0.380575  0.858275  1
  Cr  Cr7  1  0.380575  0.858275  0.380575  1
  Cr  Cr8  1  0.858275  0.380575  0.380575  1
  Cr  Cr9  1  0.380575  0.380575  0.380575  1
  Cr  Cr10  1  0.000000  0.000000  0.339579  1
  Cr  Cr11  1  0.660421  0.000000  0.339579  1
  Cr  Cr12  1  0.000000  0.660421  0.339579  1
  Cr  Cr13  1  0.660421  0.339579  0.000000  1
  Cr  Cr14  1  0.000000  0.339579  0.000000  1
  Cr  Cr15  1  0.000000  0.339579  0.660421  1
  Cr  Cr16  1  0.339579  0.660421  0.000000  1
  Cr  Cr17  1  0.339579  0.000000  0.660421  1
  Cr  Cr18  1  0.339579  0.000000  0.000000  1
  Cr  Cr19  1  0.000000  0.000000  0.660421  1
  Cr  Cr20  1  0.000000  0.660421  0.000000  1
  Cr  Cr21  1  0.660421  0.000000  0.000000  1
  Si  Si22  1  0.000000  0.000000  0.000000  1
  C  C23  1  0.719643  0.719643  0.280357  1
  C  C24  1  0.280357  0.719643  0.280357  1
  C  C25  1  0.719643  0.280357  0.280357  1
  C  C26  1  0.280357  0.280357  0.719643  1
  C  C27  1  0.719643  0.280357  0.719643  1
  C  C28  1  0.280357  0.719643  0.719643  1
