# generated using pymatgen
data_Tm2LuSi2Ag3Sn
_symmetry_space_group_name_H-M   'P 1'
_cell_length_a   7.09956051
_cell_length_b   7.10420971
_cell_length_c   4.26170500
_cell_angle_alpha   90.00000000
_cell_angle_beta   90.00000000
_cell_angle_gamma   120.02166211
_symmetry_Int_Tables_number   1
_chemical_formula_structural   Tm2LuSi2Ag3Sn
_chemical_formula_sum   'Tm2 Lu1 Si2 Ag3 Sn1'
_cell_volume   186.10858781
_cell_formula_units_Z   1
loop_
 _symmetry_equiv_pos_site_id
 _symmetry_equiv_pos_as_xyz
  1  'x, y, z'
loop_
 _atom_site_type_symbol
 _atom_site_label
 _atom_site_symmetry_multiplicity
 _atom_site_fract_x
 _atom_site_fract_y
 _atom_site_fract_z
 _atom_site_occupancy
  Tm  Tm0  1  0.565132  0.565065  0.000000  1
  Tm  Tm1  1  0.434868  0.999933  0.000000  1
  Lu  Lu2  1  0.000000  0.434993  0.000000  1
  Si  Si3  1  0.332880  0.666408  0.500000  1
  Si  Si4  1  0.667120  0.333526  0.500000  1
  Ag  Ag5  1  0.264521  0.264572  0.500000  1
  Ag  Ag6  1  0.735479  0.000051  0.500000  1
  Ag  Ag7  1  0.000000  0.735083  0.500000  1
  Sn  Sn8  1  0.000000  0.000369  0.000000  1
