# generated using pymatgen
data_TmZrMnIr3
_symmetry_space_group_name_H-M   'P 1'
_cell_length_a   5.11569462
_cell_length_b   5.11569601
_cell_length_c   5.11569499
_cell_angle_alpha   63.59362120
_cell_angle_beta   63.59361528
_cell_angle_gamma   63.59361928
_symmetry_Int_Tables_number   1
_chemical_formula_structural   TmZrMnIr3
_chemical_formula_sum   'Tm1 Zr1 Mn1 Ir3'
_cell_volume   102.18433383
_cell_formula_units_Z   1
loop_
 _symmetry_equiv_pos_site_id
 _symmetry_equiv_pos_as_xyz
  1  'x, y, z'
loop_
 _atom_site_type_symbol
 _atom_site_label
 _atom_site_symmetry_multiplicity
 _atom_site_fract_x
 _atom_site_fract_y
 _atom_site_fract_z
 _atom_site_occupancy
  Tm  Tm0  1  0.251084  0.251084  0.251084  1
  Zr  Zr1  1  0.998247  0.998247  0.998247  1
  Mn  Mn2  1  0.625120  0.625120  0.625120  1
  Ir  Ir3  1  0.625066  0.625066  0.125413  1
  Ir  Ir4  1  0.625066  0.125413  0.625066  1
  Ir  Ir5  1  0.125413  0.625066  0.625066  1
