# generated using pymatgen
data_Dy12Si12RuRh3
_symmetry_space_group_name_H-M   'P 1'
_cell_length_a   4.22044600
_cell_length_b   10.70625275
_cell_length_c   12.36954901
_cell_angle_alpha   90.04595092
_cell_angle_beta   90.00000000
_cell_angle_gamma   90.00000000
_symmetry_Int_Tables_number   1
_chemical_formula_structural   Dy12Si12RuRh3
_chemical_formula_sum   'Dy12 Si12 Ru1 Rh3'
_cell_volume   558.91989105
_cell_formula_units_Z   1
loop_
 _symmetry_equiv_pos_site_id
 _symmetry_equiv_pos_as_xyz
  1  'x, y, z'
loop_
 _atom_site_type_symbol
 _atom_site_label
 _atom_site_symmetry_multiplicity
 _atom_site_fract_x
 _atom_site_fract_y
 _atom_site_fract_z
 _atom_site_occupancy
  Dy  Dy0  1  0.250000  0.878372  0.019438  1
  Dy  Dy1  1  0.250000  0.620177  0.520339  1
  Dy  Dy2  1  0.750000  0.120860  0.980267  1
  Dy  Dy3  1  0.750000  0.378920  0.480846  1
  Dy  Dy4  1  0.250000  0.920936  0.604332  1
  Dy  Dy5  1  0.250000  0.579560  0.105109  1
  Dy  Dy6  1  0.750000  0.079402  0.395545  1
  Dy  Dy7  1  0.750000  0.420971  0.895357  1
  Dy  Dy8  1  0.250000  0.661142  0.799496  1
  Dy  Dy9  1  0.250000  0.839763  0.300342  1
  Dy  Dy10  1  0.750000  0.339837  0.199256  1
  Dy  Dy11  1  0.750000  0.159277  0.699761  1
  Si  Si12  1  0.250000  0.013604  0.822862  1
  Si  Si13  1  0.250000  0.485965  0.322424  1
  Si  Si14  1  0.750000  0.986447  0.177432  1
  Si  Si15  1  0.750000  0.511036  0.678969  1
  Si  Si16  1  0.250000  0.249136  0.839994  1
  Si  Si17  1  0.250000  0.251856  0.341454  1
  Si  Si18  1  0.750000  0.752150  0.158483  1
  Si  Si19  1  0.750000  0.749004  0.657878  1
  Si  Si20  1  0.250000  0.201440  0.542678  1
  Si  Si21  1  0.250000  0.300384  0.041022  1
  Si  Si22  1  0.750000  0.800878  0.458661  1
  Si  Si23  1  0.750000  0.698269  0.958333  1
  Ru  Ru24  1  0.250000  0.391236  0.681282  1
  Rh  Rh25  1  0.250000  0.109494  0.182018  1
  Rh  Rh26  1  0.750000  0.609709  0.318309  1
  Rh  Rh27  1  0.750000  0.890174  0.818112  1
