# generated using pymatgen
data_Ta3B2Os5
_symmetry_space_group_name_H-M   'P 1'
_cell_length_a   9.56177100
_cell_length_b   9.56177100
_cell_length_c   3.01572200
_cell_angle_alpha   90.00000000
_cell_angle_beta   90.00000000
_cell_angle_gamma   90.00000000
_symmetry_Int_Tables_number   1
_chemical_formula_structural   Ta3B2Os5
_chemical_formula_sum   'Ta6 B4 Os10'
_cell_volume   275.71981657
_cell_formula_units_Z   2
loop_
 _symmetry_equiv_pos_site_id
 _symmetry_equiv_pos_as_xyz
  1  'x, y, z'
loop_
 _atom_site_type_symbol
 _atom_site_label
 _atom_site_symmetry_multiplicity
 _atom_site_fract_x
 _atom_site_fract_y
 _atom_site_fract_z
 _atom_site_occupancy
  Ta  Ta0  1  0.822893  0.677107  0.000000  1
  Ta  Ta1  1  0.177107  0.322893  0.000000  1
  Ta  Ta2  1  0.322893  0.822893  0.000000  1
  Ta  Ta3  1  0.677107  0.177107  0.000000  1
  Ta  Ta4  1  0.500000  0.500000  0.000000  1
  Ta  Ta5  1  0.000000  0.000000  0.000000  1
  B  B6  1  0.621127  0.878873  0.000000  1
  B  B7  1  0.378873  0.121127  0.000000  1
  B  B8  1  0.121127  0.621127  0.000000  1
  B  B9  1  0.878873  0.378873  0.000000  1
  Os  Os10  1  0.571776  0.718666  0.500000  1
  Os  Os11  1  0.428224  0.281334  0.500000  1
  Os  Os12  1  0.071776  0.781334  0.500000  1
  Os  Os13  1  0.928224  0.218666  0.500000  1
  Os  Os14  1  0.281334  0.571776  0.500000  1
  Os  Os15  1  0.718666  0.428224  0.500000  1
  Os  Os16  1  0.218666  0.071776  0.500000  1
  Os  Os17  1  0.781334  0.928224  0.500000  1
  Os  Os18  1  0.500000  0.000000  0.500000  1
  Os  Os19  1  0.000000  0.500000  0.500000  1
