# generated using pymatgen
data_Tb3YbPtRh3O14
_symmetry_space_group_name_H-M   'P 1'
_cell_length_a   7.26891881
_cell_length_b   7.24183158
_cell_length_c   7.26891800
_cell_angle_alpha   59.87618631
_cell_angle_beta   59.99999457
_cell_angle_gamma   59.87618813
_symmetry_Int_Tables_number   1
_chemical_formula_structural   Tb3YbPtRh3O14
_chemical_formula_sum   'Tb3 Yb1 Pt1 Rh3 O14'
_cell_volume   270.05840636
_cell_formula_units_Z   1
loop_
 _symmetry_equiv_pos_site_id
 _symmetry_equiv_pos_as_xyz
  1  'x, y, z'
loop_
 _atom_site_type_symbol
 _atom_site_label
 _atom_site_symmetry_multiplicity
 _atom_site_fract_x
 _atom_site_fract_y
 _atom_site_fract_z
 _atom_site_occupancy
  Tb  Tb0  1  0.625000  0.625000  0.125000  1
  Tb  Tb1  1  0.625000  0.625000  0.625000  1
  Tb  Tb2  1  0.125000  0.625000  0.625000  1
  Yb  Yb3  1  0.625000  0.125000  0.625000  1
  Pt  Pt4  1  0.125000  0.625000  0.125000  1
  Rh  Rh5  1  0.125000  0.125000  0.125000  1
  Rh  Rh6  1  0.625000  0.125000  0.125000  1
  Rh  Rh7  1  0.125000  0.125000  0.625000  1
  O  O8  1  0.037453  0.462813  0.462281  1
  O  O9  1  0.787719  0.787187  0.212547  1
  O  O10  1  0.794228  0.209489  0.202056  1
  O  O11  1  0.455772  0.040511  0.455772  1
  O  O12  1  0.037453  0.462813  0.037453  1
  O  O13  1  0.751148  0.746558  0.751148  1
  O  O14  1  0.047944  0.040511  0.455772  1
  O  O15  1  0.212547  0.787187  0.212547  1
  O  O16  1  0.202056  0.209489  0.794228  1
  O  O17  1  0.498852  0.503442  0.498852  1
  O  O18  1  0.794228  0.209489  0.794228  1
  O  O19  1  0.455772  0.040511  0.047944  1
  O  O20  1  0.462281  0.462813  0.037453  1
  O  O21  1  0.212547  0.787187  0.787719  1
