# generated using pymatgen
data_Lu2SiB2Ir2Rh3
_symmetry_space_group_name_H-M   'P 1'
_cell_length_a   9.30318002
_cell_length_b   9.30258402
_cell_length_c   3.21413400
_cell_angle_alpha   90.00000000
_cell_angle_beta   90.00000000
_cell_angle_gamma   89.99299114
_symmetry_Int_Tables_number   1
_chemical_formula_structural   Lu2SiB2Ir2Rh3
_chemical_formula_sum   'Lu4 Si2 B4 Ir4 Rh6'
_cell_volume   278.16276933
_cell_formula_units_Z   2
loop_
 _symmetry_equiv_pos_site_id
 _symmetry_equiv_pos_as_xyz
  1  'x, y, z'
loop_
 _atom_site_type_symbol
 _atom_site_label
 _atom_site_symmetry_multiplicity
 _atom_site_fract_x
 _atom_site_fract_y
 _atom_site_fract_z
 _atom_site_occupancy
  Lu  Lu0  1  0.176669  0.675567  0.000000  1
  Lu  Lu1  1  0.676820  0.822902  0.000000  1
  Lu  Lu2  1  0.324873  0.177480  0.000000  1
  Lu  Lu3  1  0.822301  0.323397  0.000000  1
  Si  Si4  1  0.999714  0.999689  0.000000  1
  Si  Si5  1  0.499806  0.500490  0.000000  1
  B  B6  1  0.376290  0.880286  0.000000  1
  B  B7  1  0.879918  0.620566  0.000000  1
  B  B8  1  0.119664  0.375882  0.000000  1
  B  B9  1  0.621100  0.120142  0.000000  1
  Ir  Ir10  1  0.999133  0.500162  0.500000  1
  Ir  Ir11  1  0.501503  0.000180  0.500000  1
  Ir  Ir12  1  0.214614  0.931633  0.500000  1
  Ir  Ir13  1  0.069207  0.214108  0.500000  1
  Rh  Rh14  1  0.286921  0.431037  0.500000  1
  Rh  Rh15  1  0.713147  0.569895  0.500000  1
  Rh  Rh16  1  0.569589  0.287072  0.500000  1
  Rh  Rh17  1  0.430728  0.713262  0.500000  1
  Rh  Rh18  1  0.931033  0.786569  0.500000  1
  Rh  Rh19  1  0.786970  0.069680  0.500000  1
