# generated using pymatgen
data_Tb12Er8Co3Bi8Os
_symmetry_space_group_name_H-M   'P 1'
_cell_length_a   7.99252889
_cell_length_b   8.92088300
_cell_length_c   12.45111404
_cell_angle_alpha   90.00000000
_cell_angle_beta   90.31203724
_cell_angle_gamma   90.00000000
_symmetry_Int_Tables_number   1
_chemical_formula_structural   Tb12Er8Co3Bi8Os
_chemical_formula_sum   'Tb12 Er8 Co3 Bi8 Os1'
_cell_volume   887.75643463
_cell_formula_units_Z   1
loop_
 _symmetry_equiv_pos_site_id
 _symmetry_equiv_pos_as_xyz
  1  'x, y, z'
loop_
 _atom_site_type_symbol
 _atom_site_label
 _atom_site_symmetry_multiplicity
 _atom_site_fract_x
 _atom_site_fract_y
 _atom_site_fract_z
 _atom_site_occupancy
  Tb  Tb0  1  0.848573  0.750000  0.800782  1
  Tb  Tb1  1  0.150416  0.250000  0.197730  1
  Tb  Tb2  1  0.349854  0.250000  0.698418  1
  Tb  Tb3  1  0.652841  0.750000  0.294885  1
  Tb  Tb4  1  0.379290  0.750000  0.693989  1
  Tb  Tb5  1  0.618092  0.250000  0.310930  1
  Tb  Tb6  1  0.881670  0.250000  0.811688  1
  Tb  Tb7  1  0.117677  0.750000  0.186154  1
  Tb  Tb8  1  0.945242  0.750000  0.504242  1
  Tb  Tb9  1  0.051094  0.250000  0.496482  1
  Tb  Tb10  1  0.451146  0.250000  0.997348  1
  Tb  Tb11  1  0.547619  0.750000  0.002447  1
  Er  Er12  1  0.675178  0.042082  0.564525  1
  Er  Er13  1  0.325909  0.964648  0.437244  1
  Er  Er14  1  0.173614  0.966755  0.937369  1
  Er  Er15  1  0.325909  0.535352  0.437244  1
  Er  Er16  1  0.825204  0.035942  0.062324  1
  Er  Er17  1  0.675178  0.457918  0.564525  1
  Er  Er18  1  0.825204  0.464058  0.062324  1
  Er  Er19  1  0.173614  0.533245  0.937369  1
  Co  Co20  1  0.435280  0.250000  0.491144  1
  Co  Co21  1  0.058200  0.250000  0.992446  1
  Co  Co22  1  0.940038  0.750000  0.006623  1
  Bi  Bi23  1  0.571878  0.491525  0.827594  1
  Bi  Bi24  1  0.427516  0.507519  0.173154  1
  Bi  Bi25  1  0.071766  0.507400  0.674506  1
  Bi  Bi26  1  0.427516  0.992481  0.173154  1
  Bi  Bi27  1  0.930629  0.492479  0.325702  1
  Bi  Bi28  1  0.571878  0.008475  0.827594  1
  Bi  Bi29  1  0.930629  0.007521  0.325702  1
  Bi  Bi30  1  0.071766  0.992600  0.674506  1
  Os  Os31  1  0.569580  0.750000  0.509852  1
