# generated using pymatgen
data_Eu8Si15Ir
_symmetry_space_group_name_H-M   'P 1'
_cell_length_a   8.23407100
_cell_length_b   8.23407154
_cell_length_c   8.55567600
_cell_angle_alpha   90.00000000
_cell_angle_beta   90.00000000
_cell_angle_gamma   120.00000184
_symmetry_Int_Tables_number   1
_chemical_formula_structural   Eu8Si15Ir
_chemical_formula_sum   'Eu8 Si15 Ir1'
_cell_volume   502.35901109
_cell_formula_units_Z   1
loop_
 _symmetry_equiv_pos_site_id
 _symmetry_equiv_pos_as_xyz
  1  'x, y, z'
loop_
 _atom_site_type_symbol
 _atom_site_label
 _atom_site_symmetry_multiplicity
 _atom_site_fract_x
 _atom_site_fract_y
 _atom_site_fract_z
 _atom_site_occupancy
  Eu  Eu0  1  0.499947  0.500053  0.748799  1
  Eu  Eu1  1  0.500369  0.499631  0.251232  1
  Eu  Eu2  1  0.000109  0.500053  0.748799  1
  Eu  Eu3  1  0.999264  0.499631  0.251232  1
  Eu  Eu4  1  0.499947  0.999891  0.748799  1
  Eu  Eu5  1  0.500369  0.000736  0.251232  1
  Eu  Eu6  1  0.000000  0.000000  0.748783  1
  Eu  Eu7  1  0.000000  0.000000  0.250937  1
  Si  Si8  1  0.829173  0.170827  0.000104  1
  Si  Si9  1  0.161106  0.838894  0.999712  1
  Si  Si10  1  0.341655  0.170827  0.000104  1
  Si  Si11  1  0.166126  0.833874  0.500618  1
  Si  Si12  1  0.677786  0.838894  0.999712  1
  Si  Si13  1  0.833387  0.166613  0.499346  1
  Si  Si14  1  0.829173  0.658345  0.000104  1
  Si  Si15  1  0.667748  0.833874  0.500618  1
  Si  Si16  1  0.161106  0.322214  0.999712  1
  Si  Si17  1  0.333227  0.166613  0.499346  1
  Si  Si18  1  0.166126  0.332252  0.500618  1
  Si  Si19  1  0.833387  0.666773  0.499346  1
  Si  Si20  1  0.333333  0.666667  0.001314  1
  Si  Si21  1  0.333333  0.666667  0.498426  1
  Si  Si22  1  0.666667  0.333333  0.501540  1
  Ir  Ir23  1  0.666667  0.333333  0.999569  1
