# generated using pymatgen
data_Pr3Nd8In(Hg2Ir)4
_symmetry_space_group_name_H-M   'P 1'
_cell_length_a   13.41444591
_cell_length_b   13.41444438
_cell_length_c   3.89305000
_cell_angle_alpha   90.00000000
_cell_angle_beta   90.00000000
_cell_angle_gamma   114.41502938
_symmetry_Int_Tables_number   1
_chemical_formula_structural   Pr3Nd8In(Hg2Ir)4
_chemical_formula_sum   'Pr3 Nd8 In1 Hg8 Ir4'
_cell_volume   637.89802716
_cell_formula_units_Z   1
loop_
 _symmetry_equiv_pos_site_id
 _symmetry_equiv_pos_as_xyz
  1  'x, y, z'
loop_
 _atom_site_type_symbol
 _atom_site_label
 _atom_site_symmetry_multiplicity
 _atom_site_fract_x
 _atom_site_fract_y
 _atom_site_fract_z
 _atom_site_occupancy
  Pr  Pr0  1  0.500000  0.500000  0.500000  1
  Pr  Pr1  1  0.333042  0.666958  0.500000  1
  Pr  Pr2  1  0.666958  0.333042  0.500000  1
  Nd  Nd3  1  0.797385  0.797385  0.500000  1
  Nd  Nd4  1  0.202615  0.202615  0.500000  1
  Nd  Nd5  1  0.588080  0.919170  0.500000  1
  Nd  Nd6  1  0.411920  0.080830  0.500000  1
  Nd  Nd7  1  0.919170  0.588080  0.500000  1
  Nd  Nd8  1  0.080830  0.411920  0.500000  1
  Nd  Nd9  1  0.129365  0.870635  0.500000  1
  Nd  Nd10  1  0.870635  0.129365  0.500000  1
  In  In11  1  0.000000  0.000000  0.000000  1
  Hg  Hg12  1  0.349825  0.868102  0.000000  1
  Hg  Hg13  1  0.650175  0.131898  0.000000  1
  Hg  Hg14  1  0.868102  0.349825  0.000000  1
  Hg  Hg15  1  0.131898  0.650175  0.000000  1
  Hg  Hg16  1  0.559241  0.712290  0.000000  1
  Hg  Hg17  1  0.440759  0.287710  0.000000  1
  Hg  Hg18  1  0.712290  0.559241  0.000000  1
  Hg  Hg19  1  0.287710  0.440759  0.000000  1
  Ir  Ir20  1  0.758347  0.949204  0.000000  1
  Ir  Ir21  1  0.241653  0.050796  0.000000  1
  Ir  Ir22  1  0.949204  0.758347  0.000000  1
  Ir  Ir23  1  0.050796  0.241653  0.000000  1
