# generated using pymatgen
data_HoLuVIr3
_symmetry_space_group_name_H-M   'P 1'
_cell_length_a   5.56254674
_cell_length_b   5.10499498
_cell_length_c   5.56254700
_cell_angle_alpha   56.98804247
_cell_angle_beta   60.00000440
_cell_angle_gamma   56.98804082
_symmetry_Int_Tables_number   1
_chemical_formula_structural   HoLuVIr3
_chemical_formula_sum   'Ho1 Lu1 V1 Ir3'
_cell_volume   106.33517084
_cell_formula_units_Z   1
loop_
 _symmetry_equiv_pos_site_id
 _symmetry_equiv_pos_as_xyz
  1  'x, y, z'
loop_
 _atom_site_type_symbol
 _atom_site_label
 _atom_site_symmetry_multiplicity
 _atom_site_fract_x
 _atom_site_fract_y
 _atom_site_fract_z
 _atom_site_occupancy
  Ho  Ho0  1  0.498381  0.504857  0.498381  1
  Lu  Lu1  1  0.753222  0.740334  0.753222  1
  V  V2  1  0.124830  0.625511  0.124830  1
  Ir  Ir3  1  0.625345  0.126432  0.124112  1
  Ir  Ir4  1  0.124112  0.126432  0.124112  1
  Ir  Ir5  1  0.124112  0.126432  0.625345  1
