# generated using pymatgen
data_Yb3ErOs5Ru3
_symmetry_space_group_name_H-M   'P 1'
_cell_length_a   5.26354864
_cell_length_b   5.19394276
_cell_length_c   8.92752852
_cell_angle_alpha   89.99440146
_cell_angle_beta   89.94476232
_cell_angle_gamma   119.62562591
_symmetry_Int_Tables_number   1
_chemical_formula_structural   Yb3ErOs5Ru3
_chemical_formula_sum   'Yb3 Er1 Os5 Ru3'
_cell_volume   212.15994869
_cell_formula_units_Z   1
loop_
 _symmetry_equiv_pos_site_id
 _symmetry_equiv_pos_as_xyz
  1  'x, y, z'
loop_
 _atom_site_type_symbol
 _atom_site_label
 _atom_site_symmetry_multiplicity
 _atom_site_fract_x
 _atom_site_fract_y
 _atom_site_fract_z
 _atom_site_occupancy
  Yb  Yb0  1  0.332406  0.666050  0.430521  1
  Yb  Yb1  1  0.331650  0.665650  0.065065  1
  Yb  Yb2  1  0.665014  0.332572  0.939510  1
  Er  Er3  1  0.667335  0.333736  0.567157  1
  Os  Os4  1  0.174214  0.345093  0.748965  1
  Os  Os5  1  0.174258  0.828912  0.748937  1
  Os  Os6  1  0.660755  0.830372  0.749923  1
  Os  Os7  1  0.835353  0.661381  0.250135  1
  Os  Os8  1  0.834749  0.174361  0.250153  1
  Ru  Ru9  1  0.987690  0.993815  0.499138  1
  Ru  Ru10  1  0.986398  0.993192  0.999247  1
  Ru  Ru11  1  0.350175  0.174867  0.251248  1
