# generated using pymatgen
data_Nd6Cd22AgGe
_symmetry_space_group_name_H-M   'P 1'
_cell_length_a   10.07460315
_cell_length_b   10.03572455
_cell_length_c   10.07460254
_cell_angle_alpha   60.12757312
_cell_angle_beta   60.31875104
_cell_angle_gamma   60.12757403
_symmetry_Int_Tables_number   1
_chemical_formula_structural   Nd6Cd22AgGe
_chemical_formula_sum   'Nd6 Cd22 Ag1 Ge1'
_cell_volume   723.37531485
_cell_formula_units_Z   1
loop_
 _symmetry_equiv_pos_site_id
 _symmetry_equiv_pos_as_xyz
  1  'x, y, z'
loop_
 _atom_site_type_symbol
 _atom_site_label
 _atom_site_symmetry_multiplicity
 _atom_site_fract_x
 _atom_site_fract_y
 _atom_site_fract_z
 _atom_site_occupancy
  Nd  Nd0  1  0.792690  0.792093  0.207310  1
  Nd  Nd1  1  0.208548  0.791452  0.208548  1
  Nd  Nd2  1  0.792690  0.207907  0.207310  1
  Nd  Nd3  1  0.207310  0.207907  0.792690  1
  Nd  Nd4  1  0.791452  0.208548  0.791452  1
  Nd  Nd5  1  0.207310  0.792093  0.792690  1
  Cd  Cd6  1  0.830012  0.837379  0.495230  1
  Cd  Cd7  1  0.834950  0.493814  0.834950  1
  Cd  Cd8  1  0.495230  0.837379  0.830012  1
  Cd  Cd9  1  0.834950  0.836285  0.834950  1
  Cd  Cd10  1  0.169988  0.162621  0.504770  1
  Cd  Cd11  1  0.165050  0.506186  0.165050  1
  Cd  Cd12  1  0.504770  0.162621  0.169988  1
  Cd  Cd13  1  0.165050  0.163715  0.165050  1
  Cd  Cd14  1  0.622403  0.622256  0.133085  1
  Cd  Cd15  1  0.619139  0.133041  0.619139  1
  Cd  Cd16  1  0.133085  0.622256  0.622403  1
  Cd  Cd17  1  0.619139  0.628683  0.619139  1
  Cd  Cd18  1  0.377597  0.377744  0.866915  1
  Cd  Cd19  1  0.380861  0.866959  0.380861  1
  Cd  Cd20  1  0.866915  0.377744  0.377597  1
  Cd  Cd21  1  0.380861  0.371317  0.380861  1
  Cd  Cd22  1  0.000000  0.000000  0.500000  1
  Cd  Cd23  1  0.000000  0.500000  0.500000  1
  Cd  Cd24  1  0.500000  0.500000  0.000000  1
  Cd  Cd25  1  0.000000  0.500000  0.000000  1
  Cd  Cd26  1  0.500000  0.000000  0.000000  1
  Cd  Cd27  1  0.500000  0.500000  0.500000  1
  Ag  Ag28  1  0.500000  0.000000  0.500000  1
  Ge  Ge29  1  0.000000  0.000000  0.000000  1
