# generated using pymatgen
data_NdMgSiBi(PPd4)5
_symmetry_space_group_name_H-M   'P 1'
_cell_length_a   8.63642301
_cell_length_b   8.63536263
_cell_length_c   8.63536300
_cell_angle_alpha   60.01348567
_cell_angle_beta   59.99594373
_cell_angle_gamma   59.99594064
_symmetry_Int_Tables_number   1
_chemical_formula_structural   NdMgSiBi(PPd4)5
_chemical_formula_sum   'Nd1 Mg1 Si1 Bi1 P5 Pd20'
_cell_volume   455.40488457
_cell_formula_units_Z   1
loop_
 _symmetry_equiv_pos_site_id
 _symmetry_equiv_pos_as_xyz
  1  'x, y, z'
loop_
 _atom_site_type_symbol
 _atom_site_label
 _atom_site_symmetry_multiplicity
 _atom_site_fract_x
 _atom_site_fract_y
 _atom_site_fract_z
 _atom_site_occupancy
  Nd  Nd0  1  0.750514  0.749486  0.749486  1
  Mg  Mg1  1  0.998401  0.001599  0.001599  1
  Si  Si2  1  0.735999  0.264001  0.264001  1
  Bi  Bi3  1  0.250752  0.249248  0.249248  1
  P  P4  1  0.262811  0.737189  0.737189  1
  P  P5  1  0.263955  0.735705  0.262530  1
  P  P6  1  0.737810  0.262530  0.735705  1
  P  P7  1  0.263955  0.262530  0.735705  1
  P  P8  1  0.737810  0.735705  0.262530  1
  Pd  Pd9  1  0.381722  0.382067  0.382067  1
  Pd  Pd10  1  0.611821  0.611709  0.611709  1
  Pd  Pd11  1  0.382268  0.382357  0.853107  1
  Pd  Pd12  1  0.382268  0.853107  0.382357  1
  Pd  Pd13  1  0.611298  0.614446  0.162957  1
  Pd  Pd14  1  0.611298  0.162957  0.614446  1
  Pd  Pd15  1  0.854146  0.382067  0.382067  1
  Pd  Pd16  1  0.164758  0.611709  0.611709  1
  Pd  Pd17  1  0.342711  0.998994  0.998994  1
  Pd  Pd18  1  0.659300  0.998994  0.998994  1
  Pd  Pd19  1  0.997122  0.344817  0.660937  1
  Pd  Pd20  1  0.997122  0.660937  0.344817  1
  Pd  Pd21  1  0.999602  0.345542  0.996530  1
  Pd  Pd22  1  0.658325  0.996530  0.345542  1
  Pd  Pd23  1  0.998494  0.658905  0.997944  1
  Pd  Pd24  1  0.344656  0.997944  0.658905  1
  Pd  Pd25  1  0.999602  0.996530  0.345542  1
  Pd  Pd26  1  0.998494  0.997944  0.658905  1
  Pd  Pd27  1  0.658325  0.345542  0.996530  1
  Pd  Pd28  1  0.344656  0.658905  0.997944  1
