# generated using pymatgen
data_HfNp2PaSb5
_symmetry_space_group_name_H-M   'P 1'
_cell_length_a   9.23602400
_cell_length_b   9.21912609
_cell_length_c   6.25618000
_cell_angle_alpha   90.00000000
_cell_angle_beta   90.00000000
_cell_angle_gamma   120.06064384
_symmetry_Int_Tables_number   1
_chemical_formula_structural   HfNp2PaSb5
_chemical_formula_sum   'Hf2 Np4 Pa2 Sb10'
_cell_volume   461.05098940
_cell_formula_units_Z   2
loop_
 _symmetry_equiv_pos_site_id
 _symmetry_equiv_pos_as_xyz
  1  'x, y, z'
loop_
 _atom_site_type_symbol
 _atom_site_label
 _atom_site_symmetry_multiplicity
 _atom_site_fract_x
 _atom_site_fract_y
 _atom_site_fract_z
 _atom_site_occupancy
  Hf  Hf0  1  0.000000  0.000000  0.000000  1
  Hf  Hf1  1  0.000000  0.000000  0.500000  1
  Np  Np2  1  0.997312  0.613741  0.250000  1
  Np  Np3  1  0.002688  0.386259  0.750000  1
  Np  Np4  1  0.383572  0.386259  0.250000  1
  Np  Np5  1  0.616428  0.613741  0.750000  1
  Pa  Pa6  1  0.613913  0.000000  0.250000  1
  Pa  Pa7  1  0.386087  0.000000  0.750000  1
  Sb  Sb8  1  0.271375  0.000000  0.250000  1
  Sb  Sb9  1  0.728625  0.000000  0.750000  1
  Sb  Sb10  1  0.998971  0.267925  0.250000  1
  Sb  Sb11  1  0.001029  0.732075  0.750000  1
  Sb  Sb12  1  0.731046  0.732075  0.250000  1
  Sb  Sb13  1  0.268954  0.267925  0.750000  1
  Sb  Sb14  1  0.334971  0.669942  0.000000  1
  Sb  Sb15  1  0.665029  0.330058  0.000000  1
  Sb  Sb16  1  0.665029  0.330058  0.500000  1
  Sb  Sb17  1  0.334971  0.669942  0.500000  1
