# generated using pymatgen
data_Er5Lu5Rh4
_symmetry_space_group_name_H-M   'P 1'
_cell_length_a   6.37867157
_cell_length_b   7.07603502
_cell_length_c   8.44150814
_cell_angle_alpha   96.79312608
_cell_angle_beta   112.07740982
_cell_angle_gamma   89.94982337
_symmetry_Int_Tables_number   1
_chemical_formula_structural   Er5Lu5Rh4
_chemical_formula_sum   'Er5 Lu5 Rh4'
_cell_volume   350.20415060
_cell_formula_units_Z   1
loop_
 _symmetry_equiv_pos_site_id
 _symmetry_equiv_pos_as_xyz
  1  'x, y, z'
loop_
 _atom_site_type_symbol
 _atom_site_label
 _atom_site_symmetry_multiplicity
 _atom_site_fract_x
 _atom_site_fract_y
 _atom_site_fract_z
 _atom_site_occupancy
  Er  Er0  1  0.524428  0.080932  0.812997  1
  Er  Er1  1  0.476222  0.918560  0.187450  1
  Er  Er2  1  0.710672  0.418552  0.187018  1
  Er  Er3  1  0.288858  0.582068  0.813161  1
  Er  Er4  1  0.290286  0.312686  0.440082  1
  Lu  Lu5  1  0.710502  0.687526  0.560911  1
  Lu  Lu6  1  0.851034  0.186793  0.561098  1
  Lu  Lu7  1  0.149029  0.812925  0.439097  1
  Lu  Lu8  1  0.074147  0.249678  0.999344  1
  Lu  Lu9  1  0.925612  0.749933  0.999990  1
  Rh  Rh10  1  0.320576  0.572017  0.220200  1
  Rh  Rh11  1  0.680393  0.429129  0.779915  1
  Rh  Rh12  1  0.099601  0.928872  0.778588  1
  Rh  Rh13  1  0.898639  0.070329  0.220150  1
