# generated using pymatgen
data_Ba2CeTh(PO4)4
_symmetry_space_group_name_H-M   'P 1'
_cell_length_a   5.46703400
_cell_length_b   6.98373879
_cell_length_c   9.66388516
_cell_angle_alpha   101.11495461
_cell_angle_beta   90.00000000
_cell_angle_gamma   113.04235851
_symmetry_Int_Tables_number   1
_chemical_formula_structural   Ba2CeTh(PO4)4
_chemical_formula_sum   'Ba2 Ce1 Th1 P4 O16'
_cell_volume   331.99824421
_cell_formula_units_Z   1
loop_
 _symmetry_equiv_pos_site_id
 _symmetry_equiv_pos_as_xyz
  1  'x, y, z'
loop_
 _atom_site_type_symbol
 _atom_site_label
 _atom_site_symmetry_multiplicity
 _atom_site_fract_x
 _atom_site_fract_y
 _atom_site_fract_z
 _atom_site_occupancy
  Ba  Ba0  1  0.502157  0.501545  0.003068  1
  Ba  Ba1  1  0.000613  0.498455  0.496932  1
  Ce  Ce2  1  0.173718  0.000000  0.250000  1
  Th  Th3  1  0.823076  0.000000  0.750000  1
  P  P4  1  0.824034  0.178616  0.111520  1
  P  P5  1  0.645418  0.821384  0.388480  1
  P  P6  1  0.353771  0.178284  0.607381  1
  P  P7  1  0.175486  0.821716  0.892618  1
  O  O8  1  0.155218  0.755938  0.038606  1
  O  O9  1  0.788959  0.943214  0.090585  1
  O  O10  1  0.585328  0.213017  0.181751  1
  O  O11  1  0.091726  0.305281  0.206683  1
  O  O12  1  0.786445  0.694720  0.293317  1
  O  O13  1  0.372312  0.786983  0.318249  1
  O  O14  1  0.845746  0.056786  0.409415  1
  O  O15  1  0.399280  0.244062  0.461394  1
  O  O16  1  0.595184  0.749094  0.532279  1
  O  O17  1  0.159077  0.941784  0.591585  1
  O  O18  1  0.629775  0.219683  0.677544  1
  O  O19  1  0.212771  0.306341  0.701054  1
  O  O20  1  0.906430  0.693658  0.798946  1
  O  O21  1  0.410091  0.780317  0.822456  1
  O  O22  1  0.217293  0.058216  0.908416  1
  O  O23  1  0.846090  0.250906  0.967721  1
