# generated using pymatgen
data_Tb3Zn2In3Pt
_symmetry_space_group_name_H-M   'P 1'
_cell_length_a   7.73097900
_cell_length_b   7.73097820
_cell_length_c   3.93826500
_cell_angle_alpha   90.00000000
_cell_angle_beta   90.00000000
_cell_angle_gamma   120.00000769
_symmetry_Int_Tables_number   1
_chemical_formula_structural   Tb3Zn2In3Pt
_chemical_formula_sum   'Tb3 Zn2 In3 Pt1'
_cell_volume   203.84707126
_cell_formula_units_Z   1
loop_
 _symmetry_equiv_pos_site_id
 _symmetry_equiv_pos_as_xyz
  1  'x, y, z'
loop_
 _atom_site_type_symbol
 _atom_site_label
 _atom_site_symmetry_multiplicity
 _atom_site_fract_x
 _atom_site_fract_y
 _atom_site_fract_z
 _atom_site_occupancy
  Tb  Tb0  1  0.395662  0.985117  0.000000  1
  Tb  Tb1  1  0.014883  0.410545  0.000000  1
  Tb  Tb2  1  0.589455  0.604338  0.000000  1
  Zn  Zn3  1  0.000000  0.000000  0.000000  1
  Zn  Zn4  1  0.666667  0.333333  0.500000  1
  In  In5  1  0.262788  0.258170  0.500000  1
  In  In6  1  0.995382  0.737212  0.500000  1
  In  In7  1  0.741830  0.004618  0.500000  1
  Pt  Pt8  1  0.333333  0.666667  0.500000  1
