# generated using pymatgen
data_BaNaScF6
_symmetry_space_group_name_H-M   'P 1'
_cell_length_a   5.75005600
_cell_length_b   9.86257600
_cell_length_c   10.94570800
_cell_angle_alpha   90.00000000
_cell_angle_beta   90.00000000
_cell_angle_gamma   90.00000000
_symmetry_Int_Tables_number   1
_chemical_formula_structural   BaNaScF6
_chemical_formula_sum   'Ba4 Na4 Sc4 F24'
_cell_volume   620.73508825
_cell_formula_units_Z   4
loop_
 _symmetry_equiv_pos_site_id
 _symmetry_equiv_pos_as_xyz
  1  'x, y, z'
loop_
 _atom_site_type_symbol
 _atom_site_label
 _atom_site_symmetry_multiplicity
 _atom_site_fract_x
 _atom_site_fract_y
 _atom_site_fract_z
 _atom_site_occupancy
  Ba  Ba0  1  0.503197  0.313116  0.181229  1
  Ba  Ba1  1  0.996803  0.686884  0.681229  1
  Ba  Ba2  1  0.496803  0.813116  0.318771  1
  Ba  Ba3  1  0.003197  0.186884  0.818771  1
  Na  Na4  1  0.040983  0.646920  0.086267  1
  Na  Na5  1  0.459017  0.353080  0.586267  1
  Na  Na6  1  0.959017  0.146920  0.413733  1
  Na  Na7  1  0.540983  0.853080  0.913733  1
  Sc  Sc8  1  0.037109  0.998034  0.124096  1
  Sc  Sc9  1  0.462891  0.001966  0.624096  1
  Sc  Sc10  1  0.962891  0.498034  0.375904  1
  Sc  Sc11  1  0.537109  0.501966  0.875904  1
  F  F12  1  0.209714  0.143880  0.583693  1
  F  F13  1  0.290286  0.856120  0.083693  1
  F  F14  1  0.790286  0.643880  0.916307  1
  F  F15  1  0.709714  0.356120  0.416307  1
  F  F16  1  0.205085  0.615375  0.291978  1
  F  F17  1  0.294915  0.384625  0.791978  1
  F  F18  1  0.794915  0.115375  0.208022  1
  F  F19  1  0.705085  0.884625  0.708022  1
  F  F20  1  0.213241  0.156225  0.045717  1
  F  F21  1  0.286759  0.843775  0.545717  1
  F  F22  1  0.786759  0.656225  0.454283  1
  F  F23  1  0.713241  0.343775  0.954283  1
  F  F24  1  0.144731  0.332071  0.322006  1
  F  F25  1  0.355269  0.667929  0.822006  1
  F  F26  1  0.855269  0.832071  0.177994  1
  F  F27  1  0.644731  0.167929  0.677994  1
  F  F28  1  0.349797  0.507564  0.033256  1
  F  F29  1  0.150203  0.492436  0.533256  1
  F  F30  1  0.650203  0.007564  0.466744  1
  F  F31  1  0.849797  0.992436  0.966744  1
  F  F32  1  0.214912  0.023316  0.284519  1
  F  F33  1  0.285088  0.976684  0.784519  1
  F  F34  1  0.785088  0.523316  0.215481  1
  F  F35  1  0.714912  0.476684  0.715481  1
