# generated using pymatgen
data_Ca3Pr17Ga11Pb
_symmetry_space_group_name_H-M   'P 1'
_cell_length_a   7.98474900
_cell_length_b   7.98474900
_cell_length_c   14.63167300
_cell_angle_alpha   90.00000000
_cell_angle_beta   90.00000000
_cell_angle_gamma   90.00000000
_symmetry_Int_Tables_number   1
_chemical_formula_structural   Ca3Pr17Ga11Pb
_chemical_formula_sum   'Ca3 Pr17 Ga11 Pb1'
_cell_volume   932.86011291
_cell_formula_units_Z   1
loop_
 _symmetry_equiv_pos_site_id
 _symmetry_equiv_pos_as_xyz
  1  'x, y, z'
loop_
 _atom_site_type_symbol
 _atom_site_label
 _atom_site_symmetry_multiplicity
 _atom_site_fract_x
 _atom_site_fract_y
 _atom_site_fract_z
 _atom_site_occupancy
  Ca  Ca0  1  0.000000  0.500000  0.739936  1
  Ca  Ca1  1  0.000000  0.500000  0.243712  1
  Ca  Ca2  1  0.500000  0.000000  0.248153  1
  Pr  Pr3  1  0.815118  0.838733  0.605705  1
  Pr  Pr4  1  0.174599  0.830527  0.100364  1
  Pr  Pr5  1  0.172736  0.831517  0.393965  1
  Pr  Pr6  1  0.827264  0.168483  0.393965  1
  Pr  Pr7  1  0.668483  0.672736  0.393965  1
  Pr  Pr8  1  0.661267  0.315118  0.605705  1
  Pr  Pr9  1  0.338733  0.684882  0.605705  1
  Pr  Pr10  1  0.669473  0.674599  0.100364  1
  Pr  Pr11  1  0.678071  0.339274  0.898334  1
  Pr  Pr12  1  0.839274  0.821929  0.898334  1
  Pr  Pr13  1  0.331517  0.327264  0.393965  1
  Pr  Pr14  1  0.184882  0.161267  0.605705  1
  Pr  Pr15  1  0.825401  0.169473  0.100364  1
  Pr  Pr16  1  0.321929  0.660726  0.898334  1
  Pr  Pr17  1  0.330527  0.325401  0.100364  1
  Pr  Pr18  1  0.160726  0.178071  0.898334  1
  Pr  Pr19  1  0.500000  0.000000  0.788038  1
  Ga  Ga20  1  0.618713  0.382901  0.248069  1
  Ga  Ga21  1  0.119330  0.881532  0.749159  1
  Ga  Ga22  1  0.381532  0.380670  0.749159  1
  Ga  Ga23  1  0.381287  0.617099  0.248069  1
  Ga  Ga24  1  0.882901  0.881287  0.248069  1
  Ga  Ga25  1  0.618468  0.619330  0.749159  1
  Ga  Ga26  1  0.880670  0.118468  0.749159  1
  Ga  Ga27  1  0.500000  0.000000  0.490158  1
  Ga  Ga28  1  0.500000  0.000000  0.002507  1
  Ga  Ga29  1  0.117099  0.118713  0.248069  1
  Ga  Ga30  1  0.000000  0.500000  0.003139  1
  Pb  Pb31  1  0.000000  0.500000  0.501977  1
