# generated using pymatgen
data_LaEr3CdIr
_symmetry_space_group_name_H-M   'P 1'
_cell_length_a   9.68843539
_cell_length_b   9.70405462
_cell_length_c   9.70405355
_cell_angle_alpha   59.89354708
_cell_angle_beta   60.05322431
_cell_angle_gamma   60.05322336
_symmetry_Int_Tables_number   1
_chemical_formula_structural   LaEr3CdIr
_chemical_formula_sum   'La4 Er12 Cd4 Ir4'
_cell_volume   645.12341165
_cell_formula_units_Z   4
loop_
 _symmetry_equiv_pos_site_id
 _symmetry_equiv_pos_as_xyz
  1  'x, y, z'
loop_
 _atom_site_type_symbol
 _atom_site_label
 _atom_site_symmetry_multiplicity
 _atom_site_fract_x
 _atom_site_fract_y
 _atom_site_fract_z
 _atom_site_occupancy
  La  La0  1  0.813419  0.186581  0.813419  1
  La  La1  1  0.186581  0.813419  0.186581  1
  La  La2  1  0.813419  0.813419  0.186581  1
  La  La3  1  0.186581  0.186581  0.813419  1
  Er  Er4  1  0.600756  0.595466  0.595466  1
  Er  Er5  1  0.595466  0.600756  0.208312  1
  Er  Er6  1  0.595466  0.208312  0.600756  1
  Er  Er7  1  0.208312  0.595466  0.595466  1
  Er  Er8  1  0.065361  0.434639  0.434639  1
  Er  Er9  1  0.434639  0.065361  0.065361  1
  Er  Er10  1  0.438761  0.061239  0.438761  1
  Er  Er11  1  0.061239  0.438761  0.061239  1
  Er  Er12  1  0.438761  0.438761  0.061239  1
  Er  Er13  1  0.061239  0.061239  0.438761  1
  Er  Er14  1  0.201448  0.798552  0.798552  1
  Er  Er15  1  0.798552  0.201448  0.201448  1
  Cd  Cd16  1  0.833824  0.827049  0.827049  1
  Cd  Cd17  1  0.827049  0.833824  0.512077  1
  Cd  Cd18  1  0.827049  0.512077  0.833824  1
  Cd  Cd19  1  0.512077  0.827049  0.827049  1
  Ir  Ir20  1  0.397163  0.388240  0.388240  1
  Ir  Ir21  1  0.388240  0.397163  0.826358  1
  Ir  Ir22  1  0.388240  0.826358  0.397163  1
  Ir  Ir23  1  0.826358  0.388240  0.388240  1
