# generated using pymatgen
data_Er5V3Co(Ni5As4)3
_symmetry_space_group_name_H-M   'P 1'
_cell_length_a   12.71915700
_cell_length_b   12.75674399
_cell_length_c   3.90334500
_cell_angle_alpha   90.00000000
_cell_angle_beta   90.00000000
_cell_angle_gamma   120.09779843
_symmetry_Int_Tables_number   1
_chemical_formula_structural   Er5V3Co(Ni5As4)3
_chemical_formula_sum   'Er5 V3 Co1 Ni15 As12'
_cell_volume   547.94491953
_cell_formula_units_Z   1
loop_
 _symmetry_equiv_pos_site_id
 _symmetry_equiv_pos_as_xyz
  1  'x, y, z'
loop_
 _atom_site_type_symbol
 _atom_site_label
 _atom_site_symmetry_multiplicity
 _atom_site_fract_x
 _atom_site_fract_y
 _atom_site_fract_z
 _atom_site_occupancy
  Er  Er0  1  0.666723  0.334303  0.000000  1
  Er  Er1  1  0.333277  0.667581  0.000000  1
  Er  Er2  1  0.187560  0.187309  0.500000  1
  Er  Er3  1  0.812440  0.999750  0.500000  1
  Er  Er4  1  0.000000  0.812018  0.500000  1
  V  V5  1  0.561663  0.561931  0.000000  1
  V  V6  1  0.438337  0.000268  0.000000  1
  V  V7  1  0.000000  0.437761  0.000000  1
  Co  Co8  1  0.000000  0.281614  0.500000  1
  Ni  Ni9  1  0.820431  0.195915  0.000000  1
  Ni  Ni10  1  0.804606  0.621958  0.000000  1
  Ni  Ni11  1  0.378431  0.182454  0.000000  1
  Ni  Ni12  1  0.195394  0.817353  0.000000  1
  Ni  Ni13  1  0.621569  0.804023  0.000000  1
  Ni  Ni14  1  0.179569  0.375485  0.000000  1
  Ni  Ni15  1  0.643755  0.126127  0.500000  1
  Ni  Ni16  1  0.875714  0.517374  0.500000  1
  Ni  Ni17  1  0.482315  0.358417  0.500000  1
  Ni  Ni18  1  0.124286  0.641660  0.500000  1
  Ni  Ni19  1  0.517685  0.876103  0.500000  1
  Ni  Ni20  1  0.356245  0.482372  0.500000  1
  Ni  Ni21  1  0.718670  0.718619  0.500000  1
  Ni  Ni22  1  0.281330  0.999949  0.500000  1
  Ni  Ni23  1  0.000000  0.000007  0.000000  1
  As  As24  1  0.366706  0.366225  0.000000  1
  As  As25  1  0.633294  0.999519  0.000000  1
  As  As26  1  0.000000  0.633311  0.000000  1
  As  As27  1  0.836108  0.316786  0.500000  1
  As  As28  1  0.684280  0.519632  0.500000  1
  As  As29  1  0.480975  0.165178  0.500000  1
  As  As30  1  0.315720  0.835352  0.500000  1
  As  As31  1  0.519025  0.684204  0.500000  1
  As  As32  1  0.163892  0.480678  0.500000  1
  As  As33  1  0.821537  0.821241  0.000000  1
  As  As34  1  0.178463  0.999705  0.000000  1
  As  As35  1  0.000000  0.177814  0.000000  1
