# generated using pymatgen
data_Nb3Ga2NiN
_symmetry_space_group_name_H-M   'P 1'
_cell_length_a   8.19681833
_cell_length_b   8.19681824
_cell_length_c   8.19681900
_cell_angle_alpha   60.00000096
_cell_angle_beta   60.00000133
_cell_angle_gamma   59.99999819
_symmetry_Int_Tables_number   1
_chemical_formula_structural   Nb3Ga2NiN
_chemical_formula_sum   'Nb12 Ga8 Ni4 N4'
_cell_volume   389.42243098
_cell_formula_units_Z   4
loop_
 _symmetry_equiv_pos_site_id
 _symmetry_equiv_pos_as_xyz
  1  'x, y, z'
loop_
 _atom_site_type_symbol
 _atom_site_label
 _atom_site_symmetry_multiplicity
 _atom_site_fract_x
 _atom_site_fract_y
 _atom_site_fract_z
 _atom_site_occupancy
  Nb  Nb0  1  0.811582  0.811582  0.188418  1
  Nb  Nb1  1  0.188418  0.188418  0.811582  1
  Nb  Nb2  1  0.811582  0.188418  0.811582  1
  Nb  Nb3  1  0.188418  0.811582  0.188418  1
  Nb  Nb4  1  0.188418  0.811582  0.811582  1
  Nb  Nb5  1  0.811582  0.188418  0.188418  1
  Nb  Nb6  1  0.438418  0.438418  0.061582  1
  Nb  Nb7  1  0.061582  0.061582  0.438418  1
  Nb  Nb8  1  0.438418  0.061582  0.438418  1
  Nb  Nb9  1  0.061582  0.438418  0.061582  1
  Nb  Nb10  1  0.061582  0.438418  0.438418  1
  Nb  Nb11  1  0.438418  0.061582  0.061582  1
  Ga  Ga12  1  0.751838  0.416055  0.416055  1
  Ga  Ga13  1  0.416055  0.751838  0.416055  1
  Ga  Ga14  1  0.416055  0.416055  0.751838  1
  Ga  Ga15  1  0.416055  0.416055  0.416055  1
  Ga  Ga16  1  0.498162  0.833945  0.833945  1
  Ga  Ga17  1  0.833945  0.498162  0.833945  1
  Ga  Ga18  1  0.833945  0.833945  0.498162  1
  Ga  Ga19  1  0.833945  0.833945  0.833945  1
  Ni  Ni20  1  0.125000  0.625000  0.625000  1
  Ni  Ni21  1  0.625000  0.125000  0.625000  1
  Ni  Ni22  1  0.625000  0.625000  0.125000  1
  Ni  Ni23  1  0.625000  0.625000  0.625000  1
  N  N24  1  0.625000  0.125000  0.125000  1
  N  N25  1  0.125000  0.625000  0.125000  1
  N  N26  1  0.125000  0.125000  0.625000  1
  N  N27  1  0.125000  0.125000  0.125000  1
