# generated using pymatgen
data_Ho2ErCoSn3Pd2
_symmetry_space_group_name_H-M   'P 1'
_cell_length_a   7.58214759
_cell_length_b   7.59491670
_cell_length_c   3.77979700
_cell_angle_alpha   90.00000000
_cell_angle_beta   90.00000000
_cell_angle_gamma   120.05571985
_symmetry_Int_Tables_number   1
_chemical_formula_structural   Ho2ErCoSn3Pd2
_chemical_formula_sum   'Ho2 Er1 Co1 Sn3 Pd2'
_cell_volume   188.39537582
_cell_formula_units_Z   1
loop_
 _symmetry_equiv_pos_site_id
 _symmetry_equiv_pos_as_xyz
  1  'x, y, z'
loop_
 _atom_site_type_symbol
 _atom_site_label
 _atom_site_symmetry_multiplicity
 _atom_site_fract_x
 _atom_site_fract_y
 _atom_site_fract_z
 _atom_site_occupancy
  Ho  Ho0  1  0.400289  0.400206  0.500000  1
  Ho  Ho1  1  0.599711  0.999918  0.500000  1
  Er  Er2  1  0.000000  0.600137  0.500000  1
  Co  Co3  1  0.000000  0.999538  0.500000  1
  Sn  Sn4  1  0.748897  0.748507  0.000000  1
  Sn  Sn5  1  0.251103  0.999609  0.000000  1
  Sn  Sn6  1  0.000000  0.251362  0.000000  1
  Pd  Pd7  1  0.667097  0.333910  0.000000  1
  Pd  Pd8  1  0.332903  0.666814  0.000000  1
