# generated using pymatgen
data_PrDy2Zr3(SnIr)6
_symmetry_space_group_name_H-M   'P 1'
_cell_length_a   7.47983602
_cell_length_b   7.49473781
_cell_length_c   7.69065500
_cell_angle_alpha   90.00000000
_cell_angle_beta   90.00000000
_cell_angle_gamma   119.94331722
_symmetry_Int_Tables_number   1
_chemical_formula_structural   PrDy2Zr3(SnIr)6
_chemical_formula_sum   'Pr1 Dy2 Zr3 Sn6 Ir6'
_cell_volume   373.58571113
_cell_formula_units_Z   1
loop_
 _symmetry_equiv_pos_site_id
 _symmetry_equiv_pos_as_xyz
  1  'x, y, z'
loop_
 _atom_site_type_symbol
 _atom_site_label
 _atom_site_symmetry_multiplicity
 _atom_site_fract_x
 _atom_site_fract_y
 _atom_site_fract_z
 _atom_site_occupancy
  Pr  Pr0  1  0.409239  0.999936  0.250000  1
  Dy  Dy1  1  0.594344  0.593961  0.250000  1
  Dy  Dy2  1  0.000974  0.406324  0.250000  1
  Zr  Zr3  1  0.606542  0.607046  0.750000  1
  Zr  Zr4  1  0.000632  0.393485  0.750000  1
  Zr  Zr5  1  0.392034  0.999459  0.750000  1
  Sn  Sn6  1  0.264639  0.265987  0.506697  1
  Sn  Sn7  1  0.264639  0.265987  0.993303  1
  Sn  Sn8  1  0.736579  0.000472  0.989884  1
  Sn  Sn9  1  0.997791  0.733570  0.506689  1
  Sn  Sn10  1  0.736579  0.000472  0.510116  1
  Sn  Sn11  1  0.997791  0.733570  0.993311  1
  Ir  Ir12  1  0.668188  0.335247  0.537064  1
  Ir  Ir13  1  0.668188  0.335247  0.962936  1
  Ir  Ir14  1  0.332895  0.664621  0.964023  1
  Ir  Ir15  1  0.332895  0.664621  0.535977  1
  Ir  Ir16  1  0.001717  0.000003  0.750000  1
  Ir  Ir17  1  0.994335  0.999992  0.250000  1
