# generated using pymatgen
data_Ho7LuTi11Si16Hg
_symmetry_space_group_name_H-M   'P 1'
_cell_length_a   7.05886991
_cell_length_b   7.06058933
_cell_length_c   12.89520846
_cell_angle_alpha   90.07584889
_cell_angle_beta   89.93129148
_cell_angle_gamma   89.62194709
_symmetry_Int_Tables_number   1
_chemical_formula_structural   Ho7LuTi11Si16Hg
_chemical_formula_sum   'Ho7 Lu1 Ti11 Si16 Hg1'
_cell_volume   642.67935028
_cell_formula_units_Z   1
loop_
 _symmetry_equiv_pos_site_id
 _symmetry_equiv_pos_as_xyz
  1  'x, y, z'
loop_
 _atom_site_type_symbol
 _atom_site_label
 _atom_site_symmetry_multiplicity
 _atom_site_fract_x
 _atom_site_fract_y
 _atom_site_fract_z
 _atom_site_occupancy
  Ho  Ho0  1  0.498455  0.840423  0.715719  1
  Ho  Ho1  1  0.500830  0.156898  0.215552  1
  Ho  Ho2  1  0.840107  0.498591  0.284270  1
  Ho  Ho3  1  0.157038  0.500740  0.784548  1
  Ho  Ho4  1  0.656986  0.000942  0.968081  1
  Ho  Ho5  1  0.002006  0.341336  0.532978  1
  Ho  Ho6  1  0.000846  0.656945  0.031898  1
  Lu  Lu7  1  0.342122  0.000758  0.466846  1
  Ti  Ti8  1  0.173616  0.826471  0.250781  1
  Ti  Ti9  1  0.826432  0.173449  0.749333  1
  Ti  Ti10  1  0.672340  0.673115  0.500008  1
  Ti  Ti11  1  0.148231  0.008126  0.876599  1
  Ti  Ti12  1  0.496414  0.649792  0.124453  1
  Ti  Ti13  1  0.506493  0.351156  0.624120  1
  Ti  Ti14  1  0.649701  0.496366  0.875617  1
  Ti  Ti15  1  0.351368  0.507063  0.375709  1
  Ti  Ti16  1  0.849637  0.992783  0.374886  1
  Ti  Ti17  1  0.008254  0.148139  0.123444  1
  Ti  Ti18  1  0.992750  0.849796  0.624956  1
  Si  Si19  1  0.202003  0.132661  0.683981  1
  Si  Si20  1  0.373566  0.724752  0.926941  1
  Si  Si21  1  0.630713  0.292814  0.432437  1
  Si  Si22  1  0.724748  0.373457  0.073047  1
  Si  Si23  1  0.294060  0.632774  0.567160  1
  Si  Si24  1  0.797970  0.866533  0.183306  1
  Si  Si25  1  0.133683  0.200860  0.316382  1
  Si  Si26  1  0.866468  0.798041  0.816719  1
  Si  Si27  1  0.285484  0.932869  0.067599  1
  Si  Si28  1  0.546001  0.791577  0.314685  1
  Si  Si29  1  0.458996  0.204886  0.805221  1
  Si  Si30  1  0.790736  0.546548  0.685852  1
  Si  Si31  1  0.204883  0.458858  0.194878  1
  Si  Si32  1  0.708071  0.047499  0.563221  1
  Si  Si33  1  0.932898  0.285416  0.932345  1
  Si  Si34  1  0.048641  0.710074  0.436379  1
  Hg  Hg35  1  0.327452  0.327490  0.000051  1
