# generated using pymatgen
data_LuScB6Ir
_symmetry_space_group_name_H-M   'P 1'
_cell_length_a   3.51956700
_cell_length_b   8.96589200
_cell_length_c   11.30755600
_cell_angle_alpha   90.00000000
_cell_angle_beta   90.00000000
_cell_angle_gamma   90.00000000
_symmetry_Int_Tables_number   1
_chemical_formula_structural   LuScB6Ir
_chemical_formula_sum   'Lu4 Sc4 B24 Ir4'
_cell_volume   356.82188855
_cell_formula_units_Z   4
loop_
 _symmetry_equiv_pos_site_id
 _symmetry_equiv_pos_as_xyz
  1  'x, y, z'
loop_
 _atom_site_type_symbol
 _atom_site_label
 _atom_site_symmetry_multiplicity
 _atom_site_fract_x
 _atom_site_fract_y
 _atom_site_fract_z
 _atom_site_occupancy
  Lu  Lu0  1  0.500000  0.319308  0.413800  1
  Lu  Lu1  1  0.500000  0.680692  0.586200  1
  Lu  Lu2  1  0.500000  0.180692  0.913800  1
  Lu  Lu3  1  0.500000  0.819308  0.086200  1
  Sc  Sc4  1  0.500000  0.445058  0.124154  1
  Sc  Sc5  1  0.500000  0.554942  0.875846  1
  Sc  Sc6  1  0.500000  0.054942  0.624154  1
  Sc  Sc7  1  0.500000  0.945058  0.375846  1
  B  B8  1  0.000000  0.101632  0.472263  1
  B  B9  1  0.000000  0.898368  0.527737  1
  B  B10  1  0.000000  0.398368  0.972263  1
  B  B11  1  0.000000  0.601632  0.027737  1
  B  B12  1  0.000000  0.130587  0.318493  1
  B  B13  1  0.000000  0.869413  0.681507  1
  B  B14  1  0.000000  0.369413  0.818493  1
  B  B15  1  0.000000  0.630587  0.181507  1
  B  B16  1  0.000000  0.054383  0.064530  1
  B  B17  1  0.000000  0.945617  0.935470  1
  B  B18  1  0.000000  0.445617  0.564530  1
  B  B19  1  0.000000  0.554383  0.435470  1
  B  B20  1  0.000000  0.480907  0.285866  1
  B  B21  1  0.000000  0.519093  0.714134  1
  B  B22  1  0.000000  0.019093  0.785866  1
  B  B23  1  0.000000  0.980907  0.214134  1
  B  B24  1  0.000000  0.253413  0.078872  1
  B  B25  1  0.000000  0.746587  0.921128  1
  B  B26  1  0.000000  0.246587  0.578872  1
  B  B27  1  0.000000  0.753413  0.421128  1
  B  B28  1  0.000000  0.296122  0.236002  1
  B  B29  1  0.000000  0.703878  0.763998  1
  B  B30  1  0.000000  0.203878  0.736002  1
  B  B31  1  0.000000  0.796122  0.263998  1
  Ir  Ir32  1  0.500000  0.141191  0.180859  1
  Ir  Ir33  1  0.500000  0.858809  0.819141  1
  Ir  Ir34  1  0.500000  0.358809  0.680859  1
  Ir  Ir35  1  0.500000  0.641191  0.319141  1
