# generated using pymatgen
data_Sm8Tm3Pa9Rh16
_symmetry_space_group_name_H-M   'P 1'
_cell_length_a   7.43724391
_cell_length_b   7.51751015
_cell_length_c   14.51683000
_cell_angle_alpha   90.00000000
_cell_angle_beta   90.00000000
_cell_angle_gamma   89.65592165
_symmetry_Int_Tables_number   1
_chemical_formula_structural   Sm8Tm3Pa9Rh16
_chemical_formula_sum   'Sm8 Tm3 Pa9 Rh16'
_cell_volume   811.61489283
_cell_formula_units_Z   1
loop_
 _symmetry_equiv_pos_site_id
 _symmetry_equiv_pos_as_xyz
  1  'x, y, z'
loop_
 _atom_site_type_symbol
 _atom_site_label
 _atom_site_symmetry_multiplicity
 _atom_site_fract_x
 _atom_site_fract_y
 _atom_site_fract_z
 _atom_site_occupancy
  Sm  Sm0  1  0.501377  0.675792  0.593619  1
  Sm  Sm1  1  0.004488  0.825724  0.909306  1
  Sm  Sm2  1  0.495285  0.324189  0.095406  1
  Sm  Sm3  1  0.995357  0.179059  0.404380  1
  Sm  Sm4  1  0.495285  0.324189  0.404594  1
  Sm  Sm5  1  0.995357  0.179059  0.095620  1
  Sm  Sm6  1  0.501377  0.675792  0.906381  1
  Sm  Sm7  1  0.004488  0.825724  0.590694  1
  Tm  Tm8  1  0.312529  0.972720  0.750000  1
  Tm  Tm9  1  0.187783  0.479537  0.250000  1
  Tm  Tm10  1  0.688394  0.022696  0.250000  1
  Pa  Pa11  1  0.654844  0.156362  0.619962  1
  Pa  Pa12  1  0.162969  0.335619  0.879590  1
  Pa  Pa13  1  0.344895  0.842542  0.121245  1
  Pa  Pa14  1  0.841830  0.658393  0.378265  1
  Pa  Pa15  1  0.344895  0.842542  0.378755  1
  Pa  Pa16  1  0.841830  0.658393  0.121735  1
  Pa  Pa17  1  0.654844  0.156362  0.880038  1
  Pa  Pa18  1  0.162969  0.335619  0.620410  1
  Pa  Pa19  1  0.811281  0.529304  0.750000  1
  Rh  Rh20  1  0.681077  0.951052  0.459362  1
  Rh  Rh21  1  0.178092  0.549712  0.042049  1
  Rh  Rh22  1  0.323892  0.050827  0.961306  1
  Rh  Rh23  1  0.826036  0.450554  0.543350  1
  Rh  Rh24  1  0.323892  0.050827  0.538694  1
  Rh  Rh25  1  0.826036  0.450554  0.956650  1
  Rh  Rh26  1  0.681077  0.951052  0.040638  1
  Rh  Rh27  1  0.178092  0.549712  0.457951  1
  Rh  Rh28  1  0.457978  0.357044  0.750000  1
  Rh  Rh29  1  0.943035  0.157907  0.750000  1
  Rh  Rh30  1  0.544545  0.652920  0.250000  1
  Rh  Rh31  1  0.045497  0.848522  0.250000  1
  Rh  Rh32  1  0.698622  0.864994  0.750000  1
  Rh  Rh33  1  0.165498  0.613716  0.750000  1
  Rh  Rh34  1  0.312306  0.112817  0.250000  1
  Rh  Rh35  1  0.812241  0.388177  0.250000  1
