# generated using pymatgen
data_TbY4GaCo5
_symmetry_space_group_name_H-M   'P 1'
_cell_length_a   5.48691001
_cell_length_b   5.48690996
_cell_length_c   20.58749001
_cell_angle_alpha   89.99738233
_cell_angle_beta   90.00261675
_cell_angle_gamma   136.48949397
_symmetry_Int_Tables_number   1
_chemical_formula_structural   TbY4GaCo5
_chemical_formula_sum   'Tb2 Y8 Ga2 Co10'
_cell_volume   426.73196661
_cell_formula_units_Z   2
loop_
 _symmetry_equiv_pos_site_id
 _symmetry_equiv_pos_as_xyz
  1  'x, y, z'
loop_
 _atom_site_type_symbol
 _atom_site_label
 _atom_site_symmetry_multiplicity
 _atom_site_fract_x
 _atom_site_fract_y
 _atom_site_fract_z
 _atom_site_occupancy
  Tb  Tb0  1  0.290960  0.709040  0.065457  1
  Tb  Tb1  1  0.998891  0.001109  0.843217  1
  Y  Y2  1  0.287783  0.712217  0.250104  1
  Y  Y3  1  0.711989  0.288011  0.749645  1
  Y  Y4  1  0.708741  0.291259  0.565439  1
  Y  Y5  1  0.000830  0.999170  0.343327  1
  Y  Y6  1  0.999067  0.000933  0.656566  1
  Y  Y7  1  0.708711  0.291289  0.934527  1
  Y  Y8  1  0.000774  0.999226  0.156901  1
  Y  Y9  1  0.291070  0.708930  0.434569  1
  Ga  Ga10  1  0.000025  0.999975  0.500021  1
  Ga  Ga11  1  0.000204  0.999796  0.999960  1
  Co  Co12  1  0.297709  0.702291  0.654263  1
  Co  Co13  1  0.581384  0.418616  0.441234  1
  Co  Co14  1  0.412625  0.587375  0.750156  1
  Co  Co15  1  0.418861  0.581139  0.941425  1
  Co  Co16  1  0.587887  0.412113  0.249954  1
  Co  Co17  1  0.418596  0.581404  0.558719  1
  Co  Co18  1  0.702357  0.297643  0.345919  1
  Co  Co19  1  0.702615  0.297385  0.153971  1
  Co  Co20  1  0.581092  0.418908  0.058565  1
  Co  Co21  1  0.297827  0.702173  0.846063  1
