# generated using pymatgen
data_Li7Pr2Nd6ZnSn8
_symmetry_space_group_name_H-M   'P 1'
_cell_length_a   9.55556603
_cell_length_b   9.55459179
_cell_length_c   7.64536102
_cell_angle_alpha   89.98559026
_cell_angle_beta   89.99280517
_cell_angle_gamma   119.99889853
_symmetry_Int_Tables_number   1
_chemical_formula_structural   Li7Pr2Nd6ZnSn8
_chemical_formula_sum   'Li7 Pr2 Nd6 Zn1 Sn8'
_cell_volume   604.50788803
_cell_formula_units_Z   1
loop_
 _symmetry_equiv_pos_site_id
 _symmetry_equiv_pos_as_xyz
  1  'x, y, z'
loop_
 _atom_site_type_symbol
 _atom_site_label
 _atom_site_symmetry_multiplicity
 _atom_site_fract_x
 _atom_site_fract_y
 _atom_site_fract_z
 _atom_site_occupancy
  Li  Li0  1  0.165246  0.832208  0.288596  1
  Li  Li1  1  0.667019  0.832340  0.288535  1
  Li  Li2  1  0.833152  0.666174  0.787631  1
  Li  Li3  1  0.832567  0.166537  0.787915  1
  Li  Li4  1  0.333924  0.166450  0.787952  1
  Li  Li5  1  0.333926  0.668053  0.673311  1
  Li  Li6  1  0.667877  0.335645  0.170761  1
  Pr  Pr7  1  0.511824  0.023566  0.497851  1
  Pr  Pr8  1  0.511499  0.488476  0.494607  1
  Nd  Nd9  1  0.977132  0.488458  0.494607  1
  Nd  Nd10  1  0.488581  0.977163  0.991446  1
  Nd  Nd11  1  0.487953  0.511165  0.993813  1
  Nd  Nd12  1  0.023203  0.511172  0.993814  1
  Nd  Nd13  1  0.999541  0.999078  0.498883  1
  Nd  Nd14  1  0.000328  0.000685  0.997927  1
  Zn  Zn15  1  0.166581  0.333496  0.293122  1
  Sn  Sn16  1  0.166105  0.332741  0.727568  1
  Sn  Sn17  1  0.165796  0.832840  0.729337  1
  Sn  Sn18  1  0.667225  0.833166  0.729626  1
  Sn  Sn19  1  0.833842  0.667255  0.229195  1
  Sn  Sn20  1  0.833337  0.166339  0.227899  1
  Sn  Sn21  1  0.332877  0.166064  0.227618  1
  Sn  Sn22  1  0.333397  0.667225  0.263564  1
  Sn  Sn23  1  0.667066  0.333709  0.766392  1
