# generated using pymatgen
data_Ho6Er4Si16Pd
_symmetry_space_group_name_H-M   'P 1'
_cell_length_a   11.04935426
_cell_length_b   11.05925203
_cell_length_c   11.05052729
_cell_angle_alpha   144.76667208
_cell_angle_beta   136.46723244
_cell_angle_gamma   57.16242822
_symmetry_Int_Tables_number   1
_chemical_formula_structural   Ho6Er4Si16Pd
_chemical_formula_sum   'Ho6 Er4 Si16 Pd1'
_cell_volume   532.31933958
_cell_formula_units_Z   1
loop_
 _symmetry_equiv_pos_site_id
 _symmetry_equiv_pos_as_xyz
  1  'x, y, z'
loop_
 _atom_site_type_symbol
 _atom_site_label
 _atom_site_symmetry_multiplicity
 _atom_site_fract_x
 _atom_site_fract_y
 _atom_site_fract_z
 _atom_site_occupancy
  Ho  Ho0  1  0.645832  0.166290  0.014444  1
  Ho  Ho1  1  0.948397  0.963081  0.511581  1
  Ho  Ho2  1  0.849667  0.371258  0.019179  1
  Ho  Ho3  1  0.547557  0.563620  0.511895  1
  Ho  Ho4  1  0.249270  0.763454  0.011113  1
  Ho  Ho5  1  0.752320  0.763404  0.514174  1
  Er  Er6  1  0.051665  0.563468  0.015732  1
  Er  Er7  1  0.351989  0.371392  0.521700  1
  Er  Er8  1  0.151614  0.166426  0.520382  1
  Er  Er9  1  0.451657  0.963121  0.014903  1
  Si  Si10  1  0.118761  0.078907  0.961150  1
  Si  Si11  1  0.798115  0.182396  0.384282  1
  Si  Si12  1  0.300252  0.899143  0.598559  1
  Si  Si13  1  0.399514  0.500975  0.100800  1
  Si  Si14  1  0.884928  0.847905  0.963932  1
  Si  Si15  1  0.104653  0.708968  0.605072  1
  Si  Si16  1  0.200576  0.584638  0.384243  1
  Si  Si17  1  0.697812  0.293435  0.595214  1
  Si  Si18  1  0.000186  0.433186  0.433673  1
  Si  Si19  1  0.714098  0.668007  0.953654  1
  Si  Si20  1  0.600303  0.702136  0.101091  1
  Si  Si21  1  0.000647  0.085345  0.085197  1
  Si  Si22  1  0.500543  0.391733  0.890227  1
  Si  Si23  1  0.285367  0.240921  0.955279  1
  Si  Si24  1  0.582761  0.040926  0.457608  1
  Si  Si25  1  0.414917  0.872085  0.456602  1
  Pd  Pd26  1  0.896597  0.502697  0.607235  1
