# generated using pymatgen
data_Lu4Ti3SiIr4
_symmetry_space_group_name_H-M   'P 1'
_cell_length_a   4.27523000
_cell_length_b   6.82888190
_cell_length_c   7.83842154
_cell_angle_alpha   87.57147928
_cell_angle_beta   90.00000000
_cell_angle_gamma   90.00000000
_symmetry_Int_Tables_number   1
_chemical_formula_structural   Lu4Ti3SiIr4
_chemical_formula_sum   'Lu4 Ti3 Si1 Ir4'
_cell_volume   228.63750363
_cell_formula_units_Z   1
loop_
 _symmetry_equiv_pos_site_id
 _symmetry_equiv_pos_as_xyz
  1  'x, y, z'
loop_
 _atom_site_type_symbol
 _atom_site_label
 _atom_site_symmetry_multiplicity
 _atom_site_fract_x
 _atom_site_fract_y
 _atom_site_fract_z
 _atom_site_occupancy
  Lu  Lu0  1  0.750000  0.488006  0.827714  1
  Lu  Lu1  1  0.250000  0.018707  0.314870  1
  Lu  Lu2  1  0.750000  0.970473  0.686373  1
  Lu  Lu3  1  0.250000  0.532578  0.173010  1
  Ti  Ti4  1  0.250000  0.637733  0.569874  1
  Ti  Ti5  1  0.250000  0.135736  0.940790  1
  Ti  Ti6  1  0.750000  0.363060  0.429094  1
  Si  Si7  1  0.750000  0.856123  0.068301  1
  Ir  Ir8  1  0.250000  0.776140  0.882286  1
  Ir  Ir9  1  0.250000  0.272592  0.606325  1
  Ir  Ir10  1  0.750000  0.728469  0.388344  1
  Ir  Ir11  1  0.750000  0.220382  0.113019  1
