# generated using pymatgen
data_Nd2P4Ir3Os
_symmetry_space_group_name_H-M   'P 1'
_cell_length_a   4.20780800
_cell_length_b   4.20780800
_cell_length_c   9.49926900
_cell_angle_alpha   90.00000000
_cell_angle_beta   90.00000000
_cell_angle_gamma   90.00000000
_symmetry_Int_Tables_number   1
_chemical_formula_structural   Nd2P4Ir3Os
_chemical_formula_sum   'Nd2 P4 Ir3 Os1'
_cell_volume   168.19071474
_cell_formula_units_Z   1
loop_
 _symmetry_equiv_pos_site_id
 _symmetry_equiv_pos_as_xyz
  1  'x, y, z'
loop_
 _atom_site_type_symbol
 _atom_site_label
 _atom_site_symmetry_multiplicity
 _atom_site_fract_x
 _atom_site_fract_y
 _atom_site_fract_z
 _atom_site_occupancy
  Nd  Nd0  1  0.000000  0.500000  0.237686  1
  Nd  Nd1  1  0.500000  0.000000  0.762314  1
  P  P2  1  0.000000  0.000000  0.000000  1
  P  P3  1  0.500000  0.500000  0.000000  1
  P  P4  1  0.000000  0.500000  0.632983  1
  P  P5  1  0.500000  0.000000  0.367017  1
  Ir  Ir6  1  0.500000  0.500000  0.500000  1
  Ir  Ir7  1  0.000000  0.500000  0.887023  1
  Ir  Ir8  1  0.500000  0.000000  0.112977  1
  Os  Os9  1  0.000000  0.000000  0.500000  1
