# generated using pymatgen
data_TbHo3Er2GaCo2
_symmetry_space_group_name_H-M   'P 1'
_cell_length_a   8.21387572
_cell_length_b   8.23676390
_cell_length_c   8.23676333
_cell_angle_alpha   112.21777664
_cell_angle_beta   109.39231490
_cell_angle_gamma   106.95198053
_symmetry_Int_Tables_number   1
_chemical_formula_structural   TbHo3Er2GaCo2
_chemical_formula_sum   'Tb2 Ho6 Er4 Ga2 Co4'
_cell_volume   427.51477248
_cell_formula_units_Z   2
loop_
 _symmetry_equiv_pos_site_id
 _symmetry_equiv_pos_as_xyz
  1  'x, y, z'
loop_
 _atom_site_type_symbol
 _atom_site_label
 _atom_site_symmetry_multiplicity
 _atom_site_fract_x
 _atom_site_fract_y
 _atom_site_fract_z
 _atom_site_occupancy
  Tb  Tb0  1  0.958817  0.261411  0.697406  1
  Tb  Tb1  1  0.041183  0.738589  0.302594  1
  Ho  Ho2  1  0.563397  0.260987  0.302410  1
  Ho  Ho3  1  0.436603  0.739013  0.697590  1
  Ho  Ho4  1  0.180495  0.781045  0.960821  1
  Ho  Ho5  1  0.819505  0.780325  0.600551  1
  Ho  Ho6  1  0.180495  0.219675  0.399449  1
  Ho  Ho7  1  0.819505  0.218955  0.039179  1
  Er  Er8  1  0.672260  0.860544  0.186571  1
  Er  Er9  1  0.327740  0.514311  0.188284  1
  Er  Er10  1  0.327740  0.139456  0.813429  1
  Er  Er11  1  0.672260  0.485689  0.811716  1
  Ga  Ga12  1  0.000000  0.500000  0.500000  1
  Ga  Ga13  1  0.500000  0.000000  0.500000  1
  Co  Co14  1  0.116567  0.115302  0.001266  1
  Co  Co15  1  0.883433  0.884698  0.998734  1
  Co  Co16  1  0.662439  0.499586  0.162853  1
  Co  Co17  1  0.337561  0.500414  0.837147  1
