# generated using pymatgen
data_Zr16Fe4Pd3Rh
_symmetry_space_group_name_H-M   'P 1'
_cell_length_a   8.70630140
_cell_length_b   8.70630151
_cell_length_c   8.70630253
_cell_angle_alpha   60.11457724
_cell_angle_beta   60.11457726
_cell_angle_gamma   60.11458176
_symmetry_Int_Tables_number   1
_chemical_formula_structural   Zr16Fe4Pd3Rh
_chemical_formula_sum   'Zr16 Fe4 Pd3 Rh1'
_cell_volume   467.85587055
_cell_formula_units_Z   1
loop_
 _symmetry_equiv_pos_site_id
 _symmetry_equiv_pos_as_xyz
  1  'x, y, z'
loop_
 _atom_site_type_symbol
 _atom_site_label
 _atom_site_symmetry_multiplicity
 _atom_site_fract_x
 _atom_site_fract_y
 _atom_site_fract_z
 _atom_site_occupancy
  Zr  Zr0  1  0.059199  0.646989  0.646989  1
  Zr  Zr1  1  0.646989  0.059199  0.646989  1
  Zr  Zr2  1  0.646989  0.646989  0.059199  1
  Zr  Zr3  1  0.646207  0.646207  0.646207  1
  Zr  Zr4  1  0.808966  0.808966  0.190942  1
  Zr  Zr5  1  0.190987  0.190987  0.809260  1
  Zr  Zr6  1  0.808966  0.190942  0.808966  1
  Zr  Zr7  1  0.190987  0.809260  0.190987  1
  Zr  Zr8  1  0.190942  0.808966  0.808966  1
  Zr  Zr9  1  0.809260  0.190987  0.190987  1
  Zr  Zr10  1  0.439596  0.439596  0.064306  1
  Zr  Zr11  1  0.061756  0.061756  0.438853  1
  Zr  Zr12  1  0.439596  0.064306  0.439596  1
  Zr  Zr13  1  0.061756  0.438853  0.061756  1
  Zr  Zr14  1  0.064306  0.439596  0.439596  1
  Zr  Zr15  1  0.438853  0.061756  0.061756  1
  Fe  Fe16  1  0.426093  0.857817  0.857817  1
  Fe  Fe17  1  0.857817  0.426093  0.857817  1
  Fe  Fe18  1  0.857817  0.857817  0.426093  1
  Fe  Fe19  1  0.858476  0.858476  0.858476  1
  Pd  Pd20  1  0.751949  0.415621  0.415621  1
  Pd  Pd21  1  0.415621  0.751949  0.415621  1
  Pd  Pd22  1  0.415621  0.415621  0.751949  1
  Rh  Rh23  1  0.411253  0.411253  0.411253  1
