# generated using pymatgen
data_Nd3TlIn2PdAu2
_symmetry_space_group_name_H-M   'P 1'
_cell_length_a   7.88317505
_cell_length_b   7.88317520
_cell_length_c   4.09860700
_cell_angle_alpha   90.00000000
_cell_angle_beta   90.00000000
_cell_angle_gamma   119.51348522
_symmetry_Int_Tables_number   1
_chemical_formula_structural   Nd3TlIn2PdAu2
_chemical_formula_sum   'Nd3 Tl1 In2 Pd1 Au2'
_cell_volume   221.65501178
_cell_formula_units_Z   1
loop_
 _symmetry_equiv_pos_site_id
 _symmetry_equiv_pos_as_xyz
  1  'x, y, z'
loop_
 _atom_site_type_symbol
 _atom_site_label
 _atom_site_symmetry_multiplicity
 _atom_site_fract_x
 _atom_site_fract_y
 _atom_site_fract_z
 _atom_site_occupancy
  Nd  Nd0  1  0.999091  0.592156  0.000000  1
  Nd  Nd1  1  0.408626  0.408626  0.000000  1
  Nd  Nd2  1  0.592156  0.999091  0.000000  1
  Tl  Tl3  1  0.748390  0.748390  0.500000  1
  In  In4  1  0.001496  0.250199  0.500000  1
  In  In5  1  0.250199  0.001496  0.500000  1
  Pd  Pd6  1  0.009597  0.009597  0.000000  1
  Au  Au7  1  0.325199  0.665246  0.500000  1
  Au  Au8  1  0.665246  0.325199  0.500000  1
