# generated using pymatgen
data_Tb3AlIn2SnPt2
_symmetry_space_group_name_H-M   'P 1'
_cell_length_a   7.57605855
_cell_length_b   7.53938341
_cell_length_c   4.16949900
_cell_angle_alpha   90.00000000
_cell_angle_beta   90.00000000
_cell_angle_gamma   120.82298637
_symmetry_Int_Tables_number   1
_chemical_formula_structural   Tb3AlIn2SnPt2
_chemical_formula_sum   'Tb3 Al1 In2 Sn1 Pt2'
_cell_volume   204.51821913
_cell_formula_units_Z   1
loop_
 _symmetry_equiv_pos_site_id
 _symmetry_equiv_pos_as_xyz
  1  'x, y, z'
loop_
 _atom_site_type_symbol
 _atom_site_label
 _atom_site_symmetry_multiplicity
 _atom_site_fract_x
 _atom_site_fract_y
 _atom_site_fract_z
 _atom_site_occupancy
  Tb  Tb0  1  0.396959  0.982345  0.000000  1
  Tb  Tb1  1  0.018862  0.413423  0.000000  1
  Tb  Tb2  1  0.578563  0.597784  0.000000  1
  Al  Al3  1  0.230606  0.248631  0.500000  1
  In  In4  1  0.013844  0.760145  0.500000  1
  In  In5  1  0.748044  0.989706  0.500000  1
  Sn  Sn6  1  0.656391  0.332017  0.500000  1
  Pt  Pt7  1  0.027397  0.027742  0.000000  1
  Pt  Pt8  1  0.329333  0.648208  0.500000  1
