# generated using pymatgen
data_Nd5Ga2Ru2Rh
_symmetry_space_group_name_H-M   'P 1'
_cell_length_a   8.54392126
_cell_length_b   8.54391949
_cell_length_c   8.54392126
_cell_angle_alpha   109.38517402
_cell_angle_beta   109.54352646
_cell_angle_gamma   109.48500883
_symmetry_Int_Tables_number   1
_chemical_formula_structural   Nd5Ga2Ru2Rh
_chemical_formula_sum   'Nd10 Ga4 Ru4 Rh2'
_cell_volume   480.11894256
_cell_formula_units_Z   2
loop_
 _symmetry_equiv_pos_site_id
 _symmetry_equiv_pos_as_xyz
  1  'x, y, z'
loop_
 _atom_site_type_symbol
 _atom_site_label
 _atom_site_symmetry_multiplicity
 _atom_site_fract_x
 _atom_site_fract_y
 _atom_site_fract_z
 _atom_site_occupancy
  Nd  Nd0  1  0.250000  0.686979  0.436980  1
  Nd  Nd1  1  0.750000  0.813021  0.063021  1
  Nd  Nd2  1  0.436814  0.250000  0.686813  1
  Nd  Nd3  1  0.687500  0.437501  0.250000  1
  Nd  Nd4  1  0.063187  0.750000  0.813187  1
  Nd  Nd5  1  0.812500  0.062500  0.750000  1
  Nd  Nd6  1  0.216894  0.218731  0.219459  1
  Nd  Nd7  1  0.499272  0.997434  0.280541  1
  Nd  Nd8  1  0.283106  0.502567  0.001837  1
  Nd  Nd9  1  0.000729  0.281269  0.498164  1
  Ga  Ga10  1  0.501364  0.998353  0.908214  1
  Ga  Ga11  1  0.590138  0.593149  0.591786  1
  Ga  Ga12  1  0.909862  0.501648  0.003011  1
  Ga  Ga13  1  0.998637  0.906851  0.496990  1
  Ru  Ru14  1  0.871763  0.250001  0.121763  1
  Ru  Ru15  1  0.125891  0.875891  0.250001  1
  Ru  Ru16  1  0.628236  0.750000  0.378236  1
  Ru  Ru17  1  0.374108  0.624108  0.750000  1
  Rh  Rh18  1  0.250001  0.122383  0.872383  1
  Rh  Rh19  1  0.750000  0.377616  0.627616  1
