# generated using pymatgen
data_TcIr(SO5)2
_symmetry_space_group_name_H-M   'P 1'
_cell_length_a   5.32860820
_cell_length_b   5.19846639
_cell_length_c   7.47369485
_cell_angle_alpha   108.56795472
_cell_angle_beta   109.22729293
_cell_angle_gamma   98.72184029
_symmetry_Int_Tables_number   1
_chemical_formula_structural   TcIr(SO5)2
_chemical_formula_sum   'Tc1 Ir1 S2 O10'
_cell_volume   177.53070662
_cell_formula_units_Z   1
loop_
 _symmetry_equiv_pos_site_id
 _symmetry_equiv_pos_as_xyz
  1  'x, y, z'
loop_
 _atom_site_type_symbol
 _atom_site_label
 _atom_site_symmetry_multiplicity
 _atom_site_fract_x
 _atom_site_fract_y
 _atom_site_fract_z
 _atom_site_occupancy
  Tc  Tc0  1  0.500000  0.000000  0.000000  1
  Ir  Ir1  1  0.000000  0.500000  0.500000  1
  S  S2  1  0.085464  0.912398  0.252814  1
  S  S3  1  0.914536  0.087602  0.747186  1
  O  O4  1  0.679996  0.304447  0.237999  1
  O  O5  1  0.320004  0.695553  0.762001  1
  O  O6  1  0.777578  0.802176  0.144656  1
  O  O7  1  0.188520  0.231426  0.357753  1
  O  O8  1  0.222422  0.197824  0.855344  1
  O  O9  1  0.811480  0.768574  0.642247  1
  O  O10  1  0.179877  0.790751  0.411952  1
  O  O11  1  0.223028  0.826566  0.110469  1
  O  O12  1  0.820123  0.209249  0.588048  1
  O  O13  1  0.776972  0.173434  0.889531  1
