# generated using pymatgen
data_ErTmMn2F14
_symmetry_space_group_name_H-M   'P 1'
_cell_length_a   5.38997600
_cell_length_b   8.60146483
_cell_length_c   11.60482899
_cell_angle_alpha   62.74671283
_cell_angle_beta   90.00000000
_cell_angle_gamma   90.00000000
_symmetry_Int_Tables_number   1
_chemical_formula_structural   ErTmMn2F14
_chemical_formula_sum   'Er2 Tm2 Mn4 F28'
_cell_volume   478.29439916
_cell_formula_units_Z   2
loop_
 _symmetry_equiv_pos_site_id
 _symmetry_equiv_pos_as_xyz
  1  'x, y, z'
loop_
 _atom_site_type_symbol
 _atom_site_label
 _atom_site_symmetry_multiplicity
 _atom_site_fract_x
 _atom_site_fract_y
 _atom_site_fract_z
 _atom_site_occupancy
  Er  Er0  1  0.239248  0.190395  0.234919  1
  Er  Er1  1  0.739248  0.809605  0.265081  1
  Tm  Tm2  1  0.761008  0.810536  0.764816  1
  Tm  Tm3  1  0.261008  0.189464  0.735184  1
  Mn  Mn4  1  0.758817  0.273263  0.956205  1
  Mn  Mn5  1  0.258817  0.726737  0.543795  1
  Mn  Mn6  1  0.241219  0.727381  0.042767  1
  Mn  Mn7  1  0.741219  0.272619  0.457233  1
  F  F8  1  0.430159  0.703813  0.920379  1
  F  F9  1  0.930159  0.296187  0.579621  1
  F  F10  1  0.570844  0.296581  0.078985  1
  F  F11  1  0.070844  0.703419  0.421015  1
  F  F12  1  0.448605  0.277198  0.540045  1
  F  F13  1  0.948605  0.722802  0.959955  1
  F  F14  1  0.550783  0.722157  0.461094  1
  F  F15  1  0.050783  0.277843  0.038906  1
  F  F16  1  0.776961  0.514405  0.861661  1
  F  F17  1  0.276961  0.485595  0.638339  1
  F  F18  1  0.222726  0.486859  0.137775  1
  F  F19  1  0.722726  0.513141  0.362225  1
  F  F20  1  0.754070  0.034420  0.045875  1
  F  F21  1  0.254070  0.965580  0.454125  1
  F  F22  1  0.245950  0.966389  0.953283  1
  F  F23  1  0.745950  0.033611  0.546717  1
  F  F24  1  0.975426  0.724884  0.633972  1
  F  F25  1  0.475426  0.275116  0.866028  1
  F  F26  1  0.024140  0.275528  0.366815  1
  F  F27  1  0.524140  0.724472  0.133185  1
  F  F28  1  0.056964  0.744357  0.171767  1
  F  F29  1  0.556964  0.255643  0.328233  1
  F  F30  1  0.944750  0.255343  0.827720  1
  F  F31  1  0.444750  0.744657  0.672280  1
  F  F32  1  0.411152  0.969178  0.230243  1
  F  F33  1  0.911152  0.030822  0.269757  1
  F  F34  1  0.587179  0.030020  0.769349  1
  F  F35  1  0.087179  0.969980  0.730651  1
