# generated using pymatgen
data_Tb8Hf8Zr4Si15P
_symmetry_space_group_name_H-M   'P 1'
_cell_length_a   7.29875997
_cell_length_b   7.29827473
_cell_length_c   13.42285431
_cell_angle_alpha   89.85647594
_cell_angle_beta   89.94102841
_cell_angle_gamma   90.00252230
_symmetry_Int_Tables_number   1
_chemical_formula_structural   Tb8Hf8Zr4Si15P
_chemical_formula_sum   'Tb8 Hf8 Zr4 Si15 P1'
_cell_volume   715.01075099
_cell_formula_units_Z   1
loop_
 _symmetry_equiv_pos_site_id
 _symmetry_equiv_pos_as_xyz
  1  'x, y, z'
loop_
 _atom_site_type_symbol
 _atom_site_label
 _atom_site_symmetry_multiplicity
 _atom_site_fract_x
 _atom_site_fract_y
 _atom_site_fract_z
 _atom_site_occupancy
  Tb  Tb0  1  0.999096  0.344607  0.215559  1
  Tb  Tb1  1  0.003837  0.656100  0.714646  1
  Tb  Tb2  1  0.156411  0.495677  0.463682  1
  Tb  Tb3  1  0.504631  0.843868  0.035289  1
  Tb  Tb4  1  0.844144  0.503375  0.965056  1
  Tb  Tb5  1  0.496142  0.155463  0.534757  1
  Tb  Tb6  1  0.344491  0.996382  0.785458  1
  Tb  Tb7  1  0.652707  0.005783  0.285231  1
  Hf  Hf8  1  0.151469  0.998113  0.373596  1
  Hf  Hf9  1  0.851016  0.004417  0.875214  1
  Hf  Hf10  1  0.504172  0.648736  0.624808  1
  Hf  Hf11  1  0.351538  0.495860  0.875281  1
  Hf  Hf12  1  0.494106  0.349131  0.127526  1
  Hf  Hf13  1  0.647158  0.502256  0.374556  1
  Hf  Hf14  1  0.996241  0.149239  0.624944  1
  Hf  Hf15  1  0.002865  0.850177  0.125096  1
  Zr  Zr16  1  0.175032  0.175351  0.000564  1
  Zr  Zr17  1  0.825832  0.825530  0.499648  1
  Zr  Zr18  1  0.324727  0.674881  0.250549  1
  Zr  Zr19  1  0.674756  0.325352  0.749966  1
  Si  Si20  1  0.636663  0.706573  0.817030  1
  Si  Si21  1  0.205542  0.863406  0.566333  1
  Si  Si22  1  0.136432  0.793718  0.932739  1
  Si  Si23  1  0.793428  0.137646  0.067864  1
  Si  Si24  1  0.863498  0.206189  0.432393  1
  Si  Si25  1  0.293847  0.362834  0.682532  1
  Si  Si26  1  0.705864  0.635779  0.183259  1
  Si  Si27  1  0.293994  0.043771  0.183354  1
  Si  Si28  1  0.705056  0.950233  0.686566  1
  Si  Si29  1  0.450606  0.794817  0.436910  1
  Si  Si30  1  0.205092  0.549521  0.063422  1
  Si  Si31  1  0.550085  0.205227  0.937400  1
  Si  Si32  1  0.795177  0.450352  0.562929  1
  Si  Si33  1  0.050108  0.295145  0.813184  1
  Si  Si34  1  0.949984  0.705540  0.313982  1
  P  P35  1  0.364250  0.298946  0.318676  1
