# generated using pymatgen
data_Sm3Pu(C2Br)2
_symmetry_space_group_name_H-M   'P 1'
_cell_length_a   7.72951974
_cell_length_b   7.72452301
_cell_length_c   6.60787225
_cell_angle_alpha   79.24085263
_cell_angle_beta   79.38536811
_cell_angle_gamma   30.88966442
_symmetry_Int_Tables_number   1
_chemical_formula_structural   Sm3Pu(C2Br)2
_chemical_formula_sum   'Sm3 Pu1 C4 Br2'
_cell_volume   198.76293948
_cell_formula_units_Z   1
loop_
 _symmetry_equiv_pos_site_id
 _symmetry_equiv_pos_as_xyz
  1  'x, y, z'
loop_
 _atom_site_type_symbol
 _atom_site_label
 _atom_site_symmetry_multiplicity
 _atom_site_fract_x
 _atom_site_fract_y
 _atom_site_fract_z
 _atom_site_occupancy
  Sm  Sm0  1  0.536291  0.154423  0.151010  1
  Sm  Sm1  1  0.156386  0.530511  0.649922  1
  Sm  Sm2  1  0.469794  0.839432  0.848839  1
  Pu  Pu3  1  0.839363  0.477690  0.348479  1
  C  C4  1  0.345074  0.100210  0.471494  1
  C  C5  1  0.913851  0.640567  0.029212  1
  C  C6  1  0.642810  0.911310  0.525157  1
  C  C7  1  0.093945  0.350177  0.975073  1
  Br  Br8  1  0.217184  0.783632  0.251543  1
  Br  Br9  1  0.785302  0.212049  0.749270  1
