# generated using pymatgen
data_Sm4Tm4Sc12Si15Ag
_symmetry_space_group_name_H-M   'P 1'
_cell_length_a   7.14804252
_cell_length_b   7.38834300
_cell_length_c   14.10680327
_cell_angle_alpha   89.91414163
_cell_angle_beta   89.61262138
_cell_angle_gamma   90.26021828
_symmetry_Int_Tables_number   1
_chemical_formula_structural   Sm4Tm4Sc12Si15Ag
_chemical_formula_sum   'Sm4 Tm4 Sc12 Si15 Ag1'
_cell_volume   744.98559038
_cell_formula_units_Z   1
loop_
 _symmetry_equiv_pos_site_id
 _symmetry_equiv_pos_as_xyz
  1  'x, y, z'
loop_
 _atom_site_type_symbol
 _atom_site_label
 _atom_site_symmetry_multiplicity
 _atom_site_fract_x
 _atom_site_fract_y
 _atom_site_fract_z
 _atom_site_occupancy
  Sm  Sm0  1  0.011251  0.174351  0.098161  1
  Sm  Sm1  1  0.988473  0.828035  0.904102  1
  Sm  Sm2  1  0.488957  0.674703  0.905558  1
  Sm  Sm3  1  0.989962  0.831238  0.595931  1
  Tm  Tm4  1  0.511264  0.323053  0.098305  1
  Tm  Tm5  1  0.007697  0.172967  0.397343  1
  Tm  Tm6  1  0.511013  0.321906  0.400238  1
  Tm  Tm7  1  0.494770  0.678770  0.599451  1
  Sc  Sc8  1  0.164534  0.501462  0.752393  1
  Sc  Sc9  1  0.836184  0.497507  0.251613  1
  Sc  Sc10  1  0.336865  0.000194  0.249543  1
  Sc  Sc11  1  0.666172  0.997844  0.750944  1
  Sc  Sc12  1  0.343841  0.174529  0.626168  1
  Sc  Sc13  1  0.663427  0.822369  0.373631  1
  Sc  Sc14  1  0.167141  0.673770  0.371696  1
  Sc  Sc15  1  0.668740  0.824178  0.126105  1
  Sc  Sc16  1  0.826089  0.325854  0.623972  1
  Sc  Sc17  1  0.330654  0.176277  0.875979  1
  Sc  Sc18  1  0.829610  0.324076  0.875965  1
  Sc  Sc19  1  0.169448  0.674361  0.126087  1
  Si  Si20  1  0.037994  0.125082  0.749521  1
  Si  Si21  1  0.964135  0.881749  0.250213  1
  Si  Si22  1  0.466492  0.612893  0.248623  1
  Si  Si23  1  0.535691  0.385271  0.751164  1
  Si  Si24  1  0.289097  0.875910  0.749261  1
  Si  Si25  1  0.709315  0.128080  0.250163  1
  Si  Si26  1  0.215527  0.370643  0.249917  1
  Si  Si27  1  0.787627  0.625387  0.750631  1
  Si  Si28  1  0.833119  0.533791  0.457980  1
  Si  Si29  1  0.337538  0.963281  0.460113  1
  Si  Si30  1  0.841257  0.534739  0.040230  1
  Si  Si31  1  0.656824  0.037321  0.536295  1
  Si  Si32  1  0.153654  0.463474  0.962408  1
  Si  Si33  1  0.654754  0.039510  0.962437  1
  Si  Si34  1  0.345567  0.966279  0.040959  1
  Ag  Ag35  1  0.165316  0.459144  0.536900  1
