# generated using pymatgen
data_Er5LuTh2(MgCo)2
_symmetry_space_group_name_H-M   'P 1'
_cell_length_a   9.55009622
_cell_length_b   9.54836709
_cell_length_c   9.54836716
_cell_angle_alpha   60.01199169
_cell_angle_beta   59.99400654
_cell_angle_gamma   59.99400474
_symmetry_Int_Tables_number   1
_chemical_formula_structural   Er5LuTh2(MgCo)2
_chemical_formula_sum   'Er10 Lu2 Th4 Mg4 Co4'
_cell_volume   615.67419057
_cell_formula_units_Z   2
loop_
 _symmetry_equiv_pos_site_id
 _symmetry_equiv_pos_as_xyz
  1  'x, y, z'
loop_
 _atom_site_type_symbol
 _atom_site_label
 _atom_site_symmetry_multiplicity
 _atom_site_fract_x
 _atom_site_fract_y
 _atom_site_fract_z
 _atom_site_occupancy
  Er  Er0  1  0.435361  0.064639  0.435361  1
  Er  Er1  1  0.064639  0.435361  0.064639  1
  Er  Er2  1  0.435361  0.435361  0.064639  1
  Er  Er3  1  0.064639  0.064639  0.435361  1
  Er  Er4  1  0.185199  0.814801  0.814801  1
  Er  Er5  1  0.814801  0.185199  0.185199  1
  Er  Er6  1  0.815017  0.184983  0.815017  1
  Er  Er7  1  0.184983  0.815017  0.184983  1
  Er  Er8  1  0.815017  0.815017  0.184983  1
  Er  Er9  1  0.184983  0.184983  0.815017  1
  Lu  Lu10  1  0.063910  0.436090  0.436090  1
  Lu  Lu11  1  0.436090  0.063910  0.063910  1
  Th  Th12  1  0.595884  0.594580  0.594580  1
  Th  Th13  1  0.594580  0.595884  0.214957  1
  Th  Th14  1  0.594580  0.214957  0.595884  1
  Th  Th15  1  0.214957  0.594580  0.594580  1
  Mg  Mg16  1  0.830105  0.830345  0.830345  1
  Mg  Mg17  1  0.830345  0.830105  0.509205  1
  Mg  Mg18  1  0.830345  0.509205  0.830105  1
  Mg  Mg19  1  0.509205  0.830345  0.830345  1
  Co  Co20  1  0.393124  0.394975  0.394975  1
  Co  Co21  1  0.394975  0.393124  0.816926  1
  Co  Co22  1  0.394975  0.816926  0.393124  1
  Co  Co23  1  0.816926  0.394975  0.394975  1
