# generated using pymatgen
data_Pm2MnFeO6
_symmetry_space_group_name_H-M   'P 1'
_cell_length_a   5.44316500
_cell_length_b   5.82742106
_cell_length_c   7.70998469
_cell_angle_alpha   90.46952857
_cell_angle_beta   90.00000000
_cell_angle_gamma   90.00000000
_symmetry_Int_Tables_number   1
_chemical_formula_structural   Pm2MnFeO6
_chemical_formula_sum   'Pm4 Mn2 Fe2 O12'
_cell_volume   244.54952952
_cell_formula_units_Z   2
loop_
 _symmetry_equiv_pos_site_id
 _symmetry_equiv_pos_as_xyz
  1  'x, y, z'
loop_
 _atom_site_type_symbol
 _atom_site_label
 _atom_site_symmetry_multiplicity
 _atom_site_fract_x
 _atom_site_fract_y
 _atom_site_fract_z
 _atom_site_occupancy
  Pm  Pm0  1  0.983308  0.071070  0.251291  1
  Pm  Pm1  1  0.516693  0.571069  0.251291  1
  Pm  Pm2  1  0.483307  0.428931  0.748709  1
  Pm  Pm3  1  0.016692  0.928930  0.748709  1
  Mn  Mn4  1  0.500001  0.000000  0.500000  1
  Mn  Mn5  1  0.000000  0.499999  0.500000  1
  Fe  Fe6  1  0.500001  0.000000  0.000000  1
  Fe  Fe7  1  0.000000  0.499999  0.000000  1
  O  O8  1  0.696225  0.303441  0.051311  1
  O  O9  1  0.803774  0.803442  0.051311  1
  O  O10  1  0.099713  0.470403  0.250564  1
  O  O11  1  0.400288  0.970403  0.250564  1
  O  O12  1  0.708717  0.319704  0.449031  1
  O  O13  1  0.791282  0.819705  0.449031  1
  O  O14  1  0.208718  0.180295  0.550969  1
  O  O15  1  0.291283  0.680295  0.550969  1
  O  O16  1  0.599712  0.029598  0.749436  1
  O  O17  1  0.900287  0.529597  0.749436  1
  O  O18  1  0.196226  0.196558  0.948690  1
  O  O19  1  0.303775  0.696558  0.948690  1
