# generated using pymatgen
data_Y12Co5Sb
_symmetry_space_group_name_H-M   'P 1'
_cell_length_a   8.31481473
_cell_length_b   8.31481458
_cell_length_c   8.31481401
_cell_angle_alpha   110.71983013
_cell_angle_beta   110.70691441
_cell_angle_gamma   107.01449649
_symmetry_Int_Tables_number   1
_chemical_formula_structural   Y12Co5Sb
_chemical_formula_sum   'Y12 Co5 Sb1'
_cell_volume   441.91604432
_cell_formula_units_Z   1
loop_
 _symmetry_equiv_pos_site_id
 _symmetry_equiv_pos_as_xyz
  1  'x, y, z'
loop_
 _atom_site_type_symbol
 _atom_site_label
 _atom_site_symmetry_multiplicity
 _atom_site_fract_x
 _atom_site_fract_y
 _atom_site_fract_z
 _atom_site_occupancy
  Y  Y0  1  0.289651  0.184592  0.474243  1
  Y  Y1  1  0.710349  0.815408  0.525757  1
  Y  Y2  1  0.289651  0.815408  0.105060  1
  Y  Y3  1  0.710349  0.184592  0.894940  1
  Y  Y4  1  0.619293  0.312173  0.307120  1
  Y  Y5  1  0.380707  0.687827  0.692880  1
  Y  Y6  1  0.005053  0.312173  0.692880  1
  Y  Y7  1  0.994947  0.687827  0.307120  1
  Y  Y8  1  0.208316  0.402468  0.194152  1
  Y  Y9  1  0.791684  0.597532  0.805848  1
  Y  Y10  1  0.208316  0.014164  0.805848  1
  Y  Y11  1  0.791684  0.985836  0.194152  1
  Co  Co12  1  0.000000  0.378094  0.378094  1
  Co  Co13  1  0.000000  0.621906  0.621906  1
  Co  Co14  1  0.389364  0.889364  0.500000  1
  Co  Co15  1  0.610636  0.110636  0.500000  1
  Co  Co16  1  0.000000  0.000000  0.000000  1
  Sb  Sb17  1  0.500000  0.500000  0.000000  1
