# generated using pymatgen
data_Hf6Be9(Al3Pd4)2
_symmetry_space_group_name_H-M   'P 1'
_cell_length_a   8.34258080
_cell_length_b   8.34535397
_cell_length_c   8.34258142
_cell_angle_alpha   59.98901103
_cell_angle_beta   59.96047771
_cell_angle_gamma   59.98901251
_symmetry_Int_Tables_number   1
_chemical_formula_structural   Hf6Be9(Al3Pd4)2
_chemical_formula_sum   'Hf6 Be9 Al6 Pd8'
_cell_volume   410.51463543
_cell_formula_units_Z   1
loop_
 _symmetry_equiv_pos_site_id
 _symmetry_equiv_pos_as_xyz
  1  'x, y, z'
loop_
 _atom_site_type_symbol
 _atom_site_label
 _atom_site_symmetry_multiplicity
 _atom_site_fract_x
 _atom_site_fract_y
 _atom_site_fract_z
 _atom_site_occupancy
  Hf  Hf0  1  0.700260  0.304416  0.299740  1
  Hf  Hf1  1  0.299740  0.695584  0.700260  1
  Hf  Hf2  1  0.302542  0.697458  0.302542  1
  Hf  Hf3  1  0.697458  0.302542  0.697458  1
  Hf  Hf4  1  0.299740  0.304416  0.700260  1
  Hf  Hf5  1  0.700260  0.695584  0.299740  1
  Be  Be6  1  0.328055  0.329116  0.328055  1
  Be  Be7  1  0.671945  0.670884  0.671945  1
  Be  Be8  1  0.315123  0.336269  0.012336  1
  Be  Be9  1  0.328055  0.014771  0.328055  1
  Be  Be10  1  0.684877  0.663731  0.987664  1
  Be  Be11  1  0.671945  0.985229  0.671945  1
  Be  Be12  1  0.012336  0.336269  0.315123  1
  Be  Be13  1  0.987664  0.663731  0.684877  1
  Be  Be14  1  0.000000  0.500000  0.000000  1
  Al  Al15  1  0.500000  0.000000  0.000000  1
  Al  Al16  1  0.000000  0.500000  0.500000  1
  Al  Al17  1  0.500000  0.000000  0.500000  1
  Al  Al18  1  0.000000  0.000000  0.500000  1
  Al  Al19  1  0.500000  0.500000  0.000000  1
  Al  Al20  1  0.000000  0.000000  0.000000  1
  Pd  Pd21  1  0.123213  0.133332  0.123213  1
  Pd  Pd22  1  0.876787  0.866668  0.876787  1
  Pd  Pd23  1  0.124848  0.126718  0.621715  1
  Pd  Pd24  1  0.123213  0.620242  0.123213  1
  Pd  Pd25  1  0.875152  0.873282  0.378285  1
  Pd  Pd26  1  0.876787  0.379758  0.876787  1
  Pd  Pd27  1  0.621715  0.126718  0.124848  1
  Pd  Pd28  1  0.378285  0.873282  0.875152  1
