# generated using pymatgen
data_Mn4Nb8Fe4Si13P
_symmetry_space_group_name_H-M   'P 1'
_cell_length_a   9.31212674
_cell_length_b   9.31073345
_cell_length_c   9.35379891
_cell_angle_alpha   94.07846077
_cell_angle_beta   94.08640873
_cell_angle_gamma   148.97794403
_symmetry_Int_Tables_number   1
_chemical_formula_structural   Mn4Nb8Fe4Si13P
_chemical_formula_sum   'Mn4 Nb8 Fe4 Si13 P1'
_cell_volume   402.88088761
_cell_formula_units_Z   1
loop_
 _symmetry_equiv_pos_site_id
 _symmetry_equiv_pos_as_xyz
  1  'x, y, z'
loop_
 _atom_site_type_symbol
 _atom_site_label
 _atom_site_symmetry_multiplicity
 _atom_site_fract_x
 _atom_site_fract_y
 _atom_site_fract_z
 _atom_site_occupancy
  Mn  Mn0  1  0.397975  0.897975  0.795951  1
  Mn  Mn1  1  0.101975  0.601975  0.203951  1
  Mn  Mn2  1  0.102687  0.905176  0.502161  1
  Mn  Mn3  1  0.399474  0.596984  0.502161  1
  Nb  Nb4  1  0.134434  0.134434  0.268868  1
  Nb  Nb5  1  0.865263  0.865263  0.730528  1
  Nb  Nb6  1  0.865004  0.134810  0.000503  1
  Nb  Nb7  1  0.135500  0.865693  0.000503  1
  Nb  Nb8  1  0.497583  0.689313  0.189220  1
  Nb  Nb9  1  0.497743  0.308430  0.807537  1
  Nb  Nb10  1  0.309794  0.499108  0.807537  1
  Nb  Nb11  1  0.691637  0.499906  0.189220  1
  Fe  Fe12  1  0.597118  0.402081  0.501944  1
  Fe  Fe13  1  0.904826  0.099864  0.501944  1
  Fe  Fe14  1  0.899779  0.399779  0.799559  1
  Fe  Fe15  1  0.600341  0.100341  0.200682  1
  Si  Si16  1  0.703427  0.703427  0.406853  1
  Si  Si17  1  0.706881  0.292540  0.999624  1
  Si  Si18  1  0.292742  0.707083  0.999624  1
  Si  Si19  1  0.993797  0.286367  0.293894  1
  Si  Si20  1  0.993240  0.700814  0.707313  1
  Si  Si21  1  0.714073  0.006500  0.707313  1
  Si  Si22  1  0.300097  0.007527  0.293894  1
  Si  Si23  1  0.513559  0.918066  0.407818  1
  Si  Si24  1  0.511757  0.105198  0.591698  1
  Si  Si25  1  0.079940  0.486500  0.591698  1
  Si  Si26  1  0.894260  0.489753  0.407818  1
  Si  Si27  1  0.751091  0.751058  0.999851  1
  Si  Si28  1  0.248760  0.248792  0.999851  1
  P  P29  1  0.295239  0.295239  0.590480  1
