# generated using pymatgen
data_SrSi12Pt5
_symmetry_space_group_name_H-M   'P 1'
_cell_length_a   16.62395950
_cell_length_b   16.62395944
_cell_length_c   6.13794332
_cell_angle_alpha   89.99022031
_cell_angle_beta   89.99021552
_cell_angle_gamma   158.61962929
_symmetry_Int_Tables_number   1
_chemical_formula_structural   SrSi12Pt5
_chemical_formula_sum   'Sr2 Si24 Pt10'
_cell_volume   618.38366914
_cell_formula_units_Z   2
loop_
 _symmetry_equiv_pos_site_id
 _symmetry_equiv_pos_as_xyz
  1  'x, y, z'
loop_
 _atom_site_type_symbol
 _atom_site_label
 _atom_site_symmetry_multiplicity
 _atom_site_fract_x
 _atom_site_fract_y
 _atom_site_fract_z
 _atom_site_occupancy
  Sr  Sr0  1  0.876771  0.123229  0.000000  1
  Sr  Sr1  1  0.123229  0.876771  0.000000  1
  Si  Si2  1  0.707384  0.787393  0.251425  1
  Si  Si3  1  0.292616  0.212607  0.748575  1
  Si  Si4  1  0.212607  0.292616  0.748575  1
  Si  Si5  1  0.787393  0.707384  0.251425  1
  Si  Si6  1  0.643549  0.920614  0.501185  1
  Si  Si7  1  0.356451  0.079386  0.498815  1
  Si  Si8  1  0.079386  0.356451  0.498815  1
  Si  Si9  1  0.920614  0.643549  0.501185  1
  Si  Si10  1  0.636733  0.358996  0.220894  1
  Si  Si11  1  0.363267  0.641004  0.779106  1
  Si  Si12  1  0.641004  0.363267  0.779106  1
  Si  Si13  1  0.358996  0.636733  0.220894  1
  Si  Si14  1  0.358149  0.916346  0.133307  1
  Si  Si15  1  0.641851  0.083654  0.866693  1
  Si  Si16  1  0.083654  0.641851  0.866693  1
  Si  Si17  1  0.916346  0.358149  0.133307  1
  Si  Si18  1  0.420861  0.855307  0.369789  1
  Si  Si19  1  0.579139  0.144693  0.630211  1
  Si  Si20  1  0.144693  0.579139  0.630211  1
  Si  Si21  1  0.855307  0.420861  0.369789  1
  Si  Si22  1  0.292856  0.212200  0.251851  1
  Si  Si23  1  0.707144  0.787800  0.748149  1
  Si  Si24  1  0.787800  0.707144  0.748149  1
  Si  Si25  1  0.212200  0.292856  0.251851  1
  Pt  Pt26  1  0.576653  0.423347  0.000000  1
  Pt  Pt27  1  0.423347  0.576653  0.000000  1
  Pt  Pt28  1  0.000000  0.000000  0.000000  1
  Pt  Pt29  1  0.924196  0.075804  0.500000  1
  Pt  Pt30  1  0.075804  0.924196  0.500000  1
  Pt  Pt31  1  0.703608  0.296392  0.000000  1
  Pt  Pt32  1  0.296392  0.703608  0.000000  1
  Pt  Pt33  1  0.797343  0.202657  0.500000  1
  Pt  Pt34  1  0.202657  0.797343  0.500000  1
  Pt  Pt35  1  0.500000  0.500000  0.500000  1
