# generated using pymatgen
data_Nd6Cd23Si
_symmetry_space_group_name_H-M   'P 1'
_cell_length_a   10.08745227
_cell_length_b   10.08745207
_cell_length_c   10.08745300
_cell_angle_alpha   60.00000023
_cell_angle_beta   60.00000088
_cell_angle_gamma   59.99999804
_symmetry_Int_Tables_number   1
_chemical_formula_structural   Nd6Cd23Si
_chemical_formula_sum   'Nd6 Cd23 Si1'
_cell_volume   725.82095180
_cell_formula_units_Z   1
loop_
 _symmetry_equiv_pos_site_id
 _symmetry_equiv_pos_as_xyz
  1  'x, y, z'
loop_
 _atom_site_type_symbol
 _atom_site_label
 _atom_site_symmetry_multiplicity
 _atom_site_fract_x
 _atom_site_fract_y
 _atom_site_fract_z
 _atom_site_occupancy
  Nd  Nd0  1  0.793795  0.793795  0.206205  1
  Nd  Nd1  1  0.206205  0.793795  0.206205  1
  Nd  Nd2  1  0.793795  0.206205  0.206205  1
  Nd  Nd3  1  0.206205  0.206205  0.793795  1
  Nd  Nd4  1  0.793795  0.206205  0.793795  1
  Nd  Nd5  1  0.206205  0.793795  0.793795  1
  Cd  Cd6  1  0.834044  0.834044  0.497867  1
  Cd  Cd7  1  0.834044  0.497867  0.834044  1
  Cd  Cd8  1  0.497867  0.834044  0.834044  1
  Cd  Cd9  1  0.834044  0.834044  0.834044  1
  Cd  Cd10  1  0.165956  0.165956  0.502133  1
  Cd  Cd11  1  0.165956  0.502133  0.165956  1
  Cd  Cd12  1  0.502133  0.165956  0.165956  1
  Cd  Cd13  1  0.165956  0.165956  0.165956  1
  Cd  Cd14  1  0.621499  0.621499  0.135503  1
  Cd  Cd15  1  0.621499  0.135503  0.621499  1
  Cd  Cd16  1  0.135503  0.621499  0.621499  1
  Cd  Cd17  1  0.621499  0.621499  0.621499  1
  Cd  Cd18  1  0.378501  0.378501  0.864497  1
  Cd  Cd19  1  0.378501  0.864497  0.378501  1
  Cd  Cd20  1  0.864497  0.378501  0.378501  1
  Cd  Cd21  1  0.378501  0.378501  0.378501  1
  Cd  Cd22  1  0.000000  0.000000  0.500000  1
  Cd  Cd23  1  0.500000  0.000000  0.500000  1
  Cd  Cd24  1  0.000000  0.500000  0.500000  1
  Cd  Cd25  1  0.500000  0.500000  0.000000  1
  Cd  Cd26  1  0.000000  0.500000  0.000000  1
  Cd  Cd27  1  0.500000  0.000000  0.000000  1
  Cd  Cd28  1  0.500000  0.500000  0.500000  1
  Si  Si29  1  0.000000  0.000000  0.000000  1
