# generated using pymatgen
data_Sm6IrI10
_symmetry_space_group_name_H-M   'P 1'
_cell_length_a   7.89710070
_cell_length_b   9.85593858
_cell_length_c   9.96276543
_cell_angle_alpha   107.23470363
_cell_angle_beta   97.00940679
_cell_angle_gamma   104.61762891
_symmetry_Int_Tables_number   1
_chemical_formula_structural   Sm6IrI10
_chemical_formula_sum   'Sm6 Ir1 I10'
_cell_volume   700.20724991
_cell_formula_units_Z   1
loop_
 _symmetry_equiv_pos_site_id
 _symmetry_equiv_pos_as_xyz
  1  'x, y, z'
loop_
 _atom_site_type_symbol
 _atom_site_label
 _atom_site_symmetry_multiplicity
 _atom_site_fract_x
 _atom_site_fract_y
 _atom_site_fract_z
 _atom_site_occupancy
  Sm  Sm0  1  0.116401  0.042892  0.756768  1
  Sm  Sm1  1  0.883599  0.957108  0.243232  1
  Sm  Sm2  1  0.968559  0.281552  0.083345  1
  Sm  Sm3  1  0.031441  0.718448  0.916655  1
  Sm  Sm4  1  0.352919  0.126641  0.168488  1
  Sm  Sm5  1  0.647081  0.873359  0.831512  1
  Ir  Ir6  1  0.000000  0.000000  0.000000  1
  I  I7  1  0.350778  0.451932  0.272611  1
  I  I8  1  0.649222  0.548068  0.727389  1
  I  I9  1  0.259140  0.088081  0.462026  1
  I  I10  1  0.740860  0.911919  0.537974  1
  I  I11  1  0.085806  0.372249  0.821090  1
  I  I12  1  0.914194  0.627751  0.178910  1
  I  I13  1  0.453443  0.815034  0.090917  1
  I  I14  1  0.546557  0.184966  0.909083  1
  I  I15  1  0.781221  0.258275  0.345978  1
  I  I16  1  0.218779  0.741725  0.654022  1
