# generated using pymatgen
data_Rb6ScInSb4
_symmetry_space_group_name_H-M   'P 1'
_cell_length_a   10.03932895
_cell_length_b   10.03932855
_cell_length_c   10.03932789
_cell_angle_alpha   128.13814465
_cell_angle_beta   136.93725448
_cell_angle_gamma   69.62481752
_symmetry_Int_Tables_number   1
_chemical_formula_structural   Rb6ScInSb4
_chemical_formula_sum   'Rb6 Sc1 In1 Sb4'
_cell_volume   533.30564241
_cell_formula_units_Z   1
loop_
 _symmetry_equiv_pos_site_id
 _symmetry_equiv_pos_as_xyz
  1  'x, y, z'
loop_
 _atom_site_type_symbol
 _atom_site_label
 _atom_site_symmetry_multiplicity
 _atom_site_fract_x
 _atom_site_fract_y
 _atom_site_fract_z
 _atom_site_occupancy
  Rb  Rb0  1  0.689975  0.474925  0.804953  1
  Rb  Rb1  1  0.810025  0.114978  0.284951  1
  Rb  Rb2  1  0.169973  0.885022  0.695047  1
  Rb  Rb3  1  0.330027  0.525075  0.215049  1
  Rb  Rb4  1  0.750000  0.000000  0.750000  1
  Rb  Rb5  1  0.250000  0.000000  0.250000  1
  Sc  Sc6  1  0.250000  0.500000  0.750000  1
  In  In7  1  0.750000  0.500000  0.250000  1
  Sb  Sb8  1  0.398386  0.214756  0.809736  1
  Sb  Sb9  1  0.594980  0.785244  0.183631  1
  Sb  Sb10  1  0.101614  0.411348  0.316369  1
  Sb  Sb11  1  0.905020  0.588652  0.690264  1
