# generated using pymatgen
data_LiPr3Au5
_symmetry_space_group_name_H-M   'P 1'
_cell_length_a   8.12742939
_cell_length_b   8.12743029
_cell_length_c   8.12743100
_cell_angle_alpha   65.79887067
_cell_angle_beta   65.79886780
_cell_angle_gamma   65.79884980
_symmetry_Int_Tables_number   1
_chemical_formula_structural   LiPr3Au5
_chemical_formula_sum   'Li2 Pr6 Au10'
_cell_volume   427.34313752
_cell_formula_units_Z   2
loop_
 _symmetry_equiv_pos_site_id
 _symmetry_equiv_pos_as_xyz
  1  'x, y, z'
loop_
 _atom_site_type_symbol
 _atom_site_label
 _atom_site_symmetry_multiplicity
 _atom_site_fract_x
 _atom_site_fract_y
 _atom_site_fract_z
 _atom_site_occupancy
  Li  Li0  1  0.654082  0.654082  0.654082  1
  Li  Li1  1  0.345918  0.345918  0.345918  1
  Pr  Pr2  1  0.889497  0.193411  0.620718  1
  Pr  Pr3  1  0.620718  0.889497  0.193411  1
  Pr  Pr4  1  0.193411  0.620718  0.889497  1
  Pr  Pr5  1  0.110503  0.806589  0.379282  1
  Pr  Pr6  1  0.379282  0.110503  0.806589  1
  Pr  Pr7  1  0.806589  0.379282  0.110503  1
  Au  Au8  1  0.000000  0.000000  0.000000  1
  Au  Au9  1  0.500000  0.500000  0.500000  1
  Au  Au10  1  0.795725  0.795725  0.795725  1
  Au  Au11  1  0.204275  0.204275  0.204275  1
  Au  Au12  1  0.945490  0.551377  0.317632  1
  Au  Au13  1  0.317632  0.945490  0.551377  1
  Au  Au14  1  0.551377  0.317632  0.945490  1
  Au  Au15  1  0.054510  0.448623  0.682368  1
  Au  Au16  1  0.682368  0.054510  0.448623  1
  Au  Au17  1  0.448623  0.682368  0.054510  1
