# generated using pymatgen
data_Sc12Co4TcBi
_symmetry_space_group_name_H-M   'P 1'
_cell_length_a   7.77749298
_cell_length_b   7.77749280
_cell_length_c   7.77749349
_cell_angle_alpha   111.93428300
_cell_angle_beta   110.65372691
_cell_angle_gamma   105.88681033
_symmetry_Int_Tables_number   1
_chemical_formula_structural   Sc12Co4TcBi
_chemical_formula_sum   'Sc12 Co4 Tc1 Bi1'
_cell_volume   361.05439349
_cell_formula_units_Z   1
loop_
 _symmetry_equiv_pos_site_id
 _symmetry_equiv_pos_as_xyz
  1  'x, y, z'
loop_
 _atom_site_type_symbol
 _atom_site_label
 _atom_site_symmetry_multiplicity
 _atom_site_fract_x
 _atom_site_fract_y
 _atom_site_fract_z
 _atom_site_occupancy
  Sc  Sc0  1  0.424322  0.222414  0.201907  1
  Sc  Sc1  1  0.575678  0.777586  0.798093  1
  Sc  Sc2  1  0.020507  0.222414  0.798093  1
  Sc  Sc3  1  0.979493  0.777586  0.201907  1
  Sc  Sc4  1  0.308278  0.613849  0.305571  1
  Sc  Sc5  1  0.691722  0.386151  0.694429  1
  Sc  Sc6  1  0.308278  0.002706  0.694429  1
  Sc  Sc7  1  0.691722  0.997294  0.305571  1
  Sc  Sc8  1  0.182216  0.272076  0.454293  1
  Sc  Sc9  1  0.817784  0.727923  0.545707  1
  Sc  Sc10  1  0.182216  0.727923  0.910140  1
  Sc  Sc11  1  0.817784  0.272076  0.089860  1
  Co  Co12  1  0.370364  0.000000  0.370364  1
  Co  Co13  1  0.629636  0.000000  0.629636  1
  Co  Co14  1  0.116740  0.616740  0.500000  1
  Co  Co15  1  0.883260  0.383260  0.500000  1
  Tc  Tc16  1  0.000000  0.000000  0.000000  1
  Bi  Bi17  1  0.500000  0.500000  0.000000  1
