# generated using pymatgen
data_NpHg3Te2F6
_symmetry_space_group_name_H-M   'P 1'
_cell_length_a   8.25342687
_cell_length_b   8.22943495
_cell_length_c   5.35909915
_cell_angle_alpha   89.99999668
_cell_angle_beta   90.20322222
_cell_angle_gamma   119.90388173
_symmetry_Int_Tables_number   1
_chemical_formula_structural   NpHg3Te2F6
_chemical_formula_sum   'Np1 Hg3 Te2 F6'
_cell_volume   315.53165478
_cell_formula_units_Z   1
loop_
 _symmetry_equiv_pos_site_id
 _symmetry_equiv_pos_as_xyz
  1  'x, y, z'
loop_
 _atom_site_type_symbol
 _atom_site_label
 _atom_site_symmetry_multiplicity
 _atom_site_fract_x
 _atom_site_fract_y
 _atom_site_fract_z
 _atom_site_occupancy
  Np  Np0  1  0.000000  0.000000  0.500000  1
  Hg  Hg1  1  0.500000  0.000000  0.000000  1
  Hg  Hg2  1  0.000000  0.500001  0.000000  1
  Hg  Hg3  1  0.500001  0.500001  0.000000  1
  Te  Te4  1  0.333418  0.666709  0.238451  1
  Te  Te5  1  0.666582  0.333291  0.761548  1
  F  F6  1  0.126266  0.253749  0.275607  1
  F  F7  1  0.126266  0.872517  0.275607  1
  F  F8  1  0.746340  0.873170  0.274470  1
  F  F9  1  0.253661  0.126831  0.725530  1
  F  F10  1  0.873735  0.127484  0.724393  1
  F  F11  1  0.873734  0.746250  0.724393  1
