# generated using pymatgen
data_Ho8AlPd23Pt
_symmetry_space_group_name_H-M   'P 1'
_cell_length_a   8.34529900
_cell_length_b   8.34729500
_cell_length_c   8.34729500
_cell_angle_alpha   90.00000000
_cell_angle_beta   90.00000000
_cell_angle_gamma   90.00000000
_symmetry_Int_Tables_number   1
_chemical_formula_structural   Ho8AlPd23Pt
_chemical_formula_sum   'Ho8 Al1 Pd23 Pt1'
_cell_volume   581.47818423
_cell_formula_units_Z   1
loop_
 _symmetry_equiv_pos_site_id
 _symmetry_equiv_pos_as_xyz
  1  'x, y, z'
loop_
 _atom_site_type_symbol
 _atom_site_label
 _atom_site_symmetry_multiplicity
 _atom_site_fract_x
 _atom_site_fract_y
 _atom_site_fract_z
 _atom_site_occupancy
  Ho  Ho0  1  0.251502  0.251053  0.251053  1
  Ho  Ho1  1  0.748416  0.748505  0.748505  1
  Ho  Ho2  1  0.748416  0.748505  0.251495  1
  Ho  Ho3  1  0.748416  0.251495  0.748505  1
  Ho  Ho4  1  0.251502  0.251053  0.748947  1
  Ho  Ho5  1  0.251502  0.748947  0.251053  1
  Ho  Ho6  1  0.251502  0.748947  0.748947  1
  Ho  Ho7  1  0.748416  0.251495  0.251495  1
  Al  Al8  1  0.000251  0.000000  0.000000  1
  Pd  Pd9  1  0.259757  0.500000  0.000000  1
  Pd  Pd10  1  0.740156  0.500000  0.000000  1
  Pd  Pd11  1  0.999956  0.259822  0.500000  1
  Pd  Pd12  1  0.499991  0.259907  0.000000  1
  Pd  Pd13  1  0.999956  0.740178  0.500000  1
  Pd  Pd14  1  0.499991  0.740093  0.000000  1
  Pd  Pd15  1  0.499991  0.000000  0.259907  1
  Pd  Pd16  1  0.259757  0.000000  0.500000  1
  Pd  Pd17  1  0.499991  0.000000  0.740093  1
  Pd  Pd18  1  0.740156  0.000000  0.500000  1
  Pd  Pd19  1  0.999956  0.500000  0.259822  1
  Pd  Pd20  1  0.999956  0.500000  0.740178  1
  Pd  Pd21  1  0.252788  0.500000  0.500000  1
  Pd  Pd22  1  0.747297  0.500000  0.500000  1
  Pd  Pd23  1  0.500092  0.252701  0.500000  1
  Pd  Pd24  1  0.500092  0.747299  0.500000  1
  Pd  Pd25  1  0.500092  0.500000  0.252701  1
  Pd  Pd26  1  0.500092  0.500000  0.747299  1
  Pd  Pd27  1  0.711301  0.000000  0.000000  1
  Pd  Pd28  1  0.999793  0.289615  0.000000  1
  Pd  Pd29  1  0.999793  0.710385  0.000000  1
  Pd  Pd30  1  0.999793  0.000000  0.289615  1
  Pd  Pd31  1  0.999793  0.000000  0.710385  1
  Pt  Pt32  1  0.289536  0.000000  0.000000  1
