# generated using pymatgen
data_YHf3Ta2(B2Ru5)2
_symmetry_space_group_name_H-M   'P 1'
_cell_length_a   9.51720387
_cell_length_b   9.51720387
_cell_length_c   3.11058100
_cell_angle_alpha   90.00000000
_cell_angle_beta   90.00000000
_cell_angle_gamma   90.22207447
_symmetry_Int_Tables_number   1
_chemical_formula_structural   YHf3Ta2(B2Ru5)2
_chemical_formula_sum   'Y1 Hf3 Ta2 B4 Ru10'
_cell_volume   281.74550628
_cell_formula_units_Z   1
loop_
 _symmetry_equiv_pos_site_id
 _symmetry_equiv_pos_as_xyz
  1  'x, y, z'
loop_
 _atom_site_type_symbol
 _atom_site_label
 _atom_site_symmetry_multiplicity
 _atom_site_fract_x
 _atom_site_fract_y
 _atom_site_fract_z
 _atom_site_occupancy
  Y  Y0  1  0.824901  0.675099  0.000000  1
  Hf  Hf1  1  0.176438  0.323562  0.000000  1
  Hf  Hf2  1  0.324873  0.824741  0.000000  1
  Hf  Hf3  1  0.675259  0.175127  0.000000  1
  Ta  Ta4  1  0.500489  0.500300  0.000000  1
  Ta  Ta5  1  0.999700  0.999511  0.000000  1
  B  B6  1  0.619114  0.880886  0.000000  1
  B  B7  1  0.377534  0.122466  0.000000  1
  B  B8  1  0.123717  0.620008  0.000000  1
  B  B9  1  0.879992  0.376283  0.000000  1
  Ru  Ru10  1  0.562295  0.722121  0.500000  1
  Ru  Ru11  1  0.427205  0.283066  0.500000  1
  Ru  Ru12  1  0.079423  0.783011  0.500000  1
  Ru  Ru13  1  0.930118  0.216013  0.500000  1
  Ru  Ru14  1  0.283987  0.569882  0.500000  1
  Ru  Ru15  1  0.716989  0.420577  0.500000  1
  Ru  Ru16  1  0.216934  0.072795  0.500000  1
  Ru  Ru17  1  0.777879  0.937705  0.500000  1
  Ru  Ru18  1  0.497110  0.002890  0.500000  1
  Ru  Ru19  1  0.006042  0.493958  0.500000  1
