# generated using pymatgen
data_Tb2PrHo3Ta2O14
_symmetry_space_group_name_H-M   'P 1'
_cell_length_a   6.50136473
_cell_length_b   6.50552365
_cell_length_c   7.54950638
_cell_angle_alpha   89.90416528
_cell_angle_beta   90.12964182
_cell_angle_gamma   108.84843037
_symmetry_Int_Tables_number   1
_chemical_formula_structural   Tb2PrHo3Ta2O14
_chemical_formula_sum   'Tb2 Pr1 Ho3 Ta2 O14'
_cell_volume   302.18157315
_cell_formula_units_Z   1
loop_
 _symmetry_equiv_pos_site_id
 _symmetry_equiv_pos_as_xyz
  1  'x, y, z'
loop_
 _atom_site_type_symbol
 _atom_site_label
 _atom_site_symmetry_multiplicity
 _atom_site_fract_x
 _atom_site_fract_y
 _atom_site_fract_z
 _atom_site_occupancy
  Tb  Tb0  1  0.462963  0.462595  0.999574  1
  Tb  Tb1  1  0.999210  0.535179  0.240934  1
  Pr  Pr2  1  0.513104  0.513897  0.500425  1
  Ho  Ho3  1  0.998490  0.465998  0.746006  1
  Ho  Ho4  1  0.534397  0.999951  0.759232  1
  Ho  Ho5  1  0.466748  0.998410  0.253836  1
  Ta  Ta6  1  0.001484  0.001341  0.500454  1
  Ta  Ta7  1  0.997179  0.997165  0.999327  1
  O  O8  1  0.932647  0.066487  0.749577  1
  O  O9  1  0.066734  0.934682  0.250304  1
  O  O10  1  0.359626  0.643045  0.240301  1
  O  O11  1  0.642835  0.356639  0.759342  1
  O  O12  1  0.365399  0.633893  0.759017  1
  O  O13  1  0.630314  0.363517  0.241412  1
  O  O14  1  0.326474  0.078943  0.973828  1
  O  O15  1  0.675956  0.927098  0.472305  1
  O  O16  1  0.314626  0.059914  0.541224  1
  O  O17  1  0.691983  0.951262  0.042054  1
  O  O18  1  0.062983  0.315393  0.461437  1
  O  O19  1  0.949445  0.691795  0.956752  1
  O  O20  1  0.926128  0.676082  0.528765  1
  O  O21  1  0.081274  0.326713  0.023897  1
