# generated using pymatgen
data_Tb4Zn11In
_symmetry_space_group_name_H-M   'P 1'
_cell_length_a   4.43141700
_cell_length_b   6.84608503
_cell_length_c   10.10941950
_cell_angle_alpha   90.13925176
_cell_angle_beta   90.00000000
_cell_angle_gamma   90.00000000
_symmetry_Int_Tables_number   1
_chemical_formula_structural   Tb4Zn11In
_chemical_formula_sum   'Tb4 Zn11 In1'
_cell_volume   306.69722329
_cell_formula_units_Z   1
loop_
 _symmetry_equiv_pos_site_id
 _symmetry_equiv_pos_as_xyz
  1  'x, y, z'
loop_
 _atom_site_type_symbol
 _atom_site_label
 _atom_site_symmetry_multiplicity
 _atom_site_fract_x
 _atom_site_fract_y
 _atom_site_fract_z
 _atom_site_occupancy
  Tb  Tb0  1  0.250000  0.284800  0.661868  1
  Tb  Tb1  1  0.250000  0.787845  0.830729  1
  Tb  Tb2  1  0.750000  0.716678  0.340126  1
  Tb  Tb3  1  0.750000  0.209585  0.165486  1
  Zn  Zn4  1  0.250000  0.035065  0.397018  1
  Zn  Zn5  1  0.750000  0.463952  0.892630  1
  Zn  Zn6  1  0.750000  0.963530  0.604592  1
  Zn  Zn7  1  0.250000  0.927128  0.149183  1
  Zn  Zn8  1  0.250000  0.415402  0.364334  1
  Zn  Zn9  1  0.750000  0.085872  0.848621  1
  Zn  Zn10  1  0.750000  0.585397  0.647615  1
  Zn  Zn11  1  0.250000  0.197089  0.954587  1
  Zn  Zn12  1  0.250000  0.715561  0.540477  1
  Zn  Zn13  1  0.750000  0.798209  0.038382  1
  Zn  Zn14  1  0.750000  0.279631  0.460458  1
  In  In15  1  0.250000  0.534255  0.103893  1
