# generated using pymatgen
data_Zr7Sc(Co4As3)4
_symmetry_space_group_name_H-M   'P 1'
_cell_length_a   12.54521706
_cell_length_b   12.54521935
_cell_length_c   3.77467900
_cell_angle_alpha   90.00000000
_cell_angle_beta   90.00000000
_cell_angle_gamma   120.03679319
_symmetry_Int_Tables_number   1
_chemical_formula_structural   Zr7Sc(Co4As3)4
_chemical_formula_sum   'Zr7 Sc1 Co16 As12'
_cell_volume   514.28749052
_cell_formula_units_Z   1
loop_
 _symmetry_equiv_pos_site_id
 _symmetry_equiv_pos_as_xyz
  1  'x, y, z'
loop_
 _atom_site_type_symbol
 _atom_site_label
 _atom_site_symmetry_multiplicity
 _atom_site_fract_x
 _atom_site_fract_y
 _atom_site_fract_z
 _atom_site_occupancy
  Zr  Zr0  1  0.557009  0.999791  0.000000  1
  Zr  Zr1  1  0.999791  0.557009  0.000000  1
  Zr  Zr2  1  0.665631  0.332749  0.000000  1
  Zr  Zr3  1  0.332749  0.665631  0.000000  1
  Zr  Zr4  1  0.821982  0.821982  0.500000  1
  Zr  Zr5  1  0.175346  0.000769  0.500000  1
  Zr  Zr6  1  0.000769  0.175346  0.500000  1
  Sc  Sc7  1  0.441299  0.441299  0.000000  1
  Co  Co8  1  0.195880  0.373712  0.000000  1
  Co  Co9  1  0.177343  0.804994  0.000000  1
  Co  Co10  1  0.822461  0.628326  0.000000  1
  Co  Co11  1  0.804994  0.177343  0.000000  1
  Co  Co12  1  0.373712  0.195880  0.000000  1
  Co  Co13  1  0.124272  0.478670  0.500000  1
  Co  Co14  1  0.355690  0.876456  0.500000  1
  Co  Co15  1  0.521489  0.645283  0.500000  1
  Co  Co16  1  0.645283  0.521489  0.500000  1
  Co  Co17  1  0.876456  0.355690  0.500000  1
  Co  Co18  1  0.478670  0.124272  0.500000  1
  Co  Co19  1  0.000484  0.000484  0.000000  1
  Co  Co20  1  0.719864  0.999986  0.500000  1
  Co  Co21  1  0.999986  0.719864  0.500000  1
  Co  Co22  1  0.628326  0.822461  0.000000  1
  Co  Co23  1  0.280920  0.280920  0.500000  1
  As  As24  1  0.650108  0.650108  0.000000  1
  As  As25  1  0.345652  0.000730  0.000000  1
  As  As26  1  0.000730  0.345652  0.000000  1
  As  As27  1  0.484666  0.312695  0.500000  1
  As  As28  1  0.689706  0.174990  0.500000  1
  As  As29  1  0.824964  0.515234  0.500000  1
  As  As30  1  0.515234  0.824964  0.500000  1
  As  As31  1  0.174990  0.689706  0.500000  1
  As  As32  1  0.824848  0.999628  0.000000  1
  As  As33  1  0.999628  0.824848  0.000000  1
  As  As34  1  0.312695  0.484666  0.500000  1
  As  As35  1  0.176374  0.176374  0.000000  1
