# generated using pymatgen
data_Na4Ca(SiS3)2
_symmetry_space_group_name_H-M   'P 1'
_cell_length_a   6.70242299
_cell_length_b   6.70242198
_cell_length_c   7.67145392
_cell_angle_alpha   81.56007795
_cell_angle_beta   81.56007420
_cell_angle_gamma   119.83328438
_symmetry_Int_Tables_number   1
_chemical_formula_structural   Na4Ca(SiS3)2
_chemical_formula_sum   'Na4 Ca1 Si2 S6'
_cell_volume   285.84780408
_cell_formula_units_Z   1
loop_
 _symmetry_equiv_pos_site_id
 _symmetry_equiv_pos_as_xyz
  1  'x, y, z'
loop_
 _atom_site_type_symbol
 _atom_site_label
 _atom_site_symmetry_multiplicity
 _atom_site_fract_x
 _atom_site_fract_y
 _atom_site_fract_z
 _atom_site_occupancy
  Na  Na0  1  0.500923  0.499077  0.000000  1
  Na  Na1  1  0.823727  0.176273  0.000000  1
  Na  Na2  1  0.175572  0.824428  0.000000  1
  Na  Na3  1  0.665580  0.334420  0.500000  1
  Ca  Ca4  1  0.334421  0.665579  0.500000  1
  Si  Si5  1  0.050997  0.051074  0.342194  1
  Si  Si6  1  0.948926  0.949003  0.657806  1
  S  S7  1  0.770537  0.778371  0.256081  1
  S  S8  1  0.221629  0.229463  0.743919  1
  S  S9  1  0.087779  0.391441  0.256841  1
  S  S10  1  0.384000  0.072650  0.256243  1
  S  S11  1  0.927350  0.616000  0.743757  1
  S  S12  1  0.608559  0.912221  0.743159  1
