# generated using pymatgen
data_ErTm7Re3RuC8
_symmetry_space_group_name_H-M   'P 1'
_cell_length_a   5.02946000
_cell_length_b   6.49479644
_cell_length_c   9.73751400
_cell_angle_alpha   89.88665983
_cell_angle_beta   90.00000000
_cell_angle_gamma   90.00000000
_symmetry_Int_Tables_number   1
_chemical_formula_structural   ErTm7Re3RuC8
_chemical_formula_sum   'Er1 Tm7 Re3 Ru1 C8'
_cell_volume   318.07837779
_cell_formula_units_Z   1
loop_
 _symmetry_equiv_pos_site_id
 _symmetry_equiv_pos_as_xyz
  1  'x, y, z'
loop_
 _atom_site_type_symbol
 _atom_site_label
 _atom_site_symmetry_multiplicity
 _atom_site_fract_x
 _atom_site_fract_y
 _atom_site_fract_z
 _atom_site_occupancy
  Er  Er0  1  0.250000  0.466318  0.217085  1
  Tm  Tm1  1  0.750000  0.533055  0.784384  1
  Tm  Tm2  1  0.250000  0.966490  0.282199  1
  Tm  Tm3  1  0.750000  0.677417  0.442497  1
  Tm  Tm4  1  0.250000  0.826013  0.943162  1
  Tm  Tm5  1  0.750000  0.177161  0.058911  1
  Tm  Tm6  1  0.250000  0.322327  0.557710  1
  Tm  Tm7  1  0.750000  0.035132  0.718062  1
  Re  Re8  1  0.250000  0.783518  0.632036  1
  Re  Re9  1  0.750000  0.217192  0.369783  1
  Re  Re10  1  0.750000  0.717633  0.131389  1
  Ru  Ru11  1  0.250000  0.283022  0.867601  1
  C  C12  1  0.250000  0.674453  0.446774  1
  C  C13  1  0.250000  0.551250  0.756829  1
  C  C14  1  0.750000  0.450374  0.240975  1
  C  C15  1  0.750000  0.824493  0.945329  1
  C  C16  1  0.250000  0.048429  0.739545  1
  C  C17  1  0.250000  0.171233  0.050801  1
  C  C18  1  0.750000  0.324602  0.555034  1
  C  C19  1  0.750000  0.949887  0.259892  1
