# generated using pymatgen
data_Tm6CrB14W
_symmetry_space_group_name_H-M   'P 1'
_cell_length_a   8.03134984
_cell_length_b   8.03135076
_cell_length_c   9.34884000
_cell_angle_alpha   90.00000000
_cell_angle_beta   90.00000000
_cell_angle_gamma   155.44529453
_symmetry_Int_Tables_number   1
_chemical_formula_structural   Tm6CrB14W
_chemical_formula_sum   'Tm6 Cr1 B14 W1'
_cell_volume   250.59393922
_cell_formula_units_Z   1
loop_
 _symmetry_equiv_pos_site_id
 _symmetry_equiv_pos_as_xyz
  1  'x, y, z'
loop_
 _atom_site_type_symbol
 _atom_site_label
 _atom_site_symmetry_multiplicity
 _atom_site_fract_x
 _atom_site_fract_y
 _atom_site_fract_z
 _atom_site_occupancy
  Tm  Tm0  1  0.894211  0.105789  0.436397  1
  Tm  Tm1  1  0.106932  0.893068  0.555347  1
  Tm  Tm2  1  0.894211  0.105789  0.063603  1
  Tm  Tm3  1  0.106932  0.893068  0.944653  1
  Tm  Tm4  1  0.241530  0.758470  0.250000  1
  Tm  Tm5  1  0.754210  0.245790  0.750000  1
  Cr  Cr6  1  0.052603  0.947397  0.250000  1
  B  B7  1  0.727330  0.272670  0.465568  1
  B  B8  1  0.271861  0.728139  0.531657  1
  B  B9  1  0.727330  0.272670  0.034432  1
  B  B10  1  0.271861  0.728139  0.968343  1
  B  B11  1  0.631172  0.368828  0.151890  1
  B  B12  1  0.364875  0.635125  0.854251  1
  B  B13  1  0.631172  0.368828  0.348110  1
  B  B14  1  0.364875  0.635125  0.645749  1
  B  B15  1  0.521049  0.478951  0.096978  1
  B  B16  1  0.481605  0.518395  0.910482  1
  B  B17  1  0.521049  0.478951  0.403022  1
  B  B18  1  0.481605  0.518395  0.589518  1
  B  B19  1  0.457615  0.542385  0.250000  1
  B  B20  1  0.548302  0.451698  0.750000  1
  W  W21  1  0.947671  0.052329  0.750000  1
