# generated using pymatgen
data_Tb2Er3Si3Ni
_symmetry_space_group_name_H-M   'P 1'
_cell_length_a   7.04484200
_cell_length_b   7.89020700
_cell_length_c   14.50289500
_cell_angle_alpha   90.00000000
_cell_angle_beta   90.00000000
_cell_angle_gamma   90.00000000
_symmetry_Int_Tables_number   1
_chemical_formula_structural   Tb2Er3Si3Ni
_chemical_formula_sum   'Tb8 Er12 Si12 Ni4'
_cell_volume   806.14721344
_cell_formula_units_Z   4
loop_
 _symmetry_equiv_pos_site_id
 _symmetry_equiv_pos_as_xyz
  1  'x, y, z'
loop_
 _atom_site_type_symbol
 _atom_site_label
 _atom_site_symmetry_multiplicity
 _atom_site_fract_x
 _atom_site_fract_y
 _atom_site_fract_z
 _atom_site_occupancy
  Tb  Tb0  1  0.008430  0.184158  0.089653  1
  Tb  Tb1  1  0.991570  0.815842  0.910347  1
  Tb  Tb2  1  0.491570  0.684158  0.910347  1
  Tb  Tb3  1  0.991570  0.815842  0.589653  1
  Tb  Tb4  1  0.508430  0.315842  0.089653  1
  Tb  Tb5  1  0.008430  0.184158  0.410347  1
  Tb  Tb6  1  0.508430  0.315842  0.410347  1
  Tb  Tb7  1  0.491570  0.684158  0.589653  1
  Er  Er8  1  0.179549  0.516321  0.750000  1
  Er  Er9  1  0.820451  0.483679  0.250000  1
  Er  Er10  1  0.320451  0.016321  0.250000  1
  Er  Er11  1  0.679549  0.983679  0.750000  1
  Er  Er12  1  0.316557  0.172630  0.629256  1
  Er  Er13  1  0.683443  0.827370  0.370744  1
  Er  Er14  1  0.183443  0.672630  0.370744  1
  Er  Er15  1  0.683443  0.827370  0.129256  1
  Er  Er16  1  0.816557  0.327370  0.629256  1
  Er  Er17  1  0.316557  0.172630  0.870744  1
  Er  Er18  1  0.816557  0.327370  0.870744  1
  Er  Er19  1  0.183443  0.672630  0.129256  1
  Si  Si20  1  0.268995  0.872824  0.750000  1
  Si  Si21  1  0.731005  0.127176  0.250000  1
  Si  Si22  1  0.231005  0.372824  0.250000  1
  Si  Si23  1  0.768995  0.627176  0.750000  1
  Si  Si24  1  0.158073  0.469621  0.537884  1
  Si  Si25  1  0.841927  0.530379  0.462116  1
  Si  Si26  1  0.341927  0.969621  0.462116  1
  Si  Si27  1  0.841927  0.530379  0.037884  1
  Si  Si28  1  0.658073  0.030379  0.537884  1
  Si  Si29  1  0.158073  0.469621  0.962116  1
  Si  Si30  1  0.658073  0.030379  0.962116  1
  Si  Si31  1  0.341927  0.969621  0.037884  1
  Ni  Ni32  1  0.032767  0.091494  0.750000  1
  Ni  Ni33  1  0.967233  0.908506  0.250000  1
  Ni  Ni34  1  0.467233  0.591494  0.250000  1
  Ni  Ni35  1  0.532767  0.408506  0.750000  1
