# generated using pymatgen
data_YbTm2Co7C2
_symmetry_space_group_name_H-M   'P 1'
_cell_length_a   5.02078900
_cell_length_b   5.02078767
_cell_length_c   13.64214000
_cell_angle_alpha   90.00000000
_cell_angle_beta   90.00000000
_cell_angle_gamma   120.00001533
_symmetry_Int_Tables_number   1
_chemical_formula_structural   YbTm2Co7C2
_chemical_formula_sum   'Yb2 Tm4 Co14 C4'
_cell_volume   297.82208020
_cell_formula_units_Z   2
loop_
 _symmetry_equiv_pos_site_id
 _symmetry_equiv_pos_as_xyz
  1  'x, y, z'
loop_
 _atom_site_type_symbol
 _atom_site_label
 _atom_site_symmetry_multiplicity
 _atom_site_fract_x
 _atom_site_fract_y
 _atom_site_fract_z
 _atom_site_occupancy
  Yb  Yb0  1  0.666667  0.333333  0.750000  1
  Yb  Yb1  1  0.333333  0.666667  0.250000  1
  Tm  Tm2  1  0.666667  0.333333  0.536415  1
  Tm  Tm3  1  0.333333  0.666667  0.463585  1
  Tm  Tm4  1  0.333333  0.666667  0.036415  1
  Tm  Tm5  1  0.666667  0.333333  0.963585  1
  Co  Co6  1  0.164737  0.329474  0.654256  1
  Co  Co7  1  0.329474  0.164737  0.345744  1
  Co  Co8  1  0.329474  0.164737  0.154256  1
  Co  Co9  1  0.164737  0.835263  0.845744  1
  Co  Co10  1  0.835263  0.670526  0.345744  1
  Co  Co11  1  0.835263  0.164737  0.154256  1
  Co  Co12  1  0.670526  0.835263  0.654256  1
  Co  Co13  1  0.670526  0.835263  0.845744  1
  Co  Co14  1  0.164737  0.835263  0.654256  1
  Co  Co15  1  0.835263  0.670526  0.154256  1
  Co  Co16  1  0.000000  0.000000  0.000000  1
  Co  Co17  1  0.164737  0.329474  0.845744  1
  Co  Co18  1  0.835263  0.164737  0.345744  1
  Co  Co19  1  0.000000  0.000000  0.500000  1
  C  C20  1  0.666667  0.333333  0.250000  1
  C  C21  1  0.000000  0.000000  0.750000  1
  C  C22  1  0.333333  0.666667  0.750000  1
  C  C23  1  0.000000  0.000000  0.250000  1
