# generated using pymatgen
data_La8Yb2Si5Ge
_symmetry_space_group_name_H-M   'P 1'
_cell_length_a   9.01371400
_cell_length_b   9.01374515
_cell_length_c   9.02851296
_cell_angle_alpha   128.00620102
_cell_angle_beta   128.00709597
_cell_angle_gamma   76.49449090
_symmetry_Int_Tables_number   1
_chemical_formula_structural   La8Yb2Si5Ge
_chemical_formula_sum   'La8 Yb2 Si5 Ge1'
_cell_volume   442.71558693
_cell_formula_units_Z   1
loop_
 _symmetry_equiv_pos_site_id
 _symmetry_equiv_pos_as_xyz
  1  'x, y, z'
loop_
 _atom_site_type_symbol
 _atom_site_label
 _atom_site_symmetry_multiplicity
 _atom_site_fract_x
 _atom_site_fract_y
 _atom_site_fract_z
 _atom_site_occupancy
  La  La0  1  0.032361  0.172688  0.498898  1
  La  La1  1  0.532564  0.032595  0.858184  1
  La  La2  1  0.174600  0.674596  0.144135  1
  La  La3  1  0.469548  0.969511  0.144127  1
  La  La4  1  0.672671  0.532348  0.498889  1
  La  La5  1  0.966537  0.826221  0.498883  1
  La  La6  1  0.326229  0.466557  0.498904  1
  La  La7  1  0.825572  0.325582  0.858126  1
  Yb  Yb8  1  0.500556  0.499729  0.000286  1
  Yb  Yb9  1  0.999725  0.000550  0.000280  1
  Si  Si10  1  0.612754  0.887053  0.499813  1
  Si  Si11  1  0.387054  0.112754  0.499814  1
  Si  Si12  1  0.883888  0.383888  0.267778  1
  Si  Si13  1  0.749927  0.749915  0.999841  1
  Si  Si14  1  0.249912  0.249918  0.999841  1
  Ge  Ge15  1  0.116101  0.616094  0.732202  1
