# generated using pymatgen
data_Mg3Ta(InRh3)2
_symmetry_space_group_name_H-M   'P 1'
_cell_length_a   4.50005101
_cell_length_b   6.30226301
_cell_length_c   13.49937000
_cell_angle_alpha   89.99919681
_cell_angle_beta   89.99831507
_cell_angle_gamma   90.00572851
_symmetry_Int_Tables_number   1
_chemical_formula_structural   Mg3Ta(InRh3)2
_chemical_formula_sum   'Mg6 Ta2 In4 Rh12'
_cell_volume   382.84894818
_cell_formula_units_Z   2
loop_
 _symmetry_equiv_pos_site_id
 _symmetry_equiv_pos_as_xyz
  1  'x, y, z'
loop_
 _atom_site_type_symbol
 _atom_site_label
 _atom_site_symmetry_multiplicity
 _atom_site_fract_x
 _atom_site_fract_y
 _atom_site_fract_z
 _atom_site_occupancy
  Mg  Mg0  1  0.999940  0.000013  0.001677  1
  Mg  Mg1  1  0.500101  0.499987  0.167260  1
  Mg  Mg2  1  0.000064  0.000020  0.332739  1
  Mg  Mg3  1  0.499903  0.499988  0.498313  1
  Mg  Mg4  1  0.999874  0.000019  0.665517  1
  Mg  Mg5  1  0.499949  0.499997  0.834517  1
  Ta  Ta6  1  0.999947  0.499999  0.665448  1
  Ta  Ta7  1  0.499947  0.000002  0.834579  1
  In  In8  1  0.000005  0.499998  0.999495  1
  In  In9  1  0.500115  0.000004  0.166962  1
  In  In10  1  0.000112  0.499993  0.332997  1
  In  In11  1  0.499918  0.999991  0.500529  1
  Rh  Rh12  1  0.499980  0.241689  0.991435  1
  Rh  Rh13  1  0.499994  0.758316  0.991432  1
  Rh  Rh14  1  0.000135  0.250592  0.164610  1
  Rh  Rh15  1  0.000127  0.749411  0.164610  1
  Rh  Rh16  1  0.500133  0.249364  0.335321  1
  Rh  Rh17  1  0.500137  0.750629  0.335320  1
  Rh  Rh18  1  0.999938  0.258257  0.508535  1
  Rh  Rh19  1  0.999922  0.741730  0.508537  1
  Rh  Rh20  1  0.499922  0.255551  0.671768  1
  Rh  Rh21  1  0.499923  0.744448  0.671766  1
  Rh  Rh22  1  0.999956  0.244511  0.828316  1
  Rh  Rh23  1  0.999957  0.755494  0.828318  1
