# generated using pymatgen
data_SmGdY6(Si3Pd)4
_symmetry_space_group_name_H-M   'P 1'
_cell_length_a   8.18500300
_cell_length_b   8.18500366
_cell_length_c   8.23930300
_cell_angle_alpha   90.00000000
_cell_angle_beta   90.00000000
_cell_angle_gamma   120.00000138
_symmetry_Int_Tables_number   1
_chemical_formula_structural   SmGdY6(Si3Pd)4
_chemical_formula_sum   'Sm1 Gd1 Y6 Si12 Pd4'
_cell_volume   478.03403745
_cell_formula_units_Z   1
loop_
 _symmetry_equiv_pos_site_id
 _symmetry_equiv_pos_as_xyz
  1  'x, y, z'
loop_
 _atom_site_type_symbol
 _atom_site_label
 _atom_site_symmetry_multiplicity
 _atom_site_fract_x
 _atom_site_fract_y
 _atom_site_fract_z
 _atom_site_occupancy
  Sm  Sm0  1  0.000000  0.000000  0.750000  1
  Gd  Gd1  1  0.000000  0.000000  0.250000  1
  Y  Y2  1  0.499870  0.500130  0.750000  1
  Y  Y3  1  0.500373  0.499627  0.250000  1
  Y  Y4  1  0.000259  0.500130  0.750000  1
  Y  Y5  1  0.999255  0.499627  0.250000  1
  Y  Y6  1  0.499870  0.999741  0.750000  1
  Y  Y7  1  0.500373  0.000745  0.250000  1
  Si  Si8  1  0.833988  0.166012  0.001050  1
  Si  Si9  1  0.165978  0.834022  0.001360  1
  Si  Si10  1  0.332023  0.166012  0.001050  1
  Si  Si11  1  0.165978  0.834022  0.498640  1
  Si  Si12  1  0.668045  0.834022  0.001360  1
  Si  Si13  1  0.833988  0.166012  0.498950  1
  Si  Si14  1  0.833988  0.667977  0.001050  1
  Si  Si15  1  0.668045  0.834022  0.498640  1
  Si  Si16  1  0.165978  0.331955  0.001360  1
  Si  Si17  1  0.332023  0.166012  0.498950  1
  Si  Si18  1  0.165978  0.331955  0.498640  1
  Si  Si19  1  0.833988  0.667977  0.498950  1
  Pd  Pd20  1  0.666667  0.333333  0.999256  1
  Pd  Pd21  1  0.333333  0.666667  0.000738  1
  Pd  Pd22  1  0.333333  0.666667  0.499262  1
  Pd  Pd23  1  0.666667  0.333333  0.500744  1
