# generated using pymatgen
data_Tb5Dy3(B6Os)4
_symmetry_space_group_name_H-M   'P 1'
_cell_length_a   3.66550200
_cell_length_b   9.18190013
_cell_length_c   11.56486201
_cell_angle_alpha   90.01251131
_cell_angle_beta   90.00000000
_cell_angle_gamma   90.00000000
_symmetry_Int_Tables_number   1
_chemical_formula_structural   Tb5Dy3(B6Os)4
_chemical_formula_sum   'Tb5 Dy3 B24 Os4'
_cell_volume   389.23014731
_cell_formula_units_Z   1
loop_
 _symmetry_equiv_pos_site_id
 _symmetry_equiv_pos_as_xyz
  1  'x, y, z'
loop_
 _atom_site_type_symbol
 _atom_site_label
 _atom_site_symmetry_multiplicity
 _atom_site_fract_x
 _atom_site_fract_y
 _atom_site_fract_z
 _atom_site_occupancy
  Tb  Tb0  1  0.000000  0.322907  0.413689  1
  Tb  Tb1  1  0.000000  0.677076  0.586484  1
  Tb  Tb2  1  0.000000  0.822757  0.086308  1
  Tb  Tb3  1  0.000000  0.177332  0.913583  1
  Tb  Tb4  1  0.000000  0.943746  0.373106  1
  Dy  Dy5  1  0.000000  0.056271  0.627128  1
  Dy  Dy6  1  0.000000  0.443757  0.126852  1
  Dy  Dy7  1  0.000000  0.556317  0.872997  1
  B  B8  1  0.500000  0.553423  0.432752  1
  B  B9  1  0.500000  0.446220  0.567339  1
  B  B10  1  0.500000  0.053866  0.067086  1
  B  B11  1  0.500000  0.946287  0.932756  1
  B  B12  1  0.500000  0.746653  0.419821  1
  B  B13  1  0.500000  0.252883  0.580308  1
  B  B14  1  0.500000  0.247363  0.080094  1
  B  B15  1  0.500000  0.752791  0.919814  1
  B  B16  1  0.500000  0.790002  0.266836  1
  B  B17  1  0.500000  0.209607  0.733134  1
  B  B18  1  0.500000  0.290630  0.232904  1
  B  B19  1  0.500000  0.709565  0.767019  1
  B  B20  1  0.500000  0.631546  0.185734  1
  B  B21  1  0.500000  0.368351  0.814205  1
  B  B22  1  0.500000  0.132145  0.313983  1
  B  B23  1  0.500000  0.868201  0.685936  1
  B  B24  1  0.500000  0.983666  0.212899  1
  B  B25  1  0.500000  0.016604  0.786841  1
  B  B26  1  0.500000  0.483215  0.286716  1
  B  B27  1  0.500000  0.516641  0.713247  1
  B  B28  1  0.500000  0.608829  0.030216  1
  B  B29  1  0.500000  0.391230  0.969678  1
  B  B30  1  0.500000  0.109865  0.469818  1
  B  B31  1  0.500000  0.890387  0.530804  1
  Os  Os32  1  0.000000  0.636722  0.321456  1
  Os  Os33  1  0.000000  0.362868  0.678605  1
  Os  Os34  1  0.000000  0.137450  0.178249  1
  Os  Os35  1  0.000000  0.862827  0.821602  1
