# generated using pymatgen
data_Hg3Pd3PtPbO14
_symmetry_space_group_name_H-M   'P 1'
_cell_length_a   7.35017800
_cell_length_b   7.25259861
_cell_length_c   7.25259800
_cell_angle_alpha   59.99999368
_cell_angle_beta   60.43819007
_cell_angle_gamma   60.43818438
_symmetry_Int_Tables_number   1
_chemical_formula_structural   Hg3Pd3PtPbO14
_chemical_formula_sum   'Hg3 Pd3 Pt1 Pb1 O14'
_cell_volume   275.17880120
_cell_formula_units_Z   1
loop_
 _symmetry_equiv_pos_site_id
 _symmetry_equiv_pos_as_xyz
  1  'x, y, z'
loop_
 _atom_site_type_symbol
 _atom_site_label
 _atom_site_symmetry_multiplicity
 _atom_site_fract_x
 _atom_site_fract_y
 _atom_site_fract_z
 _atom_site_occupancy
  Hg  Hg0  1  0.125000  0.125000  0.125000  1
  Hg  Hg1  1  0.125000  0.625000  0.125000  1
  Hg  Hg2  1  0.125000  0.125000  0.625000  1
  Pd  Pd3  1  0.625000  0.625000  0.125000  1
  Pd  Pd4  1  0.625000  0.625000  0.625000  1
  Pd  Pd5  1  0.625000  0.125000  0.625000  1
  Pt  Pt6  1  0.125000  0.625000  0.625000  1
  Pb  Pb7  1  0.625000  0.125000  0.125000  1
  O  O8  1  0.702015  0.291412  0.291412  1
  O  O9  1  0.702015  0.291412  0.715161  1
  O  O10  1  0.998779  0.000407  0.000407  1
  O  O11  1  0.295632  0.703843  0.296682  1
  O  O12  1  0.702015  0.715161  0.291412  1
  O  O13  1  0.954368  0.546157  0.546157  1
  O  O14  1  0.295632  0.703843  0.703843  1
  O  O15  1  0.251221  0.249593  0.249593  1
  O  O16  1  0.954368  0.546157  0.953318  1
  O  O17  1  0.547985  0.958588  0.534839  1
  O  O18  1  0.547985  0.534839  0.958588  1
  O  O19  1  0.954368  0.953318  0.546157  1
  O  O20  1  0.547985  0.958588  0.958588  1
  O  O21  1  0.295632  0.296682  0.703843  1
