# generated using pymatgen
data_NaSr3UO6
_symmetry_space_group_name_H-M   'P 1'
_cell_length_a   7.12539435
_cell_length_b   7.12539426
_cell_length_c   7.12539418
_cell_angle_alpha   91.73197294
_cell_angle_beta   91.73197262
_cell_angle_gamma   91.73198072
_symmetry_Int_Tables_number   1
_chemical_formula_structural   NaSr3UO6
_chemical_formula_sum   'Na2 Sr6 U2 O12'
_cell_volume   361.25907893
_cell_formula_units_Z   2
loop_
 _symmetry_equiv_pos_site_id
 _symmetry_equiv_pos_as_xyz
  1  'x, y, z'
loop_
 _atom_site_type_symbol
 _atom_site_label
 _atom_site_symmetry_multiplicity
 _atom_site_fract_x
 _atom_site_fract_y
 _atom_site_fract_z
 _atom_site_occupancy
  Na  Na0  1  0.250000  0.250000  0.250000  1
  Na  Na1  1  0.750000  0.750000  0.750000  1
  Sr  Sr2  1  0.410124  0.750000  0.089876  1
  Sr  Sr3  1  0.250000  0.910124  0.589876  1
  Sr  Sr4  1  0.750000  0.089876  0.410124  1
  Sr  Sr5  1  0.589876  0.250000  0.910124  1
  Sr  Sr6  1  0.089876  0.410124  0.750000  1
  Sr  Sr7  1  0.910124  0.589876  0.250000  1
  U  U8  1  0.000000  0.000000  0.000000  1
  U  U9  1  0.500000  0.500000  0.500000  1
  O  O10  1  0.448009  0.567799  0.791586  1
  O  O11  1  0.567799  0.791586  0.448009  1
  O  O12  1  0.432201  0.208414  0.551991  1
  O  O13  1  0.291586  0.067799  0.948009  1
  O  O14  1  0.208414  0.551991  0.432201  1
  O  O15  1  0.551991  0.432201  0.208414  1
  O  O16  1  0.067799  0.948009  0.291586  1
  O  O17  1  0.948009  0.291586  0.067799  1
  O  O18  1  0.708414  0.932201  0.051991  1
  O  O19  1  0.791586  0.448009  0.567799  1
  O  O20  1  0.932201  0.051991  0.708414  1
  O  O21  1  0.051991  0.708414  0.932201  1
