# generated using pymatgen
data_Ba4ErOsO8
_symmetry_space_group_name_H-M   'P 1'
_cell_length_a   7.42410591
_cell_length_b   7.42410420
_cell_length_c   5.95636500
_cell_angle_alpha   90.00000000
_cell_angle_beta   90.00000000
_cell_angle_gamma   132.83573239
_symmetry_Int_Tables_number   1
_chemical_formula_structural   Ba4ErOsO8
_chemical_formula_sum   'Ba4 Er1 Os1 O8'
_cell_volume   240.74360120
_cell_formula_units_Z   1
loop_
 _symmetry_equiv_pos_site_id
 _symmetry_equiv_pos_as_xyz
  1  'x, y, z'
loop_
 _atom_site_type_symbol
 _atom_site_label
 _atom_site_symmetry_multiplicity
 _atom_site_fract_x
 _atom_site_fract_y
 _atom_site_fract_z
 _atom_site_occupancy
  Ba  Ba0  1  0.354063  0.645937  0.000000  1
  Ba  Ba1  1  0.853414  0.146586  0.500000  1
  Ba  Ba2  1  0.146586  0.853414  0.500000  1
  Ba  Ba3  1  0.645937  0.354063  0.000000  1
  Er  Er4  1  0.000000  0.000000  0.000000  1
  Os  Os5  1  0.500000  0.500000  0.500000  1
  O  O6  1  0.261337  0.261337  0.733531  1
  O  O7  1  0.738663  0.738663  0.266469  1
  O  O8  1  0.738663  0.738663  0.733531  1
  O  O9  1  0.261337  0.261337  0.266469  1
  O  O10  1  0.164530  0.835470  0.000000  1
  O  O11  1  0.649432  0.350568  0.500000  1
  O  O12  1  0.350568  0.649432  0.500000  1
  O  O13  1  0.835470  0.164530  0.000000  1
