# generated using pymatgen
data_Ce3Zn3CuPt2
_symmetry_space_group_name_H-M   'P 1'
_cell_length_a   7.30873800
_cell_length_b   7.30873906
_cell_length_c   3.94816600
_cell_angle_alpha   90.00000000
_cell_angle_beta   90.00000000
_cell_angle_gamma   119.99999521
_symmetry_Int_Tables_number   1
_chemical_formula_structural   Ce3Zn3CuPt2
_chemical_formula_sum   'Ce3 Zn3 Cu1 Pt2'
_cell_volume   182.64631201
_cell_formula_units_Z   1
loop_
 _symmetry_equiv_pos_site_id
 _symmetry_equiv_pos_as_xyz
  1  'x, y, z'
loop_
 _atom_site_type_symbol
 _atom_site_label
 _atom_site_symmetry_multiplicity
 _atom_site_fract_x
 _atom_site_fract_y
 _atom_site_fract_z
 _atom_site_occupancy
  Ce  Ce0  1  0.000000  0.413791  0.500000  1
  Ce  Ce1  1  0.586209  0.586209  0.500000  1
  Ce  Ce2  1  0.413791  0.000000  0.500000  1
  Zn  Zn3  1  0.000000  0.764994  0.000000  1
  Zn  Zn4  1  0.235006  0.235006  0.000000  1
  Zn  Zn5  1  0.764994  0.000000  0.000000  1
  Cu  Cu6  1  0.000000  0.000000  0.500000  1
  Pt  Pt7  1  0.333333  0.666667  0.000000  1
  Pt  Pt8  1  0.666667  0.333333  0.000000  1
