# generated using pymatgen
data_Sr2MgMn6NiO16
_symmetry_space_group_name_H-M   'P 1'
_cell_length_a   5.87455200
_cell_length_b   6.91742435
_cell_length_c   10.17507401
_cell_angle_alpha   104.18734476
_cell_angle_beta   90.00031263
_cell_angle_gamma   64.87060782
_symmetry_Int_Tables_number   1
_chemical_formula_structural   Sr2MgMn6NiO16
_chemical_formula_sum   'Sr2 Mg1 Mn6 Ni1 O16'
_cell_volume   360.36835779
_cell_formula_units_Z   1
loop_
 _symmetry_equiv_pos_site_id
 _symmetry_equiv_pos_as_xyz
  1  'x, y, z'
loop_
 _atom_site_type_symbol
 _atom_site_label
 _atom_site_symmetry_multiplicity
 _atom_site_fract_x
 _atom_site_fract_y
 _atom_site_fract_z
 _atom_site_occupancy
  Sr  Sr0  1  0.750137  0.499739  0.750021  1
  Sr  Sr1  1  0.249873  0.500260  0.249982  1
  Mg  Mg2  1  0.500004  0.999999  0.499999  1
  Mn  Mn3  1  0.249971  0.000014  0.750078  1
  Mn  Mn4  1  0.750038  0.999982  0.249925  1
  Mn  Mn5  1  0.000000  0.999999  0.499990  1
  Mn  Mn6  1  0.499987  0.000012  0.000003  1
  Mn  Mn7  1  0.750019  0.000010  0.750076  1
  Mn  Mn8  1  0.249968  0.999996  0.249926  1
  Ni  Ni9  1  0.000000  0.000000  0.000002  1
  O  O10  1  0.082984  0.834064  0.639081  1
  O  O11  1  0.583019  0.833985  0.138929  1
  O  O12  1  0.416977  0.166014  0.861066  1
  O  O13  1  0.917018  0.165931  0.360917  1
  O  O14  1  0.819619  0.830032  0.883294  1
  O  O15  1  0.319547  0.830979  0.383443  1
  O  O16  1  0.915040  0.169927  0.851551  1
  O  O17  1  0.415467  0.169078  0.351359  1
  O  O18  1  0.680457  0.169021  0.616559  1
  O  O19  1  0.180373  0.169974  0.116708  1
  O  O20  1  0.150491  0.169043  0.616556  1
  O  O21  1  0.649621  0.169983  0.116701  1
  O  O22  1  0.584538  0.830918  0.648642  1
  O  O23  1  0.084965  0.830067  0.148446  1
  O  O24  1  0.350377  0.830017  0.883298  1
  O  O25  1  0.849514  0.830957  0.383445  1
