# generated using pymatgen
data_Lu13Th3(HgRh)4
_symmetry_space_group_name_H-M   'P 1'
_cell_length_a   9.52936453
_cell_length_b   9.52419414
_cell_length_c   9.52649727
_cell_angle_alpha   59.84177853
_cell_angle_beta   59.85326675
_cell_angle_gamma   59.83946578
_symmetry_Int_Tables_number   1
_chemical_formula_structural   Lu13Th3(HgRh)4
_chemical_formula_sum   'Lu13 Th3 Hg4 Rh4'
_cell_volume   609.22597558
_cell_formula_units_Z   1
loop_
 _symmetry_equiv_pos_site_id
 _symmetry_equiv_pos_as_xyz
  1  'x, y, z'
loop_
 _atom_site_type_symbol
 _atom_site_label
 _atom_site_symmetry_multiplicity
 _atom_site_fract_x
 _atom_site_fract_y
 _atom_site_fract_z
 _atom_site_occupancy
  Lu  Lu0  1  0.186622  0.605812  0.605607  1
  Lu  Lu1  1  0.061180  0.439335  0.439314  1
  Lu  Lu2  1  0.432978  0.065912  0.065879  1
  Lu  Lu3  1  0.434112  0.064138  0.436979  1
  Lu  Lu4  1  0.062835  0.437883  0.061371  1
  Lu  Lu5  1  0.434147  0.436974  0.064024  1
  Lu  Lu6  1  0.062820  0.061424  0.437814  1
  Lu  Lu7  1  0.185087  0.816491  0.816353  1
  Lu  Lu8  1  0.817733  0.183458  0.183582  1
  Lu  Lu9  1  0.817468  0.184199  0.817482  1
  Lu  Lu10  1  0.185629  0.815262  0.186808  1
  Lu  Lu11  1  0.817586  0.817519  0.184127  1
  Lu  Lu12  1  0.185814  0.186889  0.815082  1
  Th  Th13  1  0.598756  0.601269  0.601279  1
  Th  Th14  1  0.603047  0.603977  0.191088  1
  Th  Th15  1  0.603066  0.191118  0.603860  1
  Hg  Hg16  1  0.843700  0.834453  0.834419  1
  Hg  Hg17  1  0.840537  0.834144  0.485957  1
  Hg  Hg18  1  0.840519  0.485378  0.834557  1
  Hg  Hg19  1  0.486579  0.835983  0.835627  1
  Rh  Rh20  1  0.392109  0.394010  0.394157  1
  Rh  Rh21  1  0.392783  0.390597  0.821638  1
  Rh  Rh22  1  0.392626  0.821732  0.390914  1
  Rh  Rh23  1  0.822267  0.392039  0.392081  1
