# generated using pymatgen
data_Tb3ZnIr8
_symmetry_space_group_name_H-M   'P 1'
_cell_length_a   5.34851210
_cell_length_b   5.34851045
_cell_length_c   9.16936294
_cell_angle_alpha   73.04315645
_cell_angle_beta   73.04316239
_cell_angle_gamma   60.00000352
_symmetry_Int_Tables_number   1
_chemical_formula_structural   Tb3ZnIr8
_chemical_formula_sum   'Tb3 Zn1 Ir8'
_cell_volume   213.89276194
_cell_formula_units_Z   1
loop_
 _symmetry_equiv_pos_site_id
 _symmetry_equiv_pos_as_xyz
  1  'x, y, z'
loop_
 _atom_site_type_symbol
 _atom_site_label
 _atom_site_symmetry_multiplicity
 _atom_site_fract_x
 _atom_site_fract_y
 _atom_site_fract_z
 _atom_site_occupancy
  Tb  Tb0  1  0.141698  0.141698  0.574906  1
  Tb  Tb1  1  0.861515  0.861515  0.415454  1
  Tb  Tb2  1  0.000244  0.000244  0.999266  1
  Zn  Zn3  1  0.665039  0.665039  0.004884  1
  Ir  Ir4  1  0.076041  0.586188  0.751580  1
  Ir  Ir5  1  0.586188  0.586188  0.751580  1
  Ir  Ir6  1  0.586188  0.076041  0.751580  1
  Ir  Ir7  1  0.918546  0.416152  0.249152  1
  Ir  Ir8  1  0.416152  0.416152  0.249152  1
  Ir  Ir9  1  0.416152  0.918546  0.249152  1
  Ir  Ir10  1  0.333423  0.333423  0.999732  1
  Ir  Ir11  1  0.498813  0.498813  0.503561  1
