# generated using pymatgen
data_LiEu4Zn3Au4
_symmetry_space_group_name_H-M   'P 1'
_cell_length_a   4.62341400
_cell_length_b   7.47314795
_cell_length_c   7.99317607
_cell_angle_alpha   89.67822851
_cell_angle_beta   90.00000000
_cell_angle_gamma   90.00000000
_symmetry_Int_Tables_number   1
_chemical_formula_structural   LiEu4Zn3Au4
_chemical_formula_sum   'Li1 Eu4 Zn3 Au4'
_cell_volume   276.17152278
_cell_formula_units_Z   1
loop_
 _symmetry_equiv_pos_site_id
 _symmetry_equiv_pos_as_xyz
  1  'x, y, z'
loop_
 _atom_site_type_symbol
 _atom_site_label
 _atom_site_symmetry_multiplicity
 _atom_site_fract_x
 _atom_site_fract_y
 _atom_site_fract_z
 _atom_site_occupancy
  Li  Li0  1  0.250000  0.666125  0.579687  1
  Eu  Eu1  1  0.250000  0.011369  0.297478  1
  Eu  Eu2  1  0.250000  0.503557  0.197310  1
  Eu  Eu3  1  0.750000  0.998596  0.703550  1
  Eu  Eu4  1  0.750000  0.491684  0.802407  1
  Zn  Zn5  1  0.250000  0.183276  0.918943  1
  Zn  Zn6  1  0.750000  0.326078  0.421958  1
  Zn  Zn7  1  0.750000  0.819923  0.078990  1
  Au  Au8  1  0.250000  0.287566  0.593850  1
  Au  Au9  1  0.250000  0.793443  0.905213  1
  Au  Au10  1  0.750000  0.710899  0.406338  1
  Au  Au11  1  0.750000  0.207484  0.094276  1
