# generated using pymatgen
data_NdAs4Ru5Rh
_symmetry_space_group_name_H-M   'P 1'
_cell_length_a   7.19395681
_cell_length_b   7.16080809
_cell_length_c   3.91778100
_cell_angle_alpha   90.00000000
_cell_angle_beta   90.00000000
_cell_angle_gamma   119.84281680
_symmetry_Int_Tables_number   1
_chemical_formula_structural   NdAs4Ru5Rh
_chemical_formula_sum   'Nd1 As4 Ru5 Rh1'
_cell_volume   175.05976585
_cell_formula_units_Z   1
loop_
 _symmetry_equiv_pos_site_id
 _symmetry_equiv_pos_as_xyz
  1  'x, y, z'
loop_
 _atom_site_type_symbol
 _atom_site_label
 _atom_site_symmetry_multiplicity
 _atom_site_fract_x
 _atom_site_fract_y
 _atom_site_fract_z
 _atom_site_occupancy
  Nd  Nd0  1  0.998648  0.999513  0.500000  1
  As  As1  1  0.672929  0.336455  0.500000  1
  As  As2  1  0.190745  0.386466  0.000000  1
  As  As3  1  0.188999  0.802973  0.000000  1
  As  As4  1  0.615712  0.808511  0.000000  1
  Ru  Ru5  1  0.467699  0.932240  0.500000  1
  Ru  Ru6  1  0.463744  0.531487  0.500000  1
  Ru  Ru7  1  0.071366  0.537663  0.500000  1
  Ru  Ru8  1  0.797456  0.596722  0.000000  1
  Ru  Ru9  1  0.799797  0.202869  0.000000  1
  Rh  Rh10  1  0.399576  0.198434  0.000000  1
