# generated using pymatgen
data_Er7Lu3(In2Bi)2
_symmetry_space_group_name_H-M   'P 1'
_cell_length_a   8.93863500
_cell_length_b   8.89864739
_cell_length_c   6.53987425
_cell_angle_alpha   89.98598136
_cell_angle_beta   89.98242301
_cell_angle_gamma   119.75209618
_symmetry_Int_Tables_number   1
_chemical_formula_structural   Er7Lu3(In2Bi)2
_chemical_formula_sum   'Er7 Lu3 In4 Bi2'
_cell_volume   451.62153276
_cell_formula_units_Z   1
loop_
 _symmetry_equiv_pos_site_id
 _symmetry_equiv_pos_as_xyz
  1  'x, y, z'
loop_
 _atom_site_type_symbol
 _atom_site_label
 _atom_site_symmetry_multiplicity
 _atom_site_fract_x
 _atom_site_fract_y
 _atom_site_fract_z
 _atom_site_occupancy
  Er  Er0  1  0.671590  0.339536  0.493058  1
  Er  Er1  1  0.771401  0.760374  0.750622  1
  Er  Er2  1  0.228542  0.990613  0.750177  1
  Er  Er3  1  0.000006  0.236178  0.750633  1
  Er  Er4  1  0.233852  0.234937  0.249708  1
  Er  Er5  1  0.765054  0.000635  0.249755  1
  Er  Er6  1  0.000054  0.763640  0.249828  1
  Lu  Lu7  1  0.672197  0.339316  0.007713  1
  Lu  Lu8  1  0.328508  0.667953  0.007543  1
  Lu  Lu9  1  0.327937  0.667633  0.491951  1
  In  In10  1  0.001312  0.594526  0.751034  1
  In  In11  1  0.598607  0.603454  0.248393  1
  In  In12  1  0.399840  0.004419  0.248955  1
  In  In13  1  0.000867  0.399655  0.248623  1
  Bi  Bi14  1  0.396811  0.397872  0.751294  1
  Bi  Bi15  1  0.603423  0.999257  0.750711  1
