# generated using pymatgen
data_Lu12Ga9Pd3C4
_symmetry_space_group_name_H-M   'P 1'
_cell_length_a   8.91818532
_cell_length_b   8.91818426
_cell_length_c   8.92494200
_cell_angle_alpha   60.02502780
_cell_angle_beta   60.02503915
_cell_angle_gamma   59.99999630
_symmetry_Int_Tables_number   1
_chemical_formula_structural   Lu12Ga9Pd3C4
_chemical_formula_sum   'Lu12 Ga9 Pd3 C4'
_cell_volume   502.12003645
_cell_formula_units_Z   1
loop_
 _symmetry_equiv_pos_site_id
 _symmetry_equiv_pos_as_xyz
  1  'x, y, z'
loop_
 _atom_site_type_symbol
 _atom_site_label
 _atom_site_symmetry_multiplicity
 _atom_site_fract_x
 _atom_site_fract_y
 _atom_site_fract_z
 _atom_site_occupancy
  Lu  Lu0  1  0.446364  0.446364  0.053067  1
  Lu  Lu1  1  0.054206  0.446364  0.053067  1
  Lu  Lu2  1  0.446364  0.054206  0.053067  1
  Lu  Lu3  1  0.055529  0.055529  0.444073  1
  Lu  Lu4  1  0.444870  0.055529  0.444073  1
  Lu  Lu5  1  0.055529  0.444870  0.444073  1
  Lu  Lu6  1  0.803636  0.803636  0.196933  1
  Lu  Lu7  1  0.195794  0.803636  0.196933  1
  Lu  Lu8  1  0.803636  0.195794  0.196933  1
  Lu  Lu9  1  0.194471  0.194471  0.805927  1
  Lu  Lu10  1  0.805130  0.194471  0.805927  1
  Lu  Lu11  1  0.194471  0.805130  0.805927  1
  Ga  Ga12  1  0.830777  0.830777  0.507670  1
  Ga  Ga13  1  0.835624  0.507226  0.821525  1
  Ga  Ga14  1  0.507226  0.835624  0.821525  1
  Ga  Ga15  1  0.835624  0.835624  0.821525  1
  Ga  Ga16  1  0.419223  0.419223  0.742330  1
  Ga  Ga17  1  0.414376  0.742774  0.428475  1
  Ga  Ga18  1  0.742774  0.414376  0.428475  1
  Ga  Ga19  1  0.414376  0.414376  0.428475  1
  Ga  Ga20  1  0.625000  0.625000  0.125000  1
  Pd  Pd21  1  0.625000  0.125000  0.625000  1
  Pd  Pd22  1  0.125000  0.625000  0.625000  1
  Pd  Pd23  1  0.625000  0.625000  0.625000  1
  C  C24  1  0.125000  0.125000  0.625000  1
  C  C25  1  0.125000  0.625000  0.125000  1
  C  C26  1  0.625000  0.125000  0.125000  1
  C  C27  1  0.125000  0.125000  0.125000  1
