# generated using pymatgen
data_Nd4AlRh
_symmetry_space_group_name_H-M   'P 1'
_cell_length_a   9.86042874
_cell_length_b   9.86042838
_cell_length_c   9.86042900
_cell_angle_alpha   60.00000129
_cell_angle_beta   60.00000250
_cell_angle_gamma   59.99999852
_symmetry_Int_Tables_number   1
_chemical_formula_structural   Nd4AlRh
_chemical_formula_sum   'Nd16 Al4 Rh4'
_cell_volume   677.91056500
_cell_formula_units_Z   4
loop_
 _symmetry_equiv_pos_site_id
 _symmetry_equiv_pos_as_xyz
  1  'x, y, z'
loop_
 _atom_site_type_symbol
 _atom_site_label
 _atom_site_symmetry_multiplicity
 _atom_site_fract_x
 _atom_site_fract_y
 _atom_site_fract_z
 _atom_site_occupancy
  Nd  Nd0  1  0.601630  0.601630  0.601630  1
  Nd  Nd1  1  0.601630  0.601630  0.195109  1
  Nd  Nd2  1  0.601630  0.195109  0.601630  1
  Nd  Nd3  1  0.195109  0.601630  0.601630  1
  Nd  Nd4  1  0.056192  0.443808  0.443808  1
  Nd  Nd5  1  0.443808  0.056192  0.056192  1
  Nd  Nd6  1  0.443808  0.056192  0.443808  1
  Nd  Nd7  1  0.056192  0.443808  0.056192  1
  Nd  Nd8  1  0.443808  0.443808  0.056192  1
  Nd  Nd9  1  0.056192  0.056192  0.443808  1
  Nd  Nd10  1  0.186169  0.813831  0.813831  1
  Nd  Nd11  1  0.813831  0.186169  0.186169  1
  Nd  Nd12  1  0.813831  0.186169  0.813831  1
  Nd  Nd13  1  0.186169  0.813831  0.186169  1
  Nd  Nd14  1  0.813831  0.813831  0.186169  1
  Nd  Nd15  1  0.186169  0.186169  0.813831  1
  Al  Al16  1  0.823986  0.823986  0.823986  1
  Al  Al17  1  0.823986  0.823986  0.528044  1
  Al  Al18  1  0.823986  0.528044  0.823986  1
  Al  Al19  1  0.528044  0.823986  0.823986  1
  Rh  Rh20  1  0.392435  0.392435  0.392435  1
  Rh  Rh21  1  0.392435  0.392435  0.822695  1
  Rh  Rh22  1  0.392435  0.822695  0.392435  1
  Rh  Rh23  1  0.822695  0.392435  0.392435  1
