# generated using pymatgen
data_Sc3Ta4ZnRu8
_symmetry_space_group_name_H-M   'P 1'
_cell_length_a   6.32066800
_cell_length_b   4.48167700
_cell_length_c   8.96775500
_cell_angle_alpha   90.00070937
_cell_angle_beta   90.00067845
_cell_angle_gamma   89.99813306
_symmetry_Int_Tables_number   1
_chemical_formula_structural   Sc3Ta4ZnRu8
_chemical_formula_sum   'Sc3 Ta4 Zn1 Ru8'
_cell_volume   254.03132120
_cell_formula_units_Z   1
loop_
 _symmetry_equiv_pos_site_id
 _symmetry_equiv_pos_as_xyz
  1  'x, y, z'
loop_
 _atom_site_type_symbol
 _atom_site_label
 _atom_site_symmetry_multiplicity
 _atom_site_fract_x
 _atom_site_fract_y
 _atom_site_fract_z
 _atom_site_occupancy
  Sc  Sc0  1  0.250013  0.750002  0.374744  1
  Sc  Sc1  1  0.749998  0.250003  0.624986  1
  Sc  Sc2  1  0.249923  0.750004  0.875276  1
  Ta  Ta3  1  0.250039  0.249994  0.124984  1
  Ta  Ta4  1  0.750028  0.750005  0.365267  1
  Ta  Ta5  1  0.249960  0.250004  0.624991  1
  Ta  Ta6  1  0.749963  0.750003  0.884732  1
  Zn  Zn7  1  0.750070  0.250001  0.124980  1
  Ru  Ru8  1  0.499645  0.749999  0.125032  1
  Ru  Ru9  1  0.000399  0.750007  0.125029  1
  Ru  Ru10  1  0.500486  0.249999  0.374419  1
  Ru  Ru11  1  0.999571  0.250000  0.374438  1
  Ru  Ru12  1  0.998862  0.749992  0.625009  1
  Ru  Ru13  1  0.501097  0.749998  0.625013  1
  Ru  Ru14  1  0.999522  0.249998  0.875538  1
  Ru  Ru15  1  0.500424  0.249991  0.875560  1
