# generated using pymatgen
data_YbCeY2(ReC2)2
_symmetry_space_group_name_H-M   'P 1'
_cell_length_a   5.15975600
_cell_length_b   6.56940500
_cell_length_c   9.98305400
_cell_angle_alpha   90.00000000
_cell_angle_beta   90.00000000
_cell_angle_gamma   90.00000000
_symmetry_Int_Tables_number   1
_chemical_formula_structural   YbCeY2(ReC2)2
_chemical_formula_sum   'Yb2 Ce2 Y4 Re4 C8'
_cell_volume   338.39085811
_cell_formula_units_Z   2
loop_
 _symmetry_equiv_pos_site_id
 _symmetry_equiv_pos_as_xyz
  1  'x, y, z'
loop_
 _atom_site_type_symbol
 _atom_site_label
 _atom_site_symmetry_multiplicity
 _atom_site_fract_x
 _atom_site_fract_y
 _atom_site_fract_z
 _atom_site_occupancy
  Yb  Yb0  1  0.250000  0.467620  0.782142  1
  Yb  Yb1  1  0.750000  0.032380  0.282142  1
  Ce  Ce2  1  0.250000  0.969488  0.718863  1
  Ce  Ce3  1  0.750000  0.530512  0.218863  1
  Y  Y4  1  0.250000  0.819248  0.054576  1
  Y  Y5  1  0.750000  0.680752  0.554576  1
  Y  Y6  1  0.250000  0.316802  0.445181  1
  Y  Y7  1  0.750000  0.183198  0.945181  1
  Re  Re8  1  0.250000  0.277824  0.136430  1
  Re  Re9  1  0.750000  0.222176  0.636430  1
  Re  Re10  1  0.250000  0.778954  0.361736  1
  Re  Re11  1  0.750000  0.721046  0.861736  1
  C  C12  1  0.250000  0.171879  0.954702  1
  C  C13  1  0.750000  0.806529  0.046585  1
  C  C14  1  0.250000  0.693471  0.546585  1
  C  C15  1  0.750000  0.328121  0.454702  1
  C  C16  1  0.250000  0.044707  0.259462  1
  C  C17  1  0.750000  0.455293  0.759462  1
  C  C18  1  0.250000  0.544133  0.240324  1
  C  C19  1  0.750000  0.955867  0.740324  1
