# generated using pymatgen
data_Tb2Tm3(TcO6)2
_symmetry_space_group_name_H-M   'P 1'
_cell_length_a   6.77385107
_cell_length_b   6.77385071
_cell_length_c   7.47415107
_cell_angle_alpha   74.03165884
_cell_angle_beta   74.03165843
_cell_angle_gamma   49.34814193
_symmetry_Int_Tables_number   1
_chemical_formula_structural   Tb2Tm3(TcO6)2
_chemical_formula_sum   'Tb2 Tm3 Tc2 O12'
_cell_volume   247.98077539
_cell_formula_units_Z   1
loop_
 _symmetry_equiv_pos_site_id
 _symmetry_equiv_pos_as_xyz
  1  'x, y, z'
loop_
 _atom_site_type_symbol
 _atom_site_label
 _atom_site_symmetry_multiplicity
 _atom_site_fract_x
 _atom_site_fract_y
 _atom_site_fract_z
 _atom_site_occupancy
  Tb  Tb0  1  0.804633  0.804633  0.356798  1
  Tb  Tb1  1  0.195367  0.195367  0.643202  1
  Tm  Tm2  1  0.184284  0.184284  0.175402  1
  Tm  Tm3  1  0.815716  0.815716  0.824598  1
  Tm  Tm4  1  0.500000  0.500000  0.500000  1
  Tc  Tc5  1  0.286343  0.713657  0.000000  1
  Tc  Tc6  1  0.713657  0.286343  0.000000  1
  O  O7  1  0.415757  0.915995  0.917440  1
  O  O8  1  0.084005  0.584243  0.082560  1
  O  O9  1  0.584243  0.084005  0.082560  1
  O  O10  1  0.915995  0.415757  0.917440  1
  O  O11  1  0.600407  0.095910  0.576858  1
  O  O12  1  0.904090  0.399593  0.423142  1
  O  O13  1  0.399593  0.904090  0.423142  1
  O  O14  1  0.999411  0.999411  0.822085  1
  O  O15  1  0.000589  0.000589  0.177915  1
  O  O16  1  0.499629  0.499629  0.793212  1
  O  O17  1  0.500371  0.500371  0.206788  1
  O  O18  1  0.095910  0.600407  0.576858  1
