# generated using pymatgen
data_Tb4Y12MgHg3Pt4
_symmetry_space_group_name_H-M   'P 1'
_cell_length_a   9.71148325
_cell_length_b   9.72553226
_cell_length_c   9.72553200
_cell_angle_alpha   60.00000087
_cell_angle_beta   59.95213490
_cell_angle_gamma   59.95212564
_symmetry_Int_Tables_number   1
_chemical_formula_structural   Tb4Y12MgHg3Pt4
_chemical_formula_sum   'Tb4 Y12 Mg1 Hg3 Pt4'
_cell_volume   649.05679772
_cell_formula_units_Z   1
loop_
 _symmetry_equiv_pos_site_id
 _symmetry_equiv_pos_as_xyz
  1  'x, y, z'
loop_
 _atom_site_type_symbol
 _atom_site_label
 _atom_site_symmetry_multiplicity
 _atom_site_fract_x
 _atom_site_fract_y
 _atom_site_fract_z
 _atom_site_occupancy
  Tb  Tb0  1  0.603826  0.601422  0.601422  1
  Tb  Tb1  1  0.603826  0.601422  0.193331  1
  Tb  Tb2  1  0.603826  0.193331  0.601422  1
  Tb  Tb3  1  0.184134  0.605289  0.605289  1
  Y  Y4  1  0.058844  0.440685  0.440685  1
  Y  Y5  1  0.436738  0.062003  0.062003  1
  Y  Y6  1  0.436738  0.062003  0.439257  1
  Y  Y7  1  0.058844  0.440685  0.059786  1
  Y  Y8  1  0.436738  0.439257  0.062003  1
  Y  Y9  1  0.058844  0.059786  0.440685  1
  Y  Y10  1  0.183304  0.815432  0.815432  1
  Y  Y11  1  0.813468  0.185853  0.185853  1
  Y  Y12  1  0.813468  0.185853  0.814827  1
  Y  Y13  1  0.183304  0.815432  0.185832  1
  Y  Y14  1  0.813468  0.814827  0.185853  1
  Y  Y15  1  0.183304  0.185832  0.815432  1
  Mg  Mg16  1  0.531363  0.822879  0.822879  1
  Hg  Hg17  1  0.833587  0.838550  0.838550  1
  Hg  Hg18  1  0.833587  0.838550  0.489313  1
  Hg  Hg19  1  0.833587  0.489313  0.838550  1
  Pt  Pt20  1  0.392018  0.394965  0.394965  1
  Pt  Pt21  1  0.392018  0.394965  0.818055  1
  Pt  Pt22  1  0.392018  0.818055  0.394965  1
  Pt  Pt23  1  0.819156  0.393615  0.393615  1
