# generated using pymatgen
data_Sc6TeAsC2
_symmetry_space_group_name_H-M   'P 1'
_cell_length_a   5.92195700
_cell_length_b   5.92195495
_cell_length_c   8.70134600
_cell_angle_alpha   90.00000000
_cell_angle_beta   90.00000000
_cell_angle_gamma   145.14393229
_symmetry_Int_Tables_number   1
_chemical_formula_structural   Sc6TeAsC2
_chemical_formula_sum   'Sc6 Te1 As1 C2'
_cell_volume   174.39973527
_cell_formula_units_Z   1
loop_
 _symmetry_equiv_pos_site_id
 _symmetry_equiv_pos_as_xyz
  1  'x, y, z'
loop_
 _atom_site_type_symbol
 _atom_site_label
 _atom_site_symmetry_multiplicity
 _atom_site_fract_x
 _atom_site_fract_y
 _atom_site_fract_z
 _atom_site_occupancy
  Sc  Sc0  1  0.877986  0.122012  0.036962  1
  Sc  Sc1  1  0.542799  0.457199  0.250000  1
  Sc  Sc2  1  0.877986  0.122012  0.463039  1
  Sc  Sc3  1  0.128214  0.871784  0.558032  1
  Sc  Sc4  1  0.440642  0.559356  0.750000  1
  Sc  Sc5  1  0.128214  0.871784  0.941968  1
  Te  Te6  1  0.250590  0.749408  0.250000  1
  As  As7  1  0.751421  0.248577  0.750000  1
  C  C8  1  0.501069  0.498929  0.997263  1
  C  C9  1  0.501069  0.498929  0.502737  1
