# generated using pymatgen
data_Tb2Yb4Si24Os7Ru
_symmetry_space_group_name_H-M   'P 1'
_cell_length_a   10.16610275
_cell_length_b   10.16570477
_cell_length_c   8.16272467
_cell_angle_alpha   90.04173147
_cell_angle_beta   90.03155713
_cell_angle_gamma   132.66607324
_symmetry_Int_Tables_number   1
_chemical_formula_structural   Tb2Yb4Si24Os7Ru
_chemical_formula_sum   'Tb2 Yb4 Si24 Os7 Ru1'
_cell_volume   620.29833398
_cell_formula_units_Z   1
loop_
 _symmetry_equiv_pos_site_id
 _symmetry_equiv_pos_as_xyz
  1  'x, y, z'
loop_
 _atom_site_type_symbol
 _atom_site_label
 _atom_site_symmetry_multiplicity
 _atom_site_fract_x
 _atom_site_fract_y
 _atom_site_fract_z
 _atom_site_occupancy
  Tb  Tb0  1  0.500602  0.000143  0.250596  1
  Tb  Tb1  1  0.999592  0.499603  0.749527  1
  Yb  Yb2  1  0.500145  0.499933  0.499317  1
  Yb  Yb3  1  0.000452  0.000708  0.999953  1
  Yb  Yb4  1  0.500096  0.000291  0.749779  1
  Yb  Yb5  1  0.999405  0.500011  0.250342  1
  Si  Si6  1  0.796045  0.203996  0.499987  1
  Si  Si7  1  0.295252  0.704372  0.000008  1
  Si  Si8  1  0.204322  0.795337  0.500114  1
  Si  Si9  1  0.703995  0.295865  0.000020  1
  Si  Si10  1  0.332410  0.337903  0.831025  1
  Si  Si11  1  0.664523  0.669991  0.166485  1
  Si  Si12  1  0.170095  0.163460  0.331658  1
  Si  Si13  1  0.836073  0.829779  0.668540  1
  Si  Si14  1  0.122884  0.890217  0.730735  1
  Si  Si15  1  0.109786  0.876687  0.269531  1
  Si  Si16  1  0.607736  0.374552  0.230412  1
  Si  Si17  1  0.624993  0.392378  0.769681  1
  Si  Si18  1  0.876477  0.109379  0.269961  1
  Si  Si19  1  0.890116  0.122634  0.730310  1
  Si  Si20  1  0.392038  0.625121  0.769362  1
  Si  Si21  1  0.374318  0.607849  0.230736  1
  Si  Si22  1  0.347230  0.113691  0.506322  1
  Si  Si23  1  0.885802  0.652781  0.493929  1
  Si  Si24  1  0.385897  0.152361  0.009825  1
  Si  Si25  1  0.847187  0.614230  0.990689  1
  Si  Si26  1  0.652702  0.885236  0.492645  1
  Si  Si27  1  0.114306  0.347245  0.507931  1
  Si  Si28  1  0.613356  0.847122  0.992074  1
  Si  Si29  1  0.152372  0.386549  0.008725  1
  Os  Os30  1  0.671254  0.328755  0.499998  1
  Os  Os31  1  0.170560  0.829400  0.000005  1
  Os  Os32  1  0.329604  0.670409  0.500045  1
  Os  Os33  1  0.828667  0.171291  0.000033  1
  Os  Os34  1  0.126690  0.127535  0.625531  1
  Os  Os35  1  0.872622  0.873427  0.374320  1
  Os  Os36  1  0.373470  0.373226  0.124555  1
  Ru  Ru37  1  0.626921  0.626529  0.875293  1
