# generated using pymatgen
data_HoTh5(GaPd)6
_symmetry_space_group_name_H-M   'P 1'
_cell_length_a   7.32635929
_cell_length_b   7.32993789
_cell_length_c   8.20493300
_cell_angle_alpha   90.00000000
_cell_angle_beta   90.00000000
_cell_angle_gamma   120.01991244
_symmetry_Int_Tables_number   1
_chemical_formula_structural   HoTh5(GaPd)6
_chemical_formula_sum   'Ho1 Th5 Ga6 Pd6'
_cell_volume   381.51094513
_cell_formula_units_Z   1
loop_
 _symmetry_equiv_pos_site_id
 _symmetry_equiv_pos_as_xyz
  1  'x, y, z'
loop_
 _atom_site_type_symbol
 _atom_site_label
 _atom_site_symmetry_multiplicity
 _atom_site_fract_x
 _atom_site_fract_y
 _atom_site_fract_z
 _atom_site_occupancy
  Ho  Ho0  1  0.999850  0.405857  0.250000  1
  Th  Th1  1  0.585059  0.582578  0.250000  1
  Th  Th2  1  0.000107  0.419173  0.750000  1
  Th  Th3  1  0.415153  0.997910  0.250000  1
  Th  Th4  1  0.414791  0.001988  0.750000  1
  Th  Th5  1  0.585013  0.587330  0.750000  1
  Ga  Ga6  1  0.241249  0.243450  0.499692  1
  Ga  Ga7  1  0.758717  0.002209  0.499620  1
  Ga  Ga8  1  0.000073  0.756053  0.495327  1
  Ga  Ga9  1  0.758717  0.002209  0.000380  1
  Ga  Ga10  1  0.241249  0.243450  0.000308  1
  Ga  Ga11  1  0.000073  0.756053  0.004673  1
  Pd  Pd12  1  0.333096  0.666705  0.498161  1
  Pd  Pd13  1  0.999884  0.001450  0.750000  1
  Pd  Pd14  1  0.000023  0.999560  0.250000  1
  Pd  Pd15  1  0.333096  0.666705  0.001839  1
  Pd  Pd16  1  0.666927  0.333661  0.498639  1
  Pd  Pd17  1  0.666927  0.333661  0.001361  1
