# generated using pymatgen
data_Nd6Si3Ag
_symmetry_space_group_name_H-M   'P 1'
_cell_length_a   7.88099681
_cell_length_b   7.88099681
_cell_length_c   4.36355000
_cell_angle_alpha   90.00000000
_cell_angle_beta   90.00000000
_cell_angle_gamma   93.18702004
_symmetry_Int_Tables_number   1
_chemical_formula_structural   Nd6Si3Ag
_chemical_formula_sum   'Nd6 Si3 Ag1'
_cell_volume   270.60140883
_cell_formula_units_Z   1
loop_
 _symmetry_equiv_pos_site_id
 _symmetry_equiv_pos_as_xyz
  1  'x, y, z'
loop_
 _atom_site_type_symbol
 _atom_site_label
 _atom_site_symmetry_multiplicity
 _atom_site_fract_x
 _atom_site_fract_y
 _atom_site_fract_z
 _atom_site_occupancy
  Nd  Nd0  1  0.997836  0.009727  0.000000  1
  Nd  Nd1  1  0.490273  0.502164  0.000000  1
  Nd  Nd2  1  0.687066  0.170604  0.500000  1
  Nd  Nd3  1  0.157121  0.342880  0.500000  1
  Nd  Nd4  1  0.827204  0.672797  0.500000  1
  Nd  Nd5  1  0.329397  0.812935  0.500000  1
  Si  Si6  1  0.881956  0.387417  0.000000  1
  Si  Si7  1  0.112583  0.618044  0.000000  1
  Si  Si8  1  0.629104  0.870896  0.000000  1
  Ag  Ag9  1  0.387463  0.112537  0.000000  1
