# generated using pymatgen
data_La3Sm(ZnSi3)2
_symmetry_space_group_name_H-M   'P 1'
_cell_length_a   4.26321100
_cell_length_b   4.28283500
_cell_length_c   14.12314800
_cell_angle_alpha   90.00000000
_cell_angle_beta   90.00000000
_cell_angle_gamma   90.00000000
_symmetry_Int_Tables_number   1
_chemical_formula_structural   La3Sm(ZnSi3)2
_chemical_formula_sum   'La3 Sm1 Zn2 Si6'
_cell_volume   257.86932364
_cell_formula_units_Z   1
loop_
 _symmetry_equiv_pos_site_id
 _symmetry_equiv_pos_as_xyz
  1  'x, y, z'
loop_
 _atom_site_type_symbol
 _atom_site_label
 _atom_site_symmetry_multiplicity
 _atom_site_fract_x
 _atom_site_fract_y
 _atom_site_fract_z
 _atom_site_occupancy
  La  La0  1  0.000000  0.000000  0.504726  1
  La  La1  1  0.500000  0.000000  0.748403  1
  La  La2  1  0.000000  0.500000  0.244300  1
  Sm  Sm3  1  0.500000  0.500000  0.004818  1
  Zn  Zn4  1  0.000000  0.000000  0.916315  1
  Zn  Zn5  1  0.500000  0.500000  0.415117  1
  Si  Si6  1  0.000000  0.500000  0.835428  1
  Si  Si7  1  0.500000  0.000000  0.331533  1
  Si  Si8  1  0.000000  0.000000  0.082121  1
  Si  Si9  1  0.500000  0.500000  0.584384  1
  Si  Si10  1  0.500000  0.000000  0.164542  1
  Si  Si11  1  0.000000  0.500000  0.668312  1
