# generated using pymatgen
data_Nd8Cu3Si12Pd
_symmetry_space_group_name_H-M   'P 1'
_cell_length_a   8.14982500
_cell_length_b   8.14982519
_cell_length_c   8.57479400
_cell_angle_alpha   90.00000000
_cell_angle_beta   90.00000000
_cell_angle_gamma   119.99999515
_symmetry_Int_Tables_number   1
_chemical_formula_structural   Nd8Cu3Si12Pd
_chemical_formula_sum   'Nd8 Cu3 Si12 Pd1'
_cell_volume   493.23163681
_cell_formula_units_Z   1
loop_
 _symmetry_equiv_pos_site_id
 _symmetry_equiv_pos_as_xyz
  1  'x, y, z'
loop_
 _atom_site_type_symbol
 _atom_site_label
 _atom_site_symmetry_multiplicity
 _atom_site_fract_x
 _atom_site_fract_y
 _atom_site_fract_z
 _atom_site_occupancy
  Nd  Nd0  1  0.498995  0.501005  0.750689  1
  Nd  Nd1  1  0.499031  0.500969  0.249305  1
  Nd  Nd2  1  0.002011  0.501005  0.750689  1
  Nd  Nd3  1  0.001938  0.500969  0.249305  1
  Nd  Nd4  1  0.498995  0.997989  0.750689  1
  Nd  Nd5  1  0.499031  0.998062  0.249305  1
  Nd  Nd6  1  0.000000  0.000000  0.750645  1
  Nd  Nd7  1  0.000000  0.000000  0.249344  1
  Cu  Cu8  1  0.666667  0.333333  0.999811  1
  Cu  Cu9  1  0.333333  0.666667  0.000545  1
  Cu  Cu10  1  0.333333  0.666667  0.499662  1
  Si  Si11  1  0.830711  0.169289  0.000035  1
  Si  Si12  1  0.168972  0.831028  0.999952  1
  Si  Si13  1  0.338578  0.169289  0.000035  1
  Si  Si14  1  0.168564  0.831436  0.499880  1
  Si  Si15  1  0.662056  0.831028  0.999952  1
  Si  Si16  1  0.833754  0.166246  0.500126  1
  Si  Si17  1  0.830711  0.661422  0.000035  1
  Si  Si18  1  0.662871  0.831436  0.499880  1
  Si  Si19  1  0.168972  0.337944  0.999952  1
  Si  Si20  1  0.332493  0.166246  0.500126  1
  Si  Si21  1  0.168564  0.337129  0.499880  1
  Si  Si22  1  0.833754  0.667507  0.500126  1
  Pd  Pd23  1  0.666667  0.333333  0.500029  1
