# generated using pymatgen
data_Ba4GdWO8
_symmetry_space_group_name_H-M   'P 1'
_cell_length_a   7.41801164
_cell_length_b   7.41801067
_cell_length_c   6.11238600
_cell_angle_alpha   90.00000000
_cell_angle_beta   90.00000000
_cell_angle_gamma   131.46248826
_symmetry_Int_Tables_number   1
_chemical_formula_structural   Ba4GdWO8
_chemical_formula_sum   'Ba4 Gd1 W1 O8'
_cell_volume   252.05381232
_cell_formula_units_Z   1
loop_
 _symmetry_equiv_pos_site_id
 _symmetry_equiv_pos_as_xyz
  1  'x, y, z'
loop_
 _atom_site_type_symbol
 _atom_site_label
 _atom_site_symmetry_multiplicity
 _atom_site_fract_x
 _atom_site_fract_y
 _atom_site_fract_z
 _atom_site_occupancy
  Ba  Ba0  1  0.355877  0.644123  0.000000  1
  Ba  Ba1  1  0.855728  0.144272  0.500000  1
  Ba  Ba2  1  0.144272  0.855728  0.500000  1
  Ba  Ba3  1  0.644123  0.355877  0.000000  1
  Gd  Gd4  1  0.000000  0.000000  0.000000  1
  W  W5  1  0.500000  0.500000  0.500000  1
  O  O6  1  0.260183  0.260183  0.732134  1
  O  O7  1  0.739817  0.739817  0.267866  1
  O  O8  1  0.739817  0.739817  0.732134  1
  O  O9  1  0.260183  0.260183  0.267866  1
  O  O10  1  0.168534  0.831466  0.000000  1
  O  O11  1  0.647316  0.352684  0.500000  1
  O  O12  1  0.352684  0.647316  0.500000  1
  O  O13  1  0.831466  0.168534  0.000000  1
