# generated using pymatgen
data_Eu2TcN3
_symmetry_space_group_name_H-M   'P 1'
_cell_length_a   6.10333595
_cell_length_b   6.10333660
_cell_length_c   11.92645300
_cell_angle_alpha   87.89951047
_cell_angle_beta   87.89951024
_cell_angle_gamma   128.37154365
_symmetry_Int_Tables_number   1
_chemical_formula_structural   Eu2TcN3
_chemical_formula_sum   'Eu8 Tc4 N12'
_cell_volume   347.07162874
_cell_formula_units_Z   4
loop_
 _symmetry_equiv_pos_site_id
 _symmetry_equiv_pos_as_xyz
  1  'x, y, z'
loop_
 _atom_site_type_symbol
 _atom_site_label
 _atom_site_symmetry_multiplicity
 _atom_site_fract_x
 _atom_site_fract_y
 _atom_site_fract_z
 _atom_site_occupancy
  Eu  Eu0  1  0.981685  0.576348  0.856579  1
  Eu  Eu1  1  0.423652  0.018315  0.643421  1
  Eu  Eu2  1  0.658555  0.876754  0.923128  1
  Eu  Eu3  1  0.123246  0.341445  0.576872  1
  Eu  Eu4  1  0.018315  0.423652  0.143421  1
  Eu  Eu5  1  0.876754  0.658555  0.423128  1
  Eu  Eu6  1  0.576348  0.981685  0.356579  1
  Eu  Eu7  1  0.341445  0.123246  0.076872  1
  Tc  Tc8  1  0.715699  0.703316  0.669535  1
  Tc  Tc9  1  0.296684  0.284301  0.830465  1
  Tc  Tc10  1  0.703316  0.715699  0.169535  1
  Tc  Tc11  1  0.284301  0.296684  0.330465  1
  N  N12  1  0.156677  0.341854  0.962123  1
  N  N13  1  0.997606  0.002394  0.250000  1
  N  N14  1  0.002394  0.997606  0.750000  1
  N  N15  1  0.371792  0.628208  0.750000  1
  N  N16  1  0.628208  0.371792  0.250000  1
  N  N17  1  0.658146  0.843323  0.537877  1
  N  N18  1  0.843323  0.658146  0.037877  1
  N  N19  1  0.132488  0.479586  0.372636  1
  N  N20  1  0.479586  0.132488  0.872636  1
  N  N21  1  0.867512  0.520414  0.627364  1
  N  N22  1  0.341854  0.156677  0.462123  1
  N  N23  1  0.520414  0.867512  0.127364  1
