# generated using pymatgen
data_TaSeOF7
_symmetry_space_group_name_H-M   'P 1'
_cell_length_a   7.14234800
_cell_length_b   7.91114500
_cell_length_c   11.23413500
_cell_angle_alpha   90.00000000
_cell_angle_beta   90.00000000
_cell_angle_gamma   90.00000000
_symmetry_Int_Tables_number   1
_chemical_formula_structural   TaSeOF7
_chemical_formula_sum   'Ta4 Se4 O4 F28'
_cell_volume   634.77525667
_cell_formula_units_Z   4
loop_
 _symmetry_equiv_pos_site_id
 _symmetry_equiv_pos_as_xyz
  1  'x, y, z'
loop_
 _atom_site_type_symbol
 _atom_site_label
 _atom_site_symmetry_multiplicity
 _atom_site_fract_x
 _atom_site_fract_y
 _atom_site_fract_z
 _atom_site_occupancy
  Ta  Ta0  1  0.698281  0.750000  0.149100  1
  Ta  Ta1  1  0.198281  0.250000  0.350900  1
  Ta  Ta2  1  0.301719  0.250000  0.850900  1
  Ta  Ta3  1  0.801719  0.750000  0.649100  1
  Se  Se4  1  0.259619  0.750000  0.996184  1
  Se  Se5  1  0.759619  0.250000  0.503816  1
  Se  Se6  1  0.740381  0.250000  0.003816  1
  Se  Se7  1  0.240381  0.750000  0.496184  1
  O  O8  1  0.489865  0.750000  0.014843  1
  O  O9  1  0.010135  0.750000  0.514843  1
  O  O10  1  0.510135  0.250000  0.985157  1
  O  O11  1  0.989865  0.250000  0.485157  1
  F  F12  1  0.698661  0.088513  0.403280  1
  F  F13  1  0.801339  0.411487  0.903280  1
  F  F14  1  0.301339  0.588513  0.596720  1
  F  F15  1  0.198661  0.911487  0.096720  1
  F  F16  1  0.301339  0.911487  0.596720  1
  F  F17  1  0.801339  0.088513  0.903280  1
  F  F18  1  0.698661  0.411487  0.403280  1
  F  F19  1  0.198661  0.588513  0.096720  1
  F  F20  1  0.867251  0.750000  0.016445  1
  F  F21  1  0.367251  0.250000  0.483555  1
  F  F22  1  0.132749  0.250000  0.983555  1
  F  F23  1  0.632749  0.750000  0.516445  1
  F  F24  1  0.886760  0.750000  0.264070  1
  F  F25  1  0.386760  0.250000  0.235930  1
  F  F26  1  0.113240  0.250000  0.735930  1
  F  F27  1  0.613240  0.750000  0.764070  1
  F  F28  1  0.498039  0.750000  0.260166  1
  F  F29  1  0.998039  0.250000  0.239834  1
  F  F30  1  0.501961  0.250000  0.739834  1
  F  F31  1  0.001961  0.750000  0.760166  1
  F  F32  1  0.689795  0.506714  0.138733  1
  F  F33  1  0.189795  0.493286  0.361267  1
  F  F34  1  0.310205  0.006714  0.861267  1
  F  F35  1  0.810205  0.993286  0.638733  1
  F  F36  1  0.310205  0.493286  0.861267  1
  F  F37  1  0.810205  0.506714  0.638733  1
  F  F38  1  0.689795  0.993286  0.138733  1
  F  F39  1  0.189795  0.006714  0.361267  1
