# generated using pymatgen
data_Ho4ErIr2Rh
_symmetry_space_group_name_H-M   'P 1'
_cell_length_a   10.81753900
_cell_length_b   10.81753900
_cell_length_c   6.36083200
_cell_angle_alpha   90.00000000
_cell_angle_beta   90.00000000
_cell_angle_gamma   90.00000000
_symmetry_Int_Tables_number   1
_chemical_formula_structural   Ho4ErIr2Rh
_chemical_formula_sum   'Ho16 Er4 Ir8 Rh4'
_cell_volume   744.33915404
_cell_formula_units_Z   4
loop_
 _symmetry_equiv_pos_site_id
 _symmetry_equiv_pos_as_xyz
  1  'x, y, z'
loop_
 _atom_site_type_symbol
 _atom_site_label
 _atom_site_symmetry_multiplicity
 _atom_site_fract_x
 _atom_site_fract_y
 _atom_site_fract_z
 _atom_site_occupancy
  Ho  Ho0  1  0.290317  0.088622  0.378903  1
  Ho  Ho1  1  0.290317  0.911378  0.878903  1
  Ho  Ho2  1  0.709683  0.088622  0.878903  1
  Ho  Ho3  1  0.709683  0.911378  0.378903  1
  Ho  Ho4  1  0.588622  0.790317  0.878903  1
  Ho  Ho5  1  0.588622  0.209683  0.378903  1
  Ho  Ho6  1  0.411378  0.790317  0.378903  1
  Ho  Ho7  1  0.411378  0.209683  0.878903  1
  Ho  Ho8  1  0.209683  0.411378  0.621097  1
  Ho  Ho9  1  0.209683  0.588622  0.121097  1
  Ho  Ho10  1  0.790317  0.411378  0.121097  1
  Ho  Ho11  1  0.790317  0.588622  0.621097  1
  Ho  Ho12  1  0.911378  0.709683  0.121097  1
  Ho  Ho13  1  0.911378  0.290317  0.621097  1
  Ho  Ho14  1  0.088622  0.709683  0.621097  1
  Ho  Ho15  1  0.088622  0.290317  0.121097  1
  Er  Er16  1  0.000000  0.000000  0.500000  1
  Er  Er17  1  0.000000  0.000000  0.000000  1
  Er  Er18  1  0.500000  0.500000  0.000000  1
  Er  Er19  1  0.500000  0.500000  0.500000  1
  Ir  Ir20  1  0.846224  0.153776  0.250000  1
  Ir  Ir21  1  0.846224  0.846224  0.750000  1
  Ir  Ir22  1  0.153776  0.153776  0.750000  1
  Ir  Ir23  1  0.153776  0.846224  0.250000  1
  Ir  Ir24  1  0.653776  0.346224  0.750000  1
  Ir  Ir25  1  0.653776  0.653776  0.250000  1
  Ir  Ir26  1  0.346224  0.346224  0.250000  1
  Ir  Ir27  1  0.346224  0.653776  0.750000  1
  Rh  Rh28  1  0.500000  0.000000  0.122971  1
  Rh  Rh29  1  0.500000  0.000000  0.622971  1
  Rh  Rh30  1  0.000000  0.500000  0.877029  1
  Rh  Rh31  1  0.000000  0.500000  0.377029  1
