# generated using pymatgen
data_Sc6Fe4Si5Ge
_symmetry_space_group_name_H-M   'P 1'
_cell_length_a   5.35251305
_cell_length_b   5.35251335
_cell_length_c   12.95819400
_cell_angle_alpha   90.00000000
_cell_angle_beta   90.00000000
_cell_angle_gamma   136.62002273
_symmetry_Int_Tables_number   1
_chemical_formula_structural   Sc6Fe4Si5Ge
_chemical_formula_sum   'Sc6 Fe4 Si5 Ge1'
_cell_volume   254.98314762
_cell_formula_units_Z   1
loop_
 _symmetry_equiv_pos_site_id
 _symmetry_equiv_pos_as_xyz
  1  'x, y, z'
loop_
 _atom_site_type_symbol
 _atom_site_label
 _atom_site_symmetry_multiplicity
 _atom_site_fract_x
 _atom_site_fract_y
 _atom_site_fract_z
 _atom_site_occupancy
  Sc  Sc0  1  0.638832  0.361168  0.750000  1
  Sc  Sc1  1  0.919260  0.080740  0.613004  1
  Sc  Sc2  1  0.919260  0.080740  0.886996  1
  Sc  Sc3  1  0.079818  0.920182  0.110375  1
  Sc  Sc4  1  0.361056  0.638944  0.250000  1
  Sc  Sc5  1  0.079818  0.920182  0.389625  1
  Fe  Fe6  1  0.787653  0.212347  0.079708  1
  Fe  Fe7  1  0.214689  0.785311  0.582623  1
  Fe  Fe8  1  0.787653  0.212347  0.420292  1
  Fe  Fe9  1  0.214689  0.785311  0.917377  1
  Si  Si10  1  0.383509  0.616491  0.459858  1
  Si  Si11  1  0.383509  0.616491  0.040142  1
  Si  Si12  1  0.617592  0.382408  0.541239  1
  Si  Si13  1  0.328608  0.671392  0.750000  1
  Si  Si14  1  0.617592  0.382408  0.958761  1
  Ge  Ge15  1  0.666463  0.333537  0.250000  1
