# generated using pymatgen
data_Hf18TaMo7PtSe
_symmetry_space_group_name_H-M   'P 1'
_cell_length_a   8.75931200
_cell_length_b   8.75931138
_cell_length_c   8.61906500
_cell_angle_alpha   90.00000000
_cell_angle_beta   90.00000000
_cell_angle_gamma   120.00000233
_symmetry_Int_Tables_number   1
_chemical_formula_structural   Hf18TaMo7PtSe
_chemical_formula_sum   'Hf18 Ta1 Mo7 Pt1 Se1'
_cell_volume   572.70468859
_cell_formula_units_Z   1
loop_
 _symmetry_equiv_pos_site_id
 _symmetry_equiv_pos_as_xyz
  1  'x, y, z'
loop_
 _atom_site_type_symbol
 _atom_site_label
 _atom_site_symmetry_multiplicity
 _atom_site_fract_x
 _atom_site_fract_y
 _atom_site_fract_z
 _atom_site_occupancy
  Hf  Hf0  1  0.196923  0.803077  0.447857  1
  Hf  Hf1  1  0.196923  0.393845  0.447857  1
  Hf  Hf2  1  0.606155  0.803077  0.447857  1
  Hf  Hf3  1  0.805643  0.194357  0.546610  1
  Hf  Hf4  1  0.805643  0.611287  0.546610  1
  Hf  Hf5  1  0.388713  0.194357  0.546610  1
  Hf  Hf6  1  0.805136  0.194864  0.953567  1
  Hf  Hf7  1  0.805136  0.610271  0.953567  1
  Hf  Hf8  1  0.389729  0.194864  0.953567  1
  Hf  Hf9  1  0.196898  0.803102  0.051687  1
  Hf  Hf10  1  0.196898  0.393795  0.051687  1
  Hf  Hf11  1  0.606205  0.803102  0.051687  1
  Hf  Hf12  1  0.542859  0.457141  0.250102  1
  Hf  Hf13  1  0.542859  0.085718  0.250102  1
  Hf  Hf14  1  0.914282  0.457141  0.250102  1
  Hf  Hf15  1  0.455224  0.544776  0.749937  1
  Hf  Hf16  1  0.455224  0.910451  0.749937  1
  Hf  Hf17  1  0.089549  0.544776  0.749937  1
  Ta  Ta18  1  0.000000  0.000000  0.001419  1
  Mo  Mo19  1  0.887058  0.112942  0.251697  1
  Mo  Mo20  1  0.887058  0.774116  0.251697  1
  Mo  Mo21  1  0.225884  0.112942  0.251697  1
  Mo  Mo22  1  0.111529  0.888471  0.748432  1
  Mo  Mo23  1  0.111529  0.223058  0.748432  1
  Mo  Mo24  1  0.776942  0.888471  0.748432  1
  Mo  Mo25  1  0.000000  0.000000  0.499004  1
  Pt  Pt26  1  0.333333  0.666667  0.250115  1
  Se  Se27  1  0.666667  0.333333  0.749791  1
