# generated using pymatgen
data_Tm4Ga4Co3Pd
_symmetry_space_group_name_H-M   'P 1'
_cell_length_a   4.22522700
_cell_length_b   6.67453687
_cell_length_c   7.53073577
_cell_angle_alpha   89.73610341
_cell_angle_beta   90.00000000
_cell_angle_gamma   90.00000000
_symmetry_Int_Tables_number   1
_chemical_formula_structural   Tm4Ga4Co3Pd
_chemical_formula_sum   'Tm4 Ga4 Co3 Pd1'
_cell_volume   212.37529078
_cell_formula_units_Z   1
loop_
 _symmetry_equiv_pos_site_id
 _symmetry_equiv_pos_as_xyz
  1  'x, y, z'
loop_
 _atom_site_type_symbol
 _atom_site_label
 _atom_site_symmetry_multiplicity
 _atom_site_fract_x
 _atom_site_fract_y
 _atom_site_fract_z
 _atom_site_occupancy
  Tm  Tm0  1  0.250000  0.968782  0.308889  1
  Tm  Tm1  1  0.250000  0.481334  0.181400  1
  Tm  Tm2  1  0.750000  0.016155  0.693023  1
  Tm  Tm3  1  0.750000  0.523926  0.812375  1
  Ga  Ga4  1  0.250000  0.346455  0.582829  1
  Ga  Ga5  1  0.250000  0.836288  0.929501  1
  Ga  Ga6  1  0.750000  0.673630  0.431052  1
  Ga  Ga7  1  0.750000  0.155250  0.060694  1
  Co  Co8  1  0.250000  0.220204  0.891694  1
  Co  Co9  1  0.250000  0.727161  0.609328  1
  Co  Co10  1  0.750000  0.772695  0.108204  1
  Pd  Pd11  1  0.750000  0.278120  0.391010  1
