# generated using pymatgen
data_Tm4B16Mo3W
_symmetry_space_group_name_H-M   'P 1'
_cell_length_a   3.59901300
_cell_length_b   6.00107465
_cell_length_c   11.59226591
_cell_angle_alpha   90.00461440
_cell_angle_beta   90.00000000
_cell_angle_gamma   90.00000000
_symmetry_Int_Tables_number   1
_chemical_formula_structural   Tm4B16Mo3W
_chemical_formula_sum   'Tm4 B16 Mo3 W1'
_cell_volume   250.36912843
_cell_formula_units_Z   1
loop_
 _symmetry_equiv_pos_site_id
 _symmetry_equiv_pos_as_xyz
  1  'x, y, z'
loop_
 _atom_site_type_symbol
 _atom_site_label
 _atom_site_symmetry_multiplicity
 _atom_site_fract_x
 _atom_site_fract_y
 _atom_site_fract_z
 _atom_site_occupancy
  Tm  Tm0  1  0.000000  0.626860  0.350429  1
  Tm  Tm1  1  0.000000  0.372680  0.649451  1
  Tm  Tm2  1  0.000000  0.127439  0.149592  1
  Tm  Tm3  1  0.000000  0.872780  0.850667  1
  B  B4  1  0.500000  0.787818  0.186692  1
  B  B5  1  0.500000  0.212352  0.813313  1
  B  B6  1  0.500000  0.287925  0.313522  1
  B  B7  1  0.500000  0.711393  0.687045  1
  B  B8  1  0.500000  0.867792  0.031705  1
  B  B9  1  0.500000  0.132420  0.967894  1
  B  B10  1  0.500000  0.367300  0.468167  1
  B  B11  1  0.500000  0.632163  0.531762  1
  B  B12  1  0.500000  0.885500  0.451972  1
  B  B13  1  0.500000  0.114996  0.547868  1
  B  B14  1  0.500000  0.385255  0.047818  1
  B  B15  1  0.500000  0.614903  0.951936  1
  B  B16  1  0.500000  0.976674  0.305896  1
  B  B17  1  0.500000  0.024023  0.694356  1
  B  B18  1  0.500000  0.476313  0.194208  1
  B  B19  1  0.500000  0.523092  0.805741  1
  Mo  Mo20  1  0.000000  0.630494  0.083970  1
  Mo  Mo21  1  0.000000  0.369632  0.915804  1
  Mo  Mo22  1  0.000000  0.130960  0.415596  1
  W  W23  1  0.000000  0.869239  0.584597  1
