# generated using pymatgen
data_Tb15Er(InRu)4
_symmetry_space_group_name_H-M   'P 1'
_cell_length_a   9.67337417
_cell_length_b   9.68298261
_cell_length_c   9.67337506
_cell_angle_alpha   59.96619248
_cell_angle_beta   59.86371937
_cell_angle_gamma   59.96620116
_symmetry_Int_Tables_number   1
_chemical_formula_structural   Tb15Er(InRu)4
_chemical_formula_sum   'Tb15 Er1 In4 Ru4'
_cell_volume   639.70426208
_cell_formula_units_Z   1
loop_
 _symmetry_equiv_pos_site_id
 _symmetry_equiv_pos_as_xyz
  1  'x, y, z'
loop_
 _atom_site_type_symbol
 _atom_site_label
 _atom_site_symmetry_multiplicity
 _atom_site_fract_x
 _atom_site_fract_y
 _atom_site_fract_z
 _atom_site_occupancy
  Tb  Tb0  1  0.191710  0.191036  0.810263  1
  Tb  Tb1  1  0.441019  0.057637  0.059350  1
  Tb  Tb2  1  0.440347  0.059650  0.440347  1
  Tb  Tb3  1  0.056783  0.443200  0.056783  1
  Tb  Tb4  1  0.651727  0.043321  0.651727  1
  Tb  Tb5  1  0.191703  0.806981  0.810287  1
  Tb  Tb6  1  0.059350  0.057637  0.441019  1
  Tb  Tb7  1  0.810263  0.191036  0.191710  1
  Tb  Tb8  1  0.810287  0.806981  0.191703  1
  Tb  Tb9  1  0.650300  0.652649  0.044389  1
  Tb  Tb10  1  0.651725  0.653198  0.651725  1
  Tb  Tb11  1  0.059364  0.442023  0.440980  1
  Tb  Tb12  1  0.044389  0.652649  0.650300  1
  Tb  Tb13  1  0.808169  0.191833  0.808169  1
  Tb  Tb14  1  0.440980  0.442023  0.059364  1
  Er  Er15  1  0.192133  0.807913  0.192133  1
  In  In16  1  0.418260  0.745872  0.418260  1
  In  In17  1  0.418342  0.417351  0.746951  1
  In  In18  1  0.746951  0.417351  0.418342  1
  In  In19  1  0.418262  0.417642  0.418262  1
  Ru  Ru20  1  0.860516  0.416663  0.860516  1
  Ru  Ru21  1  0.860716  0.861530  0.416190  1
  Ru  Ru22  1  0.416190  0.861530  0.860716  1
  Ru  Ru23  1  0.860512  0.862297  0.860512  1
