# generated using pymatgen
data_Tb3In3PtRhAu
_symmetry_space_group_name_H-M   'P 1'
_cell_length_a   7.80721300
_cell_length_b   7.80721380
_cell_length_c   3.81912200
_cell_angle_alpha   90.00000000
_cell_angle_beta   90.00000000
_cell_angle_gamma   119.99999238
_symmetry_Int_Tables_number   1
_chemical_formula_structural   Tb3In3PtRhAu
_chemical_formula_sum   'Tb3 In3 Pt1 Rh1 Au1'
_cell_volume   201.59803635
_cell_formula_units_Z   1
loop_
 _symmetry_equiv_pos_site_id
 _symmetry_equiv_pos_as_xyz
  1  'x, y, z'
loop_
 _atom_site_type_symbol
 _atom_site_label
 _atom_site_symmetry_multiplicity
 _atom_site_fract_x
 _atom_site_fract_y
 _atom_site_fract_z
 _atom_site_occupancy
  Tb  Tb0  1  0.590436  0.986701  0.500000  1
  Tb  Tb1  1  0.396265  0.409564  0.500000  1
  Tb  Tb2  1  0.013299  0.603735  0.500000  1
  In  In3  1  0.743463  0.742514  0.000000  1
  In  In4  1  0.999051  0.256537  0.000000  1
  In  In5  1  0.257486  0.000949  0.000000  1
  Pt  Pt6  1  0.333333  0.666667  0.000000  1
  Rh  Rh7  1  0.000000  0.000000  0.500000  1
  Au  Au8  1  0.666667  0.333333  0.000000  1
