# generated using pymatgen
data_Mg2Pa2Ta2Zn7
_symmetry_space_group_name_H-M   'P 1'
_cell_length_a   10.44553890
_cell_length_b   10.44553867
_cell_length_c   10.44553863
_cell_angle_alpha   28.63492729
_cell_angle_beta   28.63493008
_cell_angle_gamma   28.63492762
_symmetry_Int_Tables_number   1
_chemical_formula_structural   Mg2Pa2Ta2Zn7
_chemical_formula_sum   'Mg2 Pa2 Ta2 Zn7'
_cell_volume   231.38855424
_cell_formula_units_Z   1
loop_
 _symmetry_equiv_pos_site_id
 _symmetry_equiv_pos_as_xyz
  1  'x, y, z'
loop_
 _atom_site_type_symbol
 _atom_site_label
 _atom_site_symmetry_multiplicity
 _atom_site_fract_x
 _atom_site_fract_y
 _atom_site_fract_z
 _atom_site_occupancy
  Mg  Mg0  1  0.647497  0.647497  0.647497  1
  Mg  Mg1  1  0.352503  0.352503  0.352503  1
  Pa  Pa2  1  0.833410  0.833410  0.833410  1
  Pa  Pa3  1  0.166590  0.166590  0.166590  1
  Ta  Ta4  1  0.543937  0.543937  0.543937  1
  Ta  Ta5  1  0.456063  0.456063  0.456063  1
  Zn  Zn6  1  0.000000  0.000000  0.000000  1
  Zn  Zn7  1  0.905864  0.408895  0.905864  1
  Zn  Zn8  1  0.905864  0.905864  0.408895  1
  Zn  Zn9  1  0.408895  0.905864  0.905864  1
  Zn  Zn10  1  0.094136  0.591105  0.094136  1
  Zn  Zn11  1  0.094136  0.094136  0.591105  1
  Zn  Zn12  1  0.591105  0.094136  0.094136  1
