# generated using pymatgen
data_Er9Tm(OsPt2)2
_symmetry_space_group_name_H-M   'P 1'
_cell_length_a   10.97463700
_cell_length_b   10.97463700
_cell_length_c   6.26240900
_cell_angle_alpha   90.00000000
_cell_angle_beta   90.00000000
_cell_angle_gamma   90.00000000
_symmetry_Int_Tables_number   1
_chemical_formula_structural   Er9Tm(OsPt2)2
_chemical_formula_sum   'Er18 Tm2 Os4 Pt8'
_cell_volume   754.26118095
_cell_formula_units_Z   2
loop_
 _symmetry_equiv_pos_site_id
 _symmetry_equiv_pos_as_xyz
  1  'x, y, z'
loop_
 _atom_site_type_symbol
 _atom_site_label
 _atom_site_symmetry_multiplicity
 _atom_site_fract_x
 _atom_site_fract_y
 _atom_site_fract_z
 _atom_site_occupancy
  Er  Er0  1  0.297287  0.085746  0.371943  1
  Er  Er1  1  0.297287  0.914254  0.871943  1
  Er  Er2  1  0.702713  0.085746  0.871943  1
  Er  Er3  1  0.702713  0.914254  0.371943  1
  Er  Er4  1  0.585647  0.797029  0.872105  1
  Er  Er5  1  0.585647  0.202971  0.372105  1
  Er  Er6  1  0.414353  0.797029  0.372105  1
  Er  Er7  1  0.414353  0.202971  0.872105  1
  Er  Er8  1  0.202971  0.414353  0.627895  1
  Er  Er9  1  0.202971  0.585647  0.127895  1
  Er  Er10  1  0.797029  0.414353  0.127895  1
  Er  Er11  1  0.797029  0.585647  0.627895  1
  Er  Er12  1  0.914254  0.702713  0.128057  1
  Er  Er13  1  0.914254  0.297287  0.628057  1
  Er  Er14  1  0.085746  0.702713  0.628057  1
  Er  Er15  1  0.085746  0.297287  0.128057  1
  Er  Er16  1  0.000000  0.000000  0.500000  1
  Er  Er17  1  0.000000  0.000000  0.000000  1
  Tm  Tm18  1  0.500000  0.500000  0.000000  1
  Tm  Tm19  1  0.500000  0.500000  0.500000  1
  Os  Os20  1  0.500000  0.000000  0.122933  1
  Os  Os21  1  0.500000  0.000000  0.622933  1
  Os  Os22  1  0.000000  0.500000  0.877067  1
  Os  Os23  1  0.000000  0.500000  0.377067  1
  Pt  Pt24  1  0.846982  0.153018  0.250000  1
  Pt  Pt25  1  0.846982  0.846982  0.750000  1
  Pt  Pt26  1  0.153018  0.153018  0.750000  1
  Pt  Pt27  1  0.153018  0.846982  0.250000  1
  Pt  Pt28  1  0.652155  0.347845  0.750000  1
  Pt  Pt29  1  0.652155  0.652155  0.250000  1
  Pt  Pt30  1  0.347845  0.347845  0.250000  1
  Pt  Pt31  1  0.347845  0.652155  0.750000  1
