# generated using pymatgen
data_La(Eu4Pt3)2
_symmetry_space_group_name_H-M   'P 1'
_cell_length_a   7.86743150
_cell_length_b   7.86743148
_cell_length_c   7.86743127
_cell_angle_alpha   70.36725409
_cell_angle_beta   70.36725641
_cell_angle_gamma   70.36725611
_symmetry_Int_Tables_number   1
_chemical_formula_structural   La(Eu4Pt3)2
_chemical_formula_sum   'La1 Eu8 Pt6'
_cell_volume   418.10859509
_cell_formula_units_Z   1
loop_
 _symmetry_equiv_pos_site_id
 _symmetry_equiv_pos_as_xyz
  1  'x, y, z'
loop_
 _atom_site_type_symbol
 _atom_site_label
 _atom_site_symmetry_multiplicity
 _atom_site_fract_x
 _atom_site_fract_y
 _atom_site_fract_z
 _atom_site_occupancy
  La  La0  1  0.802533  0.802533  0.802533  1
  Eu  Eu1  1  0.002483  0.002483  0.002483  1
  Eu  Eu2  1  0.199589  0.199589  0.199589  1
  Eu  Eu3  1  0.331936  0.602472  0.846909  1
  Eu  Eu4  1  0.846909  0.331936  0.602472  1
  Eu  Eu5  1  0.602472  0.846909  0.331936  1
  Eu  Eu6  1  0.667497  0.393891  0.155712  1
  Eu  Eu7  1  0.155712  0.667497  0.393891  1
  Eu  Eu8  1  0.393891  0.155712  0.667497  1
  Pt  Pt9  1  0.157630  0.953032  0.594020  1
  Pt  Pt10  1  0.594020  0.157630  0.953032  1
  Pt  Pt11  1  0.953032  0.594020  0.157630  1
  Pt  Pt12  1  0.834988  0.041067  0.416242  1
  Pt  Pt13  1  0.416242  0.834988  0.041067  1
  Pt  Pt14  1  0.041067  0.416242  0.834988  1
