# generated using pymatgen
data_PrNd2Pt9
_symmetry_space_group_name_H-M   'P 1'
_cell_length_a   9.49959940
_cell_length_b   9.49959952
_cell_length_c   9.49959821
_cell_angle_alpha   33.52583020
_cell_angle_beta   33.52583110
_cell_angle_gamma   33.52582756
_symmetry_Int_Tables_number   1
_chemical_formula_structural   PrNd2Pt9
_chemical_formula_sum   'Pr1 Nd2 Pt9'
_cell_volume   232.91989520
_cell_formula_units_Z   1
loop_
 _symmetry_equiv_pos_site_id
 _symmetry_equiv_pos_as_xyz
  1  'x, y, z'
loop_
 _atom_site_type_symbol
 _atom_site_label
 _atom_site_symmetry_multiplicity
 _atom_site_fract_x
 _atom_site_fract_y
 _atom_site_fract_z
 _atom_site_occupancy
  Pr  Pr0  1  0.000000  0.000000  0.000000  1
  Nd  Nd1  1  0.139291  0.139291  0.139291  1
  Nd  Nd2  1  0.860709  0.860709  0.860709  1
  Pt  Pt3  1  0.586341  0.586341  0.080758  1
  Pt  Pt4  1  0.332894  0.332894  0.332894  1
  Pt  Pt5  1  0.919242  0.413658  0.413660  1
  Pt  Pt6  1  0.413658  0.919242  0.413660  1
  Pt  Pt7  1  0.500000  0.500000  0.500000  1
  Pt  Pt8  1  0.586342  0.080758  0.586340  1
  Pt  Pt9  1  0.080758  0.586342  0.586340  1
  Pt  Pt10  1  0.667106  0.667106  0.667106  1
  Pt  Pt11  1  0.413659  0.413659  0.919242  1
