# generated using pymatgen
data_LiHf7(Co4As3)4
_symmetry_space_group_name_H-M   'P 1'
_cell_length_a   12.47315131
_cell_length_b   12.47315020
_cell_length_c   3.74354500
_cell_angle_alpha   90.00000000
_cell_angle_beta   90.00000000
_cell_angle_gamma   120.06218383
_symmetry_Int_Tables_number   1
_chemical_formula_structural   LiHf7(Co4As3)4
_chemical_formula_sum   'Li1 Hf7 Co16 As12'
_cell_volume   504.07314440
_cell_formula_units_Z   1
loop_
 _symmetry_equiv_pos_site_id
 _symmetry_equiv_pos_as_xyz
  1  'x, y, z'
loop_
 _atom_site_type_symbol
 _atom_site_label
 _atom_site_symmetry_multiplicity
 _atom_site_fract_x
 _atom_site_fract_y
 _atom_site_fract_z
 _atom_site_occupancy
  Li  Li0  1  0.441502  0.441502  0.000000  1
  Hf  Hf1  1  0.814355  0.814355  0.500000  1
  Hf  Hf2  1  0.997841  0.172202  0.500000  1
  Hf  Hf3  1  0.555569  0.999629  0.000000  1
  Hf  Hf4  1  0.331831  0.663285  0.000000  1
  Hf  Hf5  1  0.663285  0.331831  0.000000  1
  Hf  Hf6  1  0.999629  0.555569  0.000000  1
  Hf  Hf7  1  0.172202  0.997841  0.500000  1
  Co  Co8  1  0.629436  0.822201  0.000000  1
  Co  Co9  1  0.377829  0.201611  0.000000  1
  Co  Co10  1  0.001335  0.718711  0.500000  1
  Co  Co11  1  0.283277  0.283277  0.500000  1
  Co  Co12  1  0.876326  0.355286  0.500000  1
  Co  Co13  1  0.718711  0.001335  0.500000  1
  Co  Co14  1  0.822201  0.629436  0.000000  1
  Co  Co15  1  0.176311  0.804840  0.000000  1
  Co  Co16  1  0.355286  0.876326  0.500000  1
  Co  Co17  1  0.127094  0.478318  0.500000  1
  Co  Co18  1  0.648402  0.521719  0.500000  1
  Co  Co19  1  0.003009  0.003009  0.000000  1
  Co  Co20  1  0.521719  0.648402  0.500000  1
  Co  Co21  1  0.478318  0.127094  0.500000  1
  Co  Co22  1  0.201611  0.377829  0.000000  1
  Co  Co23  1  0.804840  0.176311  0.000000  1
  As  As24  1  0.003774  0.345281  0.000000  1
  As  As25  1  0.825685  0.513786  0.500000  1
  As  As26  1  0.687412  0.175660  0.500000  1
  As  As27  1  0.179204  0.179204  0.000000  1
  As  As28  1  0.638217  0.638217  0.000000  1
  As  As29  1  0.824953  0.997395  0.000000  1
  As  As30  1  0.513786  0.825685  0.500000  1
  As  As31  1  0.175660  0.687412  0.500000  1
  As  As32  1  0.345281  0.003774  0.000000  1
  As  As33  1  0.485983  0.320727  0.500000  1
  As  As34  1  0.997395  0.824953  0.000000  1
  As  As35  1  0.320727  0.485983  0.500000  1
