# generated using pymatgen
data_LaPr9Al4(Os2Ru)2
_symmetry_space_group_name_H-M   'P 1'
_cell_length_a   8.69200396
_cell_length_b   8.62011424
_cell_length_c   8.61878417
_cell_angle_alpha   109.09431231
_cell_angle_beta   109.96746021
_cell_angle_gamma   109.28070338
_symmetry_Int_Tables_number   1
_chemical_formula_structural   LaPr9Al4(Os2Ru)2
_chemical_formula_sum   'La1 Pr9 Al4 Os4 Ru2'
_cell_volume   497.52737453
_cell_formula_units_Z   1
loop_
 _symmetry_equiv_pos_site_id
 _symmetry_equiv_pos_as_xyz
  1  'x, y, z'
loop_
 _atom_site_type_symbol
 _atom_site_label
 _atom_site_symmetry_multiplicity
 _atom_site_fract_x
 _atom_site_fract_y
 _atom_site_fract_z
 _atom_site_occupancy
  La  La0  1  0.249657  0.685498  0.440177  1
  Pr  Pr1  1  0.750510  0.818543  0.065772  1
  Pr  Pr2  1  0.433720  0.250449  0.682771  1
  Pr  Pr3  1  0.680742  0.433137  0.250470  1
  Pr  Pr4  1  0.066395  0.751278  0.820667  1
  Pr  Pr5  1  0.819589  0.068189  0.749638  1
  Pr  Pr6  1  0.213180  0.212964  0.215525  1
  Pr  Pr7  1  0.501548  0.999664  0.287470  1
  Pr  Pr8  1  0.287186  0.501127  0.000102  1
  Pr  Pr9  1  0.997146  0.285352  0.497697  1
  Al  Al10  1  0.591193  0.589357  0.589510  1
  Al  Al11  1  0.500387  0.003301  0.912671  1
  Al  Al12  1  0.909901  0.498427  0.000515  1
  Al  Al13  1  0.001551  0.911912  0.500623  1
  Os  Os14  1  0.249947  0.117375  0.867178  1
  Os  Os15  1  0.749786  0.381970  0.632481  1
  Os  Os16  1  0.862448  0.245512  0.113969  1
  Os  Os17  1  0.118792  0.861568  0.251912  1
  Ru  Ru18  1  0.637221  0.750870  0.382380  1
  Ru  Ru19  1  0.379097  0.633506  0.738473  1
