# generated using pymatgen
data_Er6InNiRu
_symmetry_space_group_name_H-M   'P 1'
_cell_length_a   8.36468498
_cell_length_b   8.36468592
_cell_length_c   8.36468535
_cell_angle_alpha   113.22839204
_cell_angle_beta   110.18679405
_cell_angle_gamma   105.10096517
_symmetry_Int_Tables_number   1
_chemical_formula_structural   Er6InNiRu
_chemical_formula_sum   'Er12 In2 Ni2 Ru2'
_cell_volume   448.24372741
_cell_formula_units_Z   2
loop_
 _symmetry_equiv_pos_site_id
 _symmetry_equiv_pos_as_xyz
  1  'x, y, z'
loop_
 _atom_site_type_symbol
 _atom_site_label
 _atom_site_symmetry_multiplicity
 _atom_site_fract_x
 _atom_site_fract_y
 _atom_site_fract_z
 _atom_site_occupancy
  Er  Er0  1  0.440448  0.240273  0.200176  1
  Er  Er1  1  0.559552  0.759727  0.799824  1
  Er  Er2  1  0.040097  0.240273  0.799824  1
  Er  Er3  1  0.959903  0.759727  0.200176  1
  Er  Er4  1  0.184115  0.283402  0.467517  1
  Er  Er5  1  0.815885  0.716598  0.532483  1
  Er  Er6  1  0.184115  0.716598  0.900713  1
  Er  Er7  1  0.815885  0.283402  0.099287  1
  Er  Er8  1  0.327405  0.639800  0.312396  1
  Er  Er9  1  0.672595  0.360200  0.687604  1
  Er  Er10  1  0.327405  0.015008  0.687604  1
  Er  Er11  1  0.672595  0.984992  0.312396  1
  In  In12  1  0.500000  0.500000  0.000000  1
  In  In13  1  0.000000  0.000000  0.000000  1
  Ni  Ni14  1  0.117874  0.617874  0.500000  1
  Ni  Ni15  1  0.882126  0.382126  0.500000  1
  Ru  Ru16  1  0.331965  0.000000  0.331965  1
  Ru  Ru17  1  0.668035  0.000000  0.668035  1
