# generated using pymatgen
data_YLu3Fe4(WO6)4
_symmetry_space_group_name_H-M   'P 1'
_cell_length_a   5.17064437
_cell_length_b   7.39423502
_cell_length_c   11.08732131
_cell_angle_alpha   90.11134613
_cell_angle_beta   90.07101013
_cell_angle_gamma   89.95710274
_symmetry_Int_Tables_number   1
_chemical_formula_structural   YLu3Fe4(WO6)4
_chemical_formula_sum   'Y1 Lu3 Fe4 W4 O24'
_cell_volume   423.89986438
_cell_formula_units_Z   1
loop_
 _symmetry_equiv_pos_site_id
 _symmetry_equiv_pos_as_xyz
  1  'x, y, z'
loop_
 _atom_site_type_symbol
 _atom_site_label
 _atom_site_symmetry_multiplicity
 _atom_site_fract_x
 _atom_site_fract_y
 _atom_site_fract_z
 _atom_site_occupancy
  Y  Y0  1  0.457164  0.750914  0.955616  1
  Lu  Lu1  1  0.546819  0.250810  0.045080  1
  Lu  Lu2  1  0.045460  0.750932  0.455186  1
  Lu  Lu3  1  0.954218  0.250956  0.544681  1
  Fe  Fe4  1  0.042603  0.996980  0.140455  1
  Fe  Fe5  1  0.543037  0.495367  0.360762  1
  Fe  Fe6  1  0.457764  0.995717  0.638646  1
  Fe  Fe7  1  0.958377  0.493675  0.860179  1
  W  W8  1  0.052372  0.506149  0.143064  1
  W  W9  1  0.552059  0.007122  0.358194  1
  W  W10  1  0.447791  0.506854  0.640952  1
  W  W11  1  0.948904  0.009097  0.857418  1
  O  O12  1  0.754471  0.963755  0.021337  1
  O  O13  1  0.763158  0.544203  0.028607  1
  O  O14  1  0.177157  0.749012  0.117167  1
  O  O15  1  0.925823  0.258123  0.144358  1
  O  O16  1  0.380303  0.430099  0.204884  1
  O  O17  1  0.395610  0.070556  0.211859  1
  O  O18  1  0.894236  0.569992  0.288967  1
  O  O19  1  0.878325  0.930117  0.295373  1
  O  O20  1  0.425699  0.758714  0.357345  1
  O  O21  1  0.683991  0.248950  0.385965  1
  O  O22  1  0.260204  0.048517  0.471876  1
  O  O23  1  0.250476  0.458798  0.478728  1
  O  O24  1  0.749542  0.959021  0.520678  1
  O  O25  1  0.739759  0.548360  0.527708  1
  O  O26  1  0.315545  0.749131  0.614182  1
  O  O27  1  0.574343  0.258669  0.641979  1
  O  O28  1  0.121849  0.430033  0.704696  1
  O  O29  1  0.106404  0.071700  0.711653  1
  O  O30  1  0.607732  0.568880  0.786311  1
  O  O31  1  0.622854  0.933794  0.793032  1
  O  O32  1  0.065093  0.758805  0.856348  1
  O  O33  1  0.814057  0.249874  0.885309  1
  O  O34  1  0.239370  0.050641  0.971692  1
  O  O35  1  0.247430  0.456083  0.979715  1
