# generated using pymatgen
data_CaTm3Lu4(B6Ru)4
_symmetry_space_group_name_H-M   'P 1'
_cell_length_a   3.60615700
_cell_length_b   9.05462412
_cell_length_c   11.43920767
_cell_angle_alpha   89.92162745
_cell_angle_beta   90.00000000
_cell_angle_gamma   90.00000000
_symmetry_Int_Tables_number   1
_chemical_formula_structural   CaTm3Lu4(B6Ru)4
_chemical_formula_sum   'Ca1 Tm3 Lu4 B24 Ru4'
_cell_volume   373.51719116
_cell_formula_units_Z   1
loop_
 _symmetry_equiv_pos_site_id
 _symmetry_equiv_pos_as_xyz
  1  'x, y, z'
loop_
 _atom_site_type_symbol
 _atom_site_label
 _atom_site_symmetry_multiplicity
 _atom_site_fract_x
 _atom_site_fract_y
 _atom_site_fract_z
 _atom_site_occupancy
  Ca  Ca0  1  0.000000  0.322003  0.413935  1
  Tm  Tm1  1  0.000000  0.676888  0.584995  1
  Tm  Tm2  1  0.000000  0.821812  0.086304  1
  Tm  Tm3  1  0.000000  0.178811  0.914683  1
  Lu  Lu4  1  0.000000  0.943844  0.371587  1
  Lu  Lu5  1  0.000000  0.057437  0.627923  1
  Lu  Lu6  1  0.000000  0.443240  0.128838  1
  Lu  Lu7  1  0.000000  0.556141  0.872318  1
  B  B8  1  0.500000  0.554827  0.432992  1
  B  B9  1  0.500000  0.446437  0.567715  1
  B  B10  1  0.500000  0.053282  0.066123  1
  B  B11  1  0.500000  0.945914  0.933094  1
  B  B12  1  0.500000  0.749532  0.419585  1
  B  B13  1  0.500000  0.250759  0.581583  1
  B  B14  1  0.500000  0.248947  0.080034  1
  B  B15  1  0.500000  0.750610  0.919832  1
  B  B16  1  0.500000  0.792400  0.265382  1
  B  B17  1  0.500000  0.208517  0.735025  1
  B  B18  1  0.500000  0.290748  0.233405  1
  B  B19  1  0.500000  0.708389  0.765726  1
  B  B20  1  0.500000  0.631414  0.184593  1
  B  B21  1  0.500000  0.369239  0.816113  1
  B  B22  1  0.500000  0.129943  0.314467  1
  B  B23  1  0.500000  0.869071  0.684366  1
  B  B24  1  0.500000  0.982010  0.212150  1
  B  B25  1  0.500000  0.017703  0.787115  1
  B  B26  1  0.500000  0.483337  0.286836  1
  B  B27  1  0.500000  0.517868  0.713152  1
  B  B28  1  0.500000  0.605274  0.028978  1
  B  B29  1  0.500000  0.394984  0.971281  1
  B  B30  1  0.500000  0.101522  0.471998  1
  B  B31  1  0.500000  0.896206  0.528604  1
  Ru  Ru32  1  0.000000  0.640553  0.319587  1
  Ru  Ru33  1  0.000000  0.361723  0.681468  1
  Ru  Ru34  1  0.000000  0.136676  0.177603  1
  Ru  Ru35  1  0.000000  0.861942  0.820608  1
