# generated using pymatgen
data_Sc3CoSn3PtRh
_symmetry_space_group_name_H-M   'P 1'
_cell_length_a   7.52161000
_cell_length_b   7.52161107
_cell_length_c   6.87525700
_cell_angle_alpha   90.00000000
_cell_angle_beta   90.00000000
_cell_angle_gamma   120.00000407
_symmetry_Int_Tables_number   1
_chemical_formula_structural   Sc3CoSn3PtRh
_chemical_formula_sum   'Sc6 Co2 Sn6 Pt2 Rh2'
_cell_volume   336.85363273
_cell_formula_units_Z   2
loop_
 _symmetry_equiv_pos_site_id
 _symmetry_equiv_pos_as_xyz
  1  'x, y, z'
loop_
 _atom_site_type_symbol
 _atom_site_label
 _atom_site_symmetry_multiplicity
 _atom_site_fract_x
 _atom_site_fract_y
 _atom_site_fract_z
 _atom_site_occupancy
  Sc  Sc0  1  0.398224  0.004220  0.250097  1
  Sc  Sc1  1  0.605996  0.601776  0.250097  1
  Sc  Sc2  1  0.995780  0.394004  0.250097  1
  Sc  Sc3  1  0.394004  0.995780  0.750097  1
  Sc  Sc4  1  0.601776  0.605996  0.750097  1
  Sc  Sc5  1  0.004220  0.398224  0.750097  1
  Co  Co6  1  0.000000  0.000000  0.749713  1
  Co  Co7  1  0.000000  0.000000  0.249713  1
  Sn  Sn8  1  0.266603  0.261900  0.999823  1
  Sn  Sn9  1  0.995297  0.733397  0.999823  1
  Sn  Sn10  1  0.004703  0.738100  0.499823  1
  Sn  Sn11  1  0.733397  0.995297  0.499823  1
  Sn  Sn12  1  0.261900  0.266603  0.499823  1
  Sn  Sn13  1  0.738100  0.004703  0.999823  1
  Pt  Pt14  1  0.333333  0.666667  0.007371  1
  Pt  Pt15  1  0.666667  0.333333  0.507371  1
  Rh  Rh16  1  0.666667  0.333333  0.993157  1
  Rh  Rh17  1  0.333333  0.666667  0.493157  1
