# generated using pymatgen
data_ZnP6PbO18
_symmetry_space_group_name_H-M   'P 1'
_cell_length_a   6.80001700
_cell_length_b   6.80001684
_cell_length_c   9.91917900
_cell_angle_alpha   90.00000000
_cell_angle_beta   90.00000000
_cell_angle_gamma   120.00000562
_symmetry_Int_Tables_number   1
_chemical_formula_structural   ZnP6PbO18
_chemical_formula_sum   'Zn1 P6 Pb1 O18'
_cell_volume   397.21562307
_cell_formula_units_Z   1
loop_
 _symmetry_equiv_pos_site_id
 _symmetry_equiv_pos_as_xyz
  1  'x, y, z'
loop_
 _atom_site_type_symbol
 _atom_site_label
 _atom_site_symmetry_multiplicity
 _atom_site_fract_x
 _atom_site_fract_y
 _atom_site_fract_z
 _atom_site_occupancy
  Zn  Zn0  1  0.000000  0.000000  0.000000  1
  P  P1  1  0.724876  0.114246  0.753627  1
  P  P2  1  0.885754  0.275124  0.246373  1
  P  P3  1  0.724876  0.610630  0.246373  1
  P  P4  1  0.885754  0.610630  0.753627  1
  P  P5  1  0.389370  0.275124  0.753627  1
  P  P6  1  0.389370  0.114246  0.246373  1
  Pb  Pb7  1  0.000000  0.000000  0.500000  1
  O  O8  1  0.901796  0.518181  0.248392  1
  O  O9  1  0.901796  0.383616  0.751608  1
  O  O10  1  0.481819  0.098204  0.751608  1
  O  O11  1  0.616384  0.098204  0.248392  1
  O  O12  1  0.737101  0.016186  0.616784  1
  O  O13  1  0.752517  0.007875  0.876679  1
  O  O14  1  0.481819  0.383616  0.248392  1
  O  O15  1  0.737101  0.720916  0.383216  1
  O  O16  1  0.752517  0.744643  0.123321  1
  O  O17  1  0.616384  0.518181  0.751608  1
  O  O18  1  0.983814  0.262899  0.383216  1
  O  O19  1  0.992125  0.247483  0.123321  1
  O  O20  1  0.255357  0.247483  0.876679  1
  O  O21  1  0.279084  0.262899  0.616784  1
  O  O22  1  0.992125  0.744643  0.876679  1
  O  O23  1  0.983814  0.720916  0.616784  1
  O  O24  1  0.255357  0.007875  0.123321  1
  O  O25  1  0.279084  0.016186  0.383216  1
