# generated using pymatgen
data_K8TiBi4
_symmetry_space_group_name_H-M   'P 1'
_cell_length_a   11.77042966
_cell_length_b   11.77042917
_cell_length_c   11.77042900
_cell_angle_alpha   59.99999767
_cell_angle_beta   59.99999904
_cell_angle_gamma   59.99999961
_symmetry_Int_Tables_number   1
_chemical_formula_structural   K8TiBi4
_chemical_formula_sum   'K16 Ti2 Bi8'
_cell_volume   1153.08652417
_cell_formula_units_Z   2
loop_
 _symmetry_equiv_pos_site_id
 _symmetry_equiv_pos_as_xyz
  1  'x, y, z'
loop_
 _atom_site_type_symbol
 _atom_site_label
 _atom_site_symmetry_multiplicity
 _atom_site_fract_x
 _atom_site_fract_y
 _atom_site_fract_z
 _atom_site_occupancy
  K  K0  1  0.625000  0.125000  0.625000  1
  K  K1  1  0.625000  0.625000  0.125000  1
  K  K2  1  0.125000  0.625000  0.625000  1
  K  K3  1  0.625000  0.625000  0.625000  1
  K  K4  1  0.025076  0.025076  0.474924  1
  K  K5  1  0.775076  0.224924  0.224924  1
  K  K6  1  0.224924  0.775076  0.775076  1
  K  K7  1  0.775076  0.775076  0.224924  1
  K  K8  1  0.775076  0.224924  0.775076  1
  K  K9  1  0.224924  0.775076  0.224924  1
  K  K10  1  0.474924  0.025076  0.474924  1
  K  K11  1  0.474924  0.025076  0.025076  1
  K  K12  1  0.025076  0.474924  0.474924  1
  K  K13  1  0.025076  0.474924  0.025076  1
  K  K14  1  0.224924  0.224924  0.775076  1
  K  K15  1  0.474924  0.474924  0.025076  1
  Ti  Ti16  1  0.750000  0.750000  0.750000  1
  Ti  Ti17  1  0.500000  0.500000  0.500000  1
  Bi  Bi18  1  0.400819  0.797544  0.400819  1
  Bi  Bi19  1  0.849181  0.849181  0.452456  1
  Bi  Bi20  1  0.452456  0.849181  0.849181  1
  Bi  Bi21  1  0.849181  0.849181  0.849181  1
  Bi  Bi22  1  0.797544  0.400819  0.400819  1
  Bi  Bi23  1  0.400819  0.400819  0.400819  1
  Bi  Bi24  1  0.400819  0.400819  0.797544  1
  Bi  Bi25  1  0.849181  0.452456  0.849181  1
