# generated using pymatgen
data_K8Ti6MnCl20
_symmetry_space_group_name_H-M   'P 1'
_cell_length_a   11.01420086
_cell_length_b   11.01419957
_cell_length_c   11.01420000
_cell_angle_alpha   59.99999871
_cell_angle_beta   60.00000259
_cell_angle_gamma   59.99999785
_symmetry_Int_Tables_number   1
_chemical_formula_structural   K8Ti6MnCl20
_chemical_formula_sum   'K8 Ti6 Mn1 Cl20'
_cell_volume   944.80871698
_cell_formula_units_Z   1
loop_
 _symmetry_equiv_pos_site_id
 _symmetry_equiv_pos_as_xyz
  1  'x, y, z'
loop_
 _atom_site_type_symbol
 _atom_site_label
 _atom_site_symmetry_multiplicity
 _atom_site_fract_x
 _atom_site_fract_y
 _atom_site_fract_z
 _atom_site_occupancy
  K  K0  1  0.360145  0.360145  0.360145  1
  K  K1  1  0.639855  0.639855  0.639855  1
  K  K2  1  0.360145  0.360145  0.919563  1
  K  K3  1  0.360145  0.919563  0.360145  1
  K  K4  1  0.639855  0.639855  0.080437  1
  K  K5  1  0.639855  0.080437  0.639855  1
  K  K6  1  0.919563  0.360145  0.360145  1
  K  K7  1  0.080437  0.639855  0.639855  1
  Ti  Ti8  1  0.853709  0.146291  0.146291  1
  Ti  Ti9  1  0.146291  0.853709  0.853709  1
  Ti  Ti10  1  0.146291  0.853709  0.146291  1
  Ti  Ti11  1  0.853709  0.146291  0.853709  1
  Ti  Ti12  1  0.146291  0.146291  0.853709  1
  Ti  Ti13  1  0.853709  0.853709  0.146291  1
  Mn  Mn14  1  0.000000  0.000000  0.000000  1
  Cl  Cl15  1  0.318733  0.000000  0.000000  1
  Cl  Cl16  1  0.681267  0.000000  0.000000  1
  Cl  Cl17  1  0.000000  0.318733  0.681267  1
  Cl  Cl18  1  0.000000  0.681267  0.318733  1
  Cl  Cl19  1  0.000000  0.318733  0.000000  1
  Cl  Cl20  1  0.681267  0.000000  0.318733  1
  Cl  Cl21  1  0.000000  0.681267  0.000000  1
  Cl  Cl22  1  0.318733  0.000000  0.681267  1
  Cl  Cl23  1  0.000000  0.000000  0.318733  1
  Cl  Cl24  1  0.000000  0.000000  0.681267  1
  Cl  Cl25  1  0.681267  0.318733  0.000000  1
  Cl  Cl26  1  0.318733  0.681267  0.000000  1
  Cl  Cl27  1  0.686697  0.313303  0.313303  1
  Cl  Cl28  1  0.313303  0.686697  0.686697  1
  Cl  Cl29  1  0.313303  0.686697  0.313303  1
  Cl  Cl30  1  0.686697  0.313303  0.686697  1
  Cl  Cl31  1  0.313303  0.313303  0.686697  1
  Cl  Cl32  1  0.686697  0.686697  0.313303  1
  Cl  Cl33  1  0.250000  0.250000  0.250000  1
  Cl  Cl34  1  0.750000  0.750000  0.750000  1
