# generated using pymatgen
data_YbPr(YSe2)4
_symmetry_space_group_name_H-M   'P 1'
_cell_length_a   4.06113500
_cell_length_b   13.54850900
_cell_length_c   13.82163000
_cell_angle_alpha   90.00000000
_cell_angle_beta   90.00000000
_cell_angle_gamma   90.00000000
_symmetry_Int_Tables_number   1
_chemical_formula_structural   YbPr(YSe2)4
_chemical_formula_sum   'Yb2 Pr2 Y8 Se16'
_cell_volume   760.49820542
_cell_formula_units_Z   2
loop_
 _symmetry_equiv_pos_site_id
 _symmetry_equiv_pos_as_xyz
  1  'x, y, z'
loop_
 _atom_site_type_symbol
 _atom_site_label
 _atom_site_symmetry_multiplicity
 _atom_site_fract_x
 _atom_site_fract_y
 _atom_site_fract_z
 _atom_site_occupancy
  Yb  Yb0  1  0.750000  0.631563  0.410820  1
  Yb  Yb1  1  0.750000  0.131563  0.089180  1
  Pr  Pr2  1  0.250000  0.370794  0.587319  1
  Pr  Pr3  1  0.250000  0.870794  0.912681  1
  Y  Y4  1  0.250000  0.107358  0.420605  1
  Y  Y5  1  0.250000  0.607358  0.079395  1
  Y  Y6  1  0.750000  0.891704  0.574802  1
  Y  Y7  1  0.750000  0.391704  0.925198  1
  Y  Y8  1  0.250000  0.148229  0.799818  1
  Y  Y9  1  0.250000  0.648229  0.700182  1
  Y  Y10  1  0.750000  0.850145  0.200338  1
  Y  Y11  1  0.750000  0.350145  0.299662  1
  Se  Se12  1  0.250000  0.212835  0.238120  1
  Se  Se13  1  0.250000  0.712835  0.261880  1
  Se  Se14  1  0.750000  0.787804  0.762191  1
  Se  Se15  1  0.750000  0.287804  0.737809  1
  Se  Se16  1  0.250000  0.253485  0.979810  1
  Se  Se17  1  0.250000  0.753485  0.520190  1
  Se  Se18  1  0.750000  0.743714  0.020408  1
  Se  Se19  1  0.750000  0.243714  0.479592  1
  Se  Se20  1  0.250000  0.470339  0.387463  1
  Se  Se21  1  0.250000  0.970339  0.112537  1
  Se  Se22  1  0.750000  0.533181  0.612486  1
  Se  Se23  1  0.750000  0.033181  0.887514  1
  Se  Se24  1  0.250000  0.033278  0.620844  1
  Se  Se25  1  0.250000  0.533278  0.879156  1
  Se  Se26  1  0.750000  0.965571  0.377307  1
  Se  Se27  1  0.750000  0.465571  0.122693  1
