# generated using pymatgen
data_Y9Er11Ir11Ru
_symmetry_space_group_name_H-M   'P 1'
_cell_length_a   10.83696642
_cell_length_b   10.83588308
_cell_length_c   6.37778420
_cell_angle_alpha   90.00043064
_cell_angle_beta   90.02892219
_cell_angle_gamma   90.01390563
_symmetry_Int_Tables_number   1
_chemical_formula_structural   Y9Er11Ir11Ru
_chemical_formula_sum   'Y9 Er11 Ir11 Ru1'
_cell_volume   748.93097084
_cell_formula_units_Z   1
loop_
 _symmetry_equiv_pos_site_id
 _symmetry_equiv_pos_as_xyz
  1  'x, y, z'
loop_
 _atom_site_type_symbol
 _atom_site_label
 _atom_site_symmetry_multiplicity
 _atom_site_fract_x
 _atom_site_fract_y
 _atom_site_fract_z
 _atom_site_occupancy
  Y  Y0  1  0.291191  0.087318  0.375919  1
  Y  Y1  1  0.291594  0.912434  0.878931  1
  Y  Y2  1  0.708435  0.087500  0.878865  1
  Y  Y3  1  0.708830  0.912584  0.376064  1
  Y  Y4  1  0.587569  0.791585  0.878927  1
  Y  Y5  1  0.587384  0.208818  0.376125  1
  Y  Y6  1  0.412612  0.791141  0.375887  1
  Y  Y7  1  0.412831  0.208012  0.879004  1
  Y  Y8  1  0.209179  0.412308  0.622559  1
  Er  Er9  1  0.208104  0.587499  0.121089  1
  Er  Er10  1  0.791658  0.412610  0.121261  1
  Er  Er11  1  0.791783  0.587482  0.621547  1
  Er  Er12  1  0.912714  0.708396  0.121221  1
  Er  Er13  1  0.912185  0.291758  0.621577  1
  Er  Er14  1  0.087342  0.708515  0.621646  1
  Er  Er15  1  0.086949  0.291687  0.121116  1
  Er  Er16  1  0.999937  0.999979  0.499895  1
  Er  Er17  1  0.999910  0.999894  0.000053  1
  Er  Er18  1  0.500080  0.500083  0.999834  1
  Er  Er19  1  0.500487  0.500213  0.499741  1
  Ir  Ir20  1  0.849562  0.154574  0.250746  1
  Ir  Ir21  1  0.849488  0.845898  0.750503  1
  Ir  Ir22  1  0.150324  0.152940  0.751197  1
  Ir  Ir23  1  0.150411  0.845401  0.250762  1
  Ir  Ir24  1  0.654138  0.349492  0.750484  1
  Ir  Ir25  1  0.654662  0.650443  0.250760  1
  Ir  Ir26  1  0.346099  0.349273  0.248589  1
  Ir  Ir27  1  0.346410  0.651362  0.751012  1
  Ir  Ir28  1  0.500036  0.999926  0.623741  1
  Ir  Ir29  1  0.999077  0.500417  0.879021  1
  Ir  Ir30  1  0.998964  0.500450  0.376992  1
  Ru  Ru31  1  0.500053  0.000007  0.124933  1
