# generated using pymatgen
data_Tb10AlIn2Bi3
_symmetry_space_group_name_H-M   'P 1'
_cell_length_a   9.07820326
_cell_length_b   9.07748773
_cell_length_c   6.62694600
_cell_angle_alpha   90.00000000
_cell_angle_beta   90.00000000
_cell_angle_gamma   120.10102442
_symmetry_Int_Tables_number   1
_chemical_formula_structural   Tb10AlIn2Bi3
_chemical_formula_sum   'Tb10 Al1 In2 Bi3'
_cell_volume   472.46172196
_cell_formula_units_Z   1
loop_
 _symmetry_equiv_pos_site_id
 _symmetry_equiv_pos_as_xyz
  1  'x, y, z'
loop_
 _atom_site_type_symbol
 _atom_site_label
 _atom_site_symmetry_multiplicity
 _atom_site_fract_x
 _atom_site_fract_y
 _atom_site_fract_z
 _atom_site_occupancy
  Tb  Tb0  1  0.652574  0.333099  0.999776  1
  Tb  Tb1  1  0.340030  0.662261  0.999692  1
  Tb  Tb2  1  0.340030  0.662261  0.500308  1
  Tb  Tb3  1  0.652574  0.333099  0.500224  1
  Tb  Tb4  1  0.753274  0.754904  0.750000  1
  Tb  Tb5  1  0.243747  0.015873  0.750000  1
  Tb  Tb6  1  0.014141  0.242826  0.750000  1
  Tb  Tb7  1  0.244136  0.236380  0.250000  1
  Tb  Tb8  1  0.755661  0.991329  0.250000  1
  Tb  Tb9  1  0.999153  0.763782  0.250000  1
  Al  Al10  1  0.397950  0.400377  0.750000  1
  In  In11  1  0.604480  0.603740  0.250000  1
  In  In12  1  0.392965  0.994928  0.250000  1
  Bi  Bi13  1  0.610533  0.004290  0.750000  1
  Bi  Bi14  1  0.002973  0.610577  0.750000  1
  Bi  Bi15  1  0.995780  0.390274  0.250000  1
