# generated using pymatgen
data_Sm4Tm6Sn7Au
_symmetry_space_group_name_H-M   'P 1'
_cell_length_a   7.83022700
_cell_length_b   8.29309000
_cell_length_c   15.35050500
_cell_angle_alpha   90.00000000
_cell_angle_beta   90.00000000
_cell_angle_gamma   90.00000000
_symmetry_Int_Tables_number   1
_chemical_formula_structural   Sm4Tm6Sn7Au
_chemical_formula_sum   'Sm8 Tm12 Sn14 Au2'
_cell_volume   996.81232357
_cell_formula_units_Z   2
loop_
 _symmetry_equiv_pos_site_id
 _symmetry_equiv_pos_as_xyz
  1  'x, y, z'
loop_
 _atom_site_type_symbol
 _atom_site_label
 _atom_site_symmetry_multiplicity
 _atom_site_fract_x
 _atom_site_fract_y
 _atom_site_fract_z
 _atom_site_occupancy
  Sm  Sm0  1  0.510572  0.314466  0.904994  1
  Sm  Sm1  1  0.010572  0.185534  0.595006  1
  Sm  Sm2  1  0.488793  0.680237  0.405166  1
  Sm  Sm3  1  0.988793  0.819763  0.094834  1
  Sm  Sm4  1  0.488793  0.680237  0.094834  1
  Sm  Sm5  1  0.988793  0.819763  0.405166  1
  Sm  Sm6  1  0.510572  0.314466  0.595006  1
  Sm  Sm7  1  0.010572  0.185534  0.904994  1
  Tm  Tm8  1  0.348510  0.831025  0.868972  1
  Tm  Tm9  1  0.848510  0.668975  0.631028  1
  Tm  Tm10  1  0.648850  0.165371  0.375453  1
  Tm  Tm11  1  0.148850  0.334629  0.124547  1
  Tm  Tm12  1  0.648850  0.165371  0.124547  1
  Tm  Tm13  1  0.148850  0.334629  0.375453  1
  Tm  Tm14  1  0.348510  0.831025  0.631028  1
  Tm  Tm15  1  0.848510  0.668975  0.868972  1
  Tm  Tm16  1  0.197650  0.501711  0.750000  1
  Tm  Tm17  1  0.697650  0.998289  0.750000  1
  Tm  Tm18  1  0.814924  0.500569  0.250000  1
  Tm  Tm19  1  0.314924  0.999431  0.250000  1
  Sn  Sn20  1  0.310393  0.038944  0.038318  1
  Sn  Sn21  1  0.810393  0.461056  0.461682  1
  Sn  Sn22  1  0.692311  0.961592  0.542302  1
  Sn  Sn23  1  0.192311  0.538408  0.957698  1
  Sn  Sn24  1  0.692311  0.961592  0.957698  1
  Sn  Sn25  1  0.192311  0.538408  0.542302  1
  Sn  Sn26  1  0.310393  0.038944  0.461682  1
  Sn  Sn27  1  0.810393  0.461056  0.038318  1
  Sn  Sn28  1  0.450891  0.378177  0.250000  1
  Sn  Sn29  1  0.950891  0.121823  0.250000  1
  Sn  Sn30  1  0.307395  0.136731  0.750000  1
  Sn  Sn31  1  0.807395  0.363269  0.750000  1
  Sn  Sn32  1  0.679673  0.852935  0.250000  1
  Sn  Sn33  1  0.179673  0.647065  0.250000  1
  Au  Au34  1  0.550610  0.626338  0.750000  1
  Au  Au35  1  0.050610  0.873662  0.750000  1
