# generated using pymatgen
data_Nd3Dy2Nb3(Co4P3)4
_symmetry_space_group_name_H-M   'P 1'
_cell_length_a   12.30142100
_cell_length_b   12.30950677
_cell_length_c   3.74437900
_cell_angle_alpha   90.00000000
_cell_angle_beta   90.00000000
_cell_angle_gamma   119.97827054
_symmetry_Int_Tables_number   1
_chemical_formula_structural   Nd3Dy2Nb3(Co4P3)4
_chemical_formula_sum   'Nd3 Dy2 Nb3 Co16 P12'
_cell_volume   491.13560296
_cell_formula_units_Z   1
loop_
 _symmetry_equiv_pos_site_id
 _symmetry_equiv_pos_as_xyz
  1  'x, y, z'
loop_
 _atom_site_type_symbol
 _atom_site_label
 _atom_site_symmetry_multiplicity
 _atom_site_fract_x
 _atom_site_fract_y
 _atom_site_fract_z
 _atom_site_occupancy
  Nd  Nd0  1  0.816899  0.000000  0.500000  1
  Nd  Nd1  1  0.333351  0.666941  0.000000  1
  Nd  Nd2  1  0.666411  0.333059  0.000000  1
  Dy  Dy3  1  0.000510  0.816018  0.500000  1
  Dy  Dy4  1  0.184491  0.183982  0.500000  1
  Nb  Nb5  1  0.441983  0.000000  0.000000  1
  Nb  Nb6  1  0.000647  0.444439  0.000000  1
  Nb  Nb7  1  0.556208  0.555561  0.000000  1
  Co  Co8  1  0.277552  0.000000  0.500000  1
  Co  Co9  1  0.002141  0.280344  0.500000  1
  Co  Co10  1  0.721797  0.719656  0.500000  1
  Co  Co11  1  0.626263  0.801530  0.000000  1
  Co  Co12  1  0.195367  0.823877  0.000000  1
  Co  Co13  1  0.177073  0.372772  0.000000  1
  Co  Co14  1  0.371490  0.176123  0.000000  1
  Co  Co15  1  0.804301  0.627228  0.000000  1
  Co  Co16  1  0.824733  0.198470  0.000000  1
  Co  Co17  1  0.520604  0.874944  0.500000  1
  Co  Co18  1  0.124399  0.647082  0.500000  1
  Co  Co19  1  0.353307  0.477879  0.500000  1
  Co  Co20  1  0.477316  0.352918  0.500000  1
  Co  Co21  1  0.875428  0.522121  0.500000  1
  Co  Co22  1  0.645659  0.125056  0.500000  1
  Co  Co23  1  0.001689  0.000000  0.000000  1
  P  P24  1  0.178108  0.000000  0.000000  1
  P  P25  1  0.003468  0.180885  0.000000  1
  P  P26  1  0.822584  0.819115  0.000000  1
  P  P27  1  0.524920  0.690074  0.500000  1
  P  P28  1  0.309220  0.834504  0.500000  1
  P  P29  1  0.166161  0.476385  0.500000  1
  P  P30  1  0.474716  0.165496  0.500000  1
  P  P31  1  0.689776  0.523615  0.500000  1
  P  P32  1  0.834847  0.309926  0.500000  1
  P  P33  1  0.639991  0.000000  0.000000  1
  P  P34  1  0.000024  0.643459  0.000000  1
  P  P35  1  0.356566  0.356541  0.000000  1
