# generated using pymatgen
data_Ac2DyMg3Tl2Au
_symmetry_space_group_name_H-M   'P 1'
_cell_length_a   7.90822581
_cell_length_b   7.90822550
_cell_length_c   4.69852100
_cell_angle_alpha   90.00000000
_cell_angle_beta   90.00000000
_cell_angle_gamma   119.38759801
_symmetry_Int_Tables_number   1
_chemical_formula_structural   Ac2DyMg3Tl2Au
_chemical_formula_sum   'Ac2 Dy1 Mg3 Tl2 Au1'
_cell_volume   256.03361385
_cell_formula_units_Z   1
loop_
 _symmetry_equiv_pos_site_id
 _symmetry_equiv_pos_as_xyz
  1  'x, y, z'
loop_
 _atom_site_type_symbol
 _atom_site_label
 _atom_site_symmetry_multiplicity
 _atom_site_fract_x
 _atom_site_fract_y
 _atom_site_fract_z
 _atom_site_occupancy
  Ac  Ac0  1  0.588527  0.997574  0.000000  1
  Ac  Ac1  1  0.997574  0.588527  0.000000  1
  Dy  Dy2  1  0.402463  0.402463  0.000000  1
  Mg  Mg3  1  0.770232  0.770232  0.500000  1
  Mg  Mg4  1  0.230274  0.005150  0.500000  1
  Mg  Mg5  1  0.005150  0.230274  0.500000  1
  Tl  Tl6  1  0.648532  0.339772  0.500000  1
  Tl  Tl7  1  0.339772  0.648532  0.500000  1
  Au  Au8  1  0.017476  0.017476  0.000000  1
