# generated using pymatgen
data_LaHo2As4Pd7
_symmetry_space_group_name_H-M   'P 1'
_cell_length_a   8.13680414
_cell_length_b   8.13680395
_cell_length_c   9.74602965
_cell_angle_alpha   56.01552164
_cell_angle_beta   56.01552267
_cell_angle_gamma   29.44497396
_symmetry_Int_Tables_number   1
_chemical_formula_structural   LaHo2As4Pd7
_chemical_formula_sum   'La1 Ho2 As4 Pd7'
_cell_volume   258.86142805
_cell_formula_units_Z   1
loop_
 _symmetry_equiv_pos_site_id
 _symmetry_equiv_pos_as_xyz
  1  'x, y, z'
loop_
 _atom_site_type_symbol
 _atom_site_label
 _atom_site_symmetry_multiplicity
 _atom_site_fract_x
 _atom_site_fract_y
 _atom_site_fract_z
 _atom_site_occupancy
  La  La0  1  0.000000  0.000000  0.000000  1
  Ho  Ho1  1  0.675613  0.675613  0.331894  1
  Ho  Ho2  1  0.324387  0.324387  0.668106  1
  As  As3  1  0.336033  0.336033  0.258651  1
  As  As4  1  0.663967  0.663967  0.741349  1
  As  As5  1  0.892097  0.892097  0.818351  1
  As  As6  1  0.107903  0.107903  0.181649  1
  Pd  Pd7  1  0.306005  0.306005  0.026555  1
  Pd  Pd8  1  0.693995  0.693995  0.973445  1
  Pd  Pd9  1  0.512053  0.512053  0.703908  1
  Pd  Pd10  1  0.831314  0.831314  0.430942  1
  Pd  Pd11  1  0.487947  0.487947  0.296092  1
  Pd  Pd12  1  0.168686  0.168686  0.569058  1
  Pd  Pd13  1  0.000000  0.000000  0.500000  1
