# generated using pymatgen
data_SmY4Tm(Si3Ru)8
_symmetry_space_group_name_H-M   'P 1'
_cell_length_a   10.12074678
_cell_length_b   10.12052660
_cell_length_c   8.15013250
_cell_angle_alpha   90.05176762
_cell_angle_beta   89.98495198
_cell_angle_gamma   132.52963635
_symmetry_Int_Tables_number   1
_chemical_formula_structural   SmY4Tm(Si3Ru)8
_chemical_formula_sum   'Sm1 Y4 Tm1 Si24 Ru8'
_cell_volume   615.18402098
_cell_formula_units_Z   1
loop_
 _symmetry_equiv_pos_site_id
 _symmetry_equiv_pos_as_xyz
  1  'x, y, z'
loop_
 _atom_site_type_symbol
 _atom_site_label
 _atom_site_symmetry_multiplicity
 _atom_site_fract_x
 _atom_site_fract_y
 _atom_site_fract_z
 _atom_site_occupancy
  Sm  Sm0  1  0.002550  0.502378  0.249671  1
  Y  Y1  1  0.500005  0.500007  0.500076  1
  Y  Y2  1  0.497681  0.997495  0.750342  1
  Y  Y3  1  0.997517  0.497681  0.750353  1
  Y  Y4  1  0.502331  0.002519  0.249650  1
  Tm  Tm5  1  0.000007  0.999997  0.999930  1
  Si  Si6  1  0.294858  0.706419  0.999325  1
  Si  Si7  1  0.794172  0.204673  0.500626  1
  Si  Si8  1  0.705170  0.293633  0.999369  1
  Si  Si9  1  0.205921  0.795393  0.500716  1
  Si  Si10  1  0.832087  0.832161  0.333039  1
  Si  Si11  1  0.167890  0.167873  0.666943  1
  Si  Si12  1  0.667228  0.667277  0.832858  1
  Si  Si13  1  0.332796  0.332714  0.167161  1
  Si  Si14  1  0.620699  0.386571  0.227931  1
  Si  Si15  1  0.613239  0.379002  0.772153  1
  Si  Si16  1  0.111429  0.877807  0.728606  1
  Si  Si17  1  0.122279  0.888724  0.271246  1
  Si  Si18  1  0.378891  0.613169  0.772151  1
  Si  Si19  1  0.387037  0.621280  0.227973  1
  Si  Si20  1  0.888299  0.121751  0.271309  1
  Si  Si21  1  0.877975  0.111526  0.728613  1
  Si  Si22  1  0.844937  0.611775  0.004303  1
  Si  Si23  1  0.388434  0.155180  0.995313  1
  Si  Si24  1  0.887917  0.654713  0.504964  1
  Si  Si25  1  0.345192  0.112015  0.495388  1
  Si  Si26  1  0.154995  0.388275  0.995008  1
  Si  Si27  1  0.611635  0.844889  0.004609  1
  Si  Si28  1  0.112148  0.345229  0.495719  1
  Si  Si29  1  0.654871  0.888054  0.504659  1
  Ru  Ru30  1  0.168660  0.832850  0.999305  1
  Ru  Ru31  1  0.668109  0.330353  0.500518  1
  Ru  Ru32  1  0.831339  0.167185  0.999512  1
  Ru  Ru33  1  0.331894  0.669627  0.500671  1
  Ru  Ru34  1  0.626812  0.626950  0.125669  1
  Ru  Ru35  1  0.372943  0.373082  0.874407  1
  Ru  Ru36  1  0.874679  0.874511  0.628063  1
  Ru  Ru37  1  0.125373  0.125261  0.371850  1
