# generated using pymatgen
data_CaY2Ho(SiPd2)4
_symmetry_space_group_name_H-M   'P 1'
_cell_length_a   5.55940901
_cell_length_b   6.99701500
_cell_length_c   7.34718101
_cell_angle_alpha   90.00000000
_cell_angle_beta   90.00575886
_cell_angle_gamma   90.00000000
_symmetry_Int_Tables_number   1
_chemical_formula_structural   CaY2Ho(SiPd2)4
_chemical_formula_sum   'Ca1 Y2 Ho1 Si4 Pd8'
_cell_volume   285.79996325
_cell_formula_units_Z   1
loop_
 _symmetry_equiv_pos_site_id
 _symmetry_equiv_pos_as_xyz
  1  'x, y, z'
loop_
 _atom_site_type_symbol
 _atom_site_label
 _atom_site_symmetry_multiplicity
 _atom_site_fract_x
 _atom_site_fract_y
 _atom_site_fract_z
 _atom_site_occupancy
  Ca  Ca0  1  0.361322  0.750000  0.027276  1
  Y  Y1  1  0.141915  0.750000  0.527918  1
  Y  Y2  1  0.639688  0.250000  0.971963  1
  Ho  Ho3  1  0.858001  0.250000  0.472981  1
  Si  Si4  1  0.642675  0.750000  0.378075  1
  Si  Si5  1  0.860620  0.750000  0.877713  1
  Si  Si6  1  0.358515  0.250000  0.622575  1
  Si  Si7  1  0.139531  0.250000  0.123009  1
  Pd  Pd8  1  0.903568  0.550907  0.177011  1
  Pd  Pd9  1  0.599750  0.948664  0.675967  1
  Pd  Pd10  1  0.090427  0.053016  0.820518  1
  Pd  Pd11  1  0.405120  0.446278  0.325749  1
  Pd  Pd12  1  0.090427  0.446984  0.820518  1
  Pd  Pd13  1  0.405120  0.053722  0.325749  1
  Pd  Pd14  1  0.903568  0.949093  0.177011  1
  Pd  Pd15  1  0.599750  0.551336  0.675967  1
