# generated using pymatgen
data_CsEuBeF6
_symmetry_space_group_name_H-M   'P 1'
_cell_length_a   6.08343400
_cell_length_b   6.76823744
_cell_length_c   7.54861037
_cell_angle_alpha   66.24414010
_cell_angle_beta   90.00000000
_cell_angle_gamma   90.00000000
_symmetry_Int_Tables_number   1
_chemical_formula_structural   CsEuBeF6
_chemical_formula_sum   'Cs2 Eu2 Be2 F12'
_cell_volume   284.47280725
_cell_formula_units_Z   2
loop_
 _symmetry_equiv_pos_site_id
 _symmetry_equiv_pos_as_xyz
  1  'x, y, z'
loop_
 _atom_site_type_symbol
 _atom_site_label
 _atom_site_symmetry_multiplicity
 _atom_site_fract_x
 _atom_site_fract_y
 _atom_site_fract_z
 _atom_site_occupancy
  Cs  Cs0  1  0.250000  0.088994  0.780123  1
  Cs  Cs1  1  0.750000  0.911006  0.219877  1
  Eu  Eu2  1  0.250000  0.394533  0.182291  1
  Eu  Eu3  1  0.750000  0.605467  0.817709  1
  Be  Be4  1  0.250000  0.767848  0.466843  1
  Be  Be5  1  0.750000  0.232152  0.533157  1
  F  F6  1  0.459194  0.746302  0.595631  1
  F  F7  1  0.540806  0.253698  0.404369  1
  F  F8  1  0.959194  0.253698  0.404369  1
  F  F9  1  0.040806  0.746302  0.595631  1
  F  F10  1  0.250000  0.589595  0.384989  1
  F  F11  1  0.750000  0.410405  0.615011  1
  F  F12  1  0.497809  0.674706  0.023198  1
  F  F13  1  0.502191  0.325294  0.976802  1
  F  F14  1  0.997809  0.325294  0.976802  1
  F  F15  1  0.002191  0.674706  0.023198  1
  F  F16  1  0.250000  0.996578  0.291333  1
  F  F17  1  0.750000  0.003422  0.708667  1
