# generated using pymatgen
data_Mg2Ti(SbPt)3
_symmetry_space_group_name_H-M   'P 1'
_cell_length_a   7.73228456
_cell_length_b   7.73228389
_cell_length_c   7.72448600
_cell_angle_alpha   99.59233436
_cell_angle_beta   99.59233452
_cell_angle_gamma   120.00753707
_symmetry_Int_Tables_number   1
_chemical_formula_structural   Mg2Ti(SbPt)3
_chemical_formula_sum   'Mg4 Ti2 Sb6 Pt6'
_cell_volume   377.05970674
_cell_formula_units_Z   2
loop_
 _symmetry_equiv_pos_site_id
 _symmetry_equiv_pos_as_xyz
  1  'x, y, z'
loop_
 _atom_site_type_symbol
 _atom_site_label
 _atom_site_symmetry_multiplicity
 _atom_site_fract_x
 _atom_site_fract_y
 _atom_site_fract_z
 _atom_site_occupancy
  Mg  Mg0  1  0.330336  0.164041  0.499176  1
  Mg  Mg1  1  0.000136  0.502801  0.499701  1
  Mg  Mg2  1  0.164041  0.330335  0.999175  1
  Mg  Mg3  1  0.502800  0.000136  0.999701  1
  Ti  Ti4  1  0.832881  0.669291  0.001036  1
  Ti  Ti5  1  0.669290  0.832881  0.501035  1
  Sb  Sb6  1  0.917256  0.091636  0.246976  1
  Sb  Sb7  1  0.256137  0.749590  0.248856  1
  Sb  Sb8  1  0.577239  0.409699  0.254655  1
  Sb  Sb9  1  0.091636  0.917256  0.746977  1
  Sb  Sb10  1  0.749589  0.256136  0.748855  1
  Sb  Sb11  1  0.409699  0.577238  0.754655  1
  Pt  Pt12  1  0.194164  0.026337  0.119930  1
  Pt  Pt13  1  0.873236  0.388818  0.121081  1
  Pt  Pt14  1  0.556552  0.709851  0.133589  1
  Pt  Pt15  1  0.026337  0.194166  0.619931  1
  Pt  Pt16  1  0.388817  0.873236  0.621081  1
  Pt  Pt17  1  0.709849  0.556551  0.633589  1
