# generated using pymatgen
data_Li3Ho3GaAs2
_symmetry_space_group_name_H-M   'P 1'
_cell_length_a   6.98802900
_cell_length_b   6.98802920
_cell_length_c   4.29268200
_cell_angle_alpha   90.00000000
_cell_angle_beta   90.00000000
_cell_angle_gamma   120.00001326
_symmetry_Int_Tables_number   1
_chemical_formula_structural   Li3Ho3GaAs2
_chemical_formula_sum   'Li3 Ho3 Ga1 As2'
_cell_volume   181.53848241
_cell_formula_units_Z   1
loop_
 _symmetry_equiv_pos_site_id
 _symmetry_equiv_pos_as_xyz
  1  'x, y, z'
loop_
 _atom_site_type_symbol
 _atom_site_label
 _atom_site_symmetry_multiplicity
 _atom_site_fract_x
 _atom_site_fract_y
 _atom_site_fract_z
 _atom_site_occupancy
  Li  Li0  1  0.000000  0.760207  0.000000  1
  Li  Li1  1  0.239793  0.239793  0.000000  1
  Li  Li2  1  0.760207  0.000000  0.000000  1
  Ho  Ho3  1  0.000000  0.426368  0.500000  1
  Ho  Ho4  1  0.573632  0.573632  0.500000  1
  Ho  Ho5  1  0.426368  0.000000  0.500000  1
  Ga  Ga6  1  0.000000  0.000000  0.500000  1
  As  As7  1  0.666667  0.333333  0.000000  1
  As  As8  1  0.333333  0.666667  0.000000  1
