# generated using pymatgen
data_Dy4HgPt11
_symmetry_space_group_name_H-M   'P 1'
_cell_length_a   4.16226600
_cell_length_b   5.86195359
_cell_length_c   11.73603662
_cell_angle_alpha   88.85501138
_cell_angle_beta   90.00000000
_cell_angle_gamma   90.00000000
_symmetry_Int_Tables_number   1
_chemical_formula_structural   Dy4HgPt11
_chemical_formula_sum   'Dy4 Hg1 Pt11'
_cell_volume   286.29050107
_cell_formula_units_Z   1
loop_
 _symmetry_equiv_pos_site_id
 _symmetry_equiv_pos_as_xyz
  1  'x, y, z'
loop_
 _atom_site_type_symbol
 _atom_site_label
 _atom_site_symmetry_multiplicity
 _atom_site_fract_x
 _atom_site_fract_y
 _atom_site_fract_z
 _atom_site_occupancy
  Dy  Dy0  1  0.500000  0.755580  0.375680  1
  Dy  Dy1  1  0.500000  0.727218  0.865801  1
  Dy  Dy2  1  0.500000  0.272782  0.134199  1
  Dy  Dy3  1  0.500000  0.244420  0.624320  1
  Hg  Hg4  1  0.000000  0.000000  0.000000  1
  Pt  Pt5  1  0.000000  0.012989  0.252410  1
  Pt  Pt6  1  0.000000  0.987011  0.747590  1
  Pt  Pt7  1  0.000000  0.500000  0.000000  1
  Pt  Pt8  1  0.000000  0.500000  0.500000  1
  Pt  Pt9  1  0.000000  0.514097  0.250042  1
  Pt  Pt10  1  0.000000  0.485903  0.749958  1
  Pt  Pt11  1  0.500000  0.255424  0.377266  1
  Pt  Pt12  1  0.500000  0.237853  0.875484  1
  Pt  Pt13  1  0.500000  0.762147  0.124516  1
  Pt  Pt14  1  0.500000  0.744576  0.622734  1
  Pt  Pt15  1  0.000000  0.000000  0.500000  1
