# generated using pymatgen
data_Dy2Bi5SbO14
_symmetry_space_group_name_H-M   'P 1'
_cell_length_a   6.58004539
_cell_length_b   6.82101864
_cell_length_c   7.76050357
_cell_angle_alpha   106.11788267
_cell_angle_beta   89.99109318
_cell_angle_gamma   99.15368094
_symmetry_Int_Tables_number   1
_chemical_formula_structural   Dy2Bi5SbO14
_chemical_formula_sum   'Dy2 Bi5 Sb1 O14'
_cell_volume   330.00328911
_cell_formula_units_Z   1
loop_
 _symmetry_equiv_pos_site_id
 _symmetry_equiv_pos_as_xyz
  1  'x, y, z'
loop_
 _atom_site_type_symbol
 _atom_site_label
 _atom_site_symmetry_multiplicity
 _atom_site_fract_x
 _atom_site_fract_y
 _atom_site_fract_z
 _atom_site_occupancy
  Dy  Dy0  1  0.459081  0.002891  0.244225  1
  Dy  Dy1  1  0.540919  0.997109  0.755775  1
  Bi  Bi2  1  0.000000  0.000000  0.500000  1
  Bi  Bi3  1  0.257576  0.514832  0.880985  1
  Bi  Bi4  1  0.742424  0.485168  0.119015  1
  Bi  Bi5  1  0.725717  0.465681  0.609085  1
  Bi  Bi6  1  0.274283  0.534319  0.390915  1
  Sb  Sb7  1  0.000000  0.000000  0.000000  1
  O  O8  1  0.462819  0.657222  0.179839  1
  O  O9  1  0.537181  0.342778  0.820161  1
  O  O10  1  0.290364  0.950809  0.950740  1
  O  O11  1  0.709636  0.049191  0.049260  1
  O  O12  1  0.300068  0.920033  0.507610  1
  O  O13  1  0.699932  0.079967  0.492390  1
  O  O14  1  0.531076  0.349094  0.350623  1
  O  O15  1  0.468924  0.650906  0.649377  1
  O  O16  1  0.920013  0.692348  0.968044  1
  O  O17  1  0.079987  0.307652  0.031956  1
  O  O18  1  0.099701  0.325871  0.616913  1
  O  O19  1  0.900299  0.674129  0.383087  1
  O  O20  1  0.888953  0.939276  0.744005  1
  O  O21  1  0.111047  0.060724  0.255995  1
