# generated using pymatgen
data_LaTb5TmCoI12
_symmetry_space_group_name_H-M   'P 1'
_cell_length_a   9.79485699
_cell_length_b   9.79429048
_cell_length_c   9.79892205
_cell_angle_alpha   106.24128841
_cell_angle_beta   106.28139960
_cell_angle_gamma   106.16410778
_symmetry_Int_Tables_number   1
_chemical_formula_structural   LaTb5TmCoI12
_chemical_formula_sum   'La1 Tb5 Tm1 Co1 I12'
_cell_volume   798.77433398
_cell_formula_units_Z   1
loop_
 _symmetry_equiv_pos_site_id
 _symmetry_equiv_pos_as_xyz
  1  'x, y, z'
loop_
 _atom_site_type_symbol
 _atom_site_label
 _atom_site_symmetry_multiplicity
 _atom_site_fract_x
 _atom_site_fract_y
 _atom_site_fract_z
 _atom_site_occupancy
  La  La0  1  0.998261  0.997954  0.998409  1
  Tb  Tb1  1  0.515123  0.586934  0.783637  1
  Tb  Tb2  1  0.783767  0.514529  0.588211  1
  Tb  Tb3  1  0.587934  0.784073  0.515403  1
  Tb  Tb4  1  0.481988  0.408536  0.213855  1
  Tb  Tb5  1  0.213672  0.481786  0.409431  1
  Tm  Tm6  1  0.411646  0.220033  0.482525  1
  Co  Co7  1  0.499212  0.499637  0.498886  1
  I  I8  1  0.276130  0.825101  0.426854  1
  I  I9  1  0.425689  0.273472  0.820986  1
  I  I10  1  0.823845  0.426181  0.275467  1
  I  I11  1  0.718466  0.173186  0.570284  1
  I  I12  1  0.571356  0.722049  0.174374  1
  I  I13  1  0.173932  0.571253  0.722379  1
  I  I14  1  0.049145  0.124232  0.353267  1
  I  I15  1  0.352185  0.046025  0.126754  1
  I  I16  1  0.124513  0.352167  0.045986  1
  I  I17  1  0.951195  0.872966  0.644400  1
  I  I18  1  0.644177  0.950994  0.872842  1
  I  I19  1  0.873134  0.644263  0.951421  1
