# generated using pymatgen
data_Y7Sn22HgRh6
_symmetry_space_group_name_H-M   'P 1'
_cell_length_a   9.84464800
_cell_length_b   9.84464914
_cell_length_c   10.17960400
_cell_angle_alpha   90.00000000
_cell_angle_beta   90.00000000
_cell_angle_gamma   120.00000288
_symmetry_Int_Tables_number   1
_chemical_formula_structural   Y7Sn22HgRh6
_chemical_formula_sum   'Y7 Sn22 Hg1 Rh6'
_cell_volume   854.40137348
_cell_formula_units_Z   1
loop_
 _symmetry_equiv_pos_site_id
 _symmetry_equiv_pos_as_xyz
  1  'x, y, z'
loop_
 _atom_site_type_symbol
 _atom_site_label
 _atom_site_symmetry_multiplicity
 _atom_site_fract_x
 _atom_site_fract_y
 _atom_site_fract_z
 _atom_site_occupancy
  Y  Y0  1  0.000000  0.000000  0.000000  1
  Y  Y1  1  0.043119  0.521560  0.308121  1
  Y  Y2  1  0.478440  0.956881  0.308121  1
  Y  Y3  1  0.478440  0.521560  0.308121  1
  Y  Y4  1  0.956881  0.478440  0.691879  1
  Y  Y5  1  0.521560  0.043119  0.691879  1
  Y  Y6  1  0.521560  0.478440  0.691879  1
  Sn  Sn7  1  0.118220  0.881780  0.276429  1
  Sn  Sn8  1  0.763560  0.881780  0.276429  1
  Sn  Sn9  1  0.118220  0.236440  0.276429  1
  Sn  Sn10  1  0.881780  0.118220  0.723571  1
  Sn  Sn11  1  0.236440  0.118220  0.723571  1
  Sn  Sn12  1  0.881780  0.763560  0.723571  1
  Sn  Sn13  1  0.350896  0.000000  0.000000  1
  Sn  Sn14  1  0.649104  0.649104  0.000000  1
  Sn  Sn15  1  0.000000  0.350896  0.000000  1
  Sn  Sn16  1  0.350896  0.350896  0.000000  1
  Sn  Sn17  1  0.000000  0.649104  0.000000  1
  Sn  Sn18  1  0.649104  0.000000  0.000000  1
  Sn  Sn19  1  0.779304  0.558608  0.455903  1
  Sn  Sn20  1  0.779304  0.220696  0.455903  1
  Sn  Sn21  1  0.441392  0.220696  0.455903  1
  Sn  Sn22  1  0.220696  0.441392  0.544097  1
  Sn  Sn23  1  0.220696  0.779304  0.544097  1
  Sn  Sn24  1  0.558608  0.779304  0.544097  1
  Sn  Sn25  1  0.666667  0.333333  0.180401  1
  Sn  Sn26  1  0.333333  0.666667  0.819599  1
  Sn  Sn27  1  0.666667  0.333333  0.880792  1
  Sn  Sn28  1  0.333333  0.666667  0.119208  1
  Hg  Hg29  1  0.000000  0.000000  0.500000  1
  Rh  Rh30  1  0.168750  0.831250  0.802114  1
  Rh  Rh31  1  0.662499  0.831250  0.802114  1
  Rh  Rh32  1  0.168750  0.337501  0.802114  1
  Rh  Rh33  1  0.831250  0.168750  0.197886  1
  Rh  Rh34  1  0.337501  0.168750  0.197886  1
  Rh  Rh35  1  0.831250  0.662499  0.197886  1
