# generated using pymatgen
data_YbLuHf2(Al3Ir)6
_symmetry_space_group_name_H-M   'P 1'
_cell_length_a   7.50458402
_cell_length_b   7.49288811
_cell_length_c   9.33447300
_cell_angle_alpha   90.00000000
_cell_angle_beta   90.00000000
_cell_angle_gamma   119.66636942
_symmetry_Int_Tables_number   1
_chemical_formula_structural   YbLuHf2(Al3Ir)6
_chemical_formula_sum   'Yb1 Lu1 Hf2 Al18 Ir6'
_cell_volume   456.08580896
_cell_formula_units_Z   1
loop_
 _symmetry_equiv_pos_site_id
 _symmetry_equiv_pos_as_xyz
  1  'x, y, z'
loop_
 _atom_site_type_symbol
 _atom_site_label
 _atom_site_symmetry_multiplicity
 _atom_site_fract_x
 _atom_site_fract_y
 _atom_site_fract_z
 _atom_site_occupancy
  Yb  Yb0  1  0.670845  0.994219  0.250000  1
  Lu  Lu1  1  0.329898  0.005745  0.750000  1
  Hf  Hf2  1  0.994679  0.672268  0.250000  1
  Hf  Hf3  1  0.003894  0.326501  0.750000  1
  Al  Al4  1  0.127101  0.124230  0.250000  1
  Al  Al5  1  0.873548  0.875306  0.750000  1
  Al  Al6  1  0.999507  0.336733  0.076178  1
  Al  Al7  1  0.000336  0.663421  0.923510  1
  Al  Al8  1  0.000336  0.663421  0.576490  1
  Al  Al9  1  0.333363  0.998468  0.421595  1
  Al  Al10  1  0.999507  0.336733  0.423822  1
  Al  Al11  1  0.666629  0.000815  0.577988  1
  Al  Al12  1  0.666629  0.000815  0.922012  1
  Al  Al13  1  0.333363  0.998468  0.078405  1
  Al  Al14  1  0.331272  0.333253  0.557537  1
  Al  Al15  1  0.669008  0.667357  0.442728  1
  Al  Al16  1  0.669008  0.667357  0.057272  1
  Al  Al17  1  0.331272  0.333253  0.942463  1
  Al  Al18  1  0.333915  0.548379  0.250000  1
  Al  Al19  1  0.664468  0.451279  0.750000  1
  Al  Al20  1  0.555381  0.345423  0.250000  1
  Al  Al21  1  0.445608  0.656757  0.750000  1
  Ir  Ir22  1  0.672946  0.328176  0.997834  1
  Ir  Ir23  1  0.325638  0.671032  0.999428  1
  Ir  Ir24  1  0.325638  0.671032  0.500572  1
  Ir  Ir25  1  0.672946  0.328176  0.502166  1
  Ir  Ir26  1  0.001632  0.000691  0.998762  1
  Ir  Ir27  1  0.001632  0.000691  0.501238  1
