# generated using pymatgen
data_Th4Zn9AgSn2
_symmetry_space_group_name_H-M   'P 1'
_cell_length_a   8.61145514
_cell_length_b   8.61145423
_cell_length_c   9.08404700
_cell_angle_alpha   90.00000000
_cell_angle_beta   90.00000000
_cell_angle_gamma   149.75818873
_symmetry_Int_Tables_number   1
_chemical_formula_structural   Th4Zn9AgSn2
_chemical_formula_sum   'Th4 Zn9 Ag1 Sn2'
_cell_volume   339.28268275
_cell_formula_units_Z   1
loop_
 _symmetry_equiv_pos_site_id
 _symmetry_equiv_pos_as_xyz
  1  'x, y, z'
loop_
 _atom_site_type_symbol
 _atom_site_label
 _atom_site_symmetry_multiplicity
 _atom_site_fract_x
 _atom_site_fract_y
 _atom_site_fract_z
 _atom_site_occupancy
  Th  Th0  1  0.204794  0.795206  0.250000  1
  Th  Th1  1  0.794656  0.205344  0.750000  1
  Th  Th2  1  0.999333  0.000667  0.498012  1
  Th  Th3  1  0.999333  0.000667  0.001988  1
  Zn  Zn4  1  0.815926  0.184074  0.392960  1
  Zn  Zn5  1  0.184130  0.815870  0.607396  1
  Zn  Zn6  1  0.815926  0.184074  0.107040  1
  Zn  Zn7  1  0.184130  0.815870  0.892604  1
  Zn  Zn8  1  0.657484  0.342516  0.483372  1
  Zn  Zn9  1  0.341405  0.658595  0.521363  1
  Zn  Zn10  1  0.657484  0.342516  0.016628  1
  Zn  Zn11  1  0.341405  0.658595  0.978637  1
  Zn  Zn12  1  0.604715  0.395285  0.750000  1
  Ag  Ag13  1  0.395920  0.604080  0.250000  1
  Sn  Sn14  1  0.558067  0.441933  0.250000  1
  Sn  Sn15  1  0.445289  0.554711  0.750000  1
