# generated using pymatgen
data_La2Nd4Zn4Pt13
_symmetry_space_group_name_H-M   'P 1'
_cell_length_a   8.42282973
_cell_length_b   8.42305810
_cell_length_c   8.42305747
_cell_angle_alpha   109.26625097
_cell_angle_beta   109.57435494
_cell_angle_gamma   109.57435957
_symmetry_Int_Tables_number   1
_chemical_formula_structural   La2Nd4Zn4Pt13
_chemical_formula_sum   'La2 Nd4 Zn4 Pt13'
_cell_volume   460.00819340
_cell_formula_units_Z   1
loop_
 _symmetry_equiv_pos_site_id
 _symmetry_equiv_pos_as_xyz
  1  'x, y, z'
loop_
 _atom_site_type_symbol
 _atom_site_label
 _atom_site_symmetry_multiplicity
 _atom_site_fract_x
 _atom_site_fract_y
 _atom_site_fract_z
 _atom_site_occupancy
  La  La0  1  0.698886  0.699299  0.999587  1
  La  La1  1  0.301114  0.000413  0.300701  1
  Nd  Nd2  1  0.000000  0.303304  0.302392  1
  Nd  Nd3  1  0.300684  0.301100  0.999584  1
  Nd  Nd4  1  0.699316  0.000416  0.698900  1
  Nd  Nd5  1  0.000000  0.697608  0.696696  1
  Zn  Zn6  1  0.000000  0.000327  0.501979  1
  Zn  Zn7  1  0.000000  0.498021  0.999673  1
  Zn  Zn8  1  0.500000  0.000328  0.999672  1
  Zn  Zn9  1  0.500000  0.500328  0.499672  1
  Pt  Pt10  1  0.328685  0.329042  0.658587  1
  Pt  Pt11  1  0.671315  0.000357  0.329903  1
  Pt  Pt12  1  0.000000  0.669526  0.330474  1
  Pt  Pt13  1  0.670588  0.328239  0.999741  1
  Pt  Pt14  1  0.329412  0.657650  0.329153  1
  Pt  Pt15  1  0.000000  0.329600  0.670400  1
  Pt  Pt16  1  0.328685  0.670097  0.999643  1
  Pt  Pt17  1  0.329412  0.000259  0.671761  1
  Pt  Pt18  1  0.660089  0.330355  0.329735  1
  Pt  Pt19  1  0.670588  0.670847  0.342350  1
  Pt  Pt20  1  0.671315  0.341413  0.670958  1
  Pt  Pt21  1  0.339911  0.670265  0.669645  1
  Pt  Pt22  1  0.000000  0.001208  0.998792  1
