# generated using pymatgen
data_Ho3Zn2(Si2Pd)2
_symmetry_space_group_name_H-M   'P 1'
_cell_length_a   7.97047720
_cell_length_b   7.97047777
_cell_length_c   7.97047814
_cell_angle_alpha   149.21213312
_cell_angle_beta   129.97946979
_cell_angle_gamma   59.89532038
_symmetry_Int_Tables_number   1
_chemical_formula_structural   Ho3Zn2(Si2Pd)2
_chemical_formula_sum   'Ho3 Zn2 Si4 Pd2'
_cell_volume   196.95948524
_cell_formula_units_Z   1
loop_
 _symmetry_equiv_pos_site_id
 _symmetry_equiv_pos_as_xyz
  1  'x, y, z'
loop_
 _atom_site_type_symbol
 _atom_site_label
 _atom_site_symmetry_multiplicity
 _atom_site_fract_x
 _atom_site_fract_y
 _atom_site_fract_z
 _atom_site_occupancy
  Ho  Ho0  1  0.003437  0.000000  0.003437  1
  Ho  Ho1  1  0.619684  0.126052  0.493632  1
  Ho  Ho2  1  0.367580  0.873947  0.493632  1
  Zn  Zn3  1  0.640459  0.332557  0.307903  1
  Zn  Zn4  1  0.975346  0.667443  0.307903  1
  Si  Si5  1  0.223655  0.216774  0.006881  1
  Si  Si6  1  0.790106  0.783226  0.006881  1
  Si  Si7  1  0.679229  0.500000  0.179229  1
  Si  Si8  1  0.315865  0.500000  0.815865  1
  Pd  Pd9  1  0.021506  0.329187  0.692318  1
  Pd  Pd10  1  0.363132  0.670813  0.692318  1
