# generated using pymatgen
data_Ca12As(PBr4)3
_symmetry_space_group_name_H-M   'P 1'
_cell_length_a   10.25217035
_cell_length_b   10.25228447
_cell_length_c   10.25208000
_cell_angle_alpha   109.51796550
_cell_angle_beta   109.51784175
_cell_angle_gamma   109.51802010
_symmetry_Int_Tables_number   1
_chemical_formula_structural   Ca12As(PBr4)3
_chemical_formula_sum   'Ca12 As1 P3 Br12'
_cell_volume   828.08138457
_cell_formula_units_Z   1
loop_
 _symmetry_equiv_pos_site_id
 _symmetry_equiv_pos_as_xyz
  1  'x, y, z'
loop_
 _atom_site_type_symbol
 _atom_site_label
 _atom_site_symmetry_multiplicity
 _atom_site_fract_x
 _atom_site_fract_y
 _atom_site_fract_z
 _atom_site_occupancy
  Ca  Ca0  1  0.482390  0.493018  0.239133  1
  Ca  Ca1  1  0.749990  0.239473  0.260515  1
  Ca  Ca2  1  0.750003  0.010230  0.489780  1
  Ca  Ca3  1  0.239126  0.482380  0.493018  1
  Ca  Ca4  1  0.260525  0.749998  0.239477  1
  Ca  Ca5  1  0.017617  0.260866  0.006978  1
  Ca  Ca6  1  0.006980  0.017624  0.260876  1
  Ca  Ca7  1  0.489777  0.750001  0.010228  1
  Ca  Ca8  1  0.493020  0.239130  0.482382  1
  Ca  Ca9  1  0.010220  0.489774  0.749995  1
  Ca  Ca10  1  0.260866  0.006976  0.017616  1
  Ca  Ca11  1  0.239484  0.260530  0.750008  1
  As  As12  1  0.250001  0.250000  0.249999  1
  P  P13  1  0.500506  0.999496  0.250001  1
  P  P14  1  0.999492  0.250001  0.500506  1
  P  P15  1  0.250001  0.500503  0.999495  1
  Br  Br16  1  0.249999  0.750812  0.749188  1
  Br  Br17  1  0.500716  0.500952  0.751427  1
  Br  Br18  1  0.999285  0.748572  0.999048  1
  Br  Br19  1  0.749191  0.249999  0.750810  1
  Br  Br20  1  0.999049  0.999285  0.748571  1
  Br  Br21  1  0.250001  0.999170  0.500833  1
  Br  Br22  1  0.751427  0.500713  0.500950  1
  Br  Br23  1  0.500832  0.249999  0.999169  1
  Br  Br24  1  0.750810  0.749192  0.250002  1
  Br  Br25  1  0.748571  0.999046  0.999284  1
  Br  Br26  1  0.999167  0.500827  0.249998  1
  Br  Br27  1  0.500954  0.751427  0.500717  1
