# generated using pymatgen
data_CaErAlSe4
_symmetry_space_group_name_H-M   'P 1'
_cell_length_a   14.50272700
_cell_length_b   8.34955000
_cell_length_c   6.60599700
_cell_angle_alpha   90.00000000
_cell_angle_beta   90.00000000
_cell_angle_gamma   90.00000000
_symmetry_Int_Tables_number   1
_chemical_formula_structural   CaErAlSe4
_chemical_formula_sum   'Ca4 Er4 Al4 Se16'
_cell_volume   799.92839606
_cell_formula_units_Z   4
loop_
 _symmetry_equiv_pos_site_id
 _symmetry_equiv_pos_as_xyz
  1  'x, y, z'
loop_
 _atom_site_type_symbol
 _atom_site_label
 _atom_site_symmetry_multiplicity
 _atom_site_fract_x
 _atom_site_fract_y
 _atom_site_fract_z
 _atom_site_occupancy
  Ca  Ca0  1  0.737781  0.750001  0.007805  1
  Ca  Ca1  1  0.237781  0.750001  0.492195  1
  Ca  Ca2  1  0.762219  0.250000  0.507805  1
  Ca  Ca3  1  0.262219  0.250000  0.992194  1
  Er  Er4  1  0.000000  0.000000  0.000000  1
  Er  Er5  1  0.000000  0.499999  0.000000  1
  Er  Er6  1  0.500000  0.000000  0.500000  1
  Er  Er7  1  0.500000  0.499999  0.500000  1
  Al  Al8  1  0.583316  0.250000  0.099772  1
  Al  Al9  1  0.083316  0.250000  0.400228  1
  Al  Al10  1  0.916684  0.750001  0.599773  1
  Al  Al11  1  0.416684  0.750001  0.900228  1
  Se  Se12  1  0.914889  0.750001  0.236272  1
  Se  Se13  1  0.158304  0.020900  0.252694  1
  Se  Se14  1  0.158304  0.479100  0.252694  1
  Se  Se15  1  0.929877  0.250000  0.248103  1
  Se  Se16  1  0.429877  0.250000  0.251897  1
  Se  Se17  1  0.658304  0.020900  0.247306  1
  Se  Se18  1  0.658304  0.479100  0.247306  1
  Se  Se19  1  0.414888  0.750001  0.263727  1
  Se  Se20  1  0.585111  0.250000  0.736272  1
  Se  Se21  1  0.341696  0.520901  0.752694  1
  Se  Se22  1  0.341696  0.979099  0.752694  1
  Se  Se23  1  0.570123  0.750001  0.748102  1
  Se  Se24  1  0.070123  0.750001  0.751897  1
  Se  Se25  1  0.841696  0.520901  0.747305  1
  Se  Se26  1  0.841696  0.979099  0.747305  1
  Se  Se27  1  0.085112  0.250000  0.763727  1
