# generated using pymatgen
data_LiDyB6Os
_symmetry_space_group_name_H-M   'P 1'
_cell_length_a   3.51886400
_cell_length_b   8.86925600
_cell_length_c   11.22884200
_cell_angle_alpha   90.00000000
_cell_angle_beta   90.00000000
_cell_angle_gamma   90.00000000
_symmetry_Int_Tables_number   1
_chemical_formula_structural   LiDyB6Os
_chemical_formula_sum   'Li4 Dy4 B24 Os4'
_cell_volume   350.44885356
_cell_formula_units_Z   4
loop_
 _symmetry_equiv_pos_site_id
 _symmetry_equiv_pos_as_xyz
  1  'x, y, z'
loop_
 _atom_site_type_symbol
 _atom_site_label
 _atom_site_symmetry_multiplicity
 _atom_site_fract_x
 _atom_site_fract_y
 _atom_site_fract_z
 _atom_site_occupancy
  Li  Li0  1  0.000000  0.944260  0.372081  1
  Li  Li1  1  0.000000  0.055740  0.627919  1
  Li  Li2  1  0.000000  0.444260  0.127919  1
  Li  Li3  1  0.000000  0.555740  0.872081  1
  Dy  Dy4  1  0.000000  0.321125  0.413167  1
  Dy  Dy5  1  0.000000  0.678875  0.586833  1
  Dy  Dy6  1  0.000000  0.821125  0.086833  1
  Dy  Dy7  1  0.000000  0.178875  0.913167  1
  B  B8  1  0.500000  0.554276  0.432505  1
  B  B9  1  0.500000  0.445724  0.567495  1
  B  B10  1  0.500000  0.054276  0.067495  1
  B  B11  1  0.500000  0.945724  0.932505  1
  B  B12  1  0.500000  0.758947  0.417460  1
  B  B13  1  0.500000  0.241053  0.582540  1
  B  B14  1  0.500000  0.258947  0.082540  1
  B  B15  1  0.500000  0.741053  0.917460  1
  B  B16  1  0.500000  0.794659  0.264099  1
  B  B17  1  0.500000  0.205341  0.735900  1
  B  B18  1  0.500000  0.294659  0.235901  1
  B  B19  1  0.500000  0.705341  0.764100  1
  B  B20  1  0.500000  0.625131  0.181592  1
  B  B21  1  0.500000  0.374869  0.818408  1
  B  B22  1  0.500000  0.125131  0.318408  1
  B  B23  1  0.500000  0.874869  0.681592  1
  B  B24  1  0.500000  0.978881  0.214324  1
  B  B25  1  0.500000  0.021119  0.785676  1
  B  B26  1  0.500000  0.478881  0.285676  1
  B  B27  1  0.500000  0.521119  0.714324  1
  B  B28  1  0.500000  0.592280  0.025514  1
  B  B29  1  0.500000  0.407720  0.974486  1
  B  B30  1  0.500000  0.092280  0.474486  1
  B  B31  1  0.500000  0.907720  0.525514  1
  Os  Os32  1  0.000000  0.641028  0.318709  1
  Os  Os33  1  0.000000  0.358972  0.681291  1
  Os  Os34  1  0.000000  0.141028  0.181291  1
  Os  Os35  1  0.000000  0.858972  0.818709  1
