# generated using pymatgen
data_Tb4Tc3B8Ru
_symmetry_space_group_name_H-M   'P 1'
_cell_length_a   5.31495100
_cell_length_b   5.96612284
_cell_length_c   6.44505001
_cell_angle_alpha   90.11135191
_cell_angle_beta   90.00000000
_cell_angle_gamma   90.00000000
_symmetry_Int_Tables_number   1
_chemical_formula_structural   Tb4Tc3B8Ru
_chemical_formula_sum   'Tb4 Tc3 B8 Ru1'
_cell_volume   204.36989792
_cell_formula_units_Z   1
loop_
 _symmetry_equiv_pos_site_id
 _symmetry_equiv_pos_as_xyz
  1  'x, y, z'
loop_
 _atom_site_type_symbol
 _atom_site_label
 _atom_site_symmetry_multiplicity
 _atom_site_fract_x
 _atom_site_fract_y
 _atom_site_fract_z
 _atom_site_occupancy
  Tb  Tb0  1  0.250000  0.012898  0.340261  1
  Tb  Tb1  1  0.250000  0.511856  0.160714  1
  Tb  Tb2  1  0.750000  0.987801  0.660088  1
  Tb  Tb3  1  0.750000  0.486718  0.838981  1
  Tc  Tc4  1  0.250000  0.181911  0.814890  1
  Tc  Tc5  1  0.250000  0.679964  0.684521  1
  Tc  Tc6  1  0.750000  0.819754  0.185363  1
  B  B7  1  0.079880  0.372047  0.538522  1
  B  B8  1  0.421355  0.872150  0.962430  1
  B  B9  1  0.580688  0.628768  0.462480  1
  B  B10  1  0.919525  0.128344  0.036696  1
  B  B11  1  0.919312  0.628768  0.462480  1
  B  B12  1  0.580475  0.128344  0.036696  1
  B  B13  1  0.420120  0.372047  0.538522  1
  B  B14  1  0.078645  0.872150  0.962430  1
  Ru  Ru15  1  0.750000  0.316478  0.314925  1
