# generated using pymatgen
data_Y4Al18Ir5Pt
_symmetry_space_group_name_H-M   'P 1'
_cell_length_a   7.57390359
_cell_length_b   7.57390454
_cell_length_c   9.49216040
_cell_angle_alpha   89.98337418
_cell_angle_beta   89.98336915
_cell_angle_gamma   119.59744237
_symmetry_Int_Tables_number   1
_chemical_formula_structural   Y4Al18Ir5Pt
_chemical_formula_sum   'Y4 Al18 Ir5 Pt1'
_cell_volume   473.45931089
_cell_formula_units_Z   1
loop_
 _symmetry_equiv_pos_site_id
 _symmetry_equiv_pos_as_xyz
  1  'x, y, z'
loop_
 _atom_site_type_symbol
 _atom_site_label
 _atom_site_symmetry_multiplicity
 _atom_site_fract_x
 _atom_site_fract_y
 _atom_site_fract_z
 _atom_site_occupancy
  Y  Y0  1  0.994509  0.670526  0.250640  1
  Y  Y1  1  0.005100  0.329443  0.749449  1
  Y  Y2  1  0.670557  0.994900  0.250551  1
  Y  Y3  1  0.329474  0.005491  0.749360  1
  Al  Al4  1  0.128214  0.127462  0.250537  1
  Al  Al5  1  0.872538  0.871786  0.749463  1
  Al  Al6  1  0.004042  0.335166  0.075945  1
  Al  Al7  1  0.002242  0.668430  0.923996  1
  Al  Al8  1  0.999800  0.665087  0.574040  1
  Al  Al9  1  0.334913  0.000200  0.425960  1
  Al  Al10  1  0.000633  0.334509  0.425562  1
  Al  Al11  1  0.665491  0.999367  0.574438  1
  Al  Al12  1  0.664834  0.995958  0.924055  1
  Al  Al13  1  0.331570  0.997758  0.076004  1
  Al  Al14  1  0.333163  0.333128  0.551843  1
  Al  Al15  1  0.666872  0.666837  0.448157  1
  Al  Al16  1  0.666172  0.669218  0.054291  1
  Al  Al17  1  0.330782  0.333828  0.945709  1
  Al  Al18  1  0.340182  0.548834  0.250354  1
  Al  Al19  1  0.660169  0.453263  0.747439  1
  Al  Al20  1  0.546737  0.339831  0.252561  1
  Al  Al21  1  0.451166  0.659818  0.749646  1
  Ir  Ir22  1  0.328308  0.671692  0.000000  1
  Ir  Ir23  1  0.328498  0.671502  0.500000  1
  Ir  Ir24  1  0.671942  0.328058  0.500000  1
  Ir  Ir25  1  0.999859  0.000141  0.000000  1
  Ir  Ir26  1  0.000247  0.999753  0.500000  1
  Pt  Pt27  1  0.671986  0.328014  0.000000  1
