# generated using pymatgen
data_YbPa4Ga15
_symmetry_space_group_name_H-M   'P 1'
_cell_length_a   12.70665589
_cell_length_b   12.70665559
_cell_length_c   12.70665600
_cell_angle_alpha   27.83064999
_cell_angle_beta   27.83065254
_cell_angle_gamma   27.83065550
_symmetry_Int_Tables_number   1
_chemical_formula_structural   YbPa4Ga15
_chemical_formula_sum   'Yb1 Pa4 Ga15'
_cell_volume   394.86127287
_cell_formula_units_Z   1
loop_
 _symmetry_equiv_pos_site_id
 _symmetry_equiv_pos_as_xyz
  1  'x, y, z'
loop_
 _atom_site_type_symbol
 _atom_site_label
 _atom_site_symmetry_multiplicity
 _atom_site_fract_x
 _atom_site_fract_y
 _atom_site_fract_z
 _atom_site_occupancy
  Yb  Yb0  1  0.000037  0.000037  0.000037  1
  Pa  Pa1  1  0.130082  0.130082  0.130082  1
  Pa  Pa2  1  0.869928  0.869928  0.869928  1
  Pa  Pa3  1  0.401059  0.401059  0.401059  1
  Pa  Pa4  1  0.598883  0.598883  0.598883  1
  Ga  Ga5  1  0.130236  0.636170  0.636170  1
  Ga  Ga6  1  0.636170  0.636170  0.130236  1
  Ga  Ga7  1  0.636170  0.130236  0.636170  1
  Ga  Ga8  1  0.363901  0.869787  0.363901  1
  Ga  Ga9  1  0.363901  0.363901  0.869787  1
  Ga  Ga10  1  0.869787  0.363901  0.363901  1
  Ga  Ga11  1  0.428405  0.884456  0.884456  1
  Ga  Ga12  1  0.884456  0.884456  0.428405  1
  Ga  Ga13  1  0.884456  0.428405  0.884456  1
  Ga  Ga14  1  0.115460  0.571837  0.115460  1
  Ga  Ga15  1  0.115460  0.115460  0.571837  1
  Ga  Ga16  1  0.571837  0.115460  0.115460  1
  Ga  Ga17  1  0.500106  0.500106  0.999558  1
  Ga  Ga18  1  0.500106  0.999558  0.500106  1
  Ga  Ga19  1  0.999558  0.500106  0.500106  1
