# generated using pymatgen
data_Dy3Tm5(InIr)2
_symmetry_space_group_name_H-M   'P 1'
_cell_length_a   9.58890670
_cell_length_b   9.58890640
_cell_length_c   9.58890700
_cell_angle_alpha   60.00000137
_cell_angle_beta   60.00000242
_cell_angle_gamma   59.99999459
_symmetry_Int_Tables_number   1
_chemical_formula_structural   Dy3Tm5(InIr)2
_chemical_formula_sum   'Dy6 Tm10 In4 Ir4'
_cell_volume   623.43657249
_cell_formula_units_Z   2
loop_
 _symmetry_equiv_pos_site_id
 _symmetry_equiv_pos_as_xyz
  1  'x, y, z'
loop_
 _atom_site_type_symbol
 _atom_site_label
 _atom_site_symmetry_multiplicity
 _atom_site_fract_x
 _atom_site_fract_y
 _atom_site_fract_z
 _atom_site_occupancy
  Dy  Dy0  1  0.190361  0.809639  0.809639  1
  Dy  Dy1  1  0.809639  0.190361  0.190361  1
  Dy  Dy2  1  0.809639  0.190361  0.809639  1
  Dy  Dy3  1  0.190361  0.809639  0.190361  1
  Dy  Dy4  1  0.809639  0.809639  0.190361  1
  Dy  Dy5  1  0.190361  0.190361  0.809639  1
  Tm  Tm6  1  0.598503  0.598503  0.598503  1
  Tm  Tm7  1  0.598503  0.598503  0.204491  1
  Tm  Tm8  1  0.598503  0.204491  0.598503  1
  Tm  Tm9  1  0.204491  0.598503  0.598503  1
  Tm  Tm10  1  0.060114  0.439886  0.439886  1
  Tm  Tm11  1  0.439886  0.060114  0.060114  1
  Tm  Tm12  1  0.439886  0.060114  0.439886  1
  Tm  Tm13  1  0.060114  0.439886  0.060114  1
  Tm  Tm14  1  0.439886  0.439886  0.060114  1
  Tm  Tm15  1  0.060114  0.060114  0.439886  1
  In  In16  1  0.832659  0.832659  0.832659  1
  In  In17  1  0.832659  0.832659  0.502025  1
  In  In18  1  0.832659  0.502025  0.832659  1
  In  In19  1  0.502025  0.832659  0.832659  1
  Ir  Ir20  1  0.391039  0.391039  0.391039  1
  Ir  Ir21  1  0.391039  0.391039  0.826884  1
  Ir  Ir22  1  0.391039  0.826884  0.391039  1
  Ir  Ir23  1  0.826884  0.391039  0.391039  1
