# generated using pymatgen
data_Gd3FeSi3Ru
_symmetry_space_group_name_H-M   'P 1'
_cell_length_a   5.71295487
_cell_length_b   5.71295540
_cell_length_c   13.65084900
_cell_angle_alpha   89.87376366
_cell_angle_beta   90.12623635
_cell_angle_gamma   137.62984522
_symmetry_Int_Tables_number   1
_chemical_formula_structural   Gd3FeSi3Ru
_chemical_formula_sum   'Gd6 Fe2 Si6 Ru2'
_cell_volume   300.25268470
_cell_formula_units_Z   2
loop_
 _symmetry_equiv_pos_site_id
 _symmetry_equiv_pos_as_xyz
  1  'x, y, z'
loop_
 _atom_site_type_symbol
 _atom_site_label
 _atom_site_symmetry_multiplicity
 _atom_site_fract_x
 _atom_site_fract_y
 _atom_site_fract_z
 _atom_site_occupancy
  Gd  Gd0  1  0.634517  0.365483  0.251886  1
  Gd  Gd1  1  0.365483  0.634517  0.748114  1
  Gd  Gd2  1  0.922812  0.077188  0.118476  1
  Gd  Gd3  1  0.077188  0.922812  0.881524  1
  Gd  Gd4  1  0.079124  0.920876  0.610804  1
  Gd  Gd5  1  0.920876  0.079124  0.389196  1
  Fe  Fe6  1  0.784680  0.215320  0.579017  1
  Fe  Fe7  1  0.215320  0.784680  0.420983  1
  Si  Si8  1  0.321858  0.678142  0.255006  1
  Si  Si9  1  0.678142  0.321858  0.744994  1
  Si  Si10  1  0.616507  0.383493  0.038329  1
  Si  Si11  1  0.383493  0.616507  0.961671  1
  Si  Si12  1  0.371872  0.628128  0.539011  1
  Si  Si13  1  0.628128  0.371872  0.460989  1
  Ru  Ru14  1  0.214685  0.785315  0.081386  1
  Ru  Ru15  1  0.785315  0.214685  0.918614  1
