# generated using pymatgen
data_Tc2MoSe4
_symmetry_space_group_name_H-M   'P 1'
_cell_length_a   6.74904170
_cell_length_b   6.74756976
_cell_length_c   6.76427732
_cell_angle_alpha   93.05656870
_cell_angle_beta   93.61652956
_cell_angle_gamma   93.44558732
_symmetry_Int_Tables_number   1
_chemical_formula_structural   Tc2MoSe4
_chemical_formula_sum   'Tc4 Mo2 Se8'
_cell_volume   306.36877755
_cell_formula_units_Z   2
loop_
 _symmetry_equiv_pos_site_id
 _symmetry_equiv_pos_as_xyz
  1  'x, y, z'
loop_
 _atom_site_type_symbol
 _atom_site_label
 _atom_site_symmetry_multiplicity
 _atom_site_fract_x
 _atom_site_fract_y
 _atom_site_fract_z
 _atom_site_occupancy
  Tc  Tc0  1  0.548173  0.414163  0.238221  1
  Tc  Tc1  1  0.763195  0.454058  0.586881  1
  Tc  Tc2  1  0.584857  0.763799  0.451301  1
  Tc  Tc3  1  0.452141  0.587200  0.763687  1
  Mo  Mo4  1  0.235651  0.544922  0.412869  1
  Mo  Mo5  1  0.413712  0.237009  0.548972  1
  Se  Se6  1  0.373810  0.726384  0.124010  1
  Se  Se7  1  0.125059  0.372582  0.733009  1
  Se  Se8  1  0.733108  0.128513  0.372706  1
  Se  Se9  1  0.627484  0.276031  0.876647  1
  Se  Se10  1  0.869373  0.626777  0.274183  1
  Se  Se11  1  0.274471  0.872436  0.624290  1
  Se  Se12  1  0.218327  0.213745  0.212998  1
  Se  Se13  1  0.780638  0.782381  0.780228  1
