# generated using pymatgen
data_AlVBr14
_symmetry_space_group_name_H-M   'P 1'
_cell_length_a   10.69006900
_cell_length_b   11.23603375
_cell_length_c   11.93043109
_cell_angle_alpha   80.85853280
_cell_angle_beta   90.00000000
_cell_angle_gamma   90.00000000
_symmetry_Int_Tables_number   1
_chemical_formula_structural   AlVBr14
_chemical_formula_sum   'Al2 V2 Br28'
_cell_volume   1414.81095502
_cell_formula_units_Z   2
loop_
 _symmetry_equiv_pos_site_id
 _symmetry_equiv_pos_as_xyz
  1  'x, y, z'
loop_
 _atom_site_type_symbol
 _atom_site_label
 _atom_site_symmetry_multiplicity
 _atom_site_fract_x
 _atom_site_fract_y
 _atom_site_fract_z
 _atom_site_occupancy
  Al  Al0  1  0.244620  0.330251  0.080625  1
  Al  Al1  1  0.744620  0.669749  0.419375  1
  V  V2  1  0.758362  0.669976  0.920873  1
  V  V3  1  0.258362  0.330024  0.579127  1
  Br  Br4  1  0.236377  0.769945  0.371263  1
  Br  Br5  1  0.736377  0.230055  0.128737  1
  Br  Br6  1  0.738833  0.248283  0.637738  1
  Br  Br7  1  0.238833  0.751717  0.862262  1
  Br  Br8  1  0.582342  0.065417  0.051288  1
  Br  Br9  1  0.082342  0.934583  0.448712  1
  Br  Br10  1  0.427357  0.928652  0.979346  1
  Br  Br11  1  0.927357  0.071348  0.520654  1
  Br  Br12  1  0.821439  0.152166  0.315941  1
  Br  Br13  1  0.321439  0.847834  0.184059  1
  Br  Br14  1  0.174025  0.840662  0.677314  1
  Br  Br15  1  0.674025  0.159338  0.822686  1
  Br  Br16  1  0.360645  0.244237  0.236977  1
  Br  Br17  1  0.860645  0.755763  0.263023  1
  Br  Br18  1  0.643002  0.723117  0.763742  1
  Br  Br19  1  0.143002  0.276883  0.736258  1
  Br  Br20  1  0.381896  0.404709  0.934023  1
  Br  Br21  1  0.881896  0.595291  0.565977  1
  Br  Br22  1  0.636111  0.607598  0.071012  1
  Br  Br23  1  0.136111  0.392402  0.428988  1
  Br  Br24  1  0.888195  0.520597  0.892597  1
  Br  Br25  1  0.388195  0.479403  0.607403  1
  Br  Br26  1  0.124230  0.488793  0.127598  1
  Br  Br27  1  0.624230  0.511207  0.372402  1
  Br  Br28  1  0.113249  0.185505  0.022715  1
  Br  Br29  1  0.613249  0.814495  0.477285  1
  Br  Br30  1  0.869317  0.829660  0.956747  1
  Br  Br31  1  0.369317  0.170340  0.543253  1
