# generated using pymatgen
data_Dy3Ho6ErPb8
_symmetry_space_group_name_H-M   'P 1'
_cell_length_a   8.19875400
_cell_length_b   8.26449888
_cell_length_c   15.61464630
_cell_angle_alpha   90.02736440
_cell_angle_beta   90.00000000
_cell_angle_gamma   90.00000000
_symmetry_Int_Tables_number   1
_chemical_formula_structural   Dy3Ho6ErPb8
_chemical_formula_sum   'Dy6 Ho12 Er2 Pb16'
_cell_volume   1058.02634663
_cell_formula_units_Z   2
loop_
 _symmetry_equiv_pos_site_id
 _symmetry_equiv_pos_as_xyz
  1  'x, y, z'
loop_
 _atom_site_type_symbol
 _atom_site_label
 _atom_site_symmetry_multiplicity
 _atom_site_fract_x
 _atom_site_fract_y
 _atom_site_fract_z
 _atom_site_occupancy
  Dy  Dy0  1  0.463358  0.676209  0.400236  1
  Dy  Dy1  1  0.963358  0.823791  0.099764  1
  Dy  Dy2  1  0.463078  0.675819  0.099483  1
  Dy  Dy3  1  0.963078  0.824181  0.400517  1
  Dy  Dy4  1  0.536359  0.323801  0.599527  1
  Dy  Dy5  1  0.036359  0.176199  0.900473  1
  Ho  Ho6  1  0.376829  0.842131  0.878408  1
  Ho  Ho7  1  0.876829  0.657869  0.621592  1
  Ho  Ho8  1  0.622761  0.157948  0.378766  1
  Ho  Ho9  1  0.122761  0.342052  0.121234  1
  Ho  Ho10  1  0.622680  0.158117  0.121042  1
  Ho  Ho11  1  0.122680  0.341883  0.378958  1
  Ho  Ho12  1  0.377104  0.842273  0.621663  1
  Ho  Ho13  1  0.877104  0.657727  0.878337  1
  Ho  Ho14  1  0.537917  0.324281  0.899676  1
  Ho  Ho15  1  0.037917  0.175719  0.600324  1
  Ho  Ho16  1  0.209189  0.504682  0.750032  1
  Ho  Ho17  1  0.709189  0.995318  0.749968  1
  Er  Er18  1  0.790910  0.495272  0.249858  1
  Er  Er19  1  0.290910  0.004728  0.250142  1
  Pb  Pb20  1  0.281523  0.034013  0.042859  1
  Pb  Pb21  1  0.781523  0.465987  0.457141  1
  Pb  Pb22  1  0.718721  0.966542  0.542991  1
  Pb  Pb23  1  0.218721  0.533458  0.957009  1
  Pb  Pb24  1  0.717302  0.965512  0.957176  1
  Pb  Pb25  1  0.217302  0.534488  0.542824  1
  Pb  Pb26  1  0.281607  0.034854  0.457848  1
  Pb  Pb27  1  0.781607  0.465146  0.042152  1
  Pb  Pb28  1  0.572133  0.625834  0.749836  1
  Pb  Pb29  1  0.072133  0.874166  0.750164  1
  Pb  Pb30  1  0.428022  0.373343  0.249999  1
  Pb  Pb31  1  0.928022  0.126657  0.250001  1
  Pb  Pb32  1  0.348870  0.154692  0.750135  1
  Pb  Pb33  1  0.848870  0.345308  0.749865  1
  Pb  Pb34  1  0.651637  0.845748  0.249632  1
  Pb  Pb35  1  0.151637  0.654252  0.250368  1
