# generated using pymatgen
data_YEr3(Al8Pd3)3
_symmetry_space_group_name_H-M   'P 1'
_cell_length_a   7.53698055
_cell_length_b   7.56403554
_cell_length_c   13.16874964
_cell_angle_alpha   84.58735269
_cell_angle_beta   79.10356204
_cell_angle_gamma   60.01669291
_symmetry_Int_Tables_number   1
_chemical_formula_structural   YEr3(Al8Pd3)3
_chemical_formula_sum   'Y1 Er3 Al24 Pd9'
_cell_volume   638.55392079
_cell_formula_units_Z   1
loop_
 _symmetry_equiv_pos_site_id
 _symmetry_equiv_pos_as_xyz
  1  'x, y, z'
loop_
 _atom_site_type_symbol
 _atom_site_label
 _atom_site_symmetry_multiplicity
 _atom_site_fract_x
 _atom_site_fract_y
 _atom_site_fract_z
 _atom_site_occupancy
  Y  Y0  1  0.393186  0.168846  0.808770  1
  Er  Er1  1  0.606731  0.831034  0.191606  1
  Er  Er2  1  0.733846  0.498289  0.808308  1
  Er  Er3  1  0.266092  0.501793  0.191733  1
  Al  Al4  1  0.684720  0.833169  0.944875  1
  Al  Al5  1  0.315605  0.166296  0.055810  1
  Al  Al6  1  0.146284  0.833011  0.561376  1
  Al  Al7  1  0.853778  0.166985  0.438539  1
  Al  Al8  1  0.479234  0.166599  0.558842  1
  Al  Al9  1  0.520813  0.833388  0.440939  1
  Al  Al10  1  0.217163  0.165252  0.329300  1
  Al  Al11  1  0.783291  0.834399  0.670392  1
  Al  Al12  1  0.437246  0.506781  0.670476  1
  Al  Al13  1  0.562850  0.493587  0.329213  1
  Al  Al14  1  0.108947  0.159716  0.669462  1
  Al  Al15  1  0.890812  0.840277  0.330205  1
  Al  Al16  1  0.353077  0.499871  0.945016  1
  Al  Al17  1  0.646821  0.500669  0.055301  1
  Al  Al18  1  0.014830  0.167803  0.953807  1
  Al  Al19  1  0.984532  0.832199  0.046577  1
  Al  Al20  1  0.186981  0.499323  0.440801  1
  Al  Al21  1  0.813033  0.500689  0.559128  1
  Al  Al22  1  0.733246  0.163924  0.183545  1
  Al  Al23  1  0.266754  0.835430  0.816439  1
  Al  Al24  1  0.061180  0.631164  0.815237  1
  Al  Al25  1  0.938212  0.369448  0.184746  1
  Al  Al26  1  0.855306  0.042126  0.816031  1
  Al  Al27  1  0.145293  0.957852  0.183976  1
  Pd  Pd28  1  0.119410  0.492483  0.638514  1
  Pd  Pd29  1  0.880394  0.507862  0.361234  1
  Pd  Pd30  1  0.657099  0.171286  0.999863  1
  Pd  Pd31  1  0.342893  0.828712  0.000287  1
  Pd  Pd32  1  0.537923  0.166943  0.361170  1
  Pd  Pd33  1  0.462113  0.832798  0.638619  1
  Pd  Pd34  1  0.778271  0.174971  0.637704  1
  Pd  Pd35  1  0.222052  0.824986  0.362074  1
  Pd  Pd36  1  0.999982  0.500040  0.000082  1
