# generated using pymatgen
data_Ce7Ho(AlRu)8
_symmetry_space_group_name_H-M   'P 1'
_cell_length_a   4.03588900
_cell_length_b   7.29621138
_cell_length_c   15.78520951
_cell_angle_alpha   90.60830624
_cell_angle_beta   90.00000000
_cell_angle_gamma   90.00000000
_symmetry_Int_Tables_number   1
_chemical_formula_structural   Ce7Ho(AlRu)8
_chemical_formula_sum   'Ce7 Ho1 Al8 Ru8'
_cell_volume   464.79612007
_cell_formula_units_Z   1
loop_
 _symmetry_equiv_pos_site_id
 _symmetry_equiv_pos_as_xyz
  1  'x, y, z'
loop_
 _atom_site_type_symbol
 _atom_site_label
 _atom_site_symmetry_multiplicity
 _atom_site_fract_x
 _atom_site_fract_y
 _atom_site_fract_z
 _atom_site_occupancy
  Ce  Ce0  1  0.250000  0.169566  0.560926  1
  Ce  Ce1  1  0.750000  0.828855  0.436629  1
  Ce  Ce2  1  0.750000  0.455571  0.280463  1
  Ce  Ce3  1  0.750000  0.329897  0.062539  1
  Ce  Ce4  1  0.250000  0.670576  0.939037  1
  Ce  Ce5  1  0.250000  0.046836  0.781534  1
  Ce  Ce6  1  0.250000  0.547048  0.718961  1
  Ho  Ho7  1  0.750000  0.958082  0.218174  1
  Al  Al8  1  0.750000  0.502849  0.562525  1
  Al  Al9  1  0.750000  0.367831  0.849333  1
  Al  Al10  1  0.750000  0.003565  0.937719  1
  Al  Al11  1  0.750000  0.868147  0.650981  1
  Al  Al12  1  0.250000  0.491878  0.436931  1
  Al  Al13  1  0.250000  0.997894  0.066174  1
  Al  Al14  1  0.250000  0.640029  0.152020  1
  Al  Al15  1  0.250000  0.128417  0.345328  1
  Ru  Ru16  1  0.750000  0.738360  0.819375  1
  Ru  Ru17  1  0.250000  0.234481  0.935620  1
  Ru  Ru18  1  0.750000  0.260554  0.434022  1
  Ru  Ru19  1  0.250000  0.751069  0.323234  1
  Ru  Ru20  1  0.750000  0.761902  0.061948  1
  Ru  Ru21  1  0.750000  0.239864  0.679692  1
  Ru  Ru22  1  0.250000  0.273314  0.181030  1
  Ru  Ru23  1  0.250000  0.733414  0.565805  1
