# generated using pymatgen
data_LaF37
_symmetry_space_group_name_H-M   'P 1'
_cell_length_a   6.59676788
_cell_length_b   10.36292410
_cell_length_c   10.75994500
_cell_angle_alpha   87.90986450
_cell_angle_beta   95.85841686
_cell_angle_gamma   72.54405209
_symmetry_Int_Tables_number   1
_chemical_formula_structural   LaF37
_chemical_formula_sum   'La1 F37'
_cell_volume   696.28324931
_cell_formula_units_Z   1
loop_
 _symmetry_equiv_pos_site_id
 _symmetry_equiv_pos_as_xyz
  1  'x, y, z'
loop_
 _atom_site_type_symbol
 _atom_site_label
 _atom_site_symmetry_multiplicity
 _atom_site_fract_x
 _atom_site_fract_y
 _atom_site_fract_z
 _atom_site_occupancy
  La  La0  1  0.210283  0.184735  0.194763  1
  F  F1  1  0.707920  0.857669  0.734509  1
  F  F2  1  0.320636  0.380824  0.900753  1
  F  F3  1  0.687184  0.622310  0.092665  1
  F  F4  1  0.315427  0.242198  0.563853  1
  F  F5  1  0.699605  0.753568  0.446405  1
  F  F6  1  0.890397  0.190645  0.824396  1
  F  F7  1  0.110164  0.795814  0.184993  1
  F  F8  1  0.674108  0.889666  0.012744  1
  F  F9  1  0.285279  0.155588  0.991531  1
  F  F10  1  0.797210  0.592493  0.835496  1
  F  F11  1  0.199550  0.400736  0.127997  1
  F  F12  1  0.437222  0.439287  0.823028  1
  F  F13  1  0.557818  0.570783  0.166742  1
  F  F14  1  0.790444  0.577235  0.704122  1
  F  F15  1  0.234122  0.368830  0.313665  1
  F  F16  1  0.776221  0.026000  0.518644  1
  F  F17  1  0.249270  0.011204  0.438167  1
  F  F18  1  0.282482  0.199298  0.685582  1
  F  F19  1  0.701510  0.789286  0.317499  1
  F  F20  1  0.826708  0.088169  0.629596  1
  F  F21  1  0.190364  0.922483  0.349243  1
  F  F22  1  0.797556  0.975166  0.981024  1
  F  F23  1  0.216045  0.000301  0.073025  1
  F  F24  1  0.881140  0.326129  0.788464  1
  F  F25  1  0.122597  0.658563  0.216480  1
  F  F26  1  0.167263  0.712562  0.922221  1
  F  F27  1  0.827160  0.261715  0.107115  1
  F  F28  1  0.482816  0.921870  0.722951  1
  F  F29  1  0.571598  0.078978  0.273390  1
  F  F30  1  0.111599  0.769032  0.585782  1
  F  F31  1  0.919193  0.247942  0.406025  1
  F  F32  1  0.199340  0.641446  0.656215  1
  F  F33  1  0.792128  0.379317  0.352561  1
  F  F34  1  0.284113  0.794639  0.873748  1
  F  F35  1  0.703989  0.172717  0.186978  1
  F  F36  1  0.503645  0.439929  0.536804  1
  F  F37  1  0.475892  0.560874  0.460825  1
