# generated using pymatgen
data_Dy4Er8Co4BiRu
_symmetry_space_group_name_H-M   'P 1'
_cell_length_a   8.28610565
_cell_length_b   8.28610565
_cell_length_c   8.28610533
_cell_angle_alpha   110.65015065
_cell_angle_beta   110.98756351
_cell_angle_gamma   106.80850782
_symmetry_Int_Tables_number   1
_chemical_formula_structural   Dy4Er8Co4BiRu
_chemical_formula_sum   'Dy4 Er8 Co4 Bi1 Ru1'
_cell_volume   437.24573824
_cell_formula_units_Z   1
loop_
 _symmetry_equiv_pos_site_id
 _symmetry_equiv_pos_as_xyz
  1  'x, y, z'
loop_
 _atom_site_type_symbol
 _atom_site_label
 _atom_site_symmetry_multiplicity
 _atom_site_fract_x
 _atom_site_fract_y
 _atom_site_fract_z
 _atom_site_occupancy
  Dy  Dy0  1  0.284525  0.183267  0.467792  1
  Dy  Dy1  1  0.715475  0.816733  0.532208  1
  Dy  Dy2  1  0.284525  0.816733  0.101259  1
  Dy  Dy3  1  0.715475  0.183267  0.898741  1
  Er  Er4  1  0.620882  0.311691  0.309190  1
  Er  Er5  1  0.379118  0.688309  0.690810  1
  Er  Er6  1  0.002503  0.311691  0.690810  1
  Er  Er7  1  0.997497  0.688309  0.309190  1
  Er  Er8  1  0.212022  0.408128  0.196105  1
  Er  Er9  1  0.787978  0.591872  0.803895  1
  Er  Er10  1  0.212022  0.015918  0.803895  1
  Er  Er11  1  0.787978  0.984082  0.196105  1
  Co  Co12  1  0.000000  0.375469  0.375469  1
  Co  Co13  1  0.000000  0.624531  0.624531  1
  Co  Co14  1  0.388491  0.888491  0.500000  1
  Co  Co15  1  0.611509  0.111509  0.500000  1
  Bi  Bi16  1  0.500000  0.500000  0.000000  1
  Ru  Ru17  1  0.000000  0.000000  0.000000  1
