# generated using pymatgen
data_Lu4Al6(Ga2Pt)9
_symmetry_space_group_name_H-M   'P 1'
_cell_length_a   7.43473825
_cell_length_b   7.55167729
_cell_length_c   13.30893047
_cell_angle_alpha   84.70790496
_cell_angle_beta   79.52772187
_cell_angle_gamma   60.15483382
_symmetry_Int_Tables_number   1
_chemical_formula_structural   Lu4Al6(Ga2Pt)9
_chemical_formula_sum   'Lu4 Al6 Ga18 Pt9'
_cell_volume   637.32718303
_cell_formula_units_Z   1
loop_
 _symmetry_equiv_pos_site_id
 _symmetry_equiv_pos_as_xyz
  1  'x, y, z'
loop_
 _atom_site_type_symbol
 _atom_site_label
 _atom_site_symmetry_multiplicity
 _atom_site_fract_x
 _atom_site_fract_y
 _atom_site_fract_z
 _atom_site_occupancy
  Lu  Lu0  1  0.392485  0.173578  0.808416  1
  Lu  Lu1  1  0.607515  0.826422  0.191584  1
  Lu  Lu2  1  0.734304  0.495125  0.809029  1
  Lu  Lu3  1  0.265696  0.504875  0.190971  1
  Al  Al4  1  0.686194  0.834198  0.943754  1
  Al  Al5  1  0.313806  0.165802  0.056246  1
  Al  Al6  1  0.143568  0.834202  0.560975  1
  Al  Al7  1  0.856432  0.165798  0.439025  1
  Al  Al8  1  0.478279  0.164936  0.557950  1
  Al  Al9  1  0.521721  0.835064  0.442050  1
  Ga  Ga10  1  0.224754  0.165168  0.320900  1
  Ga  Ga11  1  0.775246  0.834832  0.679100  1
  Ga  Ga12  1  0.439059  0.502403  0.676705  1
  Ga  Ga13  1  0.560941  0.497597  0.323295  1
  Ga  Ga14  1  0.106661  0.164351  0.677041  1
  Ga  Ga15  1  0.893339  0.835649  0.322959  1
  Ga  Ga16  1  0.358717  0.498027  0.938130  1
  Ga  Ga17  1  0.641283  0.501973  0.061870  1
  Ga  Ga18  1  0.021200  0.169640  0.941099  1
  Ga  Ga19  1  0.978800  0.830360  0.058901  1
  Ga  Ga20  1  0.189251  0.500520  0.443561  1
  Ga  Ga21  1  0.810749  0.499480  0.556439  1
  Ga  Ga22  1  0.728955  0.166961  0.182837  1
  Ga  Ga23  1  0.271045  0.833039  0.817163  1
  Ga  Ga24  1  0.057098  0.633735  0.817184  1
  Ga  Ga25  1  0.942902  0.366265  0.182816  1
  Ga  Ga26  1  0.856498  0.038826  0.816154  1
  Ga  Ga27  1  0.143502  0.961174  0.183846  1
  Pt  Pt28  1  0.119401  0.494655  0.639339  1
  Pt  Pt29  1  0.880599  0.505345  0.360661  1
  Pt  Pt30  1  0.656689  0.166600  0.999268  1
  Pt  Pt31  1  0.343311  0.833400  0.000732  1
  Pt  Pt32  1  0.542628  0.165394  0.363610  1
  Pt  Pt33  1  0.457372  0.834606  0.636390  1
  Pt  Pt34  1  0.781025  0.169428  0.634312  1
  Pt  Pt35  1  0.218975  0.830572  0.365688  1
  Pt  Pt36  1  0.000000  0.500000  0.000000  1
