# generated using pymatgen
data_Pr5Si12Rh19
_symmetry_space_group_name_H-M   'P 1'
_cell_length_a   12.94336000
_cell_length_b   12.94335951
_cell_length_c   4.01574600
_cell_angle_alpha   90.00000000
_cell_angle_beta   90.00000000
_cell_angle_gamma   120.00000126
_symmetry_Int_Tables_number   1
_chemical_formula_structural   Pr5Si12Rh19
_chemical_formula_sum   'Pr5 Si12 Rh19'
_cell_volume   582.62740173
_cell_formula_units_Z   1
loop_
 _symmetry_equiv_pos_site_id
 _symmetry_equiv_pos_as_xyz
  1  'x, y, z'
loop_
 _atom_site_type_symbol
 _atom_site_label
 _atom_site_symmetry_multiplicity
 _atom_site_fract_x
 _atom_site_fract_y
 _atom_site_fract_z
 _atom_site_occupancy
  Pr  Pr0  1  0.000000  0.186818  0.500000  1
  Pr  Pr1  1  0.813182  0.813182  0.500000  1
  Pr  Pr2  1  0.186818  0.000000  0.500000  1
  Pr  Pr3  1  0.666667  0.333333  0.000000  1
  Pr  Pr4  1  0.333333  0.666667  0.000000  1
  Si  Si5  1  0.475988  0.313388  0.500000  1
  Si  Si6  1  0.814526  0.000000  0.000000  1
  Si  Si7  1  0.185474  0.185474  0.000000  1
  Si  Si8  1  0.000000  0.814526  0.000000  1
  Si  Si9  1  0.374577  0.000000  0.000000  1
  Si  Si10  1  0.686612  0.162601  0.500000  1
  Si  Si11  1  0.837399  0.524012  0.500000  1
  Si  Si12  1  0.524012  0.837399  0.500000  1
  Si  Si13  1  0.162601  0.686612  0.500000  1
  Si  Si14  1  0.313388  0.475988  0.500000  1
  Si  Si15  1  0.000000  0.374577  0.000000  1
  Si  Si16  1  0.625423  0.625423  0.000000  1
  Rh  Rh17  1  0.805417  0.182514  0.000000  1
  Rh  Rh18  1  0.377097  0.194583  0.000000  1
  Rh  Rh19  1  0.639496  0.514063  0.500000  1
  Rh  Rh20  1  0.874567  0.360504  0.500000  1
  Rh  Rh21  1  0.360504  0.874567  0.500000  1
  Rh  Rh22  1  0.514063  0.639496  0.500000  1
  Rh  Rh23  1  0.125433  0.485937  0.500000  1
  Rh  Rh24  1  0.817486  0.622903  0.000000  1
  Rh  Rh25  1  0.622903  0.817486  0.000000  1
  Rh  Rh26  1  0.182514  0.805417  0.000000  1
  Rh  Rh27  1  0.194583  0.377097  0.000000  1
  Rh  Rh28  1  0.000000  0.718833  0.500000  1
  Rh  Rh29  1  0.281167  0.281167  0.500000  1
  Rh  Rh30  1  0.718833  0.000000  0.500000  1
  Rh  Rh31  1  0.000000  0.555294  0.000000  1
  Rh  Rh32  1  0.444706  0.444706  0.000000  1
  Rh  Rh33  1  0.555294  0.000000  0.000000  1
  Rh  Rh34  1  0.000000  0.000000  0.000000  1
  Rh  Rh35  1  0.485937  0.125433  0.500000  1
