# generated using pymatgen
data_Ho4Tm2Al24Os5Pt2Rh
_symmetry_space_group_name_H-M   'P 1'
_cell_length_a   8.80886547
_cell_length_b   8.83285694
_cell_length_c   9.52679400
_cell_angle_alpha   90.12752144
_cell_angle_beta   89.70284829
_cell_angle_gamma   119.55895832
_symmetry_Int_Tables_number   1
_chemical_formula_structural   Ho4Tm2Al24Os5Pt2Rh
_chemical_formula_sum   'Ho4 Tm2 Al24 Os5 Pt2 Rh1'
_cell_volume   644.77131213
_cell_formula_units_Z   1
loop_
 _symmetry_equiv_pos_site_id
 _symmetry_equiv_pos_as_xyz
  1  'x, y, z'
loop_
 _atom_site_type_symbol
 _atom_site_label
 _atom_site_symmetry_multiplicity
 _atom_site_fract_x
 _atom_site_fract_y
 _atom_site_fract_z
 _atom_site_occupancy
  Ho  Ho0  1  0.188713  0.384564  0.251373  1
  Ho  Ho1  1  0.811287  0.615436  0.748627  1
  Ho  Ho2  1  0.612926  0.813670  0.251968  1
  Ho  Ho3  1  0.387074  0.186330  0.748032  1
  Tm  Tm4  1  0.197062  0.808107  0.251180  1
  Tm  Tm5  1  0.802938  0.191893  0.748820  1
  Al  Al6  1  0.336998  0.669582  0.030015  1
  Al  Al7  1  0.663002  0.330418  0.969985  1
  Al  Al8  1  0.669938  0.331286  0.527831  1
  Al  Al9  1  0.330062  0.668714  0.472169  1
  Al  Al10  1  0.158410  0.325420  0.576459  1
  Al  Al11  1  0.841590  0.674580  0.423541  1
  Al  Al12  1  0.673703  0.840445  0.576962  1
  Al  Al13  1  0.833143  0.675019  0.078078  1
  Al  Al14  1  0.326297  0.159555  0.423038  1
  Al  Al15  1  0.166857  0.324981  0.921922  1
  Al  Al16  1  0.164020  0.834585  0.576104  1
  Al  Al17  1  0.326803  0.162518  0.076600  1
  Al  Al18  1  0.835980  0.165415  0.423896  1
  Al  Al19  1  0.673197  0.837482  0.923400  1
  Al  Al20  1  0.831478  0.160047  0.076674  1
  Al  Al21  1  0.168522  0.839953  0.923326  1
  Al  Al22  1  0.560492  0.125299  0.249709  1
  Al  Al23  1  0.439508  0.874701  0.750291  1
  Al  Al24  1  0.874137  0.438497  0.252470  1
  Al  Al25  1  0.125863  0.561503  0.747530  1
  Al  Al26  1  0.561345  0.437930  0.246784  1
  Al  Al27  1  0.438655  0.562070  0.753216  1
  Al  Al28  1  0.999824  0.002322  0.250040  1
  Al  Al29  1  0.000176  0.997678  0.749960  1
  Os  Os30  1  0.500000  0.000000  0.000000  1
  Os  Os31  1  0.500000  0.000000  0.500000  1
  Os  Os32  1  0.000000  0.500000  0.500000  1
  Os  Os33  1  0.000000  0.000000  0.000000  1
  Os  Os34  1  0.000000  0.000000  0.500000  1
  Pt  Pt35  1  0.000000  0.500000  0.000000  1
  Pt  Pt36  1  0.500000  0.500000  0.500000  1
  Rh  Rh37  1  0.500000  0.500000  0.000000  1
