# generated using pymatgen
data_Gd2MnSe4
_symmetry_space_group_name_H-M   'P 1'
_cell_length_a   6.77695300
_cell_length_b   8.33800500
_cell_length_c   14.27106800
_cell_angle_alpha   90.00000000
_cell_angle_beta   90.00000000
_cell_angle_gamma   90.00000000
_symmetry_Int_Tables_number   1
_chemical_formula_structural   Gd2MnSe4
_chemical_formula_sum   'Gd8 Mn4 Se16'
_cell_volume   806.40479304
_cell_formula_units_Z   4
loop_
 _symmetry_equiv_pos_site_id
 _symmetry_equiv_pos_as_xyz
  1  'x, y, z'
loop_
 _atom_site_type_symbol
 _atom_site_label
 _atom_site_symmetry_multiplicity
 _atom_site_fract_x
 _atom_site_fract_y
 _atom_site_fract_z
 _atom_site_occupancy
  Gd  Gd0  1  0.500000  0.000000  0.000000  1
  Gd  Gd1  1  0.000000  0.000000  0.500000  1
  Gd  Gd2  1  0.000000  0.500000  0.500000  1
  Gd  Gd3  1  0.500000  0.500000  0.000000  1
  Gd  Gd4  1  0.000803  0.750000  0.233987  1
  Gd  Gd5  1  0.999197  0.250000  0.766013  1
  Gd  Gd6  1  0.500803  0.250000  0.266013  1
  Gd  Gd7  1  0.499197  0.750000  0.733987  1
  Mn  Mn8  1  0.913543  0.250000  0.092736  1
  Mn  Mn9  1  0.086457  0.750000  0.907264  1
  Mn  Mn10  1  0.413543  0.750000  0.407264  1
  Mn  Mn11  1  0.586457  0.250000  0.592736  1
  Se  Se12  1  0.745770  0.012614  0.168894  1
  Se  Se13  1  0.254230  0.987386  0.831106  1
  Se  Se14  1  0.245770  0.987386  0.331106  1
  Se  Se15  1  0.754230  0.012614  0.668894  1
  Se  Se16  1  0.754230  0.487386  0.668894  1
  Se  Se17  1  0.245770  0.512614  0.331106  1
  Se  Se18  1  0.254230  0.512614  0.831106  1
  Se  Se19  1  0.745770  0.487386  0.168894  1
  Se  Se20  1  0.244240  0.750000  0.069292  1
  Se  Se21  1  0.755760  0.250000  0.930708  1
  Se  Se22  1  0.744240  0.250000  0.430708  1
  Se  Se23  1  0.255760  0.750000  0.569292  1
  Se  Se24  1  0.280822  0.250000  0.091657  1
  Se  Se25  1  0.719178  0.750000  0.908343  1
  Se  Se26  1  0.780822  0.750000  0.408343  1
  Se  Se27  1  0.219178  0.250000  0.591657  1
