# generated using pymatgen
data_LiH8BrN2
_symmetry_space_group_name_H-M   'P 1'
_cell_length_a   5.71733188
_cell_length_b   5.79500654
_cell_length_c   6.01741027
_cell_angle_alpha   63.69443900
_cell_angle_beta   100.91103373
_cell_angle_gamma   76.71343769
_symmetry_Int_Tables_number   1
_chemical_formula_structural   LiH8BrN2
_chemical_formula_sum   'Li1 H8 Br1 N2'
_cell_volume   163.96884299
_cell_formula_units_Z   1
loop_
 _symmetry_equiv_pos_site_id
 _symmetry_equiv_pos_as_xyz
  1  'x, y, z'
loop_
 _atom_site_type_symbol
 _atom_site_label
 _atom_site_symmetry_multiplicity
 _atom_site_fract_x
 _atom_site_fract_y
 _atom_site_fract_z
 _atom_site_occupancy
  Li  Li0  1  0.548485  0.270926  0.676103  1
  H  H1  1  0.604413  0.412810  0.222948  1
  H  H2  1  0.142904  0.139096  0.763865  1
  H  H3  1  0.156615  0.158884  0.486417  1
  H  H4  1  0.074143  0.438078  0.502109  1
  H  H5  1  0.353477  0.642655  0.199788  1
  H  H6  1  0.430986  0.620382  0.769311  1
  H  H7  1  0.320614  0.683895  0.644312  1
  H  H8  1  0.634729  0.664231  0.269448  1
  Br  Br9  1  0.888712  0.018095  0.115720  1
  N  N10  1  0.542422  0.525428  0.306313  1
  N  N11  1  0.198785  0.237778  0.605217  1
