# generated using pymatgen
data_Hf16Co4Ru3Rh
_symmetry_space_group_name_H-M   'P 1'
_cell_length_a   8.60080029
_cell_length_b   8.60080048
_cell_length_c   8.60080047
_cell_angle_alpha   59.91918967
_cell_angle_beta   59.91919169
_cell_angle_gamma   59.91918949
_symmetry_Int_Tables_number   1
_chemical_formula_structural   Hf16Co4Ru3Rh
_chemical_formula_sum   'Hf16 Co4 Ru3 Rh1'
_cell_volume   449.06042271
_cell_formula_units_Z   1
loop_
 _symmetry_equiv_pos_site_id
 _symmetry_equiv_pos_as_xyz
  1  'x, y, z'
loop_
 _atom_site_type_symbol
 _atom_site_label
 _atom_site_symmetry_multiplicity
 _atom_site_fract_x
 _atom_site_fract_y
 _atom_site_fract_z
 _atom_site_occupancy
  Hf  Hf0  1  0.685144  0.105035  0.105035  1
  Hf  Hf1  1  0.105035  0.685144  0.105035  1
  Hf  Hf2  1  0.105035  0.105035  0.685144  1
  Hf  Hf3  1  0.103796  0.103796  0.103796  1
  Hf  Hf4  1  0.314579  0.314579  0.688455  1
  Hf  Hf5  1  0.686068  0.686068  0.314489  1
  Hf  Hf6  1  0.314579  0.688455  0.314579  1
  Hf  Hf7  1  0.686068  0.314489  0.686068  1
  Hf  Hf8  1  0.688455  0.314579  0.314579  1
  Hf  Hf9  1  0.314489  0.686068  0.686068  1
  Hf  Hf10  1  0.947643  0.947643  0.552314  1
  Hf  Hf11  1  0.553762  0.553762  0.944855  1
  Hf  Hf12  1  0.947643  0.552314  0.947643  1
  Hf  Hf13  1  0.553762  0.944855  0.553762  1
  Hf  Hf14  1  0.552314  0.947643  0.947643  1
  Hf  Hf15  1  0.944855  0.553762  0.553762  1
  Co  Co16  1  0.322655  0.891848  0.891848  1
  Co  Co17  1  0.891848  0.322655  0.891848  1
  Co  Co18  1  0.891848  0.891848  0.322655  1
  Co  Co19  1  0.892672  0.892672  0.892672  1
  Ru  Ru20  1  0.996193  0.333785  0.333785  1
  Ru  Ru21  1  0.333785  0.996193  0.333785  1
  Ru  Ru22  1  0.333785  0.333785  0.996193  1
  Rh  Rh23  1  0.333982  0.333982  0.333982  1
