# generated using pymatgen
data_Np8CoS17
_symmetry_space_group_name_H-M   'P 1'
_cell_length_a   7.73793750
_cell_length_b   7.74010072
_cell_length_c   10.24375365
_cell_angle_alpha   80.41704064
_cell_angle_beta   80.42622919
_cell_angle_gamma   65.12694564
_symmetry_Int_Tables_number   1
_chemical_formula_structural   Np8CoS17
_chemical_formula_sum   'Np8 Co1 S17'
_cell_volume   545.65764347
_cell_formula_units_Z   1
loop_
 _symmetry_equiv_pos_site_id
 _symmetry_equiv_pos_as_xyz
  1  'x, y, z'
loop_
 _atom_site_type_symbol
 _atom_site_label
 _atom_site_symmetry_multiplicity
 _atom_site_fract_x
 _atom_site_fract_y
 _atom_site_fract_z
 _atom_site_occupancy
  Np  Np0  1  0.181410  0.697379  0.703114  1
  Np  Np1  1  0.697666  0.181024  0.703020  1
  Np  Np2  1  0.818590  0.302621  0.296886  1
  Np  Np3  1  0.302334  0.818976  0.296980  1
  Np  Np4  1  0.205566  0.205459  0.548669  1
  Np  Np5  1  0.794434  0.794541  0.451331  1
  Np  Np6  1  0.679830  0.681054  0.978120  1
  Np  Np7  1  0.320170  0.318946  0.021880  1
  Co  Co8  1  0.000000  0.000000  0.000000  1
  S  S9  1  0.822596  0.431254  0.535461  1
  S  S10  1  0.431246  0.822555  0.535500  1
  S  S11  1  0.177404  0.568746  0.464539  1
  S  S12  1  0.568754  0.177445  0.464500  1
  S  S13  1  0.052574  0.684510  0.973159  1
  S  S14  1  0.684137  0.053449  0.973222  1
  S  S15  1  0.947426  0.315490  0.026841  1
  S  S16  1  0.315863  0.946551  0.026778  1
  S  S17  1  0.053007  0.052810  0.778352  1
  S  S18  1  0.946993  0.947190  0.221648  1
  S  S19  1  0.212619  0.212873  0.281920  1
  S  S20  1  0.787381  0.787127  0.718080  1
  S  S21  1  0.300889  0.300935  0.758579  1
  S  S22  1  0.699111  0.699065  0.241421  1
  S  S23  1  0.521841  0.522279  0.828543  1
  S  S24  1  0.478159  0.477721  0.171457  1
  S  S25  1  0.000000  0.000000  0.500000  1
