# generated using pymatgen
data_Ce5Ir2Ru
_symmetry_space_group_name_H-M   'P 1'
_cell_length_a   11.07654400
_cell_length_b   11.07654400
_cell_length_c   6.27361500
_cell_angle_alpha   90.00000000
_cell_angle_beta   90.00000000
_cell_angle_gamma   90.00000000
_symmetry_Int_Tables_number   1
_chemical_formula_structural   Ce5Ir2Ru
_chemical_formula_sum   'Ce20 Ir8 Ru4'
_cell_volume   769.70873891
_cell_formula_units_Z   4
loop_
 _symmetry_equiv_pos_site_id
 _symmetry_equiv_pos_as_xyz
  1  'x, y, z'
loop_
 _atom_site_type_symbol
 _atom_site_label
 _atom_site_symmetry_multiplicity
 _atom_site_fract_x
 _atom_site_fract_y
 _atom_site_fract_z
 _atom_site_occupancy
  Ce  Ce0  1  0.290901  0.089835  0.375497  1
  Ce  Ce1  1  0.290901  0.910165  0.875497  1
  Ce  Ce2  1  0.709099  0.089835  0.875497  1
  Ce  Ce3  1  0.709099  0.910165  0.375497  1
  Ce  Ce4  1  0.589835  0.790901  0.875497  1
  Ce  Ce5  1  0.589835  0.209099  0.375497  1
  Ce  Ce6  1  0.410165  0.790901  0.375497  1
  Ce  Ce7  1  0.410165  0.209099  0.875497  1
  Ce  Ce8  1  0.209099  0.410165  0.624503  1
  Ce  Ce9  1  0.209099  0.589835  0.124503  1
  Ce  Ce10  1  0.790901  0.410165  0.124503  1
  Ce  Ce11  1  0.790901  0.589835  0.624503  1
  Ce  Ce12  1  0.910165  0.709099  0.124503  1
  Ce  Ce13  1  0.910165  0.290901  0.624503  1
  Ce  Ce14  1  0.089835  0.709099  0.624503  1
  Ce  Ce15  1  0.089835  0.290901  0.124503  1
  Ce  Ce16  1  0.000000  0.000000  0.500000  1
  Ce  Ce17  1  0.000000  0.000000  0.000000  1
  Ce  Ce18  1  0.500000  0.500000  0.000000  1
  Ce  Ce19  1  0.500000  0.500000  0.500000  1
  Ir  Ir20  1  0.843620  0.156380  0.250000  1
  Ir  Ir21  1  0.843620  0.843620  0.750000  1
  Ir  Ir22  1  0.156380  0.156380  0.750000  1
  Ir  Ir23  1  0.156380  0.843620  0.250000  1
  Ir  Ir24  1  0.656380  0.343620  0.750000  1
  Ir  Ir25  1  0.656380  0.656380  0.250000  1
  Ir  Ir26  1  0.343620  0.343620  0.250000  1
  Ir  Ir27  1  0.343620  0.656380  0.750000  1
  Ru  Ru28  1  0.500000  0.000000  0.120465  1
  Ru  Ru29  1  0.500000  0.000000  0.620465  1
  Ru  Ru30  1  0.000000  0.500000  0.879535  1
  Ru  Ru31  1  0.000000  0.500000  0.379535  1
