# generated using pymatgen
data_Yb3CeTi4O12
_symmetry_space_group_name_H-M   'P 1'
_cell_length_a   5.37214020
_cell_length_b   5.52603328
_cell_length_c   7.67429400
_cell_angle_alpha   90.00000000
_cell_angle_beta   90.00000000
_cell_angle_gamma   89.77847529
_symmetry_Int_Tables_number   1
_chemical_formula_structural   Yb3CeTi4O12
_chemical_formula_sum   'Yb3 Ce1 Ti4 O12'
_cell_volume   227.82218901
_cell_formula_units_Z   1
loop_
 _symmetry_equiv_pos_site_id
 _symmetry_equiv_pos_as_xyz
  1  'x, y, z'
loop_
 _atom_site_type_symbol
 _atom_site_label
 _atom_site_symmetry_multiplicity
 _atom_site_fract_x
 _atom_site_fract_y
 _atom_site_fract_z
 _atom_site_occupancy
  Yb  Yb0  1  0.514175  0.945528  0.750000  1
  Yb  Yb1  1  0.488056  0.052268  0.250000  1
  Yb  Yb2  1  0.011440  0.556113  0.250000  1
  Ce  Ce3  1  0.987400  0.446741  0.750000  1
  Ti  Ti4  1  0.001510  0.000478  0.004095  1
  Ti  Ti5  1  0.001510  0.000478  0.495905  1
  Ti  Ti6  1  0.497615  0.501089  0.005263  1
  Ti  Ti7  1  0.497615  0.501089  0.494737  1
  O  O8  1  0.087851  0.016201  0.750000  1
  O  O9  1  0.202182  0.296274  0.044433  1
  O  O10  1  0.202182  0.296274  0.455567  1
  O  O11  1  0.295142  0.793291  0.453433  1
  O  O12  1  0.295142  0.793291  0.046567  1
  O  O13  1  0.419696  0.525930  0.750000  1
  O  O14  1  0.586848  0.473779  0.250000  1
  O  O15  1  0.703940  0.206288  0.953245  1
  O  O16  1  0.703940  0.206288  0.546755  1
  O  O17  1  0.795392  0.706159  0.543255  1
  O  O18  1  0.795392  0.706159  0.956745  1
  O  O19  1  0.912973  0.976284  0.250000  1
