# generated using pymatgen
data_Tb3YGa4NiRu3
_symmetry_space_group_name_H-M   'P 1'
_cell_length_a   4.50386400
_cell_length_b   7.13162466
_cell_length_c   7.14077263
_cell_angle_alpha   89.45939090
_cell_angle_beta   90.00000000
_cell_angle_gamma   90.00000000
_symmetry_Int_Tables_number   1
_chemical_formula_structural   Tb3YGa4NiRu3
_chemical_formula_sum   'Tb3 Y1 Ga4 Ni1 Ru3'
_cell_volume   229.35046169
_cell_formula_units_Z   1
loop_
 _symmetry_equiv_pos_site_id
 _symmetry_equiv_pos_as_xyz
  1  'x, y, z'
loop_
 _atom_site_type_symbol
 _atom_site_label
 _atom_site_symmetry_multiplicity
 _atom_site_fract_x
 _atom_site_fract_y
 _atom_site_fract_z
 _atom_site_occupancy
  Tb  Tb0  1  0.250000  0.019447  0.803580  1
  Tb  Tb1  1  0.250000  0.519872  0.694584  1
  Tb  Tb2  1  0.750000  0.984935  0.199164  1
  Y  Y3  1  0.750000  0.483866  0.303862  1
  Ga  Ga4  1  0.250000  0.200206  0.400465  1
  Ga  Ga5  1  0.250000  0.691420  0.102601  1
  Ga  Ga6  1  0.750000  0.796761  0.604141  1
  Ga  Ga7  1  0.750000  0.309929  0.894723  1
  Ni  Ni8  1  0.750000  0.663800  0.933021  1
  Ru  Ru9  1  0.250000  0.838863  0.432842  1
  Ru  Ru10  1  0.250000  0.333162  0.063743  1
  Ru  Ru11  1  0.750000  0.157739  0.567272  1
