# generated using pymatgen
data_Be6ReNi2Mo3
_symmetry_space_group_name_H-M   'P 1'
_cell_length_a   4.51555460
_cell_length_b   4.47535048
_cell_length_c   7.37189957
_cell_angle_alpha   89.90494353
_cell_angle_beta   90.03809610
_cell_angle_gamma   119.73797623
_symmetry_Int_Tables_number   1
_chemical_formula_structural   Be6ReNi2Mo3
_chemical_formula_sum   'Be6 Re1 Ni2 Mo3'
_cell_volume   129.35648946
_cell_formula_units_Z   1
loop_
 _symmetry_equiv_pos_site_id
 _symmetry_equiv_pos_as_xyz
  1  'x, y, z'
loop_
 _atom_site_type_symbol
 _atom_site_label
 _atom_site_symmetry_multiplicity
 _atom_site_fract_x
 _atom_site_fract_y
 _atom_site_fract_z
 _atom_site_occupancy
  Be  Be0  1  0.000631  0.003531  0.999344  1
  Be  Be1  1  0.000014  0.000520  0.498971  1
  Be  Be2  1  0.656145  0.824723  0.748558  1
  Be  Be3  1  0.341696  0.167065  0.251840  1
  Be  Be4  1  0.828809  0.166652  0.251684  1
  Be  Be5  1  0.171979  0.341100  0.748592  1
  Re  Re6  1  0.340933  0.669564  0.438531  1
  Ni  Ni7  1  0.837115  0.667102  0.250046  1
  Ni  Ni8  1  0.162045  0.831115  0.749413  1
  Mo  Mo9  1  0.339416  0.669462  0.065550  1
  Mo  Mo10  1  0.660769  0.330619  0.560974  1
  Mo  Mo11  1  0.660449  0.328548  0.936497  1
