# generated using pymatgen
data_Yb4GaSiPt4
_symmetry_space_group_name_H-M   'P 1'
_cell_length_a   5.61612899
_cell_length_b   5.61612739
_cell_length_c   7.76067258
_cell_angle_alpha   79.10742514
_cell_angle_beta   79.10743601
_cell_angle_gamma   60.09030787
_symmetry_Int_Tables_number   1
_chemical_formula_structural   Yb4GaSiPt4
_chemical_formula_sum   'Yb4 Ga1 Si1 Pt4'
_cell_volume   207.05970461
_cell_formula_units_Z   1
loop_
 _symmetry_equiv_pos_site_id
 _symmetry_equiv_pos_as_xyz
  1  'x, y, z'
loop_
 _atom_site_type_symbol
 _atom_site_label
 _atom_site_symmetry_multiplicity
 _atom_site_fract_x
 _atom_site_fract_y
 _atom_site_fract_z
 _atom_site_occupancy
  Yb  Yb0  1  0.781337  0.516687  0.349385  1
  Yb  Yb1  1  0.483313  0.218663  0.150615  1
  Yb  Yb2  1  0.214124  0.483476  0.649778  1
  Yb  Yb3  1  0.516524  0.785876  0.850222  1
  Ga  Ga4  1  0.867801  0.132199  0.750000  1
  Si  Si5  1  0.121004  0.878996  0.250000  1
  Pt  Pt6  1  0.009027  0.736438  0.009882  1
  Pt  Pt7  1  0.263562  0.990973  0.490118  1
  Pt  Pt8  1  0.001733  0.258425  0.005879  1
  Pt  Pt9  1  0.741575  0.998267  0.494121  1
