# generated using pymatgen
data_LiAc2MoN4
_symmetry_space_group_name_H-M   'P 1'
_cell_length_a   5.96748500
_cell_length_b   6.25217554
_cell_length_c   6.98080800
_cell_angle_alpha   73.17916417
_cell_angle_beta   90.00000000
_cell_angle_gamma   90.00000000
_symmetry_Int_Tables_number   1
_chemical_formula_structural   LiAc2MoN4
_chemical_formula_sum   'Li2 Ac4 Mo2 N8'
_cell_volume   249.30867038
_cell_formula_units_Z   2
loop_
 _symmetry_equiv_pos_site_id
 _symmetry_equiv_pos_as_xyz
  1  'x, y, z'
loop_
 _atom_site_type_symbol
 _atom_site_label
 _atom_site_symmetry_multiplicity
 _atom_site_fract_x
 _atom_site_fract_y
 _atom_site_fract_z
 _atom_site_occupancy
  Li  Li0  1  0.750000  0.307337  0.309708  1
  Li  Li1  1  0.250000  0.692663  0.690292  1
  Ac  Ac2  1  0.250000  0.255892  0.060570  1
  Ac  Ac3  1  0.750000  0.744108  0.939430  1
  Ac  Ac4  1  0.750000  0.783493  0.429408  1
  Ac  Ac5  1  0.250000  0.216507  0.570592  1
  Mo  Mo6  1  0.250000  0.722243  0.199894  1
  Mo  Mo7  1  0.750000  0.277757  0.800106  1
  N  N8  1  0.502666  0.471455  0.750777  1
  N  N9  1  0.002666  0.528545  0.249223  1
  N  N10  1  0.497334  0.528545  0.249223  1
  N  N11  1  0.997334  0.471455  0.750777  1
  N  N12  1  0.750000  0.099846  0.614656  1
  N  N13  1  0.250000  0.900154  0.385344  1
  N  N14  1  0.750000  0.108538  0.078709  1
  N  N15  1  0.250000  0.891462  0.921291  1
