# generated using pymatgen
data_Cs2AcU(CuSe3)2
_symmetry_space_group_name_H-M   'P 1'
_cell_length_a   8.42792726
_cell_length_b   8.42792657
_cell_length_c   11.12666990
_cell_angle_alpha   92.36167646
_cell_angle_beta   92.36167548
_cell_angle_gamma   29.39060917
_symmetry_Int_Tables_number   1
_chemical_formula_structural   Cs2AcU(CuSe3)2
_chemical_formula_sum   'Cs2 Ac1 U1 Cu2 Se6'
_cell_volume   387.50943653
_cell_formula_units_Z   1
loop_
 _symmetry_equiv_pos_site_id
 _symmetry_equiv_pos_as_xyz
  1  'x, y, z'
loop_
 _atom_site_type_symbol
 _atom_site_label
 _atom_site_symmetry_multiplicity
 _atom_site_fract_x
 _atom_site_fract_y
 _atom_site_fract_z
 _atom_site_occupancy
  Cs  Cs0  1  0.743121  0.743121  0.237655  1
  Cs  Cs1  1  0.256879  0.256879  0.762344  1
  Ac  Ac2  1  0.000000  0.000000  0.000000  1
  U  U3  1  0.000000  0.000000  0.500000  1
  Cu  Cu4  1  0.463865  0.463865  0.258058  1
  Cu  Cu5  1  0.536134  0.536134  0.741941  1
  Se  Se6  1  0.376733  0.376733  0.073673  1
  Se  Se7  1  0.609522  0.609522  0.557304  1
  Se  Se8  1  0.623267  0.623267  0.926327  1
  Se  Se9  1  0.390478  0.390478  0.442695  1
  Se  Se10  1  0.053723  0.053723  0.272095  1
  Se  Se11  1  0.946276  0.946276  0.727904  1
