# generated using pymatgen
data_Tm6Co15Ni2P12W
_symmetry_space_group_name_H-M   'P 1'
_cell_length_a   3.69460900
_cell_length_b   10.50945600
_cell_length_c   12.17903900
_cell_angle_alpha   90.00000000
_cell_angle_beta   90.00000000
_cell_angle_gamma   90.00000000
_symmetry_Int_Tables_number   1
_chemical_formula_structural   Tm6Co15Ni2P12W
_chemical_formula_sum   'Tm6 Co15 Ni2 P12 W1'
_cell_volume   472.89175418
_cell_formula_units_Z   1
loop_
 _symmetry_equiv_pos_site_id
 _symmetry_equiv_pos_as_xyz
  1  'x, y, z'
loop_
 _atom_site_type_symbol
 _atom_site_label
 _atom_site_symmetry_multiplicity
 _atom_site_fract_x
 _atom_site_fract_y
 _atom_site_fract_z
 _atom_site_occupancy
  Tm  Tm0  1  0.000000  0.500000  0.523116  1
  Tm  Tm1  1  0.500000  0.000000  0.476337  1
  Tm  Tm2  1  0.500000  0.818537  0.207437  1
  Tm  Tm3  1  0.500000  0.181463  0.207437  1
  Tm  Tm4  1  0.000000  0.682453  0.796254  1
  Tm  Tm5  1  0.000000  0.317547  0.796254  1
  Co  Co6  1  0.000000  0.000000  0.296237  1
  Co  Co7  1  0.000000  0.500000  0.987465  1
  Co  Co8  1  0.500000  0.000000  0.015867  1
  Co  Co9  1  0.500000  0.331920  0.991009  1
  Co  Co10  1  0.500000  0.668080  0.991009  1
  Co  Co11  1  0.000000  0.165493  0.004692  1
  Co  Co12  1  0.000000  0.834507  0.004692  1
  Co  Co13  1  0.500000  0.296274  0.432245  1
  Co  Co14  1  0.500000  0.703726  0.432245  1
  Co  Co15  1  0.000000  0.201889  0.568792  1
  Co  Co16  1  0.000000  0.798111  0.568792  1
  Co  Co17  1  0.500000  0.878238  0.708563  1
  Co  Co18  1  0.500000  0.121762  0.708563  1
  Co  Co19  1  0.000000  0.622460  0.292243  1
  Co  Co20  1  0.000000  0.377540  0.292243  1
  Ni  Ni21  1  0.000000  0.000000  0.837045  1
  Ni  Ni22  1  0.500000  0.500000  0.702158  1
  P  P23  1  0.500000  0.500000  0.880993  1
  P  P24  1  0.000000  0.000000  0.118413  1
  P  P25  1  0.500000  0.500000  0.352211  1
  P  P26  1  0.000000  0.000000  0.651892  1
  P  P27  1  0.500000  0.311508  0.616631  1
  P  P28  1  0.500000  0.688492  0.616631  1
  P  P29  1  0.000000  0.187448  0.384136  1
  P  P30  1  0.000000  0.812552  0.384136  1
  P  P31  1  0.500000  0.848402  0.891587  1
  P  P32  1  0.500000  0.151598  0.891587  1
  P  P33  1  0.000000  0.658911  0.106701  1
  P  P34  1  0.000000  0.341089  0.106701  1
  W  W35  1  0.500000  0.500000  0.157678  1
