# generated using pymatgen
data_CaDy3Zn2(Co2B)6
_symmetry_space_group_name_H-M   'P 1'
_cell_length_a   5.11168414
_cell_length_b   5.11211593
_cell_length_c   12.63346300
_cell_angle_alpha   90.00000000
_cell_angle_beta   89.99997758
_cell_angle_gamma   119.98504378
_symmetry_Int_Tables_number   1
_chemical_formula_structural   CaDy3Zn2(Co2B)6
_chemical_formula_sum   'Ca1 Dy3 Zn2 Co12 B6'
_cell_volume   285.94544364
_cell_formula_units_Z   1
loop_
 _symmetry_equiv_pos_site_id
 _symmetry_equiv_pos_as_xyz
  1  'x, y, z'
loop_
 _atom_site_type_symbol
 _atom_site_label
 _atom_site_symmetry_multiplicity
 _atom_site_fract_x
 _atom_site_fract_y
 _atom_site_fract_z
 _atom_site_occupancy
  Ca  Ca0  1  0.000000  0.000000  0.999856  1
  Dy  Dy1  1  0.000000  0.000000  0.259356  1
  Dy  Dy2  1  0.000000  0.000000  0.500109  1
  Dy  Dy3  1  0.000000  0.000000  0.740774  1
  Zn  Zn4  1  0.333298  0.666624  0.999904  1
  Zn  Zn5  1  0.666702  0.333376  0.999904  1
  Co  Co6  1  0.500000  0.000001  0.612941  1
  Co  Co7  1  0.500000  0.000000  0.835927  1
  Co  Co8  1  0.500000  0.500000  0.835929  1
  Co  Co9  1  0.500000  0.500000  0.387101  1
  Co  Co10  1  0.000000  0.500000  0.612949  1
  Co  Co11  1  0.000000  0.500000  0.164039  1
  Co  Co12  1  0.000000  0.500000  0.835909  1
  Co  Co13  1  0.500000  0.500000  0.164028  1
  Co  Co14  1  0.500000  0.000000  0.387107  1
  Co  Co15  1  0.500000  0.000000  0.164032  1
  Co  Co16  1  0.500000  0.500000  0.612939  1
  Co  Co17  1  0.000000  0.500000  0.387112  1
  B  B18  1  0.666681  0.333336  0.728864  1
  B  B19  1  0.333319  0.666664  0.728864  1
  B  B20  1  0.333306  0.666642  0.271155  1
  B  B21  1  0.666663  0.333334  0.500024  1
  B  B22  1  0.666693  0.333358  0.271155  1
  B  B23  1  0.333337  0.666665  0.500024  1
