# generated using pymatgen
data_Tb2ZrSc(Al3Ir)6
_symmetry_space_group_name_H-M   'P 1'
_cell_length_a   7.52530807
_cell_length_b   7.52377095
_cell_length_c   9.39493900
_cell_angle_alpha   90.00000000
_cell_angle_beta   90.00000000
_cell_angle_gamma   119.63533632
_symmetry_Int_Tables_number   1
_chemical_formula_structural   Tb2ZrSc(Al3Ir)6
_chemical_formula_sum   'Tb2 Zr1 Sc1 Al18 Ir6'
_cell_volume   462.34759386
_cell_formula_units_Z   1
loop_
 _symmetry_equiv_pos_site_id
 _symmetry_equiv_pos_as_xyz
  1  'x, y, z'
loop_
 _atom_site_type_symbol
 _atom_site_label
 _atom_site_symmetry_multiplicity
 _atom_site_fract_x
 _atom_site_fract_y
 _atom_site_fract_z
 _atom_site_occupancy
  Tb  Tb0  1  0.005751  0.327325  0.750000  1
  Tb  Tb1  1  0.329279  0.007052  0.750000  1
  Zr  Zr2  1  0.996835  0.672264  0.250000  1
  Sc  Sc3  1  0.671639  0.996076  0.250000  1
  Al  Al4  1  0.122362  0.121209  0.250000  1
  Al  Al5  1  0.868780  0.868656  0.750000  1
  Al  Al6  1  0.997259  0.334931  0.082180  1
  Al  Al7  1  0.998577  0.664852  0.930532  1
  Al  Al8  1  0.998577  0.664852  0.569468  1
  Al  Al9  1  0.335485  0.997988  0.417712  1
  Al  Al10  1  0.997259  0.334931  0.417820  1
  Al  Al11  1  0.664763  0.997987  0.569706  1
  Al  Al12  1  0.664763  0.997987  0.930294  1
  Al  Al13  1  0.335485  0.997988  0.082288  1
  Al  Al14  1  0.334222  0.334466  0.547575  1
  Al  Al15  1  0.669282  0.669420  0.439209  1
  Al  Al16  1  0.669282  0.669420  0.060791  1
  Al  Al17  1  0.334222  0.334466  0.952425  1
  Al  Al18  1  0.338568  0.553945  0.250000  1
  Al  Al19  1  0.660171  0.452755  0.750000  1
  Al  Al20  1  0.556300  0.342542  0.250000  1
  Al  Al21  1  0.451852  0.660029  0.750000  1
  Ir  Ir22  1  0.672674  0.328419  0.001704  1
  Ir  Ir23  1  0.327595  0.672225  0.002346  1
  Ir  Ir24  1  0.327595  0.672225  0.497654  1
  Ir  Ir25  1  0.672674  0.328419  0.498296  1
  Ir  Ir26  1  0.999375  0.998786  0.001610  1
  Ir  Ir27  1  0.999375  0.998786  0.498390  1
