# generated using pymatgen
data_Rb2Sr4Si8O21
_symmetry_space_group_name_H-M   'P 1'
_cell_length_a   7.13927455
_cell_length_b   7.36382047
_cell_length_c   11.66917453
_cell_angle_alpha   97.36195112
_cell_angle_beta   104.89161489
_cell_angle_gamma   108.89197574
_symmetry_Int_Tables_number   1
_chemical_formula_structural   Rb2Sr4Si8O21
_chemical_formula_sum   'Rb2 Sr4 Si8 O21'
_cell_volume   545.74354727
_cell_formula_units_Z   1
loop_
 _symmetry_equiv_pos_site_id
 _symmetry_equiv_pos_as_xyz
  1  'x, y, z'
loop_
 _atom_site_type_symbol
 _atom_site_label
 _atom_site_symmetry_multiplicity
 _atom_site_fract_x
 _atom_site_fract_y
 _atom_site_fract_z
 _atom_site_occupancy
  Rb  Rb0  1  0.747446  0.709370  0.437467  1
  Rb  Rb1  1  0.252554  0.290630  0.562533  1
  Sr  Sr2  1  0.679032  0.783441  0.816651  1
  Sr  Sr3  1  0.320968  0.216559  0.183349  1
  Sr  Sr4  1  0.362855  0.717197  0.039832  1
  Sr  Sr5  1  0.637145  0.282803  0.960168  1
  Si  Si6  1  0.097043  0.236213  0.881012  1
  Si  Si7  1  0.902957  0.763787  0.118988  1
  Si  Si8  1  0.184417  0.894280  0.745438  1
  Si  Si9  1  0.815583  0.105720  0.254562  1
  Si  Si10  1  0.655071  0.192544  0.468646  1
  Si  Si11  1  0.344929  0.807456  0.531354  1
  Si  Si12  1  0.879780  0.462658  0.732668  1
  Si  Si13  1  0.120220  0.537342  0.267332  1
  O  O14  1  0.500000  0.000000  0.500000  1
  O  O15  1  0.840077  0.331890  0.597019  1
  O  O16  1  0.159923  0.668110  0.402981  1
  O  O17  1  0.387303  0.906457  0.850505  1
  O  O18  1  0.612697  0.093543  0.149495  1
  O  O19  1  0.888251  0.133977  0.914351  1
  O  O20  1  0.111749  0.866023  0.085649  1
  O  O21  1  0.684179  0.678911  0.009459  1
  O  O22  1  0.315821  0.321089  0.990541  1
  O  O23  1  0.114056  0.085599  0.766823  1
  O  O24  1  0.885944  0.914401  0.233177  1
  O  O25  1  0.082490  0.435687  0.827100  1
  O  O26  1  0.917510  0.564313  0.172900  1
  O  O27  1  0.970037  0.701631  0.729941  1
  O  O28  1  0.029963  0.298369  0.270059  1
  O  O29  1  0.471735  0.692826  0.602956  1
  O  O30  1  0.528265  0.307174  0.397044  1
  O  O31  1  0.320986  0.576537  0.223251  1
  O  O32  1  0.679014  0.423463  0.776749  1
  O  O33  1  0.210135  0.889826  0.607972  1
  O  O34  1  0.789865  0.110174  0.392028  1
