# generated using pymatgen
data_Dy11Ho5(C2Cl3)4
_symmetry_space_group_name_H-M   'P 1'
_cell_length_a   3.64715500
_cell_length_b   10.48079214
_cell_length_c   19.66832626
_cell_angle_alpha   90.01884674
_cell_angle_beta   90.00000000
_cell_angle_gamma   90.00000000
_symmetry_Int_Tables_number   1
_chemical_formula_structural   Dy11Ho5(C2Cl3)4
_chemical_formula_sum   'Dy11 Ho5 C8 Cl12'
_cell_volume   751.82317575
_cell_formula_units_Z   1
loop_
 _symmetry_equiv_pos_site_id
 _symmetry_equiv_pos_as_xyz
  1  'x, y, z'
loop_
 _atom_site_type_symbol
 _atom_site_label
 _atom_site_symmetry_multiplicity
 _atom_site_fract_x
 _atom_site_fract_y
 _atom_site_fract_z
 _atom_site_occupancy
  Dy  Dy0  1  0.250000  0.138781  0.573279  1
  Dy  Dy1  1  0.250000  0.638540  0.926717  1
  Dy  Dy2  1  0.750000  0.861191  0.426796  1
  Dy  Dy3  1  0.750000  0.361154  0.073182  1
  Dy  Dy4  1  0.250000  0.637614  0.755868  1
  Dy  Dy5  1  0.250000  0.137561  0.744255  1
  Dy  Dy6  1  0.750000  0.362466  0.244056  1
  Dy  Dy7  1  0.750000  0.862314  0.255943  1
  Dy  Dy8  1  0.250000  0.100634  0.331889  1
  Dy  Dy9  1  0.250000  0.600665  0.168102  1
  Dy  Dy10  1  0.750000  0.899239  0.668055  1
  Ho  Ho11  1  0.750000  0.399758  0.831522  1
  Ho  Ho12  1  0.250000  0.124953  0.164703  1
  Ho  Ho13  1  0.250000  0.624869  0.335297  1
  Ho  Ho14  1  0.750000  0.875341  0.835369  1
  Ho  Ho15  1  0.750000  0.375009  0.664824  1
  C  C16  1  0.250000  0.863524  0.347930  1
  C  C17  1  0.250000  0.363371  0.152029  1
  C  C18  1  0.750000  0.136699  0.652155  1
  C  C19  1  0.750000  0.635774  0.847917  1
  C  C20  1  0.250000  0.388057  0.750054  1
  C  C21  1  0.250000  0.887809  0.750447  1
  C  C22  1  0.750000  0.612091  0.250378  1
  C  C23  1  0.750000  0.112016  0.249622  1
  Cl  Cl24  1  0.250000  0.377357  0.951632  1
  Cl  Cl25  1  0.250000  0.877408  0.547801  1
  Cl  Cl26  1  0.750000  0.622428  0.047504  1
  Cl  Cl27  1  0.750000  0.122584  0.452508  1
  Cl  Cl28  1  0.250000  0.887897  0.944294  1
  Cl  Cl29  1  0.250000  0.388099  0.555864  1
  Cl  Cl30  1  0.750000  0.111983  0.055423  1
  Cl  Cl31  1  0.750000  0.612028  0.444553  1
  Cl  Cl32  1  0.250000  0.361572  0.354580  1
  Cl  Cl33  1  0.250000  0.861563  0.145420  1
  Cl  Cl34  1  0.750000  0.638265  0.645663  1
  Cl  Cl35  1  0.750000  0.139387  0.854370  1
