# generated using pymatgen
data_BaSb12MoOs2Pt
_symmetry_space_group_name_H-M   'P 1'
_cell_length_a   8.29494907
_cell_length_b   8.23036096
_cell_length_c   8.28198097
_cell_angle_alpha   109.18269667
_cell_angle_beta   109.73732902
_cell_angle_gamma   109.30307700
_symmetry_Int_Tables_number   1
_chemical_formula_structural   BaSb12MoOs2Pt
_chemical_formula_sum   'Ba1 Sb12 Mo1 Os2 Pt1'
_cell_volume   436.26829215
_cell_formula_units_Z   1
loop_
 _symmetry_equiv_pos_site_id
 _symmetry_equiv_pos_as_xyz
  1  'x, y, z'
loop_
 _atom_site_type_symbol
 _atom_site_label
 _atom_site_symmetry_multiplicity
 _atom_site_fract_x
 _atom_site_fract_y
 _atom_site_fract_z
 _atom_site_occupancy
  Ba  Ba0  1  0.000000  0.000000  0.000000  1
  Sb  Sb1  1  0.338490  0.180001  0.839934  1
  Sb  Sb2  1  0.661510  0.819999  0.160066  1
  Sb  Sb3  1  0.653056  0.499694  0.846219  1
  Sb  Sb4  1  0.346944  0.500306  0.153781  1
  Sb  Sb5  1  0.183064  0.846005  0.345466  1
  Sb  Sb6  1  0.816936  0.153995  0.654534  1
  Sb  Sb7  1  0.500287  0.849553  0.660693  1
  Sb  Sb8  1  0.499713  0.150447  0.339307  1
  Sb  Sb9  1  0.837258  0.336825  0.183314  1
  Sb  Sb10  1  0.162742  0.663175  0.816686  1
  Sb  Sb11  1  0.848486  0.659471  0.499916  1
  Sb  Sb12  1  0.151514  0.340529  0.500084  1
  Mo  Mo13  1  0.000000  0.500000  0.000000  1
  Os  Os14  1  0.000000  0.000000  0.500000  1
  Os  Os15  1  0.500000  0.000000  0.000000  1
  Pt  Pt16  1  0.500000  0.500000  0.500000  1
