# generated using pymatgen
data_Ho2Sc3Si7Pt7Rh2
_symmetry_space_group_name_H-M   'P 1'
_cell_length_a   10.04495210
_cell_length_b   10.01586025
_cell_length_c   3.94022100
_cell_angle_alpha   90.00000000
_cell_angle_beta   90.00000000
_cell_angle_gamma   119.74796985
_symmetry_Int_Tables_number   1
_chemical_formula_structural   Ho2Sc3Si7Pt7Rh2
_chemical_formula_sum   'Ho2 Sc3 Si7 Pt7 Rh2'
_cell_volume   344.17925584
_cell_formula_units_Z   1
loop_
 _symmetry_equiv_pos_site_id
 _symmetry_equiv_pos_as_xyz
  1  'x, y, z'
loop_
 _atom_site_type_symbol
 _atom_site_label
 _atom_site_symmetry_multiplicity
 _atom_site_fract_x
 _atom_site_fract_y
 _atom_site_fract_z
 _atom_site_occupancy
  Ho  Ho0  1  0.001815  0.000418  0.000000  1
  Ho  Ho1  1  0.331369  0.665964  0.500000  1
  Sc  Sc2  1  0.894753  0.455080  0.500000  1
  Sc  Sc3  1  0.559854  0.103840  0.500000  1
  Sc  Sc4  1  0.543702  0.438979  0.500000  1
  Si  Si5  1  0.244700  0.195860  0.500000  1
  Si  Si6  1  0.809390  0.054202  0.500000  1
  Si  Si7  1  0.955596  0.755848  0.500000  1
  Si  Si8  1  0.555004  0.646492  0.000000  1
  Si  Si9  1  0.349115  0.909294  0.000000  1
  Si  Si10  1  0.089935  0.440803  0.000000  1
  Si  Si11  1  0.666077  0.332507  0.000000  1
  Pt  Pt12  1  0.718328  0.781558  0.500000  1
  Pt  Pt13  1  0.312909  0.410933  0.000000  1
  Pt  Pt14  1  0.585253  0.900731  0.000000  1
  Pt  Pt15  1  0.097742  0.687719  0.000000  1
  Pt  Pt16  1  0.384218  0.172093  0.000000  1
  Pt  Pt17  1  0.827452  0.210530  0.000000  1
  Pt  Pt18  1  0.787498  0.614909  0.000000  1
  Rh  Rh19  1  0.221862  0.937901  0.500000  1
  Rh  Rh20  1  0.063426  0.284343  0.500000  1
