# generated using pymatgen
data_ScTa2ZnNi12
_symmetry_space_group_name_H-M   'P 1'
_cell_length_a   3.65165600
_cell_length_b   3.65165600
_cell_length_c   14.50816000
_cell_angle_alpha   90.00000000
_cell_angle_beta   90.00000000
_cell_angle_gamma   90.00000000
_symmetry_Int_Tables_number   1
_chemical_formula_structural   ScTa2ZnNi12
_chemical_formula_sum   'Sc1 Ta2 Zn1 Ni12'
_cell_volume   193.46038763
_cell_formula_units_Z   1
loop_
 _symmetry_equiv_pos_site_id
 _symmetry_equiv_pos_as_xyz
  1  'x, y, z'
loop_
 _atom_site_type_symbol
 _atom_site_label
 _atom_site_symmetry_multiplicity
 _atom_site_fract_x
 _atom_site_fract_y
 _atom_site_fract_z
 _atom_site_occupancy
  Sc  Sc0  1  0.000000  0.000000  0.500000  1
  Ta  Ta1  1  0.000000  0.000000  0.243962  1
  Ta  Ta2  1  0.000000  0.000000  0.756038  1
  Zn  Zn3  1  0.000000  0.000000  0.000000  1
  Ni  Ni4  1  0.500000  0.500000  0.000000  1
  Ni  Ni5  1  0.500000  0.500000  0.246810  1
  Ni  Ni6  1  0.500000  0.500000  0.500000  1
  Ni  Ni7  1  0.500000  0.500000  0.753190  1
  Ni  Ni8  1  0.500000  0.000000  0.121951  1
  Ni  Ni9  1  0.500000  0.000000  0.369934  1
  Ni  Ni10  1  0.500000  0.000000  0.630066  1
  Ni  Ni11  1  0.500000  0.000000  0.878049  1
  Ni  Ni12  1  0.000000  0.500000  0.121951  1
  Ni  Ni13  1  0.000000  0.500000  0.369934  1
  Ni  Ni14  1  0.000000  0.500000  0.630066  1
  Ni  Ni15  1  0.000000  0.500000  0.878049  1
