# generated using pymatgen
data_Nd4Zn9GaSiSn
_symmetry_space_group_name_H-M   'P 1'
_cell_length_a   8.45817692
_cell_length_b   8.45817721
_cell_length_c   8.99356106
_cell_angle_alpha   90.29650599
_cell_angle_beta   89.70350057
_cell_angle_gamma   149.53218177
_symmetry_Int_Tables_number   1
_chemical_formula_structural   Nd4Zn9GaSiSn
_chemical_formula_sum   'Nd4 Zn9 Ga1 Si1 Sn1'
_cell_volume   326.23719744
_cell_formula_units_Z   1
loop_
 _symmetry_equiv_pos_site_id
 _symmetry_equiv_pos_as_xyz
  1  'x, y, z'
loop_
 _atom_site_type_symbol
 _atom_site_label
 _atom_site_symmetry_multiplicity
 _atom_site_fract_x
 _atom_site_fract_y
 _atom_site_fract_z
 _atom_site_occupancy
  Nd  Nd0  1  0.201900  0.798100  0.249248  1
  Nd  Nd1  1  0.795744  0.204256  0.751380  1
  Nd  Nd2  1  0.000883  0.999117  0.486331  1
  Nd  Nd3  1  0.001217  0.998783  0.012246  1
  Zn  Zn4  1  0.184696  0.815304  0.608659  1
  Zn  Zn5  1  0.813799  0.186201  0.106999  1
  Zn  Zn6  1  0.185534  0.814466  0.894105  1
  Zn  Zn7  1  0.649711  0.350289  0.475565  1
  Zn  Zn8  1  0.343565  0.656435  0.517325  1
  Zn  Zn9  1  0.650170  0.349830  0.024002  1
  Zn  Zn10  1  0.343518  0.656482  0.985028  1
  Zn  Zn11  1  0.405941  0.594059  0.247817  1
  Zn  Zn12  1  0.606043  0.393957  0.750277  1
  Ga  Ga13  1  0.813082  0.186918  0.390614  1
  Si  Si14  1  0.557502  0.442498  0.250104  1
  Sn  Sn15  1  0.446695  0.553305  0.750300  1
