# generated using pymatgen
data_TbPa3(SnRu2)2
_symmetry_space_group_name_H-M   'P 1'
_cell_length_a   7.55550000
_cell_length_b   7.55549950
_cell_length_c   3.62959200
_cell_angle_alpha   90.00000000
_cell_angle_beta   90.00000000
_cell_angle_gamma   90.53510209
_symmetry_Int_Tables_number   1
_chemical_formula_structural   TbPa3(SnRu2)2
_chemical_formula_sum   'Tb1 Pa3 Sn2 Ru4'
_cell_volume   207.18831567
_cell_formula_units_Z   1
loop_
 _symmetry_equiv_pos_site_id
 _symmetry_equiv_pos_as_xyz
  1  'x, y, z'
loop_
 _atom_site_type_symbol
 _atom_site_label
 _atom_site_symmetry_multiplicity
 _atom_site_fract_x
 _atom_site_fract_y
 _atom_site_fract_z
 _atom_site_occupancy
  Tb  Tb0  1  0.831328  0.668672  0.500000  1
  Pa  Pa1  1  0.672265  0.162809  0.500000  1
  Pa  Pa2  1  0.337191  0.827735  0.500000  1
  Pa  Pa3  1  0.166302  0.333698  0.500000  1
  Sn  Sn4  1  0.002217  0.988518  0.000000  1
  Sn  Sn5  1  0.511482  0.497783  0.000000  1
  Ru  Ru6  1  0.154420  0.633251  0.000000  1
  Ru  Ru7  1  0.866749  0.345580  0.000000  1
  Ru  Ru8  1  0.610405  0.889595  0.000000  1
  Ru  Ru9  1  0.347640  0.152360  0.000000  1
