# generated using pymatgen
data_Tb2Y10AlInCo4
_symmetry_space_group_name_H-M   'P 1'
_cell_length_a   8.38542928
_cell_length_b   8.37525878
_cell_length_c   8.38542845
_cell_angle_alpha   112.02786663
_cell_angle_beta   109.81508845
_cell_angle_gamma   106.66405062
_symmetry_Int_Tables_number   1
_chemical_formula_structural   Tb2Y10AlInCo4
_chemical_formula_sum   'Tb2 Y10 Al1 In1 Co4'
_cell_volume   452.07138432
_cell_formula_units_Z   1
loop_
 _symmetry_equiv_pos_site_id
 _symmetry_equiv_pos_as_xyz
  1  'x, y, z'
loop_
 _atom_site_type_symbol
 _atom_site_label
 _atom_site_symmetry_multiplicity
 _atom_site_fract_x
 _atom_site_fract_y
 _atom_site_fract_z
 _atom_site_occupancy
  Tb  Tb0  1  0.324213  0.010089  0.685875  1
  Tb  Tb1  1  0.675787  0.989911  0.314125  1
  Y  Y2  1  0.434172  0.234468  0.199175  1
  Y  Y3  1  0.565828  0.765532  0.800825  1
  Y  Y4  1  0.035294  0.234468  0.800296  1
  Y  Y5  1  0.964706  0.765532  0.199704  1
  Y  Y6  1  0.181557  0.282903  0.464225  1
  Y  Y7  1  0.818443  0.717097  0.535775  1
  Y  Y8  1  0.181322  0.717097  0.898654  1
  Y  Y9  1  0.818678  0.282903  0.101346  1
  Y  Y10  1  0.324341  0.636468  0.312128  1
  Y  Y11  1  0.675659  0.363532  0.687872  1
  Al  Al12  1  0.000000  0.000000  0.000000  1
  In  In13  1  0.500000  0.500000  0.000000  1
  Co  Co14  1  0.333415  0.000000  0.333415  1
  Co  Co15  1  0.666585  0.000000  0.666585  1
  Co  Co16  1  0.113023  0.613737  0.500714  1
  Co  Co17  1  0.886977  0.386263  0.499286  1
