# generated using pymatgen
data_ErTm15(LuPt4)4
_symmetry_space_group_name_H-M   'P 1'
_cell_length_a   7.35436693
_cell_length_b   7.44381396
_cell_length_c   14.65459717
_cell_angle_alpha   89.96730138
_cell_angle_beta   90.03513800
_cell_angle_gamma   90.00919724
_symmetry_Int_Tables_number   1
_chemical_formula_structural   ErTm15(LuPt4)4
_chemical_formula_sum   'Er1 Tm15 Lu4 Pt16'
_cell_volume   802.25887804
_cell_formula_units_Z   1
loop_
 _symmetry_equiv_pos_site_id
 _symmetry_equiv_pos_as_xyz
  1  'x, y, z'
loop_
 _atom_site_type_symbol
 _atom_site_label
 _atom_site_symmetry_multiplicity
 _atom_site_fract_x
 _atom_site_fract_y
 _atom_site_fract_z
 _atom_site_occupancy
  Er  Er0  1  0.977866  0.825669  0.595917  1
  Tm  Tm1  1  0.633672  0.168097  0.621208  1
  Tm  Tm2  1  0.133739  0.331850  0.878463  1
  Tm  Tm3  1  0.366528  0.831727  0.121246  1
  Tm  Tm4  1  0.867205  0.668318  0.378874  1
  Tm  Tm5  1  0.366549  0.831932  0.378704  1
  Tm  Tm6  1  0.866326  0.668241  0.121369  1
  Tm  Tm7  1  0.633659  0.168294  0.878509  1
  Tm  Tm8  1  0.133358  0.331876  0.621297  1
  Tm  Tm9  1  0.478105  0.674463  0.595700  1
  Tm  Tm10  1  0.978589  0.825533  0.904310  1
  Tm  Tm11  1  0.521401  0.325699  0.095592  1
  Tm  Tm12  1  0.021504  0.173692  0.404519  1
  Tm  Tm13  1  0.522132  0.325515  0.404244  1
  Tm  Tm14  1  0.021440  0.174619  0.095594  1
  Tm  Tm15  1  0.478706  0.674487  0.904200  1
  Lu  Lu16  1  0.796159  0.509800  0.749826  1
  Lu  Lu17  1  0.296401  0.990366  0.749781  1
  Lu  Lu18  1  0.203709  0.490041  0.250119  1
  Lu  Lu19  1  0.703710  0.009860  0.250073  1
  Pt  Pt20  1  0.700501  0.973658  0.457818  1
  Pt  Pt21  1  0.200132  0.525662  0.042651  1
  Pt  Pt22  1  0.299732  0.025534  0.957068  1
  Pt  Pt23  1  0.799504  0.475611  0.543344  1
  Pt  Pt24  1  0.298355  0.024744  0.542934  1
  Pt  Pt25  1  0.799946  0.474423  0.957196  1
  Pt  Pt26  1  0.700394  0.974614  0.042779  1
  Pt  Pt27  1  0.201132  0.524912  0.457017  1
  Pt  Pt28  1  0.429318  0.385468  0.749800  1
  Pt  Pt29  1  0.929532  0.114537  0.749957  1
  Pt  Pt30  1  0.570665  0.615233  0.250185  1
  Pt  Pt31  1  0.070528  0.885186  0.249922  1
  Pt  Pt32  1  0.655842  0.856043  0.749919  1
  Pt  Pt33  1  0.155522  0.644234  0.749759  1
  Pt  Pt34  1  0.344180  0.143959  0.249979  1
  Pt  Pt35  1  0.843962  0.356105  0.250130  1
