# generated using pymatgen
data_Tb7LuTi9Si16Mo3
_symmetry_space_group_name_H-M   'P 1'
_cell_length_a   6.82380694
_cell_length_b   7.00724945
_cell_length_c   13.30492608
_cell_angle_alpha   89.94826615
_cell_angle_beta   90.00415221
_cell_angle_gamma   90.05578999
_symmetry_Int_Tables_number   1
_chemical_formula_structural   Tb7LuTi9Si16Mo3
_chemical_formula_sum   'Tb7 Lu1 Ti9 Si16 Mo3'
_cell_volume   636.18934503
_cell_formula_units_Z   1
loop_
 _symmetry_equiv_pos_site_id
 _symmetry_equiv_pos_as_xyz
  1  'x, y, z'
loop_
 _atom_site_type_symbol
 _atom_site_label
 _atom_site_symmetry_multiplicity
 _atom_site_fract_x
 _atom_site_fract_y
 _atom_site_fract_z
 _atom_site_occupancy
  Tb  Tb0  1  0.502973  0.328318  0.097570  1
  Tb  Tb1  1  0.003215  0.172352  0.402587  1
  Tb  Tb2  1  0.495381  0.669386  0.596181  1
  Tb  Tb3  1  0.997760  0.827747  0.905105  1
  Tb  Tb4  1  0.494909  0.669527  0.904620  1
  Tb  Tb5  1  0.997756  0.827665  0.595983  1
  Tb  Tb6  1  0.503062  0.328430  0.401395  1
  Lu  Lu7  1  0.002345  0.173250  0.098259  1
  Ti  Ti8  1  0.836088  0.328013  0.627735  1
  Ti  Ti9  1  0.332327  0.174586  0.873335  1
  Ti  Ti10  1  0.166515  0.674193  0.127127  1
  Ti  Ti11  1  0.667311  0.827883  0.371942  1
  Ti  Ti12  1  0.166328  0.673117  0.371903  1
  Ti  Ti13  1  0.667681  0.828210  0.126608  1
  Ti  Ti14  1  0.836713  0.327180  0.873214  1
  Ti  Ti15  1  0.332653  0.174455  0.627147  1
  Ti  Ti16  1  0.662291  0.009392  0.750426  1
  Si  Si17  1  0.657996  0.040286  0.541390  1
  Si  Si18  1  0.157598  0.456730  0.958402  1
  Si  Si19  1  0.338946  0.961618  0.043959  1
  Si  Si20  1  0.840418  0.541773  0.456433  1
  Si  Si21  1  0.342546  0.959264  0.456092  1
  Si  Si22  1  0.841663  0.538822  0.044042  1
  Si  Si23  1  0.658601  0.040255  0.958952  1
  Si  Si24  1  0.157774  0.458524  0.542947  1
  Si  Si25  1  0.536243  0.372090  0.750449  1
  Si  Si26  1  0.037099  0.128214  0.750276  1
  Si  Si27  1  0.464461  0.627867  0.249261  1
  Si  Si28  1  0.964551  0.874199  0.248976  1
  Si  Si29  1  0.797422  0.623765  0.750540  1
  Si  Si30  1  0.296648  0.876330  0.750361  1
  Si  Si31  1  0.200496  0.375196  0.248797  1
  Si  Si32  1  0.703802  0.123575  0.248862  1
  Mo  Mo33  1  0.160106  0.488065  0.750387  1
  Mo  Mo34  1  0.338228  0.988312  0.249270  1
  Mo  Mo35  1  0.840095  0.511409  0.249466  1
