# generated using pymatgen
data_Y12Co2Si2AgSn
_symmetry_space_group_name_H-M   'P 1'
_cell_length_a   8.48273978
_cell_length_b   8.48273981
_cell_length_c   8.48274004
_cell_angle_alpha   113.80499408
_cell_angle_beta   110.50313221
_cell_angle_gamma   104.24781509
_symmetry_Int_Tables_number   1
_chemical_formula_structural   Y12Co2Si2AgSn
_chemical_formula_sum   'Y12 Co2 Si2 Ag1 Sn1'
_cell_volume   466.55794178
_cell_formula_units_Z   1
loop_
 _symmetry_equiv_pos_site_id
 _symmetry_equiv_pos_as_xyz
  1  'x, y, z'
loop_
 _atom_site_type_symbol
 _atom_site_label
 _atom_site_symmetry_multiplicity
 _atom_site_fract_x
 _atom_site_fract_y
 _atom_site_fract_z
 _atom_site_occupancy
  Y  Y0  1  0.431108  0.233380  0.197728  1
  Y  Y1  1  0.568892  0.766620  0.802272  1
  Y  Y2  1  0.035652  0.233380  0.802272  1
  Y  Y3  1  0.964348  0.766620  0.197728  1
  Y  Y4  1  0.186178  0.286811  0.472989  1
  Y  Y5  1  0.813822  0.713189  0.527011  1
  Y  Y6  1  0.186178  0.713189  0.899366  1
  Y  Y7  1  0.813822  0.286811  0.100634  1
  Y  Y8  1  0.305085  0.616367  0.311281  1
  Y  Y9  1  0.694915  0.383633  0.688719  1
  Y  Y10  1  0.305085  0.993805  0.688719  1
  Y  Y11  1  0.694915  0.006195  0.311281  1
  Co  Co12  1  0.106786  0.606786  0.500000  1
  Co  Co13  1  0.893214  0.393214  0.500000  1
  Si  Si14  1  0.363460  0.000000  0.363460  1
  Si  Si15  1  0.636540  0.000000  0.636540  1
  Ag  Ag16  1  0.000000  0.000000  0.000000  1
  Sn  Sn17  1  0.500000  0.500000  0.000000  1
