# generated using pymatgen
data_TbPr9C4I15
_symmetry_space_group_name_H-M   'P 1'
_cell_length_a   9.83676711
_cell_length_b   10.70915794
_cell_length_c   11.83297364
_cell_angle_alpha   93.74669669
_cell_angle_beta   114.18321003
_cell_angle_gamma   109.47540415
_symmetry_Int_Tables_number   1
_chemical_formula_structural   TbPr9C4I15
_chemical_formula_sum   'Tb1 Pr9 C4 I15'
_cell_volume   1042.10332134
_cell_formula_units_Z   1
loop_
 _symmetry_equiv_pos_site_id
 _symmetry_equiv_pos_as_xyz
  1  'x, y, z'
loop_
 _atom_site_type_symbol
 _atom_site_label
 _atom_site_symmetry_multiplicity
 _atom_site_fract_x
 _atom_site_fract_y
 _atom_site_fract_z
 _atom_site_occupancy
  Tb  Tb0  1  0.593586  0.544459  0.335787  1
  Pr  Pr1  1  0.343795  0.745131  0.163483  1
  Pr  Pr2  1  0.776626  0.883350  0.257144  1
  Pr  Pr3  1  0.528681  0.184367  0.102815  1
  Pr  Pr4  1  0.223672  0.115701  0.743623  1
  Pr  Pr5  1  0.403291  0.458893  0.657728  1
  Pr  Pr6  1  0.472870  0.815058  0.898595  1
  Pr  Pr7  1  0.704534  0.567394  0.044464  1
  Pr  Pr8  1  0.295613  0.432302  0.955685  1
  Pr  Pr9  1  0.656219  0.255512  0.833891  1
  C  C10  1  0.482950  0.301019  0.938434  1
  C  C11  1  0.518091  0.697800  0.062263  1
  C  C12  1  0.453564  0.363219  0.835442  1
  C  C13  1  0.546319  0.635590  0.165587  1
  I  I14  1  0.205955  0.905830  0.937474  1
  I  I15  1  0.103576  0.187115  0.468612  1
  I  I16  1  0.152534  0.555898  0.703736  1
  I  I17  1  0.405265  0.969432  0.647251  1
  I  I18  1  0.714500  0.734854  0.821779  1
  I  I19  1  0.295368  0.272425  0.184905  1
  I  I20  1  0.840018  0.446964  0.300841  1
  I  I21  1  0.885606  0.801705  0.526934  1
  I  I22  1  0.366762  0.628695  0.411571  1
  I  I23  1  0.053432  0.832330  0.221070  1
  I  I24  1  0.794990  0.096090  0.062936  1
  I  I25  1  0.641084  0.373397  0.583944  1
  I  I26  1  0.947353  0.166653  0.780225  1
  I  I27  1  0.593913  0.029414  0.352816  1
  I  I28  1  0.999834  0.499402  0.000966  1
