# generated using pymatgen
data_La7PrRu4
_symmetry_space_group_name_H-M   'P 1'
_cell_length_a   7.43057372
_cell_length_b   5.27032900
_cell_length_c   8.58099937
_cell_angle_alpha   90.00000000
_cell_angle_beta   90.11519636
_cell_angle_gamma   90.00000000
_symmetry_Int_Tables_number   1
_chemical_formula_structural   La7PrRu4
_chemical_formula_sum   'La7 Pr1 Ru4'
_cell_volume   336.04471277
_cell_formula_units_Z   1
loop_
 _symmetry_equiv_pos_site_id
 _symmetry_equiv_pos_as_xyz
  1  'x, y, z'
loop_
 _atom_site_type_symbol
 _atom_site_label
 _atom_site_symmetry_multiplicity
 _atom_site_fract_x
 _atom_site_fract_y
 _atom_site_fract_z
 _atom_site_occupancy
  La  La0  1  0.027114  0.750000  0.158337  1
  La  La1  1  0.525794  0.750000  0.341041  1
  La  La2  1  0.869748  0.250000  0.397249  1
  La  La3  1  0.130187  0.750000  0.603023  1
  La  La4  1  0.473214  0.250000  0.658558  1
  La  La5  1  0.973528  0.250000  0.842222  1
  La  La6  1  0.629593  0.750000  0.897737  1
  Pr  Pr7  1  0.367235  0.250000  0.099983  1
  Ru  Ru8  1  0.758422  0.250000  0.067255  1
  Ru  Ru9  1  0.254087  0.250000  0.435246  1
  Ru  Ru10  1  0.745523  0.750000  0.567630  1
  Ru  Ru11  1  0.245555  0.750000  0.931719  1
