# generated using pymatgen
data_Rb4U7MnS16
_symmetry_space_group_name_H-M   'P 1'
_cell_length_a   6.76159815
_cell_length_b   7.78350930
_cell_length_c   16.19308700
_cell_angle_alpha   89.93586942
_cell_angle_beta   90.03347113
_cell_angle_gamma   90.06767195
_symmetry_Int_Tables_number   1
_chemical_formula_structural   Rb4U7MnS16
_chemical_formula_sum   'Rb4 U7 Mn1 S16'
_cell_volume   852.22408903
_cell_formula_units_Z   1
loop_
 _symmetry_equiv_pos_site_id
 _symmetry_equiv_pos_as_xyz
  1  'x, y, z'
loop_
 _atom_site_type_symbol
 _atom_site_label
 _atom_site_symmetry_multiplicity
 _atom_site_fract_x
 _atom_site_fract_y
 _atom_site_fract_z
 _atom_site_occupancy
  Rb  Rb0  1  0.350781  0.002936  0.996836  1
  Rb  Rb1  1  0.648994  0.496970  0.503212  1
  Rb  Rb2  1  0.029908  0.001338  0.503071  1
  Rb  Rb3  1  0.969986  0.498577  0.996910  1
  U  U4  1  0.998044  0.999859  0.246464  1
  U  U5  1  0.998291  0.008726  0.754430  1
  U  U6  1  0.002043  0.500075  0.253581  1
  U  U7  1  0.001666  0.491159  0.745667  1
  U  U8  1  0.500040  0.249997  0.250031  1
  U  U9  1  0.500145  0.750339  0.749986  1
  U  U10  1  0.500030  0.749939  0.250024  1
  Mn  Mn11  1  0.499697  0.249697  0.749665  1
  S  S12  1  0.833224  0.246174  0.345044  1
  S  S13  1  0.835839  0.753628  0.658342  1
  S  S14  1  0.166802  0.746931  0.154827  1
  S  S15  1  0.172145  0.254994  0.843521  1
  S  S16  1  0.166825  0.253703  0.154994  1
  S  S17  1  0.164197  0.746536  0.841731  1
  S  S18  1  0.833244  0.753074  0.345211  1
  S  S19  1  0.827954  0.245207  0.656517  1
  S  S20  1  0.664552  0.000377  0.155279  1
  S  S21  1  0.662994  0.003473  0.840004  1
  S  S22  1  0.335667  0.499559  0.344764  1
  S  S23  1  0.336981  0.496522  0.659939  1
  S  S24  1  0.329993  0.999643  0.341155  1
  S  S25  1  0.331939  0.006198  0.664316  1
  S  S26  1  0.669945  0.500305  0.158893  1
  S  S27  1  0.668074  0.494066  0.835585  1
