# generated using pymatgen
data_Ti12Mn6BeIr5
_symmetry_space_group_name_H-M   'P 1'
_cell_length_a   4.28945300
_cell_length_b   6.07990800
_cell_length_c   12.85498100
_cell_angle_alpha   89.99946870
_cell_angle_beta   90.00109142
_cell_angle_gamma   90.00204236
_symmetry_Int_Tables_number   1
_chemical_formula_structural   Ti12Mn6BeIr5
_chemical_formula_sum   'Ti12 Mn6 Be1 Ir5'
_cell_volume   335.25121474
_cell_formula_units_Z   1
loop_
 _symmetry_equiv_pos_site_id
 _symmetry_equiv_pos_as_xyz
  1  'x, y, z'
loop_
 _atom_site_type_symbol
 _atom_site_label
 _atom_site_symmetry_multiplicity
 _atom_site_fract_x
 _atom_site_fract_y
 _atom_site_fract_z
 _atom_site_occupancy
  Ti  Ti0  1  0.500004  0.247440  0.994991  1
  Ti  Ti1  1  0.500004  0.752561  0.994986  1
  Ti  Ti2  1  0.999899  0.250561  0.165480  1
  Ti  Ti3  1  0.999923  0.749441  0.165479  1
  Ti  Ti4  1  0.499915  0.249551  0.333334  1
  Ti  Ti5  1  0.499898  0.750449  0.333335  1
  Ti  Ti6  1  0.999983  0.250578  0.501174  1
  Ti  Ti7  1  0.000004  0.749424  0.501176  1
  Ti  Ti8  1  0.500085  0.247463  0.671684  1
  Ti  Ti9  1  0.500086  0.752543  0.671688  1
  Ti  Ti10  1  0.000102  0.239715  0.833350  1
  Ti  Ti11  1  0.000129  0.760288  0.833347  1
  Mn  Mn12  1  0.999948  0.999998  0.997284  1
  Mn  Mn13  1  0.499899  0.499988  0.165864  1
  Mn  Mn14  1  0.999840  0.000011  0.333318  1
  Mn  Mn15  1  0.499999  0.500001  0.500792  1
  Mn  Mn16  1  0.000084  0.999983  0.669384  1
  Mn  Mn17  1  0.500116  0.500018  0.833339  1
  Be  Be18  1  0.500208  0.999996  0.833342  1
  Ir  Ir19  1  0.000004  0.499999  0.998722  1
  Ir  Ir20  1  0.499890  0.000000  0.165154  1
  Ir  Ir21  1  0.999903  0.499999  0.333325  1
  Ir  Ir22  1  0.499986  0.000000  0.501503  1
  Ir  Ir23  1  0.000095  0.500000  0.667950  1
