# generated using pymatgen
data_Dy4Ho6Ga3CoBi2
_symmetry_space_group_name_H-M   'P 1'
_cell_length_a   8.59335279
_cell_length_b   8.59191369
_cell_length_c   8.75988324
_cell_angle_alpha   124.88125888
_cell_angle_beta   124.90180268
_cell_angle_gamma   80.42849134
_symmetry_Int_Tables_number   1
_chemical_formula_structural   Dy4Ho6Ga3CoBi2
_chemical_formula_sum   'Dy4 Ho6 Ga3 Co1 Bi2'
_cell_volume   422.50751978
_cell_formula_units_Z   1
loop_
 _symmetry_equiv_pos_site_id
 _symmetry_equiv_pos_as_xyz
  1  'x, y, z'
loop_
 _atom_site_type_symbol
 _atom_site_label
 _atom_site_symmetry_multiplicity
 _atom_site_fract_x
 _atom_site_fract_y
 _atom_site_fract_z
 _atom_site_occupancy
  Dy  Dy0  1  0.703238  0.516950  0.500053  1
  Dy  Dy1  1  0.480980  0.000734  0.203818  1
  Dy  Dy2  1  0.777365  0.297162  0.796338  1
  Dy  Dy3  1  0.498958  0.018758  0.795831  1
  Ho  Ho4  1  0.997548  0.998539  0.996049  1
  Ho  Ho5  1  0.048795  0.191134  0.500014  1
  Ho  Ho6  1  0.308412  0.451610  0.499955  1
  Ho  Ho7  1  0.203227  0.723318  0.204160  1
  Ho  Ho8  1  0.983131  0.796346  0.499962  1
  Ho  Ho9  1  0.501444  0.502605  0.004017  1
  Ga  Ga10  1  0.141128  0.641844  0.782849  1
  Ga  Ga11  1  0.858696  0.359142  0.217572  1
  Ga  Ga12  1  0.632318  0.866686  0.499292  1
  Co  Co13  1  0.378264  0.121463  0.499961  1
  Bi  Bi14  1  0.243016  0.256872  0.999864  1
  Bi  Bi15  1  0.743479  0.756837  0.000265  1
