# generated using pymatgen
data_Dy16NiHg4Ir3
_symmetry_space_group_name_H-M   'P 1'
_cell_length_a   9.54919218
_cell_length_b   9.54919227
_cell_length_c   9.54919301
_cell_angle_alpha   60.36019524
_cell_angle_beta   60.36019419
_cell_angle_gamma   60.36019490
_symmetry_Int_Tables_number   1
_chemical_formula_structural   Dy16NiHg4Ir3
_chemical_formula_sum   'Dy16 Ni1 Hg4 Ir3'
_cell_volume   620.73914793
_cell_formula_units_Z   1
loop_
 _symmetry_equiv_pos_site_id
 _symmetry_equiv_pos_as_xyz
  1  'x, y, z'
loop_
 _atom_site_type_symbol
 _atom_site_label
 _atom_site_symmetry_multiplicity
 _atom_site_fract_x
 _atom_site_fract_y
 _atom_site_fract_z
 _atom_site_occupancy
  Dy  Dy0  1  0.600374  0.600374  0.600374  1
  Dy  Dy1  1  0.600340  0.600340  0.197331  1
  Dy  Dy2  1  0.600340  0.197331  0.600340  1
  Dy  Dy3  1  0.197331  0.600340  0.600340  1
  Dy  Dy4  1  0.060551  0.440628  0.440628  1
  Dy  Dy5  1  0.438423  0.059733  0.059733  1
  Dy  Dy6  1  0.440628  0.060551  0.440628  1
  Dy  Dy7  1  0.059733  0.438423  0.059733  1
  Dy  Dy8  1  0.440628  0.440628  0.060551  1
  Dy  Dy9  1  0.059733  0.059733  0.438423  1
  Dy  Dy10  1  0.189788  0.811157  0.811157  1
  Dy  Dy11  1  0.813411  0.187665  0.187665  1
  Dy  Dy12  1  0.811157  0.189788  0.811157  1
  Dy  Dy13  1  0.187665  0.813411  0.187665  1
  Dy  Dy14  1  0.811157  0.811157  0.189788  1
  Dy  Dy15  1  0.187665  0.187665  0.813411  1
  Ni  Ni16  1  0.392163  0.392163  0.392163  1
  Hg  Hg17  1  0.834236  0.834236  0.834236  1
  Hg  Hg18  1  0.835937  0.835937  0.493990  1
  Hg  Hg19  1  0.835937  0.493990  0.835937  1
  Hg  Hg20  1  0.493990  0.835937  0.835937  1
  Ir  Ir21  1  0.392479  0.392479  0.823854  1
  Ir  Ir22  1  0.392479  0.823854  0.392479  1
  Ir  Ir23  1  0.823854  0.392479  0.392479  1
