# generated using pymatgen
data_Er10Si16Sn
_symmetry_space_group_name_H-M   'P 1'
_cell_length_a   11.04827934
_cell_length_b   10.98996707
_cell_length_c   11.04827907
_cell_angle_alpha   144.74103680
_cell_angle_beta   136.19041353
_cell_angle_gamma   57.53945336
_symmetry_Int_Tables_number   1
_chemical_formula_structural   Er10Si16Sn
_chemical_formula_sum   'Er10 Si16 Sn1'
_cell_volume   531.43748733
_cell_formula_units_Z   1
loop_
 _symmetry_equiv_pos_site_id
 _symmetry_equiv_pos_as_xyz
  1  'x, y, z'
loop_
 _atom_site_type_symbol
 _atom_site_label
 _atom_site_symmetry_multiplicity
 _atom_site_fract_x
 _atom_site_fract_y
 _atom_site_fract_z
 _atom_site_occupancy
  Er  Er0  1  0.756583  0.759669  0.517522  1
  Er  Er1  1  0.440660  0.971781  0.015492  1
  Er  Er2  1  0.848315  0.368944  0.019008  1
  Er  Er3  1  0.956288  0.971781  0.531118  1
  Er  Er4  1  0.150093  0.164163  0.515861  1
  Er  Er5  1  0.349936  0.368944  0.520629  1
  Er  Er6  1  0.242146  0.759669  0.003087  1
  Er  Er7  1  0.545526  0.558205  0.497066  1
  Er  Er8  1  0.061137  0.558205  0.012679  1
  Er  Er9  1  0.648302  0.164163  0.014072  1
  Si  Si10  1  0.199298  0.576786  0.377487  1
  Si  Si11  1  0.000245  0.082796  0.082550  1
  Si  Si12  1  0.697276  0.279435  0.582159  1
  Si  Si13  1  0.799646  0.175956  0.376310  1
  Si  Si14  1  0.895353  0.501585  0.606233  1
  Si  Si15  1  0.419101  0.874216  0.455114  1
  Si  Si16  1  0.104131  0.713469  0.609337  1
  Si  Si17  1  0.301518  0.894344  0.592827  1
  Si  Si18  1  0.576901  0.039723  0.462822  1
  Si  Si19  1  0.999458  0.431042  0.431584  1
  Si  Si20  1  0.881916  0.839508  0.957592  1
  Si  Si21  1  0.401416  0.500075  0.098659  1
  Si  Si22  1  0.118990  0.086872  0.967881  1
  Si  Si23  1  0.287384  0.238899  0.951516  1
  Si  Si24  1  0.499388  0.382002  0.882613  1
  Si  Si25  1  0.595655  0.705180  0.109525  1
  Sn  Sn26  1  0.723332  0.694086  0.970752  1
