# generated using pymatgen
data_Li4Pr4Pd3Ru
_symmetry_space_group_name_H-M   'P 1'
_cell_length_a   4.07409900
_cell_length_b   7.35261768
_cell_length_c   8.76436176
_cell_angle_alpha   88.91627488
_cell_angle_beta   90.00000000
_cell_angle_gamma   90.00000000
_symmetry_Int_Tables_number   1
_chemical_formula_structural   Li4Pr4Pd3Ru
_chemical_formula_sum   'Li4 Pr4 Pd3 Ru1'
_cell_volume   262.49205708
_cell_formula_units_Z   1
loop_
 _symmetry_equiv_pos_site_id
 _symmetry_equiv_pos_as_xyz
  1  'x, y, z'
loop_
 _atom_site_type_symbol
 _atom_site_label
 _atom_site_symmetry_multiplicity
 _atom_site_fract_x
 _atom_site_fract_y
 _atom_site_fract_z
 _atom_site_occupancy
  Li  Li0  1  0.250000  0.124883  0.053945  1
  Li  Li1  1  0.250000  0.619774  0.449156  1
  Li  Li2  1  0.750000  0.881326  0.943997  1
  Li  Li3  1  0.750000  0.377107  0.550773  1
  Pr  Pr4  1  0.250000  0.059306  0.669306  1
  Pr  Pr5  1  0.250000  0.553011  0.822018  1
  Pr  Pr6  1  0.750000  0.959722  0.321236  1
  Pr  Pr7  1  0.750000  0.439234  0.192340  1
  Pd  Pd8  1  0.250000  0.744733  0.122163  1
  Pd  Pd9  1  0.750000  0.750206  0.628486  1
  Pd  Pd10  1  0.750000  0.255431  0.875121  1
  Ru  Ru11  1  0.250000  0.235269  0.371460  1
