# generated using pymatgen
data_Er6CrCo17P12
_symmetry_space_group_name_H-M   'P 1'
_cell_length_a   3.67718100
_cell_length_b   10.49955000
_cell_length_c   12.15618200
_cell_angle_alpha   90.00000000
_cell_angle_beta   90.00000000
_cell_angle_gamma   90.00000000
_symmetry_Int_Tables_number   1
_chemical_formula_structural   Er6CrCo17P12
_chemical_formula_sum   'Er6 Cr1 Co17 P12'
_cell_volume   469.33494035
_cell_formula_units_Z   1
loop_
 _symmetry_equiv_pos_site_id
 _symmetry_equiv_pos_as_xyz
  1  'x, y, z'
loop_
 _atom_site_type_symbol
 _atom_site_label
 _atom_site_symmetry_multiplicity
 _atom_site_fract_x
 _atom_site_fract_y
 _atom_site_fract_z
 _atom_site_occupancy
  Er  Er0  1  0.750000  0.250000  0.476915  1
  Er  Er1  1  0.250000  0.750000  0.522683  1
  Er  Er2  1  0.250000  0.932077  0.793518  1
  Er  Er3  1  0.250000  0.567923  0.793518  1
  Er  Er4  1  0.750000  0.067870  0.204322  1
  Er  Er5  1  0.750000  0.432130  0.204322  1
  Cr  Cr6  1  0.250000  0.250000  0.844947  1
  Co  Co7  1  0.750000  0.750000  0.160481  1
  Co  Co8  1  0.250000  0.250000  0.297222  1
  Co  Co9  1  0.750000  0.750000  0.703241  1
  Co  Co10  1  0.750000  0.250000  0.012244  1
  Co  Co11  1  0.250000  0.750000  0.985392  1
  Co  Co12  1  0.250000  0.417486  0.006759  1
  Co  Co13  1  0.250000  0.082514  0.006759  1
  Co  Co14  1  0.750000  0.583397  0.994063  1
  Co  Co15  1  0.750000  0.916603  0.994063  1
  Co  Co16  1  0.250000  0.453167  0.569167  1
  Co  Co17  1  0.250000  0.046833  0.569167  1
  Co  Co18  1  0.750000  0.547042  0.430940  1
  Co  Co19  1  0.750000  0.952958  0.430940  1
  Co  Co20  1  0.250000  0.871234  0.291382  1
  Co  Co21  1  0.250000  0.628766  0.291382  1
  Co  Co22  1  0.750000  0.129086  0.708887  1
  Co  Co23  1  0.750000  0.370914  0.708887  1
  P  P24  1  0.250000  0.250000  0.118113  1
  P  P25  1  0.750000  0.750000  0.882232  1
  P  P26  1  0.250000  0.250000  0.653153  1
  P  P27  1  0.750000  0.750000  0.344963  1
  P  P28  1  0.250000  0.438157  0.383394  1
  P  P29  1  0.250000  0.061843  0.383394  1
  P  P30  1  0.750000  0.561958  0.616085  1
  P  P31  1  0.750000  0.938042  0.616085  1
  P  P32  1  0.250000  0.901205  0.108296  1
  P  P33  1  0.250000  0.598795  0.108296  1
  P  P34  1  0.750000  0.095821  0.892396  1
  P  P35  1  0.750000  0.404179  0.892396  1
