# generated using pymatgen
data_Hf4TiNb3As4
_symmetry_space_group_name_H-M   'P 1'
_cell_length_a   3.60644700
_cell_length_b   7.02100575
_cell_length_c   8.53810103
_cell_angle_alpha   90.23710178
_cell_angle_beta   90.00000000
_cell_angle_gamma   90.00000000
_symmetry_Int_Tables_number   1
_chemical_formula_structural   Hf4TiNb3As4
_chemical_formula_sum   'Hf4 Ti1 Nb3 As4'
_cell_volume   216.19042450
_cell_formula_units_Z   1
loop_
 _symmetry_equiv_pos_site_id
 _symmetry_equiv_pos_as_xyz
  1  'x, y, z'
loop_
 _atom_site_type_symbol
 _atom_site_label
 _atom_site_symmetry_multiplicity
 _atom_site_fract_x
 _atom_site_fract_y
 _atom_site_fract_z
 _atom_site_occupancy
  Hf  Hf0  1  0.250000  0.039841  0.665412  1
  Hf  Hf1  1  0.250000  0.539003  0.835560  1
  Hf  Hf2  1  0.750000  0.459167  0.164856  1
  Hf  Hf3  1  0.750000  0.958701  0.333844  1
  Ti  Ti4  1  0.750000  0.865685  0.940015  1
  Nb  Nb5  1  0.250000  0.639377  0.439567  1
  Nb  Nb6  1  0.750000  0.363063  0.560853  1
  Nb  Nb7  1  0.250000  0.136630  0.060405  1
  As  As8  1  0.250000  0.257334  0.355582  1
  As  As9  1  0.250000  0.757125  0.137361  1
  As  As10  1  0.750000  0.743686  0.649627  1
  As  As11  1  0.750000  0.240388  0.856919  1
