# generated using pymatgen
data_YbEu3Zn8
_symmetry_space_group_name_H-M   'P 1'
_cell_length_a   4.66950300
_cell_length_b   7.41770970
_cell_length_c   7.64094018
_cell_angle_alpha   89.22727266
_cell_angle_beta   90.00000000
_cell_angle_gamma   90.00000000
_symmetry_Int_Tables_number   1
_chemical_formula_structural   YbEu3Zn8
_chemical_formula_sum   'Yb1 Eu3 Zn8'
_cell_volume   264.63531112
_cell_formula_units_Z   1
loop_
 _symmetry_equiv_pos_site_id
 _symmetry_equiv_pos_as_xyz
  1  'x, y, z'
loop_
 _atom_site_type_symbol
 _atom_site_label
 _atom_site_symmetry_multiplicity
 _atom_site_fract_x
 _atom_site_fract_y
 _atom_site_fract_z
 _atom_site_occupancy
  Yb  Yb0  1  0.250000  0.001211  0.296487  1
  Eu  Eu1  1  0.250000  0.502090  0.202380  1
  Eu  Eu2  1  0.750000  0.998272  0.695525  1
  Eu  Eu3  1  0.750000  0.497220  0.799327  1
  Zn  Zn4  1  0.250000  0.689541  0.580062  1
  Zn  Zn5  1  0.250000  0.179948  0.923092  1
  Zn  Zn6  1  0.750000  0.314947  0.417587  1
  Zn  Zn7  1  0.750000  0.820286  0.082815  1
  Zn  Zn8  1  0.250000  0.301602  0.587155  1
  Zn  Zn9  1  0.250000  0.809144  0.910103  1
  Zn  Zn10  1  0.750000  0.695678  0.409274  1
  Zn  Zn11  1  0.750000  0.190059  0.096195  1
