# generated using pymatgen
data_Nb3Re2Mo
_symmetry_space_group_name_H-M   'P 1'
_cell_length_a   4.54863800
_cell_length_b   4.54863795
_cell_length_c   5.57370000
_cell_angle_alpha   90.00000000
_cell_angle_beta   90.00000000
_cell_angle_gamma   120.00000038
_symmetry_Int_Tables_number   1
_chemical_formula_structural   Nb3Re2Mo
_chemical_formula_sum   'Nb3 Re2 Mo1'
_cell_volume   99.87044037
_cell_formula_units_Z   1
loop_
 _symmetry_equiv_pos_site_id
 _symmetry_equiv_pos_as_xyz
  1  'x, y, z'
loop_
 _atom_site_type_symbol
 _atom_site_label
 _atom_site_symmetry_multiplicity
 _atom_site_fract_x
 _atom_site_fract_y
 _atom_site_fract_z
 _atom_site_occupancy
  Nb  Nb0  1  0.000000  0.000000  0.000000  1
  Nb  Nb1  1  0.666667  0.333333  0.332792  1
  Nb  Nb2  1  0.333334  0.666668  0.667207  1
  Re  Re3  1  0.333334  0.666668  0.166519  1
  Re  Re4  1  0.666667  0.333333  0.833481  1
  Mo  Mo5  1  0.000000  0.000000  0.500000  1
