# generated using pymatgen
data_Tb6DyCo4Sn23Ir2
_symmetry_space_group_name_H-M   'P 1'
_cell_length_a   9.77534561
_cell_length_b   9.77534464
_cell_length_c   10.04805878
_cell_angle_alpha   90.18178522
_cell_angle_beta   89.81821248
_cell_angle_gamma   120.04233714
_symmetry_Int_Tables_number   1
_chemical_formula_structural   Tb6DyCo4Sn23Ir2
_chemical_formula_sum   'Tb6 Dy1 Co4 Sn23 Ir2'
_cell_volume   831.16768242
_cell_formula_units_Z   1
loop_
 _symmetry_equiv_pos_site_id
 _symmetry_equiv_pos_as_xyz
  1  'x, y, z'
loop_
 _atom_site_type_symbol
 _atom_site_label
 _atom_site_symmetry_multiplicity
 _atom_site_fract_x
 _atom_site_fract_y
 _atom_site_fract_z
 _atom_site_occupancy
  Tb  Tb0  1  0.999996  0.000004  0.000017  1
  Tb  Tb1  1  0.521385  0.478615  0.693665  1
  Tb  Tb2  1  0.478676  0.956954  0.306114  1
  Tb  Tb3  1  0.521310  0.043038  0.693881  1
  Tb  Tb4  1  0.043046  0.521324  0.306114  1
  Tb  Tb5  1  0.956962  0.478690  0.693881  1
  Dy  Dy6  1  0.478718  0.521282  0.306266  1
  Co  Co7  1  0.831147  0.664238  0.197486  1
  Co  Co8  1  0.168692  0.335694  0.802555  1
  Co  Co9  1  0.335762  0.168853  0.197486  1
  Co  Co10  1  0.664306  0.831308  0.802555  1
  Sn  Sn11  1  0.350905  0.004414  0.005696  1
  Sn  Sn12  1  0.649102  0.995593  0.994318  1
  Sn  Sn13  1  0.004407  0.350898  0.994318  1
  Sn  Sn14  1  0.995586  0.649095  0.005696  1
  Sn  Sn15  1  0.654183  0.654193  0.000045  1
  Sn  Sn16  1  0.345807  0.345817  0.000045  1
  Sn  Sn17  1  0.335754  0.664246  0.819274  1
  Sn  Sn18  1  0.664205  0.335795  0.180768  1
  Sn  Sn19  1  0.999981  0.000019  0.499985  1
  Sn  Sn20  1  0.779586  0.220414  0.456925  1
  Sn  Sn21  1  0.220411  0.779589  0.543070  1
  Sn  Sn22  1  0.780954  0.562035  0.451045  1
  Sn  Sn23  1  0.218934  0.437967  0.548762  1
  Sn  Sn24  1  0.437965  0.219046  0.451045  1
  Sn  Sn25  1  0.562033  0.781066  0.548762  1
  Sn  Sn26  1  0.333848  0.666152  0.116672  1
  Sn  Sn27  1  0.666283  0.333717  0.883474  1
  Sn  Sn28  1  0.117139  0.882861  0.274077  1
  Sn  Sn29  1  0.882869  0.117131  0.725922  1
  Sn  Sn30  1  0.124254  0.237134  0.278442  1
  Sn  Sn31  1  0.875910  0.763000  0.721587  1
  Sn  Sn32  1  0.762866  0.875746  0.278442  1
  Sn  Sn33  1  0.237000  0.124090  0.721587  1
  Ir  Ir34  1  0.832058  0.167942  0.196864  1
  Ir  Ir35  1  0.167963  0.832037  0.803161  1
