# generated using pymatgen
data_HgGe3(SO4)6
_symmetry_space_group_name_H-M   'P 1'
_cell_length_a   8.22319953
_cell_length_b   8.22320053
_cell_length_c   9.14334600
_cell_angle_alpha   116.72329682
_cell_angle_beta   63.27669968
_cell_angle_gamma   119.99999523
_symmetry_Int_Tables_number   1
_chemical_formula_structural   HgGe3(SO4)6
_chemical_formula_sum   'Hg1 Ge3 S6 O24'
_cell_volume   457.60662013
_cell_formula_units_Z   1
loop_
 _symmetry_equiv_pos_site_id
 _symmetry_equiv_pos_as_xyz
  1  'x, y, z'
loop_
 _atom_site_type_symbol
 _atom_site_label
 _atom_site_symmetry_multiplicity
 _atom_site_fract_x
 _atom_site_fract_y
 _atom_site_fract_z
 _atom_site_occupancy
  Hg  Hg0  1  0.355411  0.644588  0.933765  1
  Ge  Ge1  1  0.638006  0.361993  0.085979  1
  Ge  Ge2  1  0.837089  0.162911  0.488733  1
  Ge  Ge3  1  0.160838  0.839162  0.517486  1
  S  S4  1  0.226213  0.441207  0.267414  1
  S  S5  1  0.558793  0.052420  0.267414  1
  S  S6  1  0.947580  0.773787  0.267414  1
  S  S7  1  0.052395  0.224062  0.733066  1
  S  S8  1  0.438601  0.947606  0.733066  1
  S  S9  1  0.775938  0.561400  0.733066  1
  O  O10  1  0.087703  0.749931  0.097210  1
  O  O11  1  0.250068  0.434980  0.097210  1
  O  O12  1  0.565020  0.912297  0.097210  1
  O  O13  1  0.347290  0.357797  0.267937  1
  O  O14  1  0.642203  0.257432  0.267937  1
  O  O15  1  0.742568  0.652709  0.267937  1
  O  O16  1  0.011166  0.331508  0.342579  1
  O  O17  1  0.668491  0.022236  0.342579  1
  O  O18  1  0.977764  0.988835  0.342579  1
  O  O19  1  0.286945  0.653841  0.380070  1
  O  O20  1  0.346160  0.013176  0.380070  1
  O  O21  1  0.986824  0.713053  0.380070  1
  O  O22  1  0.017428  0.285076  0.616344  1
  O  O23  1  0.651303  0.982572  0.616344  1
  O  O24  1  0.714926  0.348697  0.616344  1
  O  O25  1  0.016053  0.005893  0.655999  1
  O  O26  1  0.333842  0.983947  0.655999  1
  O  O27  1  0.994106  0.666158  0.655999  1
  O  O28  1  0.257531  0.338098  0.729753  1
  O  O29  1  0.350812  0.742468  0.729753  1
  O  O30  1  0.661903  0.649188  0.729753  1
  O  O31  1  0.438023  0.089275  0.900975  1
  O  O32  1  0.750280  0.561977  0.900975  1
  O  O33  1  0.910724  0.249721  0.900975  1
