# generated using pymatgen
data_Y8Lu4InCo4Hg
_symmetry_space_group_name_H-M   'P 1'
_cell_length_a   8.34826233
_cell_length_b   8.34826220
_cell_length_c   8.34826275
_cell_angle_alpha   111.55655203
_cell_angle_beta   109.93879991
_cell_angle_gamma   106.95163472
_symmetry_Int_Tables_number   1
_chemical_formula_structural   Y8Lu4InCo4Hg
_chemical_formula_sum   'Y8 Lu4 In1 Co4 Hg1'
_cell_volume   447.14541207
_cell_formula_units_Z   1
loop_
 _symmetry_equiv_pos_site_id
 _symmetry_equiv_pos_as_xyz
  1  'x, y, z'
loop_
 _atom_site_type_symbol
 _atom_site_label
 _atom_site_symmetry_multiplicity
 _atom_site_fract_x
 _atom_site_fract_y
 _atom_site_fract_z
 _atom_site_occupancy
  Y  Y0  1  0.437381  0.228078  0.209303  1
  Y  Y1  1  0.562619  0.771922  0.790697  1
  Y  Y2  1  0.018776  0.228078  0.790697  1
  Y  Y3  1  0.981224  0.771922  0.209303  1
  Y  Y4  1  0.187822  0.288188  0.476010  1
  Y  Y5  1  0.812178  0.711812  0.523990  1
  Y  Y6  1  0.187822  0.711812  0.899636  1
  Y  Y7  1  0.812178  0.288188  0.100364  1
  Lu  Lu8  1  0.316914  0.623148  0.306234  1
  Lu  Lu9  1  0.683086  0.376852  0.693766  1
  Lu  Lu10  1  0.316914  0.010679  0.693766  1
  Lu  Lu11  1  0.683086  0.989321  0.306234  1
  In  In12  1  0.500000  0.500000  0.000000  1
  Co  Co13  1  0.381474  0.000000  0.381474  1
  Co  Co14  1  0.618526  0.000000  0.618526  1
  Co  Co15  1  0.112487  0.612487  0.500000  1
  Co  Co16  1  0.887513  0.387513  0.500000  1
  Hg  Hg17  1  0.000000  0.000000  0.000000  1
