# generated using pymatgen
data_Tb7Y9(CdPd)4
_symmetry_space_group_name_H-M   'P 1'
_cell_length_a   9.73719840
_cell_length_b   9.74246048
_cell_length_c   9.74288424
_cell_angle_alpha   59.96282398
_cell_angle_beta   60.03393863
_cell_angle_gamma   60.02074729
_symmetry_Int_Tables_number   1
_chemical_formula_structural   Tb7Y9(CdPd)4
_chemical_formula_sum   'Tb7 Y9 Cd4 Pd4'
_cell_volume   653.63049032
_cell_formula_units_Z   1
loop_
 _symmetry_equiv_pos_site_id
 _symmetry_equiv_pos_as_xyz
  1  'x, y, z'
loop_
 _atom_site_type_symbol
 _atom_site_label
 _atom_site_symmetry_multiplicity
 _atom_site_fract_x
 _atom_site_fract_y
 _atom_site_fract_z
 _atom_site_occupancy
  Tb  Tb0  1  0.353520  0.351305  0.353827  1
  Tb  Tb1  1  0.355997  0.353444  0.937058  1
  Tb  Tb2  1  0.353827  0.941347  0.353520  1
  Tb  Tb3  1  0.937058  0.353501  0.355997  1
  Tb  Tb4  1  0.810574  0.190139  0.189375  1
  Tb  Tb5  1  0.189375  0.809912  0.810574  1
  Tb  Tb6  1  0.190605  0.809395  0.190605  1
  Y  Y7  1  0.810662  0.189338  0.810662  1
  Y  Y8  1  0.189843  0.190479  0.810018  1
  Y  Y9  1  0.810018  0.809660  0.189843  1
  Y  Y10  1  0.934947  0.565556  0.564743  1
  Y  Y11  1  0.564743  0.934755  0.934947  1
  Y  Y12  1  0.565590  0.934410  0.565590  1
  Y  Y13  1  0.935339  0.564661  0.935339  1
  Y  Y14  1  0.564689  0.565409  0.935160  1
  Y  Y15  1  0.935160  0.934742  0.564689  1
  Cd  Cd16  1  0.582017  0.582688  0.581636  1
  Cd  Cd17  1  0.581633  0.582685  0.253354  1
  Cd  Cd18  1  0.581636  0.253660  0.582017  1
  Cd  Cd19  1  0.253354  0.582328  0.581633  1
  Pd  Pd20  1  0.144240  0.145702  0.145173  1
  Pd  Pd21  1  0.144046  0.144504  0.565955  1
  Pd  Pd22  1  0.145173  0.564885  0.144240  1
  Pd  Pd23  1  0.565955  0.145495  0.144046  1
