# generated using pymatgen
data_Lu12Co6Pt
_symmetry_space_group_name_H-M   'P 1'
_cell_length_a   11.02127200
_cell_length_b   8.17720099
_cell_length_c   10.86297594
_cell_angle_alpha   54.91005576
_cell_angle_beta   90.00000000
_cell_angle_gamma   90.00000000
_symmetry_Int_Tables_number   1
_chemical_formula_structural   Lu12Co6Pt
_chemical_formula_sum   'Lu24 Co12 Pt2'
_cell_volume   801.07200503
_cell_formula_units_Z   2
loop_
 _symmetry_equiv_pos_site_id
 _symmetry_equiv_pos_as_xyz
  1  'x, y, z'
loop_
 _atom_site_type_symbol
 _atom_site_label
 _atom_site_symmetry_multiplicity
 _atom_site_fract_x
 _atom_site_fract_y
 _atom_site_fract_z
 _atom_site_occupancy
  Lu  Lu0  1  0.708343  0.231967  0.539759  1
  Lu  Lu1  1  0.208343  0.768033  0.960241  1
  Lu  Lu2  1  0.841759  0.501800  0.657917  1
  Lu  Lu3  1  0.341759  0.498200  0.842083  1
  Lu  Lu4  1  0.158241  0.498200  0.342083  1
  Lu  Lu5  1  0.658241  0.501800  0.157917  1
  Lu  Lu6  1  0.002342  0.839561  0.355087  1
  Lu  Lu7  1  0.502342  0.160439  0.144913  1
  Lu  Lu8  1  0.997658  0.160439  0.644913  1
  Lu  Lu9  1  0.497658  0.839561  0.855087  1
  Lu  Lu10  1  0.791657  0.231967  0.039759  1
  Lu  Lu11  1  0.291657  0.768033  0.460241  1
  Lu  Lu12  1  0.927184  0.770589  0.088437  1
  Lu  Lu13  1  0.427184  0.229411  0.411563  1
  Lu  Lu14  1  0.072816  0.229411  0.911563  1
  Lu  Lu15  1  0.572816  0.770589  0.588437  1
  Lu  Lu16  1  0.298981  0.244090  0.679304  1
  Lu  Lu17  1  0.798981  0.755910  0.820696  1
  Lu  Lu18  1  0.701019  0.755910  0.320696  1
  Lu  Lu19  1  0.201019  0.244090  0.179304  1
  Lu  Lu20  1  0.930519  0.258249  0.314066  1
  Lu  Lu21  1  0.430519  0.741751  0.185934  1
  Lu  Lu22  1  0.069481  0.741751  0.685934  1
  Lu  Lu23  1  0.569481  0.258249  0.814066  1
  Co  Co24  1  0.678645  0.906551  0.026203  1
  Co  Co25  1  0.178645  0.093449  0.473797  1
  Co  Co26  1  0.321355  0.093449  0.973797  1
  Co  Co27  1  0.821355  0.906551  0.526203  1
  Co  Co28  1  0.399654  0.494060  0.100677  1
  Co  Co29  1  0.899654  0.505940  0.399323  1
  Co  Co30  1  0.600346  0.505940  0.899323  1
  Co  Co31  1  0.100346  0.494060  0.600677  1
  Co  Co32  1  0.813900  0.100781  0.838135  1
  Co  Co33  1  0.313900  0.899219  0.661865  1
  Co  Co34  1  0.186100  0.899219  0.161865  1
  Co  Co35  1  0.686100  0.100781  0.338135  1
  Pt  Pt36  1  0.500000  0.500000  0.500000  1
  Pt  Pt37  1  0.000000  0.500000  0.000000  1
