# generated using pymatgen
data_Er12Co2Ru3Pb
_symmetry_space_group_name_H-M   'P 1'
_cell_length_a   8.30158975
_cell_length_b   8.30112125
_cell_length_c   8.30159030
_cell_angle_alpha   109.84711497
_cell_angle_beta   113.04437677
_cell_angle_gamma   105.60945400
_symmetry_Int_Tables_number   1
_chemical_formula_structural   Er12Co2Ru3Pb
_chemical_formula_sum   'Er12 Co2 Ru3 Pb1'
_cell_volume   438.52315785
_cell_formula_units_Z   1
loop_
 _symmetry_equiv_pos_site_id
 _symmetry_equiv_pos_as_xyz
  1  'x, y, z'
loop_
 _atom_site_type_symbol
 _atom_site_label
 _atom_site_symmetry_multiplicity
 _atom_site_fract_x
 _atom_site_fract_y
 _atom_site_fract_z
 _atom_site_occupancy
  Er  Er0  1  0.276790  0.178379  0.455176  1
  Er  Er1  1  0.723210  0.821621  0.544824  1
  Er  Er2  1  0.276797  0.821621  0.098410  1
  Er  Er3  1  0.723203  0.178379  0.901590  1
  Er  Er4  1  0.637471  0.319812  0.317663  1
  Er  Er5  1  0.362529  0.680188  0.682337  1
  Er  Er6  1  0.002150  0.319812  0.682340  1
  Er  Er7  1  0.997850  0.680188  0.317660  1
  Er  Er8  1  0.228931  0.417166  0.188235  1
  Er  Er9  1  0.771069  0.582834  0.811765  1
  Er  Er10  1  0.228916  0.040682  0.811767  1
  Er  Er11  1  0.771084  0.959318  0.188233  1
  Co  Co12  1  0.389639  0.889626  0.499987  1
  Co  Co13  1  0.610361  0.110374  0.500013  1
  Ru  Ru14  1  0.000020  0.338097  0.338077  1
  Ru  Ru15  1  0.999980  0.661903  0.661923  1
  Ru  Ru16  1  0.000000  0.000000  0.000000  1
  Pb  Pb17  1  0.500000  0.500000  0.000000  1
