# generated using pymatgen
data_Ac3La(NiP)4
_symmetry_space_group_name_H-M   'P 1'
_cell_length_a   4.08598000
_cell_length_b   4.08597958
_cell_length_c   16.84939400
_cell_angle_alpha   90.00000000
_cell_angle_beta   90.00000000
_cell_angle_gamma   120.00000336
_symmetry_Int_Tables_number   1
_chemical_formula_structural   Ac3La(NiP)4
_chemical_formula_sum   'Ac3 La1 Ni4 P4'
_cell_volume   243.61685465
_cell_formula_units_Z   1
loop_
 _symmetry_equiv_pos_site_id
 _symmetry_equiv_pos_as_xyz
  1  'x, y, z'
loop_
 _atom_site_type_symbol
 _atom_site_label
 _atom_site_symmetry_multiplicity
 _atom_site_fract_x
 _atom_site_fract_y
 _atom_site_fract_z
 _atom_site_occupancy
  Ac  Ac0  1  0.000000  0.000000  0.500000  1
  Ac  Ac1  1  0.000000  0.000000  0.245518  1
  Ac  Ac2  1  0.000000  0.000000  0.754482  1
  La  La3  1  0.000000  0.000000  0.000000  1
  Ni  Ni4  1  0.333333  0.666667  0.375433  1
  Ni  Ni5  1  0.666667  0.333333  0.624567  1
  Ni  Ni6  1  0.666667  0.333333  0.882508  1
  Ni  Ni7  1  0.333333  0.666667  0.117492  1
  P  P8  1  0.333333  0.666667  0.880698  1
  P  P9  1  0.666667  0.333333  0.119302  1
  P  P10  1  0.666667  0.333333  0.371619  1
  P  P11  1  0.333333  0.666667  0.628381  1
