# generated using pymatgen
data_Pr8CoAg2Rh
_symmetry_space_group_name_H-M   'P 1'
_cell_length_a   9.90207587
_cell_length_b   9.90207482
_cell_length_c   9.94004500
_cell_angle_alpha   59.87306888
_cell_angle_beta   59.87307240
_cell_angle_gamma   59.62555618
_symmetry_Int_Tables_number   1
_chemical_formula_structural   Pr8CoAg2Rh
_chemical_formula_sum   'Pr16 Co2 Ag4 Rh2'
_cell_volume   685.88380721
_cell_formula_units_Z   2
loop_
 _symmetry_equiv_pos_site_id
 _symmetry_equiv_pos_as_xyz
  1  'x, y, z'
loop_
 _atom_site_type_symbol
 _atom_site_label
 _atom_site_symmetry_multiplicity
 _atom_site_fract_x
 _atom_site_fract_y
 _atom_site_fract_z
 _atom_site_occupancy
  Pr  Pr0  1  0.300669  0.893969  0.902682  1
  Pr  Pr1  1  0.685873  0.685873  0.314127  1
  Pr  Pr2  1  0.899422  0.899422  0.292741  1
  Pr  Pr3  1  0.311978  0.687998  0.312711  1
  Pr  Pr4  1  0.687998  0.311978  0.312711  1
  Pr  Pr5  1  0.061930  0.445280  0.433512  1
  Pr  Pr6  1  0.445280  0.061930  0.059278  1
  Pr  Pr7  1  0.059779  0.059779  0.440221  1
  Pr  Pr8  1  0.309992  0.309992  0.690008  1
  Pr  Pr9  1  0.445280  0.061930  0.433512  1
  Pr  Pr10  1  0.899422  0.899422  0.908416  1
  Pr  Pr11  1  0.438794  0.438794  0.061206  1
  Pr  Pr12  1  0.311978  0.687998  0.687313  1
  Pr  Pr13  1  0.687998  0.311978  0.687313  1
  Pr  Pr14  1  0.061930  0.445280  0.059278  1
  Pr  Pr15  1  0.893969  0.300669  0.902682  1
  Co  Co16  1  0.674374  0.107501  0.109062  1
  Co  Co17  1  0.107501  0.674374  0.109062  1
  Ag  Ag18  1  0.669254  0.669254  0.992771  1
  Ag  Ag19  1  0.989212  0.670742  0.670023  1
  Ag  Ag20  1  0.670742  0.989212  0.670023  1
  Ag  Ag21  1  0.669254  0.669254  0.668721  1
  Rh  Rh22  1  0.108687  0.108687  0.107740  1
  Rh  Rh23  1  0.108687  0.108687  0.674887  1
