# generated using pymatgen
data_Er3Co2CuSn3
_symmetry_space_group_name_H-M   'P 1'
_cell_length_a   7.39176500
_cell_length_b   7.39176452
_cell_length_c   3.76731500
_cell_angle_alpha   90.00000000
_cell_angle_beta   90.00000000
_cell_angle_gamma   119.99999769
_symmetry_Int_Tables_number   1
_chemical_formula_structural   Er3Co2CuSn3
_chemical_formula_sum   'Er3 Co2 Cu1 Sn3'
_cell_volume   178.26203122
_cell_formula_units_Z   1
loop_
 _symmetry_equiv_pos_site_id
 _symmetry_equiv_pos_as_xyz
  1  'x, y, z'
loop_
 _atom_site_type_symbol
 _atom_site_label
 _atom_site_symmetry_multiplicity
 _atom_site_fract_x
 _atom_site_fract_y
 _atom_site_fract_z
 _atom_site_occupancy
  Er  Er0  1  0.393787  0.410789  0.500000  1
  Er  Er1  1  0.589211  0.982996  0.500000  1
  Er  Er2  1  0.017004  0.606213  0.500000  1
  Co  Co3  1  0.333333  0.666667  0.000000  1
  Co  Co4  1  0.000000  0.000000  0.500000  1
  Cu  Cu5  1  0.666667  0.333333  0.000000  1
  Sn  Sn6  1  0.742309  0.740295  0.000000  1
  Sn  Sn7  1  0.259705  0.002013  0.000000  1
  Sn  Sn8  1  0.997987  0.257691  0.000000  1
