# generated using pymatgen
data_OsPt3Pb4O13
_symmetry_space_group_name_H-M   'P 1'
_cell_length_a   7.39823559
_cell_length_b   7.39823544
_cell_length_c   7.39823530
_cell_angle_alpha   60.12276241
_cell_angle_beta   60.12276620
_cell_angle_gamma   60.12276083
_symmetry_Int_Tables_number   1
_chemical_formula_structural   OsPt3Pb4O13
_chemical_formula_sum   'Os1 Pt3 Pb4 O13'
_cell_volume   287.12805203
_cell_formula_units_Z   1
loop_
 _symmetry_equiv_pos_site_id
 _symmetry_equiv_pos_as_xyz
  1  'x, y, z'
loop_
 _atom_site_type_symbol
 _atom_site_label
 _atom_site_symmetry_multiplicity
 _atom_site_fract_x
 _atom_site_fract_y
 _atom_site_fract_z
 _atom_site_occupancy
  Os  Os0  1  0.500043  0.500043  0.500043  1
  Pt  Pt1  1  0.001915  0.499560  0.499560  1
  Pt  Pt2  1  0.499560  0.001915  0.499560  1
  Pt  Pt3  1  0.499560  0.499560  0.001915  1
  Pb  Pb4  1  0.505548  0.997090  0.997090  1
  Pb  Pb5  1  0.997090  0.505548  0.997090  1
  Pb  Pb6  1  0.997090  0.997090  0.505548  1
  Pb  Pb7  1  0.995252  0.995252  0.995252  1
  O  O8  1  0.832535  0.832535  0.421274  1
  O  O9  1  0.425995  0.425995  0.817805  1
  O  O10  1  0.832535  0.421274  0.832535  1
  O  O11  1  0.425995  0.817805  0.425995  1
  O  O12  1  0.421274  0.832535  0.832535  1
  O  O13  1  0.817805  0.425995  0.425995  1
  O  O14  1  0.170909  0.170909  0.576345  1
  O  O15  1  0.572179  0.572179  0.184770  1
  O  O16  1  0.170909  0.576345  0.170909  1
  O  O17  1  0.572179  0.184770  0.572179  1
  O  O18  1  0.576345  0.170909  0.170909  1
  O  O19  1  0.184770  0.572179  0.572179  1
  O  O20  1  0.125514  0.125514  0.125514  1
