# generated using pymatgen
data_Ca3NpTi4O12
_symmetry_space_group_name_H-M   'P 1'
_cell_length_a   7.73458000
_cell_length_b   5.41937592
_cell_length_c   5.55103737
_cell_angle_alpha   89.72393677
_cell_angle_beta   90.00000000
_cell_angle_gamma   90.00000000
_symmetry_Int_Tables_number   1
_chemical_formula_structural   Ca3NpTi4O12
_chemical_formula_sum   'Ca3 Np1 Ti4 O12'
_cell_volume   232.67789323
_cell_formula_units_Z   1
loop_
 _symmetry_equiv_pos_site_id
 _symmetry_equiv_pos_as_xyz
  1  'x, y, z'
loop_
 _atom_site_type_symbol
 _atom_site_label
 _atom_site_symmetry_multiplicity
 _atom_site_fract_x
 _atom_site_fract_y
 _atom_site_fract_z
 _atom_site_occupancy
  Ca  Ca0  1  0.500000  0.489817  0.548414  1
  Ca  Ca1  1  0.000000  0.992025  0.951007  1
  Ca  Ca2  1  0.000000  0.508537  0.454945  1
  Np  Np3  1  0.500000  0.007217  0.054480  1
  Ti  Ti4  1  0.247456  0.997840  0.499477  1
  Ti  Ti5  1  0.753546  0.501516  0.998959  1
  Ti  Ti6  1  0.752544  0.997840  0.499477  1
  Ti  Ti7  1  0.246454  0.501516  0.998959  1
  O  O8  1  0.500000  0.585897  0.975301  1
  O  O9  1  0.500000  0.919327  0.481084  1
  O  O10  1  0.000000  0.422560  0.023678  1
  O  O11  1  0.000000  0.079843  0.521441  1
  O  O12  1  0.786678  0.800100  0.201880  1
  O  O13  1  0.208882  0.703453  0.705243  1
  O  O14  1  0.294219  0.200930  0.798160  1
  O  O15  1  0.703224  0.293549  0.291106  1
  O  O16  1  0.705781  0.200930  0.798160  1
  O  O17  1  0.296776  0.293549  0.291106  1
  O  O18  1  0.213322  0.800100  0.201880  1
  O  O19  1  0.791118  0.703453  0.705243  1
