# generated using pymatgen
data_Ho10In8Pd3Rh
_symmetry_space_group_name_H-M   'P 1'
_cell_length_a   3.60561900
_cell_length_b   8.12430002
_cell_length_c   18.25156304
_cell_angle_alpha   90.00776204
_cell_angle_beta   90.00000000
_cell_angle_gamma   90.00000000
_symmetry_Int_Tables_number   1
_chemical_formula_structural   Ho10In8Pd3Rh
_chemical_formula_sum   'Ho10 In8 Pd3 Rh1'
_cell_volume   534.64541327
_cell_formula_units_Z   1
loop_
 _symmetry_equiv_pos_site_id
 _symmetry_equiv_pos_as_xyz
  1  'x, y, z'
loop_
 _atom_site_type_symbol
 _atom_site_label
 _atom_site_symmetry_multiplicity
 _atom_site_fract_x
 _atom_site_fract_y
 _atom_site_fract_z
 _atom_site_occupancy
  Ho  Ho0  1  0.000000  0.500333  0.499734  1
  Ho  Ho1  1  0.000000  0.000031  0.000552  1
  Ho  Ho2  1  0.000000  0.731884  0.277916  1
  Ho  Ho3  1  0.000000  0.260132  0.719892  1
  Ho  Ho4  1  0.000000  0.759510  0.779817  1
  Ho  Ho5  1  0.000000  0.251905  0.220019  1
  Ho  Ho6  1  0.000000  0.613552  0.086589  1
  Ho  Ho7  1  0.000000  0.383883  0.916989  1
  Ho  Ho8  1  0.000000  0.883683  0.582952  1
  Ho  Ho9  1  0.000000  0.116473  0.415798  1
  In  In10  1  0.500000  0.710485  0.932232  1
  In  In11  1  0.500000  0.290065  0.068952  1
  In  In12  1  0.500000  0.789946  0.431574  1
  In  In13  1  0.500000  0.210188  0.567725  1
  In  In14  1  0.500000  0.579945  0.649221  1
  In  In15  1  0.500000  0.422198  0.350516  1
  In  In16  1  0.500000  0.920690  0.150028  1
  In  In17  1  0.500000  0.079574  0.850519  1
  Pd  Pd18  1  0.500000  0.476442  0.804221  1
  Pd  Pd19  1  0.500000  0.976443  0.695875  1
  Pd  Pd20  1  0.500000  0.021335  0.303877  1
  Rh  Rh21  1  0.500000  0.521303  0.195002  1
