# generated using pymatgen
data_RbMn(SO4)2
_symmetry_space_group_name_H-M   'P 1'
_cell_length_a   5.05774862
_cell_length_b   5.05774876
_cell_length_c   8.29639083
_cell_angle_alpha   88.40704959
_cell_angle_beta   88.40704853
_cell_angle_gamma   61.31652867
_symmetry_Int_Tables_number   1
_chemical_formula_structural   RbMn(SO4)2
_chemical_formula_sum   'Rb1 Mn1 S2 O8'
_cell_volume   186.08756240
_cell_formula_units_Z   1
loop_
 _symmetry_equiv_pos_site_id
 _symmetry_equiv_pos_as_xyz
  1  'x, y, z'
loop_
 _atom_site_type_symbol
 _atom_site_label
 _atom_site_symmetry_multiplicity
 _atom_site_fract_x
 _atom_site_fract_y
 _atom_site_fract_z
 _atom_site_occupancy
  Rb  Rb0  1  0.000000  0.000000  0.500000  1
  Mn  Mn1  1  0.000000  0.000000  0.000000  1
  S  S2  1  0.367762  0.367762  0.807672  1
  S  S3  1  0.632238  0.632238  0.192328  1
  O  O4  1  0.320239  0.320239  0.640332  1
  O  O5  1  0.679761  0.679761  0.359668  1
  O  O6  1  0.706341  0.233196  0.828896  1
  O  O7  1  0.293659  0.766804  0.171104  1
  O  O8  1  0.766804  0.293659  0.171104  1
  O  O9  1  0.233196  0.706341  0.828896  1
  O  O10  1  0.243279  0.243279  0.929752  1
  O  O11  1  0.756721  0.756721  0.070248  1
