# generated using pymatgen
data_K4In3GaH16
_symmetry_space_group_name_H-M   'P 1'
_cell_length_a   5.82698300
_cell_length_b   7.54693014
_cell_length_c   9.32482016
_cell_angle_alpha   89.97837234
_cell_angle_beta   90.00000000
_cell_angle_gamma   90.00000000
_symmetry_Int_Tables_number   1
_chemical_formula_structural   K4In3GaH16
_chemical_formula_sum   'K4 In3 Ga1 H16'
_cell_volume   410.06671072
_cell_formula_units_Z   1
loop_
 _symmetry_equiv_pos_site_id
 _symmetry_equiv_pos_as_xyz
  1  'x, y, z'
loop_
 _atom_site_type_symbol
 _atom_site_label
 _atom_site_symmetry_multiplicity
 _atom_site_fract_x
 _atom_site_fract_y
 _atom_site_fract_z
 _atom_site_occupancy
  K  K0  1  0.250000  0.338420  0.676682  1
  K  K1  1  0.250000  0.159572  0.189308  1
  K  K2  1  0.750000  0.656312  0.321584  1
  K  K3  1  0.750000  0.844674  0.814849  1
  In  In4  1  0.250000  0.688023  0.062123  1
  In  In5  1  0.250000  0.813024  0.560941  1
  In  In6  1  0.750000  0.312837  0.938037  1
  Ga  Ga7  1  0.750000  0.189681  0.437743  1
  H  H8  1  0.250000  0.599300  0.886394  1
  H  H9  1  0.250000  0.898712  0.384586  1
  H  H10  1  0.750000  0.400758  0.113773  1
  H  H11  1  0.750000  0.107366  0.595256  1
  H  H12  1  0.250000  0.524782  0.199407  1
  H  H13  1  0.250000  0.975049  0.698113  1
  H  H14  1  0.750000  0.476012  0.801402  1
  H  H15  1  0.750000  0.040288  0.316800  1
  H  H16  1  0.997690  0.175156  0.915537  1
  H  H17  1  0.526056  0.312723  0.418126  1
  H  H18  1  0.498496  0.824615  0.084497  1
  H  H19  1  0.002694  0.675102  0.583341  1
  H  H20  1  0.001504  0.824615  0.084497  1
  H  H21  1  0.497306  0.675102  0.583341  1
  H  H22  1  0.502310  0.175156  0.915537  1
  H  H23  1  0.973944  0.312723  0.418126  1
