# generated using pymatgen
data_NpAsO5
_symmetry_space_group_name_H-M   'P 1'
_cell_length_a   5.85312000
_cell_length_b   12.48158000
_cell_length_c   7.25914400
_cell_angle_alpha   90.00000000
_cell_angle_beta   90.00000000
_cell_angle_gamma   90.00000000
_symmetry_Int_Tables_number   1
_chemical_formula_structural   NpAsO5
_chemical_formula_sum   'Np4 As4 O20'
_cell_volume   530.32537085
_cell_formula_units_Z   4
loop_
 _symmetry_equiv_pos_site_id
 _symmetry_equiv_pos_as_xyz
  1  'x, y, z'
loop_
 _atom_site_type_symbol
 _atom_site_label
 _atom_site_symmetry_multiplicity
 _atom_site_fract_x
 _atom_site_fract_y
 _atom_site_fract_z
 _atom_site_occupancy
  Np  Np0  1  0.750000  0.939048  0.830419  1
  Np  Np1  1  0.250000  0.060952  0.169581  1
  Np  Np2  1  0.250000  0.560952  0.330419  1
  Np  Np3  1  0.750000  0.439048  0.669581  1
  As  As4  1  0.750000  0.157364  0.472736  1
  As  As5  1  0.250000  0.842636  0.527264  1
  As  As6  1  0.250000  0.342636  0.972736  1
  As  As7  1  0.750000  0.657364  0.027264  1
  O  O8  1  0.750000  0.792995  0.000357  1
  O  O9  1  0.250000  0.207005  0.999643  1
  O  O10  1  0.250000  0.707005  0.500357  1
  O  O11  1  0.750000  0.292995  0.499643  1
  O  O12  1  0.492789  0.877037  0.648610  1
  O  O13  1  0.507211  0.122963  0.351390  1
  O  O14  1  0.507211  0.622963  0.148610  1
  O  O15  1  0.992789  0.122963  0.351390  1
  O  O16  1  0.492789  0.377037  0.851390  1
  O  O17  1  0.007211  0.877037  0.648610  1
  O  O18  1  0.007211  0.377037  0.851390  1
  O  O19  1  0.992789  0.622963  0.148610  1
  O  O20  1  0.750000  0.593162  0.819346  1
  O  O21  1  0.250000  0.406838  0.180654  1
  O  O22  1  0.250000  0.906838  0.319346  1
  O  O23  1  0.750000  0.093162  0.680654  1
  O  O24  1  0.000000  0.000000  0.000000  1
  O  O25  1  0.000000  0.500000  0.500000  1
  O  O26  1  0.500000  0.000000  0.000000  1
  O  O27  1  0.500000  0.500000  0.500000  1
