# generated using pymatgen
data_Ti4Nb4Al15Ir7
_symmetry_space_group_name_H-M   'P 1'
_cell_length_a   8.69051300
_cell_length_b   8.68494699
_cell_length_c   8.67745741
_cell_angle_alpha   120.09622600
_cell_angle_beta   119.98318949
_cell_angle_gamma   89.99662030
_symmetry_Int_Tables_number   1
_chemical_formula_structural   Ti4Nb4Al15Ir7
_chemical_formula_sum   'Ti4 Nb4 Al15 Ir7'
_cell_volume   462.57310395
_cell_formula_units_Z   1
loop_
 _symmetry_equiv_pos_site_id
 _symmetry_equiv_pos_as_xyz
  1  'x, y, z'
loop_
 _atom_site_type_symbol
 _atom_site_label
 _atom_site_symmetry_multiplicity
 _atom_site_fract_x
 _atom_site_fract_y
 _atom_site_fract_z
 _atom_site_occupancy
  Ti  Ti0  1  0.791497  0.718447  0.500956  1
  Ti  Ti1  1  0.784775  0.281847  0.499218  1
  Ti  Ti2  1  0.379339  0.123478  0.745032  1
  Ti  Ti3  1  0.378219  0.635162  0.255712  1
  Nb  Nb4  1  0.792586  0.291457  0.078360  1
  Nb  Nb5  1  0.212834  0.294989  0.501828  1
  Nb  Nb6  1  0.207104  0.705804  0.499937  1
  Nb  Nb7  1  0.214074  0.712151  0.919776  1
  Al  Al8  1  0.988840  0.497419  0.499033  1
  Al  Al9  1  0.158129  0.340098  0.182059  1
  Al  Al10  1  0.158775  0.974650  0.817025  1
  Al  Al11  1  0.155365  0.341626  0.812459  1
  Al  Al12  1  0.534964  0.344070  0.190916  1
  Al  Al13  1  0.844557  0.654047  0.809928  1
  Al  Al14  1  0.843704  0.030597  0.187439  1
  Al  Al15  1  0.841409  0.657254  0.182675  1
  Al  Al16  1  0.477920  0.658679  0.818929  1
  Al  Al17  1  0.379324  0.121871  0.258161  1
  Al  Al18  1  0.862436  0.121381  0.741491  1
  Al  Al19  1  0.621614  0.878143  0.257397  1
  Al  Al20  1  0.621063  0.364948  0.742971  1
  Al  Al21  1  0.621169  0.877974  0.742753  1
  Al  Al22  1  0.134170  0.878562  0.256722  1
  Ir  Ir23  1  0.997639  0.998913  0.500292  1
  Ir  Ir24  1  0.500646  0.000145  0.001757  1
  Ir  Ir25  1  0.500113  0.500053  0.003292  1
  Ir  Ir26  1  0.501230  0.499957  0.499283  1
  Ir  Ir27  1  0.000027  0.498479  0.998334  1
  Ir  Ir28  1  0.998832  0.998384  0.996948  1
  Ir  Ir29  1  0.497643  0.999411  0.499320  1
