# generated using pymatgen
data_Lu3Ni20BP5
_symmetry_space_group_name_H-M   'P 1'
_cell_length_a   7.92824712
_cell_length_b   7.86889961
_cell_length_c   7.86889848
_cell_angle_alpha   60.49962284
_cell_angle_beta   59.75018884
_cell_angle_gamma   59.75019622
_symmetry_Int_Tables_number   1
_chemical_formula_structural   Lu3Ni20BP5
_chemical_formula_sum   'Lu3 Ni20 B1 P5'
_cell_volume   347.08861185
_cell_formula_units_Z   1
loop_
 _symmetry_equiv_pos_site_id
 _symmetry_equiv_pos_as_xyz
  1  'x, y, z'
loop_
 _atom_site_type_symbol
 _atom_site_label
 _atom_site_symmetry_multiplicity
 _atom_site_fract_x
 _atom_site_fract_y
 _atom_site_fract_z
 _atom_site_occupancy
  Lu  Lu0  1  0.000957  0.999043  0.999043  1
  Lu  Lu1  1  0.751364  0.748636  0.748636  1
  Lu  Lu2  1  0.251364  0.248636  0.248636  1
  Ni  Ni3  1  0.613435  0.614921  0.158211  1
  Ni  Ni4  1  0.613435  0.158211  0.614921  1
  Ni  Ni5  1  0.160615  0.617817  0.617817  1
  Ni  Ni6  1  0.603753  0.617817  0.617817  1
  Ni  Ni7  1  0.382183  0.396247  0.839385  1
  Ni  Ni8  1  0.382183  0.839385  0.396247  1
  Ni  Ni9  1  0.841789  0.386565  0.386565  1
  Ni  Ni10  1  0.385079  0.386565  0.386565  1
  Ni  Ni11  1  0.999149  0.000851  0.354649  1
  Ni  Ni12  1  0.645351  0.000851  0.354649  1
  Ni  Ni13  1  0.000667  0.648257  0.350409  1
  Ni  Ni14  1  0.645351  0.354649  0.000851  1
  Ni  Ni15  1  0.999149  0.354649  0.000851  1
  Ni  Ni16  1  0.000667  0.350409  0.648257  1
  Ni  Ni17  1  0.345479  0.654521  0.987360  1
  Ni  Ni18  1  0.345479  0.987360  0.654521  1
  Ni  Ni19  1  0.351743  0.999333  0.999333  1
  Ni  Ni20  1  0.012640  0.987360  0.654521  1
  Ni  Ni21  1  0.012640  0.654521  0.987360  1
  Ni  Ni22  1  0.649591  0.999333  0.999333  1
  B  B23  1  0.266050  0.733950  0.733950  1
  P  P24  1  0.737534  0.736069  0.262466  1
  P  P25  1  0.263931  0.736069  0.262466  1
  P  P26  1  0.736955  0.263045  0.263045  1
  P  P27  1  0.263931  0.262466  0.736069  1
  P  P28  1  0.737534  0.262466  0.736069  1
