# generated using pymatgen
data_Er2Mn2I
_symmetry_space_group_name_H-M   'P 1'
_cell_length_a   3.86178400
_cell_length_b   3.86178482
_cell_length_c   17.49942400
_cell_angle_alpha   90.00000000
_cell_angle_beta   90.00000000
_cell_angle_gamma   119.99999294
_symmetry_Int_Tables_number   1
_chemical_formula_structural   Er2Mn2I
_chemical_formula_sum   'Er4 Mn4 I2'
_cell_volume   226.01146324
_cell_formula_units_Z   2
loop_
 _symmetry_equiv_pos_site_id
 _symmetry_equiv_pos_as_xyz
  1  'x, y, z'
loop_
 _atom_site_type_symbol
 _atom_site_label
 _atom_site_symmetry_multiplicity
 _atom_site_fract_x
 _atom_site_fract_y
 _atom_site_fract_z
 _atom_site_occupancy
  Er  Er0  1  0.000000  0.000000  0.109150  1
  Er  Er1  1  0.000000  0.000000  0.890850  1
  Er  Er2  1  0.000000  0.000000  0.609150  1
  Er  Er3  1  0.000000  0.000000  0.390850  1
  Mn  Mn4  1  0.333333  0.666667  0.508599  1
  Mn  Mn5  1  0.666667  0.333333  0.491401  1
  Mn  Mn6  1  0.666667  0.333333  0.008599  1
  Mn  Mn7  1  0.333333  0.666667  0.991401  1
  I  I8  1  0.333333  0.666667  0.250000  1
  I  I9  1  0.666667  0.333333  0.750000  1
