# generated using pymatgen
data_ErTl3Pd4F28
_symmetry_space_group_name_H-M   'P 1'
_cell_length_a   5.52004867
_cell_length_b   8.83317044
_cell_length_c   11.93164100
_cell_angle_alpha   62.53739221
_cell_angle_beta   89.97185058
_cell_angle_gamma   89.99179884
_symmetry_Int_Tables_number   1
_chemical_formula_structural   ErTl3Pd4F28
_chemical_formula_sum   'Er1 Tl3 Pd4 F28'
_cell_volume   516.22138324
_cell_formula_units_Z   1
loop_
 _symmetry_equiv_pos_site_id
 _symmetry_equiv_pos_as_xyz
  1  'x, y, z'
loop_
 _atom_site_type_symbol
 _atom_site_label
 _atom_site_symmetry_multiplicity
 _atom_site_fract_x
 _atom_site_fract_y
 _atom_site_fract_z
 _atom_site_occupancy
  Er  Er0  1  0.738250  0.811712  0.264310  1
  Tl  Tl1  1  0.763107  0.813871  0.763206  1
  Tl  Tl2  1  0.262569  0.185830  0.736822  1
  Tl  Tl3  1  0.235046  0.184425  0.236706  1
  Pd  Pd4  1  0.760299  0.273390  0.956170  1
  Pd  Pd5  1  0.259947  0.726160  0.544118  1
  Pd  Pd6  1  0.240193  0.725706  0.044636  1
  Pd  Pd7  1  0.738625  0.273679  0.455163  1
  F  F8  1  0.430195  0.695443  0.919571  1
  F  F9  1  0.925937  0.302731  0.581706  1
  F  F10  1  0.573932  0.304414  0.081906  1
  F  F11  1  0.067476  0.702970  0.416094  1
  F  F12  1  0.432597  0.279611  0.536332  1
  F  F13  1  0.936057  0.718786  0.962801  1
  F  F14  1  0.561079  0.724394  0.457520  1
  F  F15  1  0.067040  0.280660  0.036014  1
  F  F16  1  0.784330  0.522800  0.854553  1
  F  F17  1  0.285723  0.476090  0.643466  1
  F  F18  1  0.216599  0.476269  0.146024  1
  F  F19  1  0.722129  0.522978  0.358077  1
  F  F20  1  0.753927  0.025735  0.049701  1
  F  F21  1  0.252697  0.973152  0.456710  1
  F  F22  1  0.247146  0.972887  0.955119  1
  F  F23  1  0.746027  0.026692  0.544224  1
  F  F24  1  0.958940  0.718560  0.632685  1
  F  F25  1  0.457392  0.279013  0.868900  1
  F  F26  1  0.041233  0.279845  0.367629  1
  F  F27  1  0.534034  0.724240  0.136494  1
  F  F28  1  0.051396  0.745635  0.176857  1
  F  F29  1  0.560537  0.259111  0.317076  1
  F  F30  1  0.937622  0.257202  0.818111  1
  F  F31  1  0.439664  0.739335  0.682019  1
  F  F32  1  0.411999  0.968124  0.230291  1
  F  F33  1  0.907530  0.029355  0.269145  1
  F  F34  1  0.599104  0.033687  0.771774  1
  F  F35  1  0.099623  0.965509  0.728074  1
