# generated using pymatgen
data_La6Mg2AlGaSe14
_symmetry_space_group_name_H-M   'P 1'
_cell_length_a   10.68397600
_cell_length_b   10.68545607
_cell_length_c   6.42428700
_cell_angle_alpha   90.00082255
_cell_angle_beta   89.99987321
_cell_angle_gamma   120.00425097
_symmetry_Int_Tables_number   1
_chemical_formula_structural   La6Mg2AlGaSe14
_chemical_formula_sum   'La6 Mg2 Al1 Ga1 Se14'
_cell_volume   635.13044053
_cell_formula_units_Z   1
loop_
 _symmetry_equiv_pos_site_id
 _symmetry_equiv_pos_as_xyz
  1  'x, y, z'
loop_
 _atom_site_type_symbol
 _atom_site_label
 _atom_site_symmetry_multiplicity
 _atom_site_fract_x
 _atom_site_fract_y
 _atom_site_fract_z
 _atom_site_occupancy
  La  La0  1  0.625100  0.767313  0.228746  1
  La  La1  1  0.232713  0.857731  0.228894  1
  La  La2  1  0.142259  0.374986  0.228845  1
  La  La3  1  0.767254  0.142386  0.728949  1
  La  La4  1  0.375055  0.232720  0.728753  1
  La  La5  1  0.857602  0.624857  0.728907  1
  Mg  Mg6  1  0.000681  0.000564  0.017309  1
  Mg  Mg7  1  0.999314  0.999429  0.517236  1
  Al  Al8  1  0.333365  0.666656  0.644486  1
  Ga  Ga9  1  0.666635  0.333344  0.145255  1
  Se  Se10  1  0.905479  0.421878  0.995646  1
  Se  Se11  1  0.578072  0.483568  0.995606  1
  Se  Se12  1  0.516333  0.094544  0.995635  1
  Se  Se13  1  0.333354  0.666691  0.014941  1
  Se  Se14  1  0.240222  0.147297  0.275897  1
  Se  Se15  1  0.906933  0.759521  0.275501  1
  Se  Se16  1  0.852601  0.093039  0.275546  1
  Se  Se17  1  0.421204  0.517865  0.497448  1
  Se  Se18  1  0.096685  0.578852  0.497486  1
  Se  Se19  1  0.482239  0.903301  0.497469  1
  Se  Se20  1  0.666650  0.333312  0.518475  1
  Se  Se21  1  0.093008  0.240451  0.775510  1
  Se  Se22  1  0.759806  0.852672  0.775904  1
  Se  Se23  1  0.147437  0.907021  0.775553  1
