# generated using pymatgen
data_Tb13Lu3(ZnRh)4
_symmetry_space_group_name_H-M   'P 1'
_cell_length_a   9.48973906
_cell_length_b   9.49976580
_cell_length_c   9.46752097
_cell_angle_alpha   60.04224673
_cell_angle_beta   59.84917117
_cell_angle_gamma   59.81030744
_symmetry_Int_Tables_number   1
_chemical_formula_structural   Tb13Lu3(ZnRh)4
_chemical_formula_sum   'Tb13 Lu3 Zn4 Rh4'
_cell_volume   602.14854117
_cell_formula_units_Z   1
loop_
 _symmetry_equiv_pos_site_id
 _symmetry_equiv_pos_as_xyz
  1  'x, y, z'
loop_
 _atom_site_type_symbol
 _atom_site_label
 _atom_site_symmetry_multiplicity
 _atom_site_fract_x
 _atom_site_fract_y
 _atom_site_fract_z
 _atom_site_occupancy
  Tb  Tb0  1  0.645129  0.063835  0.646090  1
  Tb  Tb1  1  0.062313  0.064928  0.437739  1
  Tb  Tb2  1  0.437739  0.435020  0.062313  1
  Tb  Tb3  1  0.646090  0.644946  0.645129  1
  Tb  Tb4  1  0.810519  0.188854  0.188553  1
  Tb  Tb5  1  0.188553  0.812074  0.810519  1
  Tb  Tb6  1  0.062970  0.644709  0.646293  1
  Tb  Tb7  1  0.437942  0.064506  0.062299  1
  Tb  Tb8  1  0.436507  0.063493  0.436507  1
  Tb  Tb9  1  0.063867  0.436133  0.063867  1
  Tb  Tb10  1  0.646293  0.646028  0.062970  1
  Tb  Tb11  1  0.189590  0.810410  0.189590  1
  Tb  Tb12  1  0.062299  0.435254  0.437942  1
  Lu  Lu13  1  0.809450  0.810620  0.189964  1
  Lu  Lu14  1  0.810742  0.189258  0.810742  1
  Lu  Lu15  1  0.189964  0.189966  0.809450  1
  Zn  Zn16  1  0.420183  0.419921  0.420915  1
  Zn  Zn17  1  0.420321  0.419587  0.739877  1
  Zn  Zn18  1  0.420915  0.738980  0.420183  1
  Zn  Zn19  1  0.739877  0.420214  0.420321  1
  Rh  Rh20  1  0.858876  0.427110  0.855056  1
  Rh  Rh21  1  0.855056  0.858960  0.858876  1
  Rh  Rh22  1  0.855468  0.855386  0.429339  1
  Rh  Rh23  1  0.429339  0.859809  0.855468  1
