# generated using pymatgen
data_SrSiPdRh
_symmetry_space_group_name_H-M   'P 1'
_cell_length_a   9.38016589
_cell_length_b   9.38016558
_cell_length_c   4.28447800
_cell_angle_alpha   90.00000000
_cell_angle_beta   90.00000000
_cell_angle_gamma   154.68939775
_symmetry_Int_Tables_number   1
_chemical_formula_structural   SrSiPdRh
_chemical_formula_sum   'Sr2 Si2 Pd2 Rh2'
_cell_volume   161.16866551
_cell_formula_units_Z   2
loop_
 _symmetry_equiv_pos_site_id
 _symmetry_equiv_pos_as_xyz
  1  'x, y, z'
loop_
 _atom_site_type_symbol
 _atom_site_label
 _atom_site_symmetry_multiplicity
 _atom_site_fract_x
 _atom_site_fract_y
 _atom_site_fract_z
 _atom_site_occupancy
  Sr  Sr0  1  0.100480  0.899520  0.750000  1
  Sr  Sr1  1  0.899520  0.100480  0.250000  1
  Si  Si2  1  0.316450  0.683550  0.750000  1
  Si  Si3  1  0.683550  0.316450  0.250000  1
  Pd  Pd4  1  0.549175  0.450825  0.250000  1
  Pd  Pd5  1  0.450825  0.549175  0.750000  1
  Rh  Rh6  1  0.250460  0.749540  0.250000  1
  Rh  Rh7  1  0.749540  0.250460  0.750000  1
