# generated using pymatgen
data_Tm8MgNi2Hg
_symmetry_space_group_name_H-M   'P 1'
_cell_length_a   9.42944166
_cell_length_b   9.42944192
_cell_length_c   9.40561600
_cell_angle_alpha   60.08354935
_cell_angle_beta   60.08354845
_cell_angle_gamma   60.51320142
_symmetry_Int_Tables_number   1
_chemical_formula_structural   Tm8MgNi2Hg
_chemical_formula_sum   'Tm16 Mg2 Ni4 Hg2'
_cell_volume   594.36324335
_cell_formula_units_Z   2
loop_
 _symmetry_equiv_pos_site_id
 _symmetry_equiv_pos_as_xyz
  1  'x, y, z'
loop_
 _atom_site_type_symbol
 _atom_site_label
 _atom_site_symmetry_multiplicity
 _atom_site_fract_x
 _atom_site_fract_y
 _atom_site_fract_z
 _atom_site_occupancy
  Tm  Tm0  1  0.345953  0.345953  0.346065  1
  Tm  Tm1  1  0.345953  0.345953  0.962029  1
  Tm  Tm2  1  0.352462  0.952181  0.347678  1
  Tm  Tm3  1  0.952181  0.352462  0.347678  1
  Tm  Tm4  1  0.811594  0.187501  0.189075  1
  Tm  Tm5  1  0.187501  0.811594  0.811830  1
  Tm  Tm6  1  0.187501  0.811594  0.189075  1
  Tm  Tm7  1  0.811594  0.187501  0.811830  1
  Tm  Tm8  1  0.187870  0.187870  0.812130  1
  Tm  Tm9  1  0.808575  0.808575  0.191425  1
  Tm  Tm10  1  0.933516  0.563808  0.565172  1
  Tm  Tm11  1  0.563808  0.933516  0.937503  1
  Tm  Tm12  1  0.563808  0.933516  0.565172  1
  Tm  Tm13  1  0.933516  0.563808  0.937503  1
  Tm  Tm14  1  0.563838  0.563838  0.936162  1
  Tm  Tm15  1  0.936575  0.936575  0.563425  1
  Mg  Mg16  1  0.580830  0.271603  0.573783  1
  Mg  Mg17  1  0.271603  0.580830  0.573783  1
  Ni  Ni18  1  0.141111  0.141111  0.145895  1
  Ni  Ni19  1  0.141111  0.141111  0.571883  1
  Ni  Ni20  1  0.138572  0.574711  0.143359  1
  Ni  Ni21  1  0.574711  0.138572  0.143359  1
  Hg  Hg22  1  0.582907  0.582907  0.588194  1
  Hg  Hg23  1  0.582907  0.582907  0.245989  1
