# generated using pymatgen
data_Tb5Lu5(AlBi)4
_symmetry_space_group_name_H-M   'P 1'
_cell_length_a   8.63435021
_cell_length_b   8.94324834
_cell_length_c   8.03991600
_cell_angle_alpha   90.15921052
_cell_angle_beta   90.15890759
_cell_angle_gamma   125.68263048
_symmetry_Int_Tables_number   1
_chemical_formula_structural   Tb5Lu5(AlBi)4
_chemical_formula_sum   'Tb5 Lu5 Al4 Bi4'
_cell_volume   504.27066688
_cell_formula_units_Z   1
loop_
 _symmetry_equiv_pos_site_id
 _symmetry_equiv_pos_as_xyz
  1  'x, y, z'
loop_
 _atom_site_type_symbol
 _atom_site_label
 _atom_site_symmetry_multiplicity
 _atom_site_fract_x
 _atom_site_fract_y
 _atom_site_fract_z
 _atom_site_occupancy
  Tb  Tb0  1  0.817942  0.548778  0.174115  1
  Tb  Tb1  1  0.532010  0.786206  0.165907  1
  Tb  Tb2  1  0.184156  0.451417  0.825135  1
  Tb  Tb3  1  0.683961  0.951060  0.672416  1
  Tb  Tb4  1  0.315183  0.047625  0.327353  1
  Lu  Lu5  1  0.031746  0.279220  0.336679  1
  Lu  Lu6  1  0.966111  0.717983  0.663508  1
  Lu  Lu7  1  0.468139  0.218862  0.836821  1
  Lu  Lu8  1  0.001878  0.001673  0.998728  1
  Lu  Lu9  1  0.499134  0.497498  0.501049  1
  Al  Al10  1  0.377910  0.375428  0.123946  1
  Al  Al11  1  0.622914  0.623753  0.876119  1
  Al  Al12  1  0.122761  0.123521  0.623642  1
  Al  Al13  1  0.878278  0.875749  0.377348  1
  Bi  Bi14  1  0.783147  0.196853  0.016774  1
  Bi  Bi15  1  0.219345  0.808585  0.978256  1
  Bi  Bi16  1  0.721220  0.306174  0.519488  1
  Bi  Bi17  1  0.274166  0.689617  0.482720  1
