# generated using pymatgen
data_LiLu4NiRu2
_symmetry_space_group_name_H-M   'P 1'
_cell_length_a   4.71149322
_cell_length_b   6.74894914
_cell_length_c   14.25778800
_cell_angle_alpha   90.00991584
_cell_angle_beta   90.06696984
_cell_angle_gamma   89.99422399
_symmetry_Int_Tables_number   1
_chemical_formula_structural   LiLu4NiRu2
_chemical_formula_sum   'Li3 Lu12 Ni3 Ru6'
_cell_volume   453.36352132
_cell_formula_units_Z   3
loop_
 _symmetry_equiv_pos_site_id
 _symmetry_equiv_pos_as_xyz
  1  'x, y, z'
loop_
 _atom_site_type_symbol
 _atom_site_label
 _atom_site_symmetry_multiplicity
 _atom_site_fract_x
 _atom_site_fract_y
 _atom_site_fract_z
 _atom_site_occupancy
  Li  Li0  1  0.000018  0.000001  0.995501  1
  Li  Li1  1  0.499804  0.499994  0.166659  1
  Li  Li2  1  0.999730  0.999997  0.337861  1
  Lu  Lu3  1  0.500043  0.255068  0.994151  1
  Lu  Lu4  1  0.500060  0.744919  0.994158  1
  Lu  Lu5  1  0.999734  0.249967  0.166670  1
  Lu  Lu6  1  0.999865  0.750030  0.166662  1
  Lu  Lu7  1  0.499772  0.255065  0.339176  1
  Lu  Lu8  1  0.499803  0.744936  0.339183  1
  Lu  Lu9  1  0.999979  0.254012  0.505189  1
  Lu  Lu10  1  0.000001  0.745986  0.505189  1
  Lu  Lu11  1  0.500194  0.248628  0.666643  1
  Lu  Lu12  1  0.500160  0.751371  0.666642  1
  Lu  Lu13  1  0.000188  0.253992  0.828134  1
  Lu  Lu14  1  0.000208  0.746019  0.828129  1
  Ni  Ni15  1  0.500035  0.500001  0.504275  1
  Ni  Ni16  1  0.000290  0.000005  0.666713  1
  Ni  Ni17  1  0.500152  0.500015  0.828931  1
  Ru  Ru18  1  0.000031  0.499999  0.001046  1
  Ru  Ru19  1  0.499697  0.000005  0.166693  1
  Ru  Ru20  1  0.999762  0.500004  0.332473  1
  Ru  Ru21  1  0.500012  0.999997  0.499135  1
  Ru  Ru22  1  0.000253  0.499992  0.666662  1
  Ru  Ru23  1  0.500212  0.000002  0.834124  1
