# generated using pymatgen
data_TbLu3(Al3Rh)6
_symmetry_space_group_name_H-M   'P 1'
_cell_length_a   7.52604587
_cell_length_b   7.52968651
_cell_length_c   9.42743500
_cell_angle_alpha   90.00000000
_cell_angle_beta   90.00000000
_cell_angle_gamma   119.33708013
_symmetry_Int_Tables_number   1
_chemical_formula_structural   TbLu3(Al3Rh)6
_chemical_formula_sum   'Tb1 Lu3 Al18 Rh6'
_cell_volume   465.72595589
_cell_formula_units_Z   1
loop_
 _symmetry_equiv_pos_site_id
 _symmetry_equiv_pos_as_xyz
  1  'x, y, z'
loop_
 _atom_site_type_symbol
 _atom_site_label
 _atom_site_symmetry_multiplicity
 _atom_site_fract_x
 _atom_site_fract_y
 _atom_site_fract_z
 _atom_site_occupancy
  Tb  Tb0  1  0.994416  0.672412  0.250000  1
  Lu  Lu1  1  0.005055  0.326553  0.750000  1
  Lu  Lu2  1  0.672910  0.994516  0.250000  1
  Lu  Lu3  1  0.326825  0.005575  0.750000  1
  Al  Al4  1  0.128954  0.129745  0.250000  1
  Al  Al5  1  0.871371  0.872020  0.750000  1
  Al  Al6  1  0.000614  0.334734  0.074538  1
  Al  Al7  1  0.999913  0.664006  0.922090  1
  Al  Al8  1  0.999913  0.664006  0.577910  1
  Al  Al9  1  0.336804  0.001502  0.425266  1
  Al  Al10  1  0.000614  0.334734  0.425462  1
  Al  Al11  1  0.664017  0.000075  0.576270  1
  Al  Al12  1  0.664017  0.000075  0.923730  1
  Al  Al13  1  0.336804  0.001502  0.074734  1
  Al  Al14  1  0.332112  0.332065  0.553783  1
  Al  Al15  1  0.666933  0.667740  0.451073  1
  Al  Al16  1  0.666933  0.667740  0.048927  1
  Al  Al17  1  0.332112  0.332065  0.946217  1
  Al  Al18  1  0.341428  0.550995  0.250000  1
  Al  Al19  1  0.659454  0.447757  0.750000  1
  Al  Al20  1  0.549915  0.338802  0.250000  1
  Al  Al21  1  0.448075  0.660307  0.750000  1
  Rh  Rh22  1  0.672318  0.327672  0.999631  1
  Rh  Rh23  1  0.327983  0.672321  0.999762  1
  Rh  Rh24  1  0.327983  0.672321  0.500238  1
  Rh  Rh25  1  0.672318  0.327672  0.500369  1
  Rh  Rh26  1  0.000103  0.000546  0.999086  1
  Rh  Rh27  1  0.000103  0.000546  0.500914  1
