# generated using pymatgen
data_TbNd5Al24Os5Pt3
_symmetry_space_group_name_H-M   'P 1'
_cell_length_a   8.87778636
_cell_length_b   8.89372900
_cell_length_c   9.66404207
_cell_angle_alpha   90.11618949
_cell_angle_beta   89.88676944
_cell_angle_gamma   119.44255284
_symmetry_Int_Tables_number   1
_chemical_formula_structural   TbNd5Al24Os5Pt3
_chemical_formula_sum   'Tb1 Nd5 Al24 Os5 Pt3'
_cell_volume   664.49095682
_cell_formula_units_Z   1
loop_
 _symmetry_equiv_pos_site_id
 _symmetry_equiv_pos_as_xyz
  1  'x, y, z'
loop_
 _atom_site_type_symbol
 _atom_site_label
 _atom_site_symmetry_multiplicity
 _atom_site_fract_x
 _atom_site_fract_y
 _atom_site_fract_z
 _atom_site_occupancy
  Tb  Tb0  1  0.805703  0.190452  0.749002  1
  Nd  Nd1  1  0.187465  0.379848  0.249995  1
  Nd  Nd2  1  0.812569  0.619647  0.750170  1
  Nd  Nd3  1  0.617578  0.813785  0.251804  1
  Nd  Nd4  1  0.383195  0.186341  0.748234  1
  Nd  Nd5  1  0.192192  0.810569  0.250345  1
  Al  Al6  1  0.335614  0.671352  0.025192  1
  Al  Al7  1  0.665521  0.328296  0.972399  1
  Al  Al8  1  0.670087  0.330602  0.526202  1
  Al  Al9  1  0.330482  0.668679  0.476021  1
  Al  Al10  1  0.157221  0.325348  0.574048  1
  Al  Al11  1  0.841101  0.673552  0.427397  1
  Al  Al12  1  0.673747  0.841880  0.575101  1
  Al  Al13  1  0.836198  0.675228  0.075836  1
  Al  Al14  1  0.327200  0.159586  0.426208  1
  Al  Al15  1  0.162227  0.323988  0.922896  1
  Al  Al16  1  0.164477  0.834767  0.575360  1
  Al  Al17  1  0.326602  0.159220  0.074112  1
  Al  Al18  1  0.835495  0.165069  0.426719  1
  Al  Al19  1  0.674487  0.842406  0.924511  1
  Al  Al20  1  0.831549  0.159628  0.075026  1
  Al  Al21  1  0.168645  0.840577  0.922832  1
  Al  Al22  1  0.561854  0.126286  0.249689  1
  Al  Al23  1  0.440340  0.875200  0.750265  1
  Al  Al24  1  0.872402  0.436462  0.253262  1
  Al  Al25  1  0.126180  0.561397  0.747195  1
  Al  Al26  1  0.563380  0.435790  0.249631  1
  Al  Al27  1  0.436579  0.564342  0.750420  1
  Al  Al28  1  0.998070  0.003457  0.250152  1
  Al  Al29  1  0.000472  0.998129  0.749830  1
  Os  Os30  1  0.501101  0.000614  0.999108  1
  Os  Os31  1  0.500893  0.000433  0.500825  1
  Os  Os32  1  0.999498  0.498977  0.500848  1
  Os  Os33  1  0.999959  0.000047  0.999753  1
  Os  Os34  1  0.999947  0.999920  0.500224  1
  Pt  Pt35  1  0.999579  0.498890  0.999331  1
  Pt  Pt36  1  0.500177  0.499610  0.999834  1
  Pt  Pt37  1  0.500217  0.499625  0.500225  1
