# generated using pymatgen
data_MnZn2(FeRh2)3
_symmetry_space_group_name_H-M   'P 1'
_cell_length_a   4.27268600
_cell_length_b   6.04340700
_cell_length_c   12.80403700
_cell_angle_alpha   89.99994919
_cell_angle_beta   89.99809029
_cell_angle_gamma   90.00022105
_symmetry_Int_Tables_number   1
_chemical_formula_structural   MnZn2(FeRh2)3
_chemical_formula_sum   'Mn2 Zn4 Fe6 Rh12'
_cell_volume   330.62047179
_cell_formula_units_Z   2
loop_
 _symmetry_equiv_pos_site_id
 _symmetry_equiv_pos_as_xyz
  1  'x, y, z'
loop_
 _atom_site_type_symbol
 _atom_site_label
 _atom_site_symmetry_multiplicity
 _atom_site_fract_x
 _atom_site_fract_y
 _atom_site_fract_z
 _atom_site_occupancy
  Mn  Mn0  1  0.999995  0.499997  0.998812  1
  Mn  Mn1  1  0.499874  0.000001  0.167876  1
  Zn  Zn2  1  0.999915  0.499999  0.333786  1
  Zn  Zn3  1  0.500000  0.000000  0.500061  1
  Zn  Zn4  1  0.000087  0.500000  0.666619  1
  Zn  Zn5  1  0.500126  0.000000  0.832859  1
  Fe  Fe6  1  0.999992  0.000001  0.998804  1
  Fe  Fe7  1  0.499854  0.499999  0.167858  1
  Fe  Fe8  1  0.999860  0.999999  0.335565  1
  Fe  Fe9  1  0.500001  0.499999  0.501226  1
  Fe  Fe10  1  0.000144  0.999999  0.665411  1
  Fe  Fe11  1  0.500144  0.500000  0.831132  1
  Rh  Rh12  1  0.499997  0.250342  0.001055  1
  Rh  Rh13  1  0.499989  0.749656  0.001051  1
  Rh  Rh14  1  0.999883  0.249626  0.165608  1
  Rh  Rh15  1  0.999884  0.750370  0.165611  1
  Rh  Rh16  1  0.499893  0.249544  0.332264  1
  Rh  Rh17  1  0.499904  0.750459  0.332265  1
  Rh  Rh18  1  0.999994  0.249775  0.499918  1
  Rh  Rh19  1  0.000006  0.750228  0.499918  1
  Rh  Rh20  1  0.500112  0.250199  0.666755  1
  Rh  Rh21  1  0.500099  0.749798  0.666755  1
  Rh  Rh22  1  0.000132  0.250425  0.834396  1
  Rh  Rh23  1  0.000115  0.749575  0.834394  1
