# generated using pymatgen
data_Nd3Al3Si4Ni3
_symmetry_space_group_name_H-M   'P 1'
_cell_length_a   13.55572077
_cell_length_b   13.55572109
_cell_length_c   4.15703600
_cell_angle_alpha   90.00000000
_cell_angle_beta   90.00000000
_cell_angle_gamma   162.45518062
_symmetry_Int_Tables_number   1
_chemical_formula_structural   Nd3Al3Si4Ni3
_chemical_formula_sum   'Nd3 Al3 Si4 Ni3'
_cell_volume   230.27502146
_cell_formula_units_Z   1
loop_
 _symmetry_equiv_pos_site_id
 _symmetry_equiv_pos_as_xyz
  1  'x, y, z'
loop_
 _atom_site_type_symbol
 _atom_site_label
 _atom_site_symmetry_multiplicity
 _atom_site_fract_x
 _atom_site_fract_y
 _atom_site_fract_z
 _atom_site_occupancy
  Nd  Nd0  1  0.000026  0.999974  0.000000  1
  Nd  Nd1  1  0.691842  0.308158  0.500000  1
  Nd  Nd2  1  0.316170  0.683830  0.500000  1
  Al  Al3  1  0.594723  0.405277  0.000000  1
  Al  Al4  1  0.906328  0.093672  0.500000  1
  Al  Al5  1  0.095005  0.904995  0.500000  1
  Si  Si6  1  0.406803  0.593197  0.000000  1
  Si  Si7  1  0.776099  0.223901  0.000000  1
  Si  Si8  1  0.228336  0.771664  0.000000  1
  Si  Si9  1  0.533069  0.466931  0.500000  1
  Ni  Ni10  1  0.861659  0.138341  0.000000  1
  Ni  Ni11  1  0.140750  0.859250  0.000000  1
  Ni  Ni12  1  0.449191  0.550809  0.500000  1
