# generated using pymatgen
data_YTm3(Ni7P4)2
_symmetry_space_group_name_H-M   'P 1'
_cell_length_a   3.67389900
_cell_length_b   9.12541461
_cell_length_c   10.22023330
_cell_angle_alpha   89.96676076
_cell_angle_beta   90.00000000
_cell_angle_gamma   90.00000000
_symmetry_Int_Tables_number   1
_chemical_formula_structural   YTm3(Ni7P4)2
_chemical_formula_sum   'Y1 Tm3 Ni14 P8'
_cell_volume   342.64196725
_cell_formula_units_Z   1
loop_
 _symmetry_equiv_pos_site_id
 _symmetry_equiv_pos_as_xyz
  1  'x, y, z'
loop_
 _atom_site_type_symbol
 _atom_site_label
 _atom_site_symmetry_multiplicity
 _atom_site_fract_x
 _atom_site_fract_y
 _atom_site_fract_z
 _atom_site_occupancy
  Y  Y0  1  0.500000  0.936302  0.235904  1
  Tm  Tm1  1  0.000000  0.442497  0.519290  1
  Tm  Tm2  1  0.500000  0.558029  0.018691  1
  Tm  Tm3  1  0.000000  0.064159  0.735774  1
  Ni  Ni4  1  0.000000  0.773253  0.404410  1
  Ni  Ni5  1  0.500000  0.225184  0.903339  1
  Ni  Ni6  1  0.000000  0.754042  0.641511  1
  Ni  Ni7  1  0.500000  0.247781  0.140979  1
  Ni  Ni8  1  0.000000  0.812664  0.001896  1
  Ni  Ni9  1  0.500000  0.186630  0.504517  1
  Ni  Ni10  1  0.000000  0.444465  0.214322  1
  Ni  Ni11  1  0.500000  0.555163  0.714446  1
  Ni  Ni12  1  0.000000  0.402732  0.820461  1
  Ni  Ni13  1  0.500000  0.595734  0.321052  1
  Ni  Ni14  1  0.000000  0.195223  0.314238  1
  Ni  Ni15  1  0.500000  0.806572  0.810507  1
  Ni  Ni16  1  0.000000  0.083329  0.042046  1
  Ni  Ni17  1  0.500000  0.917977  0.548716  1
  P  P18  1  0.000000  0.690425  0.198647  1
  P  P19  1  0.500000  0.308573  0.698801  1
  P  P20  1  0.000000  0.019134  0.454961  1
  P  P21  1  0.500000  0.980591  0.951316  1
  P  P22  1  0.000000  0.321476  0.024896  1
  P  P23  1  0.500000  0.679363  0.524960  1
  P  P24  1  0.000000  0.652945  0.831440  1
  P  P25  1  0.500000  0.345758  0.332479  1
