# generated using pymatgen
data_Tb11Y9(CoSb2)4
_symmetry_space_group_name_H-M   'P 1'
_cell_length_a   7.96032631
_cell_length_b   8.75116800
_cell_length_c   12.23405750
_cell_angle_alpha   90.00000000
_cell_angle_beta   90.03234800
_cell_angle_gamma   90.00000000
_symmetry_Int_Tables_number   1
_chemical_formula_structural   Tb11Y9(CoSb2)4
_chemical_formula_sum   'Tb11 Y9 Co4 Sb8'
_cell_volume   852.25064790
_cell_formula_units_Z   1
loop_
 _symmetry_equiv_pos_site_id
 _symmetry_equiv_pos_as_xyz
  1  'x, y, z'
loop_
 _atom_site_type_symbol
 _atom_site_label
 _atom_site_symmetry_multiplicity
 _atom_site_fract_x
 _atom_site_fract_y
 _atom_site_fract_z
 _atom_site_occupancy
  Tb  Tb0  1  0.122363  0.250000  0.194843  1
  Tb  Tb1  1  0.377725  0.250000  0.694620  1
  Tb  Tb2  1  0.877749  0.750000  0.805206  1
  Tb  Tb3  1  0.821584  0.964966  0.064835  1
  Tb  Tb4  1  0.321508  0.034791  0.434943  1
  Tb  Tb5  1  0.178596  0.464792  0.934972  1
  Tb  Tb6  1  0.678468  0.535322  0.565019  1
  Tb  Tb7  1  0.178596  0.035208  0.934972  1
  Tb  Tb8  1  0.678468  0.964678  0.565019  1
  Tb  Tb9  1  0.821584  0.535034  0.064835  1
  Tb  Tb10  1  0.321508  0.465209  0.434943  1
  Y  Y11  1  0.155669  0.750000  0.203899  1
  Y  Y12  1  0.655544  0.250000  0.296247  1
  Y  Y13  1  0.844083  0.250000  0.795945  1
  Y  Y14  1  0.344132  0.750000  0.704131  1
  Y  Y15  1  0.455925  0.750000  0.998384  1
  Y  Y16  1  0.955514  0.250000  0.501719  1
  Y  Y17  1  0.544288  0.250000  0.001744  1
  Y  Y18  1  0.044226  0.750000  0.498370  1
  Y  Y19  1  0.622799  0.750000  0.304800  1
  Co  Co20  1  0.434001  0.750000  0.489712  1
  Co  Co21  1  0.934553  0.250000  0.010747  1
  Co  Co22  1  0.565495  0.250000  0.510673  1
  Co  Co23  1  0.065534  0.750000  0.989176  1
  Sb  Sb24  1  0.927489  0.991312  0.326920  1
  Sb  Sb25  1  0.427994  0.008378  0.173036  1
  Sb  Sb26  1  0.072185  0.491325  0.673040  1
  Sb  Sb27  1  0.572377  0.508539  0.827127  1
  Sb  Sb28  1  0.072185  0.008675  0.673040  1
  Sb  Sb29  1  0.572377  0.991461  0.827127  1
  Sb  Sb30  1  0.927489  0.508688  0.326920  1
  Sb  Sb31  1  0.427994  0.491622  0.173036  1
