# generated using pymatgen
data_PuPaB6W
_symmetry_space_group_name_H-M   'P 1'
_cell_length_a   3.72535200
_cell_length_b   9.32695900
_cell_length_c   11.44352800
_cell_angle_alpha   90.00000000
_cell_angle_beta   90.00000000
_cell_angle_gamma   90.00000000
_symmetry_Int_Tables_number   1
_chemical_formula_structural   PuPaB6W
_chemical_formula_sum   'Pu4 Pa4 B24 W4'
_cell_volume   397.61917398
_cell_formula_units_Z   4
loop_
 _symmetry_equiv_pos_site_id
 _symmetry_equiv_pos_as_xyz
  1  'x, y, z'
loop_
 _atom_site_type_symbol
 _atom_site_label
 _atom_site_symmetry_multiplicity
 _atom_site_fract_x
 _atom_site_fract_y
 _atom_site_fract_z
 _atom_site_occupancy
  Pu  Pu0  1  0.000000  0.953940  0.388694  1
  Pu  Pu1  1  0.000000  0.046060  0.611306  1
  Pu  Pu2  1  0.000000  0.453940  0.111306  1
  Pu  Pu3  1  0.000000  0.546060  0.888694  1
  Pa  Pa4  1  0.000000  0.332728  0.408240  1
  Pa  Pa5  1  0.000000  0.667272  0.591760  1
  Pa  Pa6  1  0.000000  0.832728  0.091760  1
  Pa  Pa7  1  0.000000  0.167272  0.908240  1
  B  B8  1  0.500000  0.551967  0.432216  1
  B  B9  1  0.500000  0.448033  0.567784  1
  B  B10  1  0.500000  0.051967  0.067784  1
  B  B11  1  0.500000  0.948033  0.932216  1
  B  B12  1  0.500000  0.745512  0.423379  1
  B  B13  1  0.500000  0.254488  0.576621  1
  B  B14  1  0.500000  0.245512  0.076621  1
  B  B15  1  0.500000  0.754488  0.923379  1
  B  B16  1  0.500000  0.803058  0.272035  1
  B  B17  1  0.500000  0.196942  0.727965  1
  B  B18  1  0.500000  0.303058  0.227965  1
  B  B19  1  0.500000  0.696942  0.772035  1
  B  B20  1  0.500000  0.643302  0.187293  1
  B  B21  1  0.500000  0.356698  0.812707  1
  B  B22  1  0.500000  0.143302  0.312707  1
  B  B23  1  0.500000  0.856698  0.687293  1
  B  B24  1  0.500000  0.987115  0.218391  1
  B  B25  1  0.500000  0.012885  0.781609  1
  B  B26  1  0.500000  0.487115  0.281609  1
  B  B27  1  0.500000  0.512885  0.718391  1
  B  B28  1  0.500000  0.638231  0.038259  1
  B  B29  1  0.500000  0.361769  0.961741  1
  B  B30  1  0.500000  0.138231  0.461741  1
  B  B31  1  0.500000  0.861769  0.538259  1
  W  W32  1  0.000000  0.645398  0.320074  1
  W  W33  1  0.000000  0.354602  0.679926  1
  W  W34  1  0.000000  0.145398  0.179926  1
  W  W35  1  0.000000  0.854602  0.820074  1
