# generated using pymatgen
data_CaDy(Si2Rh3)2
_symmetry_space_group_name_H-M   'P 1'
_cell_length_a   6.64860035
_cell_length_b   6.64862186
_cell_length_c   6.64858238
_cell_angle_alpha   130.12605073
_cell_angle_beta   115.08377782
_cell_angle_gamma   86.07669585
_symmetry_Int_Tables_number   1
_chemical_formula_structural   CaDy(Si2Rh3)2
_chemical_formula_sum   'Ca1 Dy1 Si4 Rh6'
_cell_volume   194.42278642
_cell_formula_units_Z   1
loop_
 _symmetry_equiv_pos_site_id
 _symmetry_equiv_pos_as_xyz
  1  'x, y, z'
loop_
 _atom_site_type_symbol
 _atom_site_label
 _atom_site_symmetry_multiplicity
 _atom_site_fract_x
 _atom_site_fract_y
 _atom_site_fract_z
 _atom_site_occupancy
  Ca  Ca0  1  0.750005  0.034034  0.284035  1
  Dy  Dy1  1  0.250001  0.949433  0.699434  1
  Si  Si2  1  0.580269  0.383818  0.803534  1
  Si  Si3  1  0.919716  0.723262  0.803534  1
  Si  Si4  1  0.424550  0.619287  0.194745  1
  Si  Si5  1  0.075456  0.270191  0.194743  1
  Rh  Rh6  1  0.216562  0.505723  0.718310  1
  Rh  Rh7  1  0.787388  0.505751  0.289211  1
  Rh  Rh8  1  0.495006  0.502460  0.497464  1
  Rh  Rh9  1  0.004993  0.502469  0.007462  1
  Rh  Rh10  1  0.712591  0.001763  0.718321  1
  Rh  Rh11  1  0.283463  0.001810  0.289211  1
