# generated using pymatgen
data_CaSc6SBr12
_symmetry_space_group_name_H-M   'P 1'
_cell_length_a   8.69408732
_cell_length_b   8.69408808
_cell_length_c   8.69408747
_cell_angle_alpha   106.33948171
_cell_angle_beta   106.33947515
_cell_angle_gamma   106.33947803
_symmetry_Int_Tables_number   1
_chemical_formula_structural   CaSc6SBr12
_chemical_formula_sum   'Ca1 Sc6 S1 Br12'
_cell_volume   556.85735370
_cell_formula_units_Z   1
loop_
 _symmetry_equiv_pos_site_id
 _symmetry_equiv_pos_as_xyz
  1  'x, y, z'
loop_
 _atom_site_type_symbol
 _atom_site_label
 _atom_site_symmetry_multiplicity
 _atom_site_fract_x
 _atom_site_fract_y
 _atom_site_fract_z
 _atom_site_occupancy
  Ca  Ca0  1  0.500000  0.500000  0.500000  1
  Sc  Sc1  1  0.298262  0.093703  0.021042  1
  Sc  Sc2  1  0.093703  0.021042  0.298262  1
  Sc  Sc3  1  0.021042  0.298262  0.093703  1
  Sc  Sc4  1  0.701738  0.906297  0.978958  1
  Sc  Sc5  1  0.906297  0.978958  0.701738  1
  Sc  Sc6  1  0.978958  0.701738  0.906297  1
  S  S7  1  0.000000  0.000000  0.000000  1
  Br  Br8  1  0.220808  0.073633  0.683768  1
  Br  Br9  1  0.073633  0.683768  0.220808  1
  Br  Br10  1  0.683768  0.220808  0.073633  1
  Br  Br11  1  0.779192  0.926367  0.316232  1
  Br  Br12  1  0.926367  0.316232  0.779192  1
  Br  Br13  1  0.316232  0.779192  0.926367  1
  Br  Br14  1  0.363833  0.440806  0.134576  1
  Br  Br15  1  0.440806  0.134576  0.363833  1
  Br  Br16  1  0.134576  0.363833  0.440806  1
  Br  Br17  1  0.636167  0.559194  0.865424  1
  Br  Br18  1  0.559194  0.865424  0.636167  1
  Br  Br19  1  0.865424  0.636167  0.559194  1
