# generated using pymatgen
data_Li2Ta3ReN6
_symmetry_space_group_name_H-M   'P 1'
_cell_length_a   5.12007359
_cell_length_b   5.12007264
_cell_length_c   10.40288300
_cell_angle_alpha   90.00000000
_cell_angle_beta   90.00000000
_cell_angle_gamma   119.71726211
_symmetry_Int_Tables_number   1
_chemical_formula_structural   Li2Ta3ReN6
_chemical_formula_sum   'Li4 Ta6 Re2 N12'
_cell_volume   236.84649535
_cell_formula_units_Z   2
loop_
 _symmetry_equiv_pos_site_id
 _symmetry_equiv_pos_as_xyz
  1  'x, y, z'
loop_
 _atom_site_type_symbol
 _atom_site_label
 _atom_site_symmetry_multiplicity
 _atom_site_fract_x
 _atom_site_fract_y
 _atom_site_fract_z
 _atom_site_occupancy
  Li  Li0  1  0.333347  0.666653  0.000000  1
  Li  Li1  1  0.333347  0.666653  0.500000  1
  Li  Li2  1  0.667398  0.332602  0.500000  1
  Li  Li3  1  0.667398  0.332602  0.000000  1
  Ta  Ta4  1  0.339742  0.339134  0.750000  1
  Ta  Ta5  1  0.001016  0.998984  0.500000  1
  Ta  Ta6  1  0.001016  0.998984  0.000000  1
  Ta  Ta7  1  0.660866  0.660258  0.250000  1
  Ta  Ta8  1  0.339180  0.000016  0.250000  1
  Ta  Ta9  1  0.999984  0.660820  0.750000  1
  Re  Re10  1  0.000235  0.340529  0.250000  1
  Re  Re11  1  0.659471  0.999765  0.750000  1
  N  N12  1  0.672576  0.674535  0.623658  1
  N  N13  1  0.672576  0.674535  0.876342  1
  N  N14  1  0.325465  0.327424  0.123658  1
  N  N15  1  0.325465  0.327424  0.376342  1
  N  N16  1  0.327494  0.000123  0.876556  1
  N  N17  1  0.327494  0.000123  0.623444  1
  N  N18  1  0.999877  0.672506  0.376556  1
  N  N19  1  0.999877  0.672506  0.123444  1
  N  N20  1  0.675151  0.002064  0.123455  1
  N  N21  1  0.675151  0.002064  0.376545  1
  N  N22  1  0.997936  0.324849  0.876545  1
  N  N23  1  0.997936  0.324849  0.623455  1
