# generated using pymatgen
data_Fe(Bi4O9)2
_symmetry_space_group_name_H-M   'P 1'
_cell_length_a   9.42813300
_cell_length_b   9.42813352
_cell_length_c   5.24763200
_cell_angle_alpha   90.00000000
_cell_angle_beta   90.00000000
_cell_angle_gamma   120.00000168
_symmetry_Int_Tables_number   1
_chemical_formula_structural   Fe(Bi4O9)2
_chemical_formula_sum   'Fe1 Bi8 O18'
_cell_volume   403.96656433
_cell_formula_units_Z   1
loop_
 _symmetry_equiv_pos_site_id
 _symmetry_equiv_pos_as_xyz
  1  'x, y, z'
loop_
 _atom_site_type_symbol
 _atom_site_label
 _atom_site_symmetry_multiplicity
 _atom_site_fract_x
 _atom_site_fract_y
 _atom_site_fract_z
 _atom_site_occupancy
  Fe  Fe0  1  0.000000  0.000000  0.500000  1
  Bi  Bi1  1  0.000000  0.362917  0.500000  1
  Bi  Bi2  1  0.281483  0.281483  0.000000  1
  Bi  Bi3  1  0.000000  0.718517  0.000000  1
  Bi  Bi4  1  0.637083  0.637083  0.500000  1
  Bi  Bi5  1  0.362917  0.000000  0.500000  1
  Bi  Bi6  1  0.718517  0.000000  0.000000  1
  Bi  Bi7  1  0.333333  0.666667  0.996164  1
  Bi  Bi8  1  0.666667  0.333333  0.003836  1
  O  O9  1  0.087294  0.205197  0.717954  1
  O  O10  1  0.223155  0.446438  0.224681  1
  O  O11  1  0.116962  0.595278  0.777985  1
  O  O12  1  0.404722  0.521685  0.777985  1
  O  O13  1  0.223284  0.776845  0.224681  1
  O  O14  1  0.117904  0.912706  0.717954  1
  O  O15  1  0.553562  0.776716  0.224681  1
  O  O16  1  0.205197  0.087294  0.282046  1
  O  O17  1  0.478315  0.883038  0.777985  1
  O  O18  1  0.794803  0.882096  0.717954  1
  O  O19  1  0.446438  0.223155  0.775319  1
  O  O20  1  0.595278  0.116962  0.222015  1
  O  O21  1  0.521685  0.404722  0.222015  1
  O  O22  1  0.776845  0.223284  0.775319  1
  O  O23  1  0.912706  0.117904  0.282046  1
  O  O24  1  0.776716  0.553562  0.775319  1
  O  O25  1  0.883038  0.478315  0.222015  1
  O  O26  1  0.882096  0.794803  0.282046  1
