# generated using pymatgen
data_Er12In2Si3Pt
_symmetry_space_group_name_H-M   'P 1'
_cell_length_a   8.48900199
_cell_length_b   8.48900199
_cell_length_c   8.48900139
_cell_angle_alpha   113.00653628
_cell_angle_beta   111.70195708
_cell_angle_gamma   103.85026086
_symmetry_Int_Tables_number   1
_chemical_formula_structural   Er12In2Si3Pt
_chemical_formula_sum   'Er12 In2 Si3 Pt1'
_cell_volume   467.49924907
_cell_formula_units_Z   1
loop_
 _symmetry_equiv_pos_site_id
 _symmetry_equiv_pos_as_xyz
  1  'x, y, z'
loop_
 _atom_site_type_symbol
 _atom_site_label
 _atom_site_symmetry_multiplicity
 _atom_site_fract_x
 _atom_site_fract_y
 _atom_site_fract_z
 _atom_site_occupancy
  Er  Er0  1  0.183776  0.285264  0.468063  1
  Er  Er1  1  0.817201  0.715713  0.531937  1
  Er  Er2  1  0.183776  0.715713  0.898511  1
  Er  Er3  1  0.817201  0.285264  0.101489  1
  Er  Er4  1  0.319490  0.623826  0.304336  1
  Er  Er5  1  0.677156  0.381049  0.703893  1
  Er  Er6  1  0.319490  0.015154  0.695664  1
  Er  Er7  1  0.677156  0.973264  0.296107  1
  Er  Er8  1  0.445527  0.241627  0.203901  1
  Er  Er9  1  0.554923  0.761267  0.793655  1
  Er  Er10  1  0.037726  0.241627  0.796099  1
  Er  Er11  1  0.967612  0.761267  0.206345  1
  In  In12  1  0.501911  0.501911  0.000000  1
  In  In13  1  0.999240  0.999240  0.000000  1
  Si  Si14  1  0.873122  0.373122  0.500000  1
  Si  Si15  1  0.360429  0.003164  0.357265  1
  Si  Si16  1  0.645899  0.003164  0.642735  1
  Pt  Pt17  1  0.118363  0.618363  0.500000  1
