# generated using pymatgen
data_Sr3FeCoO6
_symmetry_space_group_name_H-M   'P 1'
_cell_length_a   6.62218478
_cell_length_b   6.62221246
_cell_length_c   6.62216792
_cell_angle_alpha   93.56906913
_cell_angle_beta   93.56885620
_cell_angle_gamma   93.56938678
_symmetry_Int_Tables_number   1
_chemical_formula_structural   Sr3FeCoO6
_chemical_formula_sum   'Sr6 Fe2 Co2 O12'
_cell_volume   288.64178730
_cell_formula_units_Z   2
loop_
 _symmetry_equiv_pos_site_id
 _symmetry_equiv_pos_as_xyz
  1  'x, y, z'
loop_
 _atom_site_type_symbol
 _atom_site_label
 _atom_site_symmetry_multiplicity
 _atom_site_fract_x
 _atom_site_fract_y
 _atom_site_fract_z
 _atom_site_occupancy
  Sr  Sr0  1  0.619202  0.880797  0.250001  1
  Sr  Sr1  1  0.880795  0.250001  0.619203  1
  Sr  Sr2  1  0.250002  0.619206  0.880793  1
  Sr  Sr3  1  0.119209  0.749997  0.380787  1
  Sr  Sr4  1  0.750001  0.380799  0.119198  1
  Sr  Sr5  1  0.380797  0.119203  0.749999  1
  Fe  Fe6  1  0.249998  0.249976  0.249951  1
  Fe  Fe7  1  0.749981  0.750031  0.750083  1
  Co  Co8  1  0.500004  0.500001  0.499999  1
  Co  Co9  1  0.000000  0.000003  0.000000  1
  O  O10  1  0.530905  0.217103  0.404927  1
  O  O11  1  0.217107  0.404924  0.530905  1
  O  O12  1  0.404927  0.530901  0.217101  1
  O  O13  1  0.030904  0.904925  0.717108  1
  O  O14  1  0.904931  0.717109  0.030907  1
  O  O15  1  0.717110  0.030898  0.904928  1
  O  O16  1  0.469094  0.782895  0.595071  1
  O  O17  1  0.782894  0.595075  0.469099  1
  O  O18  1  0.595076  0.469100  0.782891  1
  O  O19  1  0.969099  0.095072  0.282887  1
  O  O20  1  0.095071  0.282892  0.969091  1
  O  O21  1  0.282891  0.969094  0.095069  1
