# generated using pymatgen
data_Zr12AlIn3(Pd2N)4
_symmetry_space_group_name_H-M   'P 1'
_cell_length_a   8.81534351
_cell_length_b   8.81534361
_cell_length_c   8.81534345
_cell_angle_alpha   59.56434991
_cell_angle_beta   59.56435234
_cell_angle_gamma   59.56434670
_symmetry_Int_Tables_number   1
_chemical_formula_structural   Zr12AlIn3(Pd2N)4
_chemical_formula_sum   'Zr12 Al1 In3 Pd8 N4'
_cell_volume   479.60095553
_cell_formula_units_Z   1
loop_
 _symmetry_equiv_pos_site_id
 _symmetry_equiv_pos_as_xyz
  1  'x, y, z'
loop_
 _atom_site_type_symbol
 _atom_site_label
 _atom_site_symmetry_multiplicity
 _atom_site_fract_x
 _atom_site_fract_y
 _atom_site_fract_z
 _atom_site_occupancy
  Zr  Zr0  1  0.813542  0.813542  0.187095  1
  Zr  Zr1  1  0.184391  0.184391  0.815147  1
  Zr  Zr2  1  0.813542  0.187095  0.813542  1
  Zr  Zr3  1  0.184391  0.815147  0.184391  1
  Zr  Zr4  1  0.187095  0.813542  0.813542  1
  Zr  Zr5  1  0.815147  0.184391  0.184391  1
  Zr  Zr6  1  0.436458  0.436458  0.062905  1
  Zr  Zr7  1  0.065609  0.065609  0.434853  1
  Zr  Zr8  1  0.436458  0.062905  0.436458  1
  Zr  Zr9  1  0.065609  0.434853  0.065609  1
  Zr  Zr10  1  0.062905  0.436458  0.436458  1
  Zr  Zr11  1  0.434853  0.065609  0.065609  1
  Al  Al12  1  0.625000  0.625000  0.625000  1
  In  In13  1  0.125000  0.625000  0.625000  1
  In  In14  1  0.625000  0.125000  0.625000  1
  In  In15  1  0.625000  0.625000  0.125000  1
  Pd  Pd16  1  0.768408  0.417449  0.417449  1
  Pd  Pd17  1  0.417449  0.768408  0.417449  1
  Pd  Pd18  1  0.417449  0.417449  0.768408  1
  Pd  Pd19  1  0.407784  0.407784  0.407784  1
  Pd  Pd20  1  0.481592  0.832551  0.832551  1
  Pd  Pd21  1  0.832551  0.481592  0.832551  1
  Pd  Pd22  1  0.832551  0.832551  0.481592  1
  Pd  Pd23  1  0.842216  0.842216  0.842216  1
  N  N24  1  0.625000  0.125000  0.125000  1
  N  N25  1  0.125000  0.625000  0.125000  1
  N  N26  1  0.125000  0.125000  0.625000  1
  N  N27  1  0.125000  0.125000  0.125000  1
