# generated using pymatgen
data_Pr8YHo11Pb16
_symmetry_space_group_name_H-M   'P 1'
_cell_length_a   8.30595910
_cell_length_b   8.37170410
_cell_length_c   15.84373701
_cell_angle_alpha   89.99993707
_cell_angle_beta   90.00288100
_cell_angle_gamma   89.98217699
_symmetry_Int_Tables_number   1
_chemical_formula_structural   Pr8YHo11Pb16
_chemical_formula_sum   'Pr8 Y1 Ho11 Pb16'
_cell_volume   1101.69470318
_cell_formula_units_Z   1
loop_
 _symmetry_equiv_pos_site_id
 _symmetry_equiv_pos_as_xyz
  1  'x, y, z'
loop_
 _atom_site_type_symbol
 _atom_site_label
 _atom_site_symmetry_multiplicity
 _atom_site_fract_x
 _atom_site_fract_y
 _atom_site_fract_z
 _atom_site_occupancy
  Pr  Pr0  1  0.475866  0.677737  0.597345  1
  Pr  Pr1  1  0.975858  0.822228  0.902675  1
  Pr  Pr2  1  0.524156  0.322242  0.097330  1
  Pr  Pr3  1  0.024119  0.177724  0.402648  1
  Pr  Pr4  1  0.524152  0.322316  0.402535  1
  Pr  Pr5  1  0.024180  0.177741  0.097339  1
  Pr  Pr6  1  0.475826  0.677741  0.902682  1
  Pr  Pr7  1  0.975876  0.822174  0.597333  1
  Y  Y8  1  0.632899  0.158239  0.622306  1
  Ho  Ho9  1  0.132808  0.341769  0.877645  1
  Ho  Ho10  1  0.367169  0.841722  0.122373  1
  Ho  Ho11  1  0.867204  0.658261  0.377629  1
  Ho  Ho12  1  0.367168  0.841729  0.377664  1
  Ho  Ho13  1  0.867166  0.658243  0.122352  1
  Ho  Ho14  1  0.632829  0.158253  0.877644  1
  Ho  Ho15  1  0.132794  0.341727  0.622360  1
  Ho  Ho16  1  0.798744  0.494800  0.750038  1
  Ho  Ho17  1  0.298504  0.005318  0.750063  1
  Ho  Ho18  1  0.201321  0.505331  0.250027  1
  Ho  Ho19  1  0.701318  0.994574  0.250020  1
  Pb  Pb20  1  0.705893  0.959079  0.456280  1
  Pb  Pb21  1  0.205819  0.540700  0.043497  1
  Pb  Pb22  1  0.294227  0.040662  0.956419  1
  Pb  Pb23  1  0.794448  0.459834  0.543490  1
  Pb  Pb24  1  0.293794  0.040521  0.543513  1
  Pb  Pb25  1  0.794241  0.459336  0.956405  1
  Pb  Pb26  1  0.705798  0.959307  0.043487  1
  Pb  Pb27  1  0.205794  0.540680  0.456483  1
  Pb  Pb28  1  0.436738  0.370570  0.750203  1
  Pb  Pb29  1  0.937196  0.129637  0.750159  1
  Pb  Pb30  1  0.563017  0.629622  0.249983  1
  Pb  Pb31  1  0.063062  0.870398  0.249974  1
  Pb  Pb32  1  0.663191  0.850367  0.750128  1
  Pb  Pb33  1  0.163206  0.649349  0.750017  1
  Pb  Pb34  1  0.336816  0.149404  0.249978  1
  Pb  Pb35  1  0.836803  0.350663  0.249978  1
