# generated using pymatgen
data_La3Eu(AsPd)4
_symmetry_space_group_name_H-M   'P 1'
_cell_length_a   4.39828300
_cell_length_b   7.59421525
_cell_length_c   8.08749700
_cell_angle_alpha   90.05303143
_cell_angle_beta   90.00000000
_cell_angle_gamma   90.00000000
_symmetry_Int_Tables_number   1
_chemical_formula_structural   La3Eu(AsPd)4
_chemical_formula_sum   'La3 Eu1 As4 Pd4'
_cell_volume   270.13447878
_cell_formula_units_Z   1
loop_
 _symmetry_equiv_pos_site_id
 _symmetry_equiv_pos_as_xyz
  1  'x, y, z'
loop_
 _atom_site_type_symbol
 _atom_site_label
 _atom_site_symmetry_multiplicity
 _atom_site_fract_x
 _atom_site_fract_y
 _atom_site_fract_z
 _atom_site_occupancy
  La  La0  1  0.750000  0.751156  0.499812  1
  La  La1  1  0.250002  0.248847  0.500308  1
  La  La2  1  0.750000  0.748777  0.999714  1
  Eu  Eu3  1  0.250002  0.251383  0.000258  1
  As  As4  1  0.750000  0.083281  0.252664  1
  As  As5  1  0.250002  0.582176  0.253801  1
  As  As6  1  0.750000  0.416572  0.745479  1
  As  As7  1  0.250002  0.917901  0.747887  1
  Pd  Pd8  1  0.250002  0.916550  0.245977  1
  Pd  Pd9  1  0.750000  0.417871  0.247698  1
  Pd  Pd10  1  0.250002  0.583432  0.751344  1
  Pd  Pd11  1  0.750000  0.082052  0.755051  1
