# generated using pymatgen
data_Ho4Er4Tc(B8Ru)3
_symmetry_space_group_name_H-M   'P 1'
_cell_length_a   3.64716300
_cell_length_b   9.10417695
_cell_length_c   11.48914600
_cell_angle_alpha   89.90972916
_cell_angle_beta   90.00000000
_cell_angle_gamma   90.00000000
_symmetry_Int_Tables_number   1
_chemical_formula_structural   Ho4Er4Tc(B8Ru)3
_chemical_formula_sum   'Ho4 Er4 Tc1 B24 Ru3'
_cell_volume   381.48992490
_cell_formula_units_Z   1
loop_
 _symmetry_equiv_pos_site_id
 _symmetry_equiv_pos_as_xyz
  1  'x, y, z'
loop_
 _atom_site_type_symbol
 _atom_site_label
 _atom_site_symmetry_multiplicity
 _atom_site_fract_x
 _atom_site_fract_y
 _atom_site_fract_z
 _atom_site_occupancy
  Ho  Ho0  1  0.000000  0.323918  0.413286  1
  Ho  Ho1  1  0.000000  0.677466  0.583387  1
  Ho  Ho2  1  0.000000  0.819838  0.088045  1
  Ho  Ho3  1  0.000000  0.177469  0.915080  1
  Er  Er4  1  0.000000  0.943002  0.372296  1
  Er  Er5  1  0.000000  0.057474  0.628387  1
  Er  Er6  1  0.000000  0.443862  0.128177  1
  Er  Er7  1  0.000000  0.556991  0.871319  1
  Tc  Tc8  1  0.000000  0.637576  0.320928  1
  B  B9  1  0.500000  0.552918  0.433145  1
  B  B10  1  0.500000  0.446490  0.567363  1
  B  B11  1  0.500000  0.053513  0.067112  1
  B  B12  1  0.500000  0.946078  0.933250  1
  B  B13  1  0.500000  0.748458  0.419374  1
  B  B14  1  0.500000  0.252006  0.580619  1
  B  B15  1  0.500000  0.248144  0.080299  1
  B  B16  1  0.500000  0.751532  0.919523  1
  B  B17  1  0.500000  0.791267  0.265878  1
  B  B18  1  0.500000  0.209365  0.734177  1
  B  B19  1  0.500000  0.290622  0.233332  1
  B  B20  1  0.500000  0.709756  0.765835  1
  B  B21  1  0.500000  0.630834  0.185382  1
  B  B22  1  0.500000  0.368825  0.814981  1
  B  B23  1  0.500000  0.131067  0.314456  1
  B  B24  1  0.500000  0.869499  0.685158  1
  B  B25  1  0.500000  0.982590  0.212692  1
  B  B26  1  0.500000  0.017350  0.787824  1
  B  B27  1  0.500000  0.481799  0.287272  1
  B  B28  1  0.500000  0.517189  0.712613  1
  B  B29  1  0.500000  0.606050  0.028758  1
  B  B30  1  0.500000  0.393279  0.970148  1
  B  B31  1  0.500000  0.107001  0.470794  1
  B  B32  1  0.500000  0.894723  0.529842  1
  Ru  Ru33  1  0.000000  0.362086  0.679667  1
  Ru  Ru34  1  0.000000  0.137412  0.178569  1
  Ru  Ru35  1  0.000000  0.862547  0.821031  1
