# generated using pymatgen
data_Sr3Ca(Bi2O7)2
_symmetry_space_group_name_H-M   'P 1'
_cell_length_a   7.79480374
_cell_length_b   7.88462724
_cell_length_c   7.88462800
_cell_angle_alpha   120.02541421
_cell_angle_beta   120.09118327
_cell_angle_gamma   90.22895243
_symmetry_Int_Tables_number   1
_chemical_formula_structural   Sr3Ca(Bi2O7)2
_chemical_formula_sum   'Sr3 Ca1 Bi4 O14'
_cell_volume   341.35213493
_cell_formula_units_Z   1
loop_
 _symmetry_equiv_pos_site_id
 _symmetry_equiv_pos_as_xyz
  1  'x, y, z'
loop_
 _atom_site_type_symbol
 _atom_site_label
 _atom_site_symmetry_multiplicity
 _atom_site_fract_x
 _atom_site_fract_y
 _atom_site_fract_z
 _atom_site_occupancy
  Sr  Sr0  1  0.000000  0.000000  0.500000  1
  Sr  Sr1  1  0.000000  0.500000  0.000000  1
  Sr  Sr2  1  0.000000  0.000000  0.000000  1
  Ca  Ca3  1  0.500000  0.500000  0.000000  1
  Bi  Bi4  1  0.500000  0.000000  0.000000  1
  Bi  Bi5  1  0.500000  0.500000  0.500000  1
  Bi  Bi6  1  0.500000  0.000000  0.500000  1
  Bi  Bi7  1  0.000000  0.500000  0.500000  1
  O  O8  1  0.446594  0.106759  0.781939  1
  O  O9  1  0.553406  0.335346  0.660164  1
  O  O10  1  0.170263  0.412880  0.338029  1
  O  O11  1  0.829737  0.167767  0.242617  1
  O  O12  1  0.553406  0.893241  0.218061  1
  O  O13  1  0.446594  0.664654  0.339836  1
  O  O14  1  0.829737  0.587120  0.661971  1
  O  O15  1  0.170263  0.832233  0.757383  1
  O  O16  1  0.618709  0.763263  0.855446  1
  O  O17  1  0.381291  0.236737  0.144554  1
  O  O18  1  0.171622  0.899614  0.272007  1
  O  O19  1  0.828378  0.100386  0.727993  1
  O  O20  1  0.849351  0.587203  0.262147  1
  O  O21  1  0.150649  0.412797  0.737853  1
