# generated using pymatgen
data_Y12Co3NiSnRh
_symmetry_space_group_name_H-M   'P 1'
_cell_length_a   8.33508729
_cell_length_b   8.33508758
_cell_length_c   8.33508741
_cell_angle_alpha   110.96134398
_cell_angle_beta   110.34941933
_cell_angle_gamma   107.12861611
_symmetry_Int_Tables_number   1
_chemical_formula_structural   Y12Co3NiSnRh
_chemical_formula_sum   'Y12 Co3 Ni1 Sn1 Rh1'
_cell_volume   445.19834893
_cell_formula_units_Z   1
loop_
 _symmetry_equiv_pos_site_id
 _symmetry_equiv_pos_as_xyz
  1  'x, y, z'
loop_
 _atom_site_type_symbol
 _atom_site_label
 _atom_site_symmetry_multiplicity
 _atom_site_fract_x
 _atom_site_fract_y
 _atom_site_fract_z
 _atom_site_occupancy
  Y  Y0  1  0.408245  0.213913  0.194332  1
  Y  Y1  1  0.592071  0.787471  0.804600  1
  Y  Y2  1  0.017130  0.212529  0.804600  1
  Y  Y3  1  0.980418  0.786087  0.194332  1
  Y  Y4  1  0.184913  0.292084  0.476997  1
  Y  Y5  1  0.813631  0.709087  0.522718  1
  Y  Y6  1  0.184913  0.707916  0.892829  1
  Y  Y7  1  0.813631  0.290913  0.104545  1
  Y  Y8  1  0.315434  0.618409  0.306745  1
  Y  Y9  1  0.688337  0.381591  0.697025  1
  Y  Y10  1  0.315434  0.008688  0.697025  1
  Y  Y11  1  0.688337  0.991312  0.306745  1
  Co  Co12  1  0.623922  0.000000  0.623922  1
  Co  Co13  1  0.111134  0.611354  0.499780  1
  Co  Co14  1  0.888426  0.388646  0.499780  1
  Ni  Ni15  1  0.373926  0.000000  0.373926  1
  Sn  Sn16  1  0.499843  0.500000  0.999843  1
  Rh  Rh17  1  0.000256  0.000000  0.000256  1
