# generated using pymatgen
data_LaTa5Tl2O15
_symmetry_space_group_name_H-M   'P 1'
_cell_length_a   9.33831500
_cell_length_b   9.33831566
_cell_length_c   3.96768800
_cell_angle_alpha   90.00000000
_cell_angle_beta   90.00000000
_cell_angle_gamma   111.62189520
_symmetry_Int_Tables_number   1
_chemical_formula_structural   LaTa5Tl2O15
_chemical_formula_sum   'La1 Ta5 Tl2 O15'
_cell_volume   321.65284425
_cell_formula_units_Z   1
loop_
 _symmetry_equiv_pos_site_id
 _symmetry_equiv_pos_as_xyz
  1  'x, y, z'
loop_
 _atom_site_type_symbol
 _atom_site_label
 _atom_site_symmetry_multiplicity
 _atom_site_fract_x
 _atom_site_fract_y
 _atom_site_fract_z
 _atom_site_occupancy
  La  La0  1  0.000000  0.000000  0.000000  1
  Ta  Ta1  1  0.322884  0.063344  0.500000  1
  Ta  Ta2  1  0.063344  0.322884  0.500000  1
  Ta  Ta3  1  0.677116  0.936656  0.500000  1
  Ta  Ta4  1  0.936656  0.677116  0.500000  1
  Ta  Ta5  1  0.500000  0.500000  0.500000  1
  Tl  Tl6  1  0.300519  0.699481  0.000000  1
  Tl  Tl7  1  0.699481  0.300519  0.000000  1
  O  O8  1  0.141747  0.141747  0.500000  1
  O  O9  1  0.145909  0.854091  0.500000  1
  O  O10  1  0.275430  0.459994  0.500000  1
  O  O11  1  0.854091  0.145909  0.500000  1
  O  O12  1  0.858253  0.858253  0.500000  1
  O  O13  1  0.297153  0.052754  0.000000  1
  O  O14  1  0.702847  0.947246  0.000000  1
  O  O15  1  0.540006  0.724570  0.500000  1
  O  O16  1  0.052754  0.297153  0.000000  1
  O  O17  1  0.500000  0.000000  0.500000  1
  O  O18  1  0.459994  0.275430  0.500000  1
  O  O19  1  0.947246  0.702847  0.000000  1
  O  O20  1  0.500000  0.500000  0.000000  1
  O  O21  1  0.724570  0.540006  0.500000  1
  O  O22  1  0.000000  0.500000  0.500000  1
