# generated using pymatgen
data_Ta13Ni8W3N4
_symmetry_space_group_name_H-M   'P 1'
_cell_length_a   8.15076312
_cell_length_b   8.15009858
_cell_length_c   8.15070551
_cell_angle_alpha   60.21454231
_cell_angle_beta   60.21149269
_cell_angle_gamma   60.19830969
_symmetry_Int_Tables_number   1
_chemical_formula_structural   Ta13Ni8W3N4
_chemical_formula_sum   'Ta13 Ni8 W3 N4'
_cell_volume   384.66530641
_cell_formula_units_Z   1
loop_
 _symmetry_equiv_pos_site_id
 _symmetry_equiv_pos_as_xyz
  1  'x, y, z'
loop_
 _atom_site_type_symbol
 _atom_site_label
 _atom_site_symmetry_multiplicity
 _atom_site_fract_x
 _atom_site_fract_y
 _atom_site_fract_z
 _atom_site_occupancy
  Ta  Ta0  1  0.312152  0.687565  0.687618  1
  Ta  Ta1  1  0.562345  0.562368  0.937932  1
  Ta  Ta2  1  0.313594  0.684922  0.313601  1
  Ta  Ta3  1  0.313600  0.313561  0.684910  1
  Ta  Ta4  1  0.684834  0.313574  0.313593  1
  Ta  Ta5  1  0.936400  0.936439  0.565090  1
  Ta  Ta6  1  0.936406  0.565078  0.936399  1
  Ta  Ta7  1  0.937848  0.562435  0.562382  1
  Ta  Ta8  1  0.565166  0.936426  0.936407  1
  Ta  Ta9  1  0.125000  0.125000  0.125000  1
  Ta  Ta10  1  0.687655  0.687632  0.312068  1
  Ta  Ta11  1  0.687691  0.312001  0.687647  1
  Ta  Ta12  1  0.562309  0.937999  0.562353  1
  Ni  Ni13  1  0.008360  0.331927  0.331687  1
  Ni  Ni14  1  0.921375  0.920580  0.920886  1
  Ni  Ni15  1  0.331806  0.331888  0.008319  1
  Ni  Ni16  1  0.918194  0.918112  0.241681  1
  Ni  Ni17  1  0.241640  0.918073  0.918313  1
  Ni  Ni18  1  0.331779  0.008301  0.331869  1
  Ni  Ni19  1  0.918221  0.241699  0.918131  1
  Ni  Ni20  1  0.328625  0.329420  0.329114  1
  W  W21  1  0.125000  0.125000  0.625000  1
  W  W22  1  0.625000  0.125000  0.125000  1
  W  W23  1  0.125000  0.625000  0.125000  1
  N  N24  1  0.625000  0.125000  0.625000  1
  N  N25  1  0.625000  0.625000  0.125000  1
  N  N26  1  0.125000  0.625000  0.625000  1
  N  N27  1  0.625000  0.625000  0.625000  1
