# generated using pymatgen
data_HoEr3InPt11
_symmetry_space_group_name_H-M   'P 1'
_cell_length_a   4.17406500
_cell_length_b   5.82838499
_cell_length_c   11.63839559
_cell_angle_alpha   87.86424930
_cell_angle_beta   90.00000000
_cell_angle_gamma   90.00000000
_symmetry_Int_Tables_number   1
_chemical_formula_structural   HoEr3InPt11
_chemical_formula_sum   'Ho1 Er3 In1 Pt11'
_cell_volume   282.94287334
_cell_formula_units_Z   1
loop_
 _symmetry_equiv_pos_site_id
 _symmetry_equiv_pos_as_xyz
  1  'x, y, z'
loop_
 _atom_site_type_symbol
 _atom_site_label
 _atom_site_symmetry_multiplicity
 _atom_site_fract_x
 _atom_site_fract_y
 _atom_site_fract_z
 _atom_site_occupancy
  Ho  Ho0  1  0.500000  0.752524  0.375844  1
  Er  Er1  1  0.500000  0.721037  0.862098  1
  Er  Er2  1  0.500000  0.278969  0.137842  1
  Er  Er3  1  0.500000  0.247419  0.624134  1
  In  In4  1  0.000000  0.000001  0.999975  1
  Pt  Pt5  1  0.000000  0.011529  0.249225  1
  Pt  Pt6  1  0.000000  0.988844  0.750628  1
  Pt  Pt7  1  0.000000  0.499993  0.999983  1
  Pt  Pt8  1  0.000000  0.499647  0.500200  1
  Pt  Pt9  1  0.000000  0.512828  0.249968  1
  Pt  Pt10  1  0.000000  0.486854  0.749874  1
  Pt  Pt11  1  0.500000  0.250596  0.377764  1
  Pt  Pt12  1  0.500000  0.232364  0.880324  1
  Pt  Pt13  1  0.500000  0.767665  0.119499  1
  Pt  Pt14  1  0.500000  0.749449  0.622468  1
  Pt  Pt15  1  0.000000  0.000281  0.500174  1
