# generated using pymatgen
data_Er2GaP6(Ir3Rh)3
_symmetry_space_group_name_H-M   'P 1'
_cell_length_a   9.66434700
_cell_length_b   9.66434527
_cell_length_c   3.93858900
_cell_angle_alpha   90.00000000
_cell_angle_beta   90.00000000
_cell_angle_gamma   119.99999429
_symmetry_Int_Tables_number   1
_chemical_formula_structural   Er2GaP6(Ir3Rh)3
_chemical_formula_sum   'Er2 Ga1 P6 Ir9 Rh3'
_cell_volume   318.57836035
_cell_formula_units_Z   1
loop_
 _symmetry_equiv_pos_site_id
 _symmetry_equiv_pos_as_xyz
  1  'x, y, z'
loop_
 _atom_site_type_symbol
 _atom_site_label
 _atom_site_symmetry_multiplicity
 _atom_site_fract_x
 _atom_site_fract_y
 _atom_site_fract_z
 _atom_site_occupancy
  Er  Er0  1  0.333333  0.666667  0.744615  1
  Er  Er1  1  0.666667  0.333333  0.243956  1
  Ga  Ga2  1  0.000000  0.000000  0.622119  1
  P  P3  1  0.408744  0.285500  0.743397  1
  P  P4  1  0.714500  0.123244  0.743397  1
  P  P5  1  0.876756  0.591256  0.743397  1
  P  P6  1  0.598646  0.720736  0.244025  1
  P  P7  1  0.279264  0.877910  0.244025  1
  P  P8  1  0.122090  0.401354  0.244025  1
  Ir  Ir9  1  0.453156  0.071436  0.744041  1
  Ir  Ir10  1  0.928564  0.381719  0.744041  1
  Ir  Ir11  1  0.618281  0.546844  0.744041  1
  Ir  Ir12  1  0.539956  0.932635  0.244386  1
  Ir  Ir13  1  0.067365  0.607322  0.244386  1
  Ir  Ir14  1  0.392678  0.460044  0.244386  1
  Ir  Ir15  1  0.169105  0.290496  0.745994  1
  Ir  Ir16  1  0.709504  0.878609  0.745994  1
  Ir  Ir17  1  0.121391  0.830895  0.745994  1
  Rh  Rh18  1  0.846851  0.728229  0.241261  1
  Rh  Rh19  1  0.271771  0.118622  0.241261  1
  Rh  Rh20  1  0.881378  0.153149  0.241261  1
