# generated using pymatgen
data_NdHo2Be(PPd4)5
_symmetry_space_group_name_H-M   'P 1'
_cell_length_a   8.70330268
_cell_length_b   8.65064594
_cell_length_c   8.65064573
_cell_angle_alpha   60.20507854
_cell_angle_beta   59.79843565
_cell_angle_gamma   59.79843171
_symmetry_Int_Tables_number   1
_chemical_formula_structural   NdHo2Be(PPd4)5
_chemical_formula_sum   'Nd1 Ho2 Be1 P5 Pd20'
_cell_volume   459.83359178
_cell_formula_units_Z   1
loop_
 _symmetry_equiv_pos_site_id
 _symmetry_equiv_pos_as_xyz
  1  'x, y, z'
loop_
 _atom_site_type_symbol
 _atom_site_label
 _atom_site_symmetry_multiplicity
 _atom_site_fract_x
 _atom_site_fract_y
 _atom_site_fract_z
 _atom_site_occupancy
  Nd  Nd0  1  0.249665  0.250335  0.250335  1
  Ho  Ho1  1  0.749731  0.750269  0.750269  1
  Ho  Ho2  1  0.996143  0.003857  0.003857  1
  Be  Be3  1  0.732687  0.267313  0.267313  1
  P  P4  1  0.262832  0.737168  0.737168  1
  P  P5  1  0.264947  0.734711  0.263942  1
  P  P6  1  0.736400  0.263942  0.734711  1
  P  P7  1  0.264947  0.263942  0.734711  1
  P  P8  1  0.736400  0.734711  0.263942  1
  Pd  Pd9  1  0.388824  0.384426  0.384426  1
  Pd  Pd10  1  0.616635  0.616009  0.616009  1
  Pd  Pd11  1  0.386563  0.385823  0.841052  1
  Pd  Pd12  1  0.386563  0.841052  0.385823  1
  Pd  Pd13  1  0.617682  0.613922  0.150713  1
  Pd  Pd14  1  0.617682  0.150713  0.613922  1
  Pd  Pd15  1  0.842325  0.384426  0.384426  1
  Pd  Pd16  1  0.151346  0.616009  0.616009  1
  Pd  Pd17  1  0.344317  0.000082  0.000082  1
  Pd  Pd18  1  0.655521  0.000082  0.000082  1
  Pd  Pd19  1  0.998045  0.346408  0.657501  1
  Pd  Pd20  1  0.998045  0.657501  0.346408  1
  Pd  Pd21  1  0.995993  0.343124  0.002634  1
  Pd  Pd22  1  0.658248  0.002634  0.343124  1
  Pd  Pd23  1  0.999484  0.654409  0.998482  1
  Pd  Pd24  1  0.347626  0.998482  0.654409  1
  Pd  Pd25  1  0.995993  0.002634  0.343124  1
  Pd  Pd26  1  0.999484  0.998482  0.654409  1
  Pd  Pd27  1  0.658248  0.343124  0.002634  1
  Pd  Pd28  1  0.347626  0.654409  0.998482  1
