# generated using pymatgen
data_Pr4Tm4Re3B24Ru
_symmetry_space_group_name_H-M   'P 1'
_cell_length_a   3.71758700
_cell_length_b   9.22458054
_cell_length_c   11.69848419
_cell_angle_alpha   89.91521023
_cell_angle_beta   90.00000000
_cell_angle_gamma   90.00000000
_symmetry_Int_Tables_number   1
_chemical_formula_structural   Pr4Tm4Re3B24Ru
_chemical_formula_sum   'Pr4 Tm4 Re3 B24 Ru1'
_cell_volume   401.17779269
_cell_formula_units_Z   1
loop_
 _symmetry_equiv_pos_site_id
 _symmetry_equiv_pos_as_xyz
  1  'x, y, z'
loop_
 _atom_site_type_symbol
 _atom_site_label
 _atom_site_symmetry_multiplicity
 _atom_site_fract_x
 _atom_site_fract_y
 _atom_site_fract_z
 _atom_site_occupancy
  Pr  Pr0  1  0.000000  0.322680  0.414358  1
  Pr  Pr1  1  0.000000  0.676026  0.584004  1
  Pr  Pr2  1  0.000000  0.822886  0.086383  1
  Pr  Pr3  1  0.000000  0.177777  0.915245  1
  Tm  Tm4  1  0.000000  0.943513  0.369880  1
  Tm  Tm5  1  0.000000  0.056800  0.631153  1
  Tm  Tm6  1  0.000000  0.443926  0.130420  1
  Tm  Tm7  1  0.000000  0.557349  0.868943  1
  Re  Re8  1  0.000000  0.640552  0.318448  1
  Re  Re9  1  0.000000  0.359693  0.682083  1
  Re  Re10  1  0.000000  0.139659  0.180703  1
  B  B11  1  0.500000  0.555860  0.429391  1
  B  B12  1  0.500000  0.443941  0.570282  1
  B  B13  1  0.500000  0.056004  0.070486  1
  B  B14  1  0.500000  0.943118  0.929061  1
  B  B15  1  0.500000  0.750936  0.415259  1
  B  B16  1  0.500000  0.248425  0.584973  1
  B  B17  1  0.500000  0.251619  0.084773  1
  B  B18  1  0.500000  0.749355  0.914670  1
  B  B19  1  0.500000  0.792496  0.266051  1
  B  B20  1  0.500000  0.207855  0.734553  1
  B  B21  1  0.500000  0.292236  0.234010  1
  B  B22  1  0.500000  0.708680  0.765718  1
  B  B23  1  0.500000  0.629920  0.185578  1
  B  B24  1  0.500000  0.370280  0.814837  1
  B  B25  1  0.500000  0.129484  0.314004  1
  B  B26  1  0.500000  0.870022  0.686014  1
  B  B27  1  0.500000  0.984148  0.214019  1
  B  B28  1  0.500000  0.014018  0.786428  1
  B  B29  1  0.500000  0.484739  0.285693  1
  B  B30  1  0.500000  0.515237  0.713798  1
  B  B31  1  0.500000  0.596638  0.025888  1
  B  B32  1  0.500000  0.404947  0.973696  1
  B  B33  1  0.500000  0.095784  0.474481  1
  B  B34  1  0.500000  0.904097  0.526632  1
  Ru  Ru35  1  0.000000  0.859301  0.818083  1
