# generated using pymatgen
data_K2HoTeO6
_symmetry_space_group_name_H-M   'P 1'
_cell_length_a   5.92775814
_cell_length_b   5.92775828
_cell_length_c   5.92330300
_cell_angle_alpha   119.97514612
_cell_angle_beta   119.97514690
_cell_angle_gamma   59.95028777
_symmetry_Int_Tables_number   1
_chemical_formula_structural   K2HoTeO6
_chemical_formula_sum   'K2 Ho1 Te1 O6'
_cell_volume   147.17342764
_cell_formula_units_Z   1
loop_
 _symmetry_equiv_pos_site_id
 _symmetry_equiv_pos_as_xyz
  1  'x, y, z'
loop_
 _atom_site_type_symbol
 _atom_site_label
 _atom_site_symmetry_multiplicity
 _atom_site_fract_x
 _atom_site_fract_y
 _atom_site_fract_z
 _atom_site_occupancy
  K  K0  1  0.750000  0.750000  0.250002  1
  K  K1  1  0.249999  0.249999  0.750000  1
  Ho  Ho2  1  0.500000  0.500000  0.500000  1
  Te  Te3  1  0.000000  0.000000  0.000000  1
  O  O4  1  0.767722  0.232279  0.232279  1
  O  O5  1  0.232279  0.767722  0.232279  1
  O  O6  1  0.232278  0.232278  0.232278  1
  O  O7  1  0.767721  0.232278  0.767720  1
  O  O8  1  0.232278  0.767721  0.767720  1
  O  O9  1  0.767722  0.767722  0.767721  1
