# generated using pymatgen
data_MgNbB2PRu5
_symmetry_space_group_name_H-M   'P 1'
_cell_length_a   9.28677752
_cell_length_b   9.28677752
_cell_length_c   2.92958700
_cell_angle_alpha   90.00000000
_cell_angle_beta   90.00000000
_cell_angle_gamma   88.66891410
_symmetry_Int_Tables_number   1
_chemical_formula_structural   MgNbB2PRu5
_chemical_formula_sum   'Mg2 Nb2 B4 P2 Ru10'
_cell_volume   252.59181534
_cell_formula_units_Z   2
loop_
 _symmetry_equiv_pos_site_id
 _symmetry_equiv_pos_as_xyz
  1  'x, y, z'
loop_
 _atom_site_type_symbol
 _atom_site_label
 _atom_site_symmetry_multiplicity
 _atom_site_fract_x
 _atom_site_fract_y
 _atom_site_fract_z
 _atom_site_occupancy
  Mg  Mg0  1  0.825399  0.674601  0.000000  1
  Mg  Mg1  1  0.174601  0.325399  0.000000  1
  Nb  Nb2  1  0.324608  0.824608  0.000000  1
  Nb  Nb3  1  0.675392  0.175392  0.000000  1
  B  B4  1  0.627470  0.872530  0.000000  1
  B  B5  1  0.372530  0.127470  0.000000  1
  B  B6  1  0.121175  0.621175  0.000000  1
  B  B7  1  0.878825  0.378825  0.000000  1
  P  P8  1  0.500000  0.500000  0.000000  1
  P  P9  1  0.000000  0.000000  0.000000  1
  Ru  Ru10  1  0.564056  0.707948  0.500000  1
  Ru  Ru11  1  0.435944  0.292052  0.500000  1
  Ru  Ru12  1  0.073760  0.795090  0.500000  1
  Ru  Ru13  1  0.926240  0.204910  0.500000  1
  Ru  Ru14  1  0.295090  0.573760  0.500000  1
  Ru  Ru15  1  0.704910  0.426240  0.500000  1
  Ru  Ru16  1  0.207948  0.064056  0.500000  1
  Ru  Ru17  1  0.792052  0.935944  0.500000  1
  Ru  Ru18  1  0.500000  0.000000  0.500000  1
  Ru  Ru19  1  0.000000  0.500000  0.500000  1
