# generated using pymatgen
data_Mg3Pa2Si12Ir19
_symmetry_space_group_name_H-M   'P 1'
_cell_length_a   12.73815400
_cell_length_b   12.73815403
_cell_length_c   3.98598800
_cell_angle_alpha   90.00000000
_cell_angle_beta   90.00000000
_cell_angle_gamma   119.99999991
_symmetry_Int_Tables_number   1
_chemical_formula_structural   Mg3Pa2Si12Ir19
_chemical_formula_sum   'Mg3 Pa2 Si12 Ir19'
_cell_volume   560.11810423
_cell_formula_units_Z   1
loop_
 _symmetry_equiv_pos_site_id
 _symmetry_equiv_pos_as_xyz
  1  'x, y, z'
loop_
 _atom_site_type_symbol
 _atom_site_label
 _atom_site_symmetry_multiplicity
 _atom_site_fract_x
 _atom_site_fract_y
 _atom_site_fract_z
 _atom_site_occupancy
  Mg  Mg0  1  0.000000  0.820132  0.000000  1
  Mg  Mg1  1  0.179868  0.179868  0.000000  1
  Mg  Mg2  1  0.820132  0.000000  0.000000  1
  Pa  Pa3  1  0.333333  0.666667  0.500000  1
  Pa  Pa4  1  0.666667  0.333333  0.500000  1
  Si  Si5  1  0.000000  0.636428  0.500000  1
  Si  Si6  1  0.363572  0.363572  0.500000  1
  Si  Si7  1  0.636428  0.000000  0.500000  1
  Si  Si8  1  0.525037  0.688797  0.000000  1
  Si  Si9  1  0.311203  0.836240  0.000000  1
  Si  Si10  1  0.163760  0.474963  0.000000  1
  Si  Si11  1  0.474963  0.163760  0.000000  1
  Si  Si12  1  0.688797  0.525037  0.000000  1
  Si  Si13  1  0.836240  0.311203  0.000000  1
  Si  Si14  1  0.000000  0.177897  0.500000  1
  Si  Si15  1  0.822103  0.822103  0.500000  1
  Si  Si16  1  0.177897  0.000000  0.500000  1
  Ir  Ir17  1  0.508846  0.871084  0.000000  1
  Ir  Ir18  1  0.128916  0.637763  0.000000  1
  Ir  Ir19  1  0.362237  0.491154  0.000000  1
  Ir  Ir20  1  0.491154  0.362237  0.000000  1
  Ir  Ir21  1  0.871084  0.508846  0.000000  1
  Ir  Ir22  1  0.637763  0.128916  0.000000  1
  Ir  Ir23  1  0.000000  0.450672  0.500000  1
  Ir  Ir24  1  0.549328  0.549328  0.500000  1
  Ir  Ir25  1  0.450672  0.000000  0.500000  1
  Ir  Ir26  1  0.000000  0.275406  0.000000  1
  Ir  Ir27  1  0.724594  0.724594  0.000000  1
  Ir  Ir28  1  0.275406  0.000000  0.000000  1
  Ir  Ir29  1  0.623834  0.807665  0.500000  1
  Ir  Ir30  1  0.192335  0.816169  0.500000  1
  Ir  Ir31  1  0.183831  0.376166  0.500000  1
  Ir  Ir32  1  0.376166  0.183831  0.500000  1
  Ir  Ir33  1  0.807665  0.623834  0.500000  1
  Ir  Ir34  1  0.816169  0.192335  0.500000  1
  Ir  Ir35  1  0.000000  0.000000  0.500000  1
