# generated using pymatgen
data_CaSm2PaN4
_symmetry_space_group_name_H-M   'P 1'
_cell_length_a   6.19518803
_cell_length_b   6.19519189
_cell_length_c   4.98466101
_cell_angle_alpha   66.27785235
_cell_angle_beta   66.27794643
_cell_angle_gamma   47.44418594
_symmetry_Int_Tables_number   1
_chemical_formula_structural   CaSm2PaN4
_chemical_formula_sum   'Ca1 Sm2 Pa1 N4'
_cell_volume   126.58960978
_cell_formula_units_Z   1
loop_
 _symmetry_equiv_pos_site_id
 _symmetry_equiv_pos_as_xyz
  1  'x, y, z'
loop_
 _atom_site_type_symbol
 _atom_site_label
 _atom_site_symmetry_multiplicity
 _atom_site_fract_x
 _atom_site_fract_y
 _atom_site_fract_z
 _atom_site_occupancy
  Ca  Ca0  1  0.497127  0.502873  0.502873  1
  Sm  Sm1  1  0.746972  0.753028  0.753028  1
  Sm  Sm2  1  0.246972  0.253028  0.253028  1
  Pa  Pa3  1  0.997573  0.002427  0.002427  1
  N  N4  1  0.997396  0.002604  0.505136  1
  N  N5  1  0.217250  0.222219  0.782750  1
  N  N6  1  0.494864  0.505136  0.002604  1
  N  N7  1  0.777781  0.782750  0.222219  1
