# generated using pymatgen
data_Gd2(DySb)3
_symmetry_space_group_name_H-M   'P 1'
_cell_length_a   6.25908600
_cell_length_b   8.97142512
_cell_length_c   8.97158500
_cell_angle_alpha   119.99941327
_cell_angle_beta   90.00000000
_cell_angle_gamma   90.00000000
_symmetry_Int_Tables_number   1
_chemical_formula_structural   Gd2(DySb)3
_chemical_formula_sum   'Gd4 Dy6 Sb6'
_cell_volume   436.28946984
_cell_formula_units_Z   2
loop_
 _symmetry_equiv_pos_site_id
 _symmetry_equiv_pos_as_xyz
  1  'x, y, z'
loop_
 _atom_site_type_symbol
 _atom_site_label
 _atom_site_symmetry_multiplicity
 _atom_site_fract_x
 _atom_site_fract_y
 _atom_site_fract_z
 _atom_site_occupancy
  Gd  Gd0  1  0.500002  0.333338  0.666676  1
  Gd  Gd1  1  0.500008  0.666657  0.333319  1
  Gd  Gd2  1  0.000005  0.666666  0.333330  1
  Gd  Gd3  1  0.999999  0.333339  0.666681  1
  Dy  Dy4  1  0.750018  0.245805  0.000006  1
  Dy  Dy5  1  0.750019  0.754175  0.754166  1
  Dy  Dy6  1  0.750018  0.999994  0.245825  1
  Dy  Dy7  1  0.249979  0.754201  0.000005  1
  Dy  Dy8  1  0.249980  0.245832  0.245826  1
  Dy  Dy9  1  0.249980  0.999991  0.754166  1
  Sb  Sb10  1  0.750029  0.613223  0.000001  1
  Sb  Sb11  1  0.750029  0.386781  0.386777  1
  Sb  Sb12  1  0.750028  0.999998  0.613221  1
  Sb  Sb13  1  0.249966  0.386780  0.000002  1
  Sb  Sb14  1  0.249970  0.613223  0.613221  1
  Sb  Sb15  1  0.249970  0.999996  0.386777  1
