# generated using pymatgen
data_PrScMo3P7Rh9
_symmetry_space_group_name_H-M   'P 1'
_cell_length_a   3.92783006
_cell_length_b   9.55460522
_cell_length_c   9.55480000
_cell_angle_alpha   120.00197547
_cell_angle_beta   89.99125215
_cell_angle_gamma   90.01162121
_symmetry_Int_Tables_number   1
_chemical_formula_structural   PrScMo3P7Rh9
_chemical_formula_sum   'Pr1 Sc1 Mo3 P7 Rh9'
_cell_volume   310.53389817
_cell_formula_units_Z   1
loop_
 _symmetry_equiv_pos_site_id
 _symmetry_equiv_pos_as_xyz
  1  'x, y, z'
loop_
 _atom_site_type_symbol
 _atom_site_label
 _atom_site_symmetry_multiplicity
 _atom_site_fract_x
 _atom_site_fract_y
 _atom_site_fract_z
 _atom_site_occupancy
  Pr  Pr0  1  0.262036  0.666660  0.333321  1
  Sc  Sc1  1  0.761980  0.333336  0.666670  1
  Mo  Mo2  1  0.761885  0.091638  0.872888  1
  Mo  Mo3  1  0.761879  0.127116  0.218769  1
  Mo  Mo4  1  0.761878  0.781241  0.908353  1
  P  P5  1  0.261911  0.999997  0.999995  1
  P  P6  1  0.761887  0.885019  0.598133  1
  P  P7  1  0.761887  0.401864  0.286888  1
  P  P8  1  0.761885  0.713112  0.114972  1
  P  P9  1  0.261908  0.118021  0.416276  1
  P  P10  1  0.261909  0.583730  0.701749  1
  P  P11  1  0.261906  0.298258  0.881986  1
  Rh  Rh12  1  0.261880  0.883970  0.160268  1
  Rh  Rh13  1  0.261872  0.839735  0.723697  1
  Rh  Rh14  1  0.261874  0.276300  0.116039  1
  Rh  Rh15  1  0.761895  0.607725  0.563064  1
  Rh  Rh16  1  0.761891  0.436926  0.044648  1
  Rh  Rh17  1  0.761883  0.955337  0.392263  1
  Rh  Rh18  1  0.261915  0.365472  0.439803  1
  Rh  Rh19  1  0.261921  0.560216  0.925684  1
  Rh  Rh20  1  0.261918  0.074325  0.634537  1
