# generated using pymatgen
data_CePrBiO2
_symmetry_space_group_name_H-M   'P 1'
_cell_length_a   7.25229434
_cell_length_b   7.25229377
_cell_length_c   7.25229472
_cell_angle_alpha   147.57812840
_cell_angle_beta   147.57812319
_cell_angle_gamma   46.50853208
_symmetry_Int_Tables_number   1
_chemical_formula_structural   CePrBiO2
_chemical_formula_sum   'Ce1 Pr1 Bi1 O2'
_cell_volume   109.25476740
_cell_formula_units_Z   1
loop_
 _symmetry_equiv_pos_site_id
 _symmetry_equiv_pos_as_xyz
  1  'x, y, z'
loop_
 _atom_site_type_symbol
 _atom_site_label
 _atom_site_symmetry_multiplicity
 _atom_site_fract_x
 _atom_site_fract_y
 _atom_site_fract_z
 _atom_site_occupancy
  Ce  Ce0  1  0.337544  0.337544  0.000000  1
  Pr  Pr1  1  0.658279  0.658279  0.000000  1
  Bi  Bi2  1  0.996294  0.996294  0.000000  1
  O  O3  1  0.753942  0.253942  0.500000  1
  O  O4  1  0.253942  0.753942  0.500000  1
