# generated using pymatgen
data_DyAg3(Ru2O7)2
_symmetry_space_group_name_H-M   'P 1'
_cell_length_a   7.26684012
_cell_length_b   7.26684059
_cell_length_c   7.26684041
_cell_angle_alpha   59.25099210
_cell_angle_beta   59.25099483
_cell_angle_gamma   59.25098878
_symmetry_Int_Tables_number   1
_chemical_formula_structural   DyAg3(Ru2O7)2
_chemical_formula_sum   'Dy1 Ag3 Ru4 O14'
_cell_volume   266.71588865
_cell_formula_units_Z   1
loop_
 _symmetry_equiv_pos_site_id
 _symmetry_equiv_pos_as_xyz
  1  'x, y, z'
loop_
 _atom_site_type_symbol
 _atom_site_label
 _atom_site_symmetry_multiplicity
 _atom_site_fract_x
 _atom_site_fract_y
 _atom_site_fract_z
 _atom_site_occupancy
  Dy  Dy0  1  0.125000  0.125000  0.125000  1
  Ag  Ag1  1  0.125000  0.125000  0.625000  1
  Ag  Ag2  1  0.125000  0.625000  0.125000  1
  Ag  Ag3  1  0.625000  0.125000  0.125000  1
  Ru  Ru4  1  0.625000  0.625000  0.125000  1
  Ru  Ru5  1  0.625000  0.125000  0.625000  1
  Ru  Ru6  1  0.125000  0.625000  0.625000  1
  Ru  Ru7  1  0.625000  0.625000  0.625000  1
  O  O8  1  0.253009  0.253009  0.253009  1
  O  O9  1  0.996991  0.996991  0.996991  1
  O  O10  1  0.300472  0.707507  0.300472  1
  O  O11  1  0.559072  0.942679  0.559072  1
  O  O12  1  0.300472  0.300472  0.707507  1
  O  O13  1  0.707507  0.300472  0.300472  1
  O  O14  1  0.307321  0.690928  0.690928  1
  O  O15  1  0.690928  0.690928  0.307321  1
  O  O16  1  0.690928  0.307321  0.690928  1
  O  O17  1  0.942679  0.559072  0.559072  1
  O  O18  1  0.542493  0.949528  0.949528  1
  O  O19  1  0.949528  0.542493  0.949528  1
  O  O20  1  0.559072  0.559072  0.942679  1
  O  O21  1  0.949528  0.949528  0.542493  1
