# generated using pymatgen
data_Nd3Al7Pd2
_symmetry_space_group_name_H-M   'P 1'
_cell_length_a   9.37172016
_cell_length_b   9.37171997
_cell_length_c   9.37172021
_cell_angle_alpha   34.84701660
_cell_angle_beta   34.84701694
_cell_angle_gamma   34.84701893
_symmetry_Int_Tables_number   1
_chemical_formula_structural   Nd3Al7Pd2
_chemical_formula_sum   'Nd3 Al7 Pd2'
_cell_volume   239.88279752
_cell_formula_units_Z   1
loop_
 _symmetry_equiv_pos_site_id
 _symmetry_equiv_pos_as_xyz
  1  'x, y, z'
loop_
 _atom_site_type_symbol
 _atom_site_label
 _atom_site_symmetry_multiplicity
 _atom_site_fract_x
 _atom_site_fract_y
 _atom_site_fract_z
 _atom_site_occupancy
  Nd  Nd0  1  0.000000  0.000000  0.000000  1
  Nd  Nd1  1  0.143615  0.143615  0.143615  1
  Nd  Nd2  1  0.856385  0.856385  0.856385  1
  Al  Al3  1  0.581773  0.581773  0.071709  1
  Al  Al4  1  0.928292  0.418227  0.418226  1
  Al  Al5  1  0.418227  0.928292  0.418226  1
  Al  Al6  1  0.500000  0.500000  0.500000  1
  Al  Al7  1  0.581773  0.071708  0.581774  1
  Al  Al8  1  0.071708  0.581773  0.581774  1
  Al  Al9  1  0.418227  0.418227  0.928291  1
  Pd  Pd10  1  0.336047  0.336047  0.336047  1
  Pd  Pd11  1  0.663953  0.663953  0.663953  1
