# generated using pymatgen
data_Nd16Dy4(Ir3Ru)3
_symmetry_space_group_name_H-M   'P 1'
_cell_length_a   11.18087100
_cell_length_b   11.18087100
_cell_length_c   6.55768100
_cell_angle_alpha   90.00000000
_cell_angle_beta   90.00000000
_cell_angle_gamma   90.00000000
_symmetry_Int_Tables_number   1
_chemical_formula_structural   Nd16Dy4(Ir3Ru)3
_chemical_formula_sum   'Nd16 Dy4 Ir9 Ru3'
_cell_volume   819.78800611
_cell_formula_units_Z   1
loop_
 _symmetry_equiv_pos_site_id
 _symmetry_equiv_pos_as_xyz
  1  'x, y, z'
loop_
 _atom_site_type_symbol
 _atom_site_label
 _atom_site_symmetry_multiplicity
 _atom_site_fract_x
 _atom_site_fract_y
 _atom_site_fract_z
 _atom_site_occupancy
  Nd  Nd0  1  0.291943  0.086682  0.381478  1
  Nd  Nd1  1  0.291936  0.913911  0.881984  1
  Nd  Nd2  1  0.708064  0.086089  0.881984  1
  Nd  Nd3  1  0.708057  0.913318  0.381478  1
  Nd  Nd4  1  0.586089  0.791936  0.881984  1
  Nd  Nd5  1  0.586682  0.208057  0.381478  1
  Nd  Nd6  1  0.413318  0.791943  0.381478  1
  Nd  Nd7  1  0.413911  0.208064  0.881984  1
  Nd  Nd8  1  0.209925  0.412759  0.620427  1
  Nd  Nd9  1  0.209668  0.587490  0.117807  1
  Nd  Nd10  1  0.790332  0.412510  0.117807  1
  Nd  Nd11  1  0.790075  0.587241  0.620427  1
  Nd  Nd12  1  0.912510  0.709668  0.117807  1
  Nd  Nd13  1  0.912759  0.290075  0.620427  1
  Nd  Nd14  1  0.087241  0.709925  0.620427  1
  Nd  Nd15  1  0.087490  0.290332  0.117807  1
  Dy  Dy16  1  0.000000  0.000000  0.498652  1
  Dy  Dy17  1  0.000000  0.000000  0.998680  1
  Dy  Dy18  1  0.500000  0.500000  0.998680  1
  Dy  Dy19  1  0.500000  0.500000  0.498652  1
  Ir  Ir20  1  0.852117  0.148924  0.249689  1
  Ir  Ir21  1  0.851517  0.851021  0.749262  1
  Ir  Ir22  1  0.148483  0.148979  0.749262  1
  Ir  Ir23  1  0.147883  0.851076  0.249689  1
  Ir  Ir24  1  0.648979  0.351517  0.749262  1
  Ir  Ir25  1  0.648924  0.647883  0.249689  1
  Ir  Ir26  1  0.351076  0.352117  0.249689  1
  Ir  Ir27  1  0.351021  0.648483  0.749262  1
  Ir  Ir28  1  0.000000  0.500000  0.380779  1
  Ru  Ru29  1  0.500000  0.000000  0.120669  1
  Ru  Ru30  1  0.500000  0.000000  0.620000  1
  Ru  Ru31  1  0.000000  0.500000  0.881295  1
