# generated using pymatgen
data_Zr6Si7(NiRh7)2
_symmetry_space_group_name_H-M   'P 1'
_cell_length_a   8.51963973
_cell_length_b   8.51966964
_cell_length_c   8.49578300
_cell_angle_alpha   60.09221102
_cell_angle_beta   60.09221605
_cell_angle_gamma   60.22992531
_symmetry_Int_Tables_number   1
_chemical_formula_structural   Zr6Si7(NiRh7)2
_chemical_formula_sum   'Zr6 Si7 Ni2 Rh14'
_cell_volume   437.40868303
_cell_formula_units_Z   1
loop_
 _symmetry_equiv_pos_site_id
 _symmetry_equiv_pos_as_xyz
  1  'x, y, z'
loop_
 _atom_site_type_symbol
 _atom_site_label
 _atom_site_symmetry_multiplicity
 _atom_site_fract_x
 _atom_site_fract_y
 _atom_site_fract_z
 _atom_site_occupancy
  Zr  Zr0  1  0.795510  0.204488  0.796970  1
  Zr  Zr1  1  0.796246  0.796433  0.203661  1
  Zr  Zr2  1  0.204750  0.795259  0.796984  1
  Zr  Zr3  1  0.203580  0.203742  0.796340  1
  Zr  Zr4  1  0.795511  0.204488  0.203030  1
  Zr  Zr5  1  0.204751  0.795258  0.203007  1
  Si  Si6  1  0.996691  0.498486  0.996260  1
  Si  Si7  1  0.498764  0.501252  0.499992  1
  Si  Si8  1  0.508990  0.490986  0.000012  1
  Si  Si9  1  0.501515  0.003336  0.491406  1
  Si  Si10  1  0.996690  0.498487  0.508563  1
  Si  Si11  1  0.001347  0.998654  0.499999  1
  Si  Si12  1  0.501516  0.003336  0.003742  1
  Ni  Ni13  1  0.502131  0.168220  0.164825  1
  Ni  Ni14  1  0.831824  0.497740  0.835218  1
  Rh  Rh15  1  0.161188  0.163961  0.162013  1
  Rh  Rh16  1  0.621287  0.613479  0.143071  1
  Rh  Rh17  1  0.386528  0.378716  0.377830  1
  Rh  Rh18  1  0.161732  0.513425  0.162422  1
  Rh  Rh19  1  0.161187  0.163961  0.512839  1
  Rh  Rh20  1  0.144156  0.612400  0.621722  1
  Rh  Rh21  1  0.617135  0.147077  0.617894  1
  Rh  Rh22  1  0.836037  0.838829  0.837978  1
  Rh  Rh23  1  0.852893  0.382873  0.382117  1
  Rh  Rh24  1  0.386528  0.378717  0.856925  1
  Rh  Rh25  1  0.387601  0.855819  0.378290  1
  Rh  Rh26  1  0.486590  0.838271  0.837570  1
  Rh  Rh27  1  0.621286  0.613480  0.622163  1
  Rh  Rh28  1  0.836036  0.838830  0.487155  1
