# generated using pymatgen
data_Hf12Zn3Ga5Sn4
_symmetry_space_group_name_H-M   'P 1'
_cell_length_a   5.71338312
_cell_length_b   8.77189719
_cell_length_c   9.34009900
_cell_angle_alpha   90.00000000
_cell_angle_beta   90.00000000
_cell_angle_gamma   89.97607353
_symmetry_Int_Tables_number   1
_chemical_formula_structural   Hf12Zn3Ga5Sn4
_chemical_formula_sum   'Hf12 Zn3 Ga5 Sn4'
_cell_volume   468.09965642
_cell_formula_units_Z   1
loop_
 _symmetry_equiv_pos_site_id
 _symmetry_equiv_pos_as_xyz
  1  'x, y, z'
loop_
 _atom_site_type_symbol
 _atom_site_label
 _atom_site_symmetry_multiplicity
 _atom_site_fract_x
 _atom_site_fract_y
 _atom_site_fract_z
 _atom_site_occupancy
  Hf  Hf0  1  0.000000  0.750000  0.124085  1
  Hf  Hf1  1  0.500000  0.250000  0.875223  1
  Hf  Hf2  1  0.000000  0.250000  0.875567  1
  Hf  Hf3  1  0.500000  0.750000  0.123272  1
  Hf  Hf4  1  0.750468  0.470674  0.609610  1
  Hf  Hf5  1  0.249854  0.529973  0.390820  1
  Hf  Hf6  1  0.750146  0.970027  0.390820  1
  Hf  Hf7  1  0.249532  0.029326  0.609610  1
  Hf  Hf8  1  0.749129  0.373765  0.199775  1
  Hf  Hf9  1  0.249811  0.625734  0.799879  1
  Hf  Hf10  1  0.750189  0.874266  0.799879  1
  Hf  Hf11  1  0.250871  0.126235  0.199775  1
  Zn  Zn12  1  0.000000  0.750000  0.567212  1
  Zn  Zn13  1  0.500000  0.250000  0.433332  1
  Zn  Zn14  1  0.000000  0.250000  0.433007  1
  Ga  Ga15  1  0.500000  0.750000  0.568858  1
  Ga  Ga16  1  0.750530  0.137027  0.642888  1
  Ga  Ga17  1  0.248639  0.864514  0.355886  1
  Ga  Ga18  1  0.751361  0.635486  0.355886  1
  Ga  Ga19  1  0.249470  0.362973  0.642888  1
  Sn  Sn20  1  0.750231  0.053331  0.087933  1
  Sn  Sn21  1  0.249597  0.947638  0.912929  1
  Sn  Sn22  1  0.750403  0.552362  0.912929  1
  Sn  Sn23  1  0.249769  0.446669  0.087933  1
