# generated using pymatgen
data_Li2Pd3Se4
_symmetry_space_group_name_H-M   'P 1'
_cell_length_a   10.55596800
_cell_length_b   5.34520489
_cell_length_c   6.44826060
_cell_angle_alpha   67.77992718
_cell_angle_beta   90.00000000
_cell_angle_gamma   90.00000000
_symmetry_Int_Tables_number   1
_chemical_formula_structural   Li2Pd3Se4
_chemical_formula_sum   'Li4 Pd6 Se8'
_cell_volume   336.81635123
_cell_formula_units_Z   2
loop_
 _symmetry_equiv_pos_site_id
 _symmetry_equiv_pos_as_xyz
  1  'x, y, z'
loop_
 _atom_site_type_symbol
 _atom_site_label
 _atom_site_symmetry_multiplicity
 _atom_site_fract_x
 _atom_site_fract_y
 _atom_site_fract_z
 _atom_site_occupancy
  Li  Li0  1  0.195975  0.391626  0.957054  1
  Li  Li1  1  0.804025  0.608374  0.042946  1
  Li  Li2  1  0.695975  0.608374  0.542946  1
  Li  Li3  1  0.304025  0.391626  0.457054  1
  Pd  Pd4  1  0.127184  0.737777  0.516591  1
  Pd  Pd5  1  0.872816  0.262223  0.483409  1
  Pd  Pd6  1  0.627184  0.262223  0.983409  1
  Pd  Pd7  1  0.372816  0.737777  0.016591  1
  Pd  Pd8  1  0.500000  0.000000  0.500000  1
  Pd  Pd9  1  0.000000  0.000000  0.000000  1
  Se  Se10  1  0.190019  0.972413  0.772334  1
  Se  Se11  1  0.809981  0.027587  0.227666  1
  Se  Se12  1  0.690019  0.027587  0.727666  1
  Se  Se13  1  0.309981  0.972413  0.272334  1
  Se  Se14  1  0.446377  0.527563  0.754603  1
  Se  Se15  1  0.553623  0.472437  0.245397  1
  Se  Se16  1  0.946377  0.472437  0.745397  1
  Se  Se17  1  0.053623  0.527563  0.254603  1
