# generated using pymatgen
data_CaTb(FeO3)2
_symmetry_space_group_name_H-M   'P 1'
_cell_length_a   5.37389596
_cell_length_b   5.57665612
_cell_length_c   7.65611189
_cell_angle_alpha   89.99477717
_cell_angle_beta   90.02028540
_cell_angle_gamma   89.87344154
_symmetry_Int_Tables_number   1
_chemical_formula_structural   CaTb(FeO3)2
_chemical_formula_sum   'Ca2 Tb2 Fe4 O12'
_cell_volume   229.44061740
_cell_formula_units_Z   2
loop_
 _symmetry_equiv_pos_site_id
 _symmetry_equiv_pos_as_xyz
  1  'x, y, z'
loop_
 _atom_site_type_symbol
 _atom_site_label
 _atom_site_symmetry_multiplicity
 _atom_site_fract_x
 _atom_site_fract_y
 _atom_site_fract_z
 _atom_site_occupancy
  Ca  Ca0  1  0.987104  0.054334  0.749816  1
  Ca  Ca1  1  0.012852  0.945559  0.250190  1
  Tb  Tb2  1  0.514586  0.562376  0.750039  1
  Tb  Tb3  1  0.485500  0.437699  0.249932  1
  Fe  Fe4  1  0.999846  0.500248  0.999952  1
  Fe  Fe5  1  0.000304  0.499910  0.500121  1
  Fe  Fe6  1  0.499744  0.000077  0.499955  1
  Fe  Fe7  1  0.499993  0.999974  0.999990  1
  O  O8  1  0.410231  0.969026  0.750123  1
  O  O9  1  0.903056  0.525271  0.250077  1
  O  O10  1  0.096977  0.474674  0.749927  1
  O  O11  1  0.589772  0.030953  0.249872  1
  O  O12  1  0.210007  0.209441  0.051952  1
  O  O13  1  0.210208  0.209274  0.448366  1
  O  O14  1  0.696352  0.304660  0.954535  1
  O  O15  1  0.789771  0.790707  0.551642  1
  O  O16  1  0.303500  0.695614  0.454370  1
  O  O17  1  0.790018  0.790537  0.948040  1
  O  O18  1  0.696513  0.304366  0.545639  1
  O  O19  1  0.303667  0.695299  0.045458  1
