# generated using pymatgen
data_KCe2Pr3Se8
_symmetry_space_group_name_H-M   'P 1'
_cell_length_a   7.87888829
_cell_length_b   7.88827930
_cell_length_c   7.87888907
_cell_angle_alpha   109.47385755
_cell_angle_beta   109.83145186
_cell_angle_gamma   109.06146784
_symmetry_Int_Tables_number   1
_chemical_formula_structural   KCe2Pr3Se8
_chemical_formula_sum   'K1 Ce2 Pr3 Se8'
_cell_volume   377.16086509
_cell_formula_units_Z   1
loop_
 _symmetry_equiv_pos_site_id
 _symmetry_equiv_pos_as_xyz
  1  'x, y, z'
loop_
 _atom_site_type_symbol
 _atom_site_label
 _atom_site_symmetry_multiplicity
 _atom_site_fract_x
 _atom_site_fract_y
 _atom_site_fract_z
 _atom_site_occupancy
  K  K0  1  0.497674  0.125000  0.872674  1
  Ce  Ce1  1  0.744887  0.250792  0.501328  1
  Ce  Ce2  1  0.000536  0.999208  0.994095  1
  Pr  Pr3  1  0.874749  0.741989  0.372383  1
  Pr  Pr4  1  0.252000  0.625000  0.127000  1
  Pr  Pr5  1  0.380394  0.508011  0.632760  1
  Se  Se6  1  0.990176  0.378818  0.258047  1
  Se  Se7  1  0.472527  0.379701  0.261417  1
  Se  Se8  1  0.262903  0.017888  0.382440  1
  Se  Se9  1  0.631715  0.870299  0.592826  1
  Se  Se10  1  0.114552  0.232112  0.745015  1
  Se  Se11  1  0.629230  0.871182  0.111358  1
  Se  Se12  1  0.783744  0.537311  0.902224  1
  Se  Se13  1  0.114913  0.712689  0.746435  1
