# generated using pymatgen
data_Nd6Er(LuPb2)3
_symmetry_space_group_name_H-M   'P 1'
_cell_length_a   9.23171800
_cell_length_b   9.23171773
_cell_length_c   6.71796300
_cell_angle_alpha   90.00000000
_cell_angle_beta   90.00000000
_cell_angle_gamma   120.00000096
_symmetry_Int_Tables_number   1
_chemical_formula_structural   Nd6Er(LuPb2)3
_chemical_formula_sum   'Nd6 Er1 Lu3 Pb6'
_cell_volume   495.83055011
_cell_formula_units_Z   1
loop_
 _symmetry_equiv_pos_site_id
 _symmetry_equiv_pos_as_xyz
  1  'x, y, z'
loop_
 _atom_site_type_symbol
 _atom_site_label
 _atom_site_symmetry_multiplicity
 _atom_site_fract_x
 _atom_site_fract_y
 _atom_site_fract_z
 _atom_site_occupancy
  Nd  Nd0  1  0.759553  0.759657  0.749821  1
  Nd  Nd1  1  0.240343  0.999896  0.749821  1
  Nd  Nd2  1  0.000104  0.240447  0.749821  1
  Nd  Nd3  1  0.240343  0.240447  0.250179  1
  Nd  Nd4  1  0.759553  0.999896  0.250179  1
  Nd  Nd5  1  0.000104  0.759657  0.250179  1
  Er  Er6  1  0.666667  0.333333  0.000000  1
  Lu  Lu7  1  0.333333  0.666667  0.000000  1
  Lu  Lu8  1  0.333333  0.666667  0.500000  1
  Lu  Lu9  1  0.666667  0.333333  0.500000  1
  Pb  Pb10  1  0.398283  0.398915  0.749548  1
  Pb  Pb11  1  0.601085  0.999368  0.749548  1
  Pb  Pb12  1  0.000632  0.601717  0.749548  1
  Pb  Pb13  1  0.601085  0.601717  0.250452  1
  Pb  Pb14  1  0.398283  0.999368  0.250452  1
  Pb  Pb15  1  0.000632  0.398915  0.250452  1
