# generated using pymatgen
data_SmZn2CuAgPt
_symmetry_space_group_name_H-M   'P 1'
_cell_length_a   5.25549366
_cell_length_b   5.25549488
_cell_length_c   5.28971962
_cell_angle_alpha   59.78490910
_cell_angle_beta   59.78490103
_cell_angle_gamma   60.30810952
_symmetry_Int_Tables_number   1
_chemical_formula_structural   SmZn2CuAgPt
_chemical_formula_sum   'Sm1 Zn2 Cu1 Ag1 Pt1'
_cell_volume   103.20947121
_cell_formula_units_Z   1
loop_
 _symmetry_equiv_pos_site_id
 _symmetry_equiv_pos_as_xyz
  1  'x, y, z'
loop_
 _atom_site_type_symbol
 _atom_site_label
 _atom_site_symmetry_multiplicity
 _atom_site_fract_x
 _atom_site_fract_y
 _atom_site_fract_z
 _atom_site_occupancy
  Sm  Sm0  1  0.003736  0.003736  0.995793  1
  Zn  Zn1  1  0.867060  0.375644  0.378054  1
  Zn  Zn2  1  0.375644  0.867060  0.378054  1
  Cu  Cu3  1  0.375435  0.375435  0.871346  1
  Ag  Ag4  1  0.755175  0.755175  0.751659  1
  Pt  Pt5  1  0.372948  0.372948  0.375091  1
