# generated using pymatgen
data_TbNd3Sn10IrRh5
_symmetry_space_group_name_H-M   'P 1'
_cell_length_a   13.57785080
_cell_length_b   13.57785115
_cell_length_c   7.24800696
_cell_angle_alpha   89.92352420
_cell_angle_beta   90.07647667
_cell_angle_gamma   160.81713506
_symmetry_Int_Tables_number   1
_chemical_formula_structural   TbNd3Sn10IrRh5
_chemical_formula_sum   'Tb1 Nd3 Sn10 Ir1 Rh5'
_cell_volume   439.06312215
_cell_formula_units_Z   1
loop_
 _symmetry_equiv_pos_site_id
 _symmetry_equiv_pos_as_xyz
  1  'x, y, z'
loop_
 _atom_site_type_symbol
 _atom_site_label
 _atom_site_symmetry_multiplicity
 _atom_site_fract_x
 _atom_site_fract_y
 _atom_site_fract_z
 _atom_site_occupancy
  Tb  Tb0  1  0.524526  0.475474  0.240491  1
  Nd  Nd1  1  0.172030  0.827970  0.754831  1
  Nd  Nd2  1  0.827529  0.172471  0.254443  1
  Nd  Nd3  1  0.476911  0.523089  0.736130  1
  Sn  Sn4  1  0.879014  0.120986  0.732203  1
  Sn  Sn5  1  0.120246  0.879754  0.232386  1
  Sn  Sn6  1  0.704603  0.295397  0.048260  1
  Sn  Sn7  1  0.295188  0.704812  0.548381  1
  Sn  Sn8  1  0.596865  0.403135  0.610486  1
  Sn  Sn9  1  0.404104  0.595896  0.110574  1
  Sn  Sn10  1  0.952540  0.047460  0.399058  1
  Sn  Sn11  1  0.047863  0.952137  0.904084  1
  Sn  Sn12  1  0.290260  0.709740  0.975846  1
  Sn  Sn13  1  0.709685  0.290315  0.475862  1
  Ir  Ir14  1  0.050515  0.949485  0.515795  1
  Rh  Rh15  1  0.948967  0.051033  0.020202  1
  Rh  Rh16  1  0.777363  0.222637  0.763749  1
  Rh  Rh17  1  0.222329  0.777671  0.264393  1
  Rh  Rh18  1  0.394745  0.605255  0.482765  1
  Rh  Rh19  1  0.604716  0.395284  0.986059  1
