# generated using pymatgen
data_Th3ZnPd5
_symmetry_space_group_name_H-M   'P 1'
_cell_length_a   8.36672285
_cell_length_b   8.36672199
_cell_length_c   13.48588900
_cell_angle_alpha   90.08790168
_cell_angle_beta   89.91209148
_cell_angle_gamma   127.07647133
_symmetry_Int_Tables_number   1
_chemical_formula_structural   Th3ZnPd5
_chemical_formula_sum   'Th12 Zn4 Pd20'
_cell_volume   753.18364676
_cell_formula_units_Z   4
loop_
 _symmetry_equiv_pos_site_id
 _symmetry_equiv_pos_as_xyz
  1  'x, y, z'
loop_
 _atom_site_type_symbol
 _atom_site_label
 _atom_site_symmetry_multiplicity
 _atom_site_fract_x
 _atom_site_fract_y
 _atom_site_fract_z
 _atom_site_occupancy
  Th  Th0  1  0.122393  0.877607  0.446582  1
  Th  Th1  1  0.931639  0.068361  0.250673  1
  Th  Th2  1  0.069769  0.930231  0.749749  1
  Th  Th3  1  0.316302  0.683698  0.250739  1
  Th  Th4  1  0.682609  0.317391  0.749676  1
  Th  Th5  1  0.628219  0.371781  0.461645  1
  Th  Th6  1  0.370789  0.629211  0.537702  1
  Th  Th7  1  0.628338  0.371662  0.037696  1
  Th  Th8  1  0.371586  0.628414  0.962689  1
  Th  Th9  1  0.877508  0.122492  0.945381  1
  Th  Th10  1  0.122538  0.877462  0.054796  1
  Th  Th11  1  0.878999  0.121001  0.553526  1
  Zn  Zn12  1  0.721866  0.278134  0.249645  1
  Zn  Zn13  1  0.279049  0.720951  0.750160  1
  Zn  Zn14  1  0.531607  0.468393  0.249735  1
  Zn  Zn15  1  0.467355  0.532645  0.749710  1
  Pd  Pd16  1  0.319064  0.064892  0.249864  1
  Pd  Pd17  1  0.064288  0.318690  0.749719  1
  Pd  Pd18  1  0.681310  0.935712  0.749719  1
  Pd  Pd19  1  0.935108  0.680936  0.249864  1
  Pd  Pd20  1  0.569608  0.004231  0.397408  1
  Pd  Pd21  1  0.001841  0.566582  0.602967  1
  Pd  Pd22  1  0.567766  0.002720  0.102749  1
  Pd  Pd23  1  0.002842  0.568228  0.897382  1
  Pd  Pd24  1  0.433418  0.998159  0.602967  1
  Pd  Pd25  1  0.995769  0.430392  0.397408  1
  Pd  Pd26  1  0.431772  0.997158  0.897382  1
  Pd  Pd27  1  0.997280  0.432234  0.102749  1
  Pd  Pd28  1  0.689118  0.743929  0.394678  1
  Pd  Pd29  1  0.744537  0.689836  0.605394  1
  Pd  Pd30  1  0.690093  0.744883  0.105746  1
  Pd  Pd31  1  0.744325  0.690057  0.894041  1
  Pd  Pd32  1  0.310164  0.255463  0.605394  1
  Pd  Pd33  1  0.256071  0.310882  0.394678  1
  Pd  Pd34  1  0.309943  0.255675  0.894041  1
  Pd  Pd35  1  0.255117  0.309907  0.105746  1
