# generated using pymatgen
data_LiCaSmZnSi3
_symmetry_space_group_name_H-M   'P 1'
_cell_length_a   9.38450853
_cell_length_b   9.38450952
_cell_length_c   6.79075700
_cell_angle_alpha   90.00000000
_cell_angle_beta   90.00000000
_cell_angle_gamma   153.33288828
_symmetry_Int_Tables_number   1
_chemical_formula_structural   LiCaSmZnSi3
_chemical_formula_sum   'Li2 Ca2 Sm2 Zn2 Si6'
_cell_volume   268.41085454
_cell_formula_units_Z   2
loop_
 _symmetry_equiv_pos_site_id
 _symmetry_equiv_pos_as_xyz
  1  'x, y, z'
loop_
 _atom_site_type_symbol
 _atom_site_label
 _atom_site_symmetry_multiplicity
 _atom_site_fract_x
 _atom_site_fract_y
 _atom_site_fract_z
 _atom_site_occupancy
  Li  Li0  1  0.811949  0.188051  0.938345  1
  Li  Li1  1  0.188051  0.811949  0.438345  1
  Ca  Ca2  1  0.656046  0.343954  0.745023  1
  Ca  Ca3  1  0.343954  0.656046  0.245023  1
  Sm  Sm4  1  0.449573  0.550427  0.755404  1
  Sm  Sm5  1  0.550427  0.449573  0.255404  1
  Zn  Zn6  1  0.193295  0.806705  0.055207  1
  Zn  Zn7  1  0.806705  0.193295  0.555207  1
  Si  Si8  1  0.280638  0.719362  0.748187  1
  Si  Si9  1  0.719362  0.280638  0.248187  1
  Si  Si10  1  0.939782  0.060218  0.429112  1
  Si  Si11  1  0.056238  0.943762  0.578724  1
  Si  Si12  1  0.943762  0.056238  0.078724  1
  Si  Si13  1  0.060218  0.939782  0.929112  1
