# generated using pymatgen
data_Yb3MgCd2Pt3
_symmetry_space_group_name_H-M   'P 1'
_cell_length_a   7.33587500
_cell_length_b   7.39793880
_cell_length_c   4.17263000
_cell_angle_alpha   90.00000000
_cell_angle_beta   90.00000000
_cell_angle_gamma   119.72287331
_symmetry_Int_Tables_number   1
_chemical_formula_structural   Yb3MgCd2Pt3
_chemical_formula_sum   'Yb3 Mg1 Cd2 Pt3'
_cell_volume   196.65689438
_cell_formula_units_Z   1
loop_
 _symmetry_equiv_pos_site_id
 _symmetry_equiv_pos_as_xyz
  1  'x, y, z'
loop_
 _atom_site_type_symbol
 _atom_site_label
 _atom_site_symmetry_multiplicity
 _atom_site_fract_x
 _atom_site_fract_y
 _atom_site_fract_z
 _atom_site_occupancy
  Yb  Yb0  1  0.409302  0.413814  0.000000  1
  Yb  Yb1  1  0.595588  0.000000  0.000000  1
  Yb  Yb2  1  0.995488  0.586186  0.000000  1
  Mg  Mg3  1  0.249316  0.000000  0.500000  1
  Cd  Cd4  1  0.001609  0.253112  0.500000  1
  Cd  Cd5  1  0.748497  0.746888  0.500000  1
  Pt  Pt6  1  0.654404  0.323939  0.500000  1
  Pt  Pt7  1  0.015334  0.000000  0.000000  1
  Pt  Pt8  1  0.330464  0.676061  0.500000  1
