# generated using pymatgen
data_Y9Er(Sn3Cl)2
_symmetry_space_group_name_H-M   'P 1'
_cell_length_a   9.11304300
_cell_length_b   9.11303304
_cell_length_c   6.56818400
_cell_angle_alpha   89.99991705
_cell_angle_beta   90.00003631
_cell_angle_gamma   119.99993865
_symmetry_Int_Tables_number   1
_chemical_formula_structural   Y9Er(Sn3Cl)2
_chemical_formula_sum   'Y9 Er1 Sn6 Cl2'
_cell_volume   472.39204463
_cell_formula_units_Z   1
loop_
 _symmetry_equiv_pos_site_id
 _symmetry_equiv_pos_as_xyz
  1  'x, y, z'
loop_
 _atom_site_type_symbol
 _atom_site_label
 _atom_site_symmetry_multiplicity
 _atom_site_fract_x
 _atom_site_fract_y
 _atom_site_fract_z
 _atom_site_occupancy
  Y  Y0  1  0.261917  0.261996  0.749910  1
  Y  Y1  1  0.000078  0.738083  0.749908  1
  Y  Y2  1  0.738004  0.999922  0.749912  1
  Y  Y3  1  0.000079  0.261996  0.250090  1
  Y  Y4  1  0.738006  0.738083  0.250091  1
  Y  Y5  1  0.666667  0.333333  0.499999  1
  Y  Y6  1  0.261916  0.999921  0.250091  1
  Y  Y7  1  0.333334  0.666669  0.000000  1
  Y  Y8  1  0.666667  0.333333  0.000000  1
  Er  Er9  1  0.333333  0.666664  0.499996  1
  Sn  Sn10  1  0.609526  0.999665  0.250285  1
  Sn  Sn11  1  0.000336  0.390473  0.749716  1
  Sn  Sn12  1  0.390138  0.999663  0.749715  1
  Sn  Sn13  1  0.609525  0.609862  0.749716  1
  Sn  Sn14  1  0.000337  0.609864  0.250285  1
  Sn  Sn15  1  0.390139  0.390475  0.250284  1
  Cl  Cl16  1  0.000000  0.000000  0.000001  1
  Cl  Cl17  1  0.000000  0.000000  0.500000  1
