# generated using pymatgen
data_Ho8Lu11ScSi15Ag
_symmetry_space_group_name_H-M   'P 1'
_cell_length_a   7.28594458
_cell_length_b   7.54696405
_cell_length_c   14.39492103
_cell_angle_alpha   89.86650756
_cell_angle_beta   89.44560786
_cell_angle_gamma   90.13476305
_symmetry_Int_Tables_number   1
_chemical_formula_structural   Ho8Lu11ScSi15Ag
_chemical_formula_sum   'Ho8 Lu11 Sc1 Si15 Ag1'
_cell_volume   791.48866055
_cell_formula_units_Z   1
loop_
 _symmetry_equiv_pos_site_id
 _symmetry_equiv_pos_as_xyz
  1  'x, y, z'
loop_
 _atom_site_type_symbol
 _atom_site_label
 _atom_site_symmetry_multiplicity
 _atom_site_fract_x
 _atom_site_fract_y
 _atom_site_fract_z
 _atom_site_occupancy
  Ho  Ho0  1  0.015953  0.176814  0.098628  1
  Ho  Ho1  1  0.985710  0.824240  0.905440  1
  Ho  Ho2  1  0.483509  0.679413  0.903970  1
  Ho  Ho3  1  0.987560  0.830861  0.598684  1
  Ho  Ho4  1  0.514220  0.320795  0.096364  1
  Ho  Ho5  1  0.010106  0.171656  0.397221  1
  Ho  Ho6  1  0.513517  0.318872  0.398862  1
  Ho  Ho7  1  0.491469  0.682944  0.600195  1
  Lu  Lu8  1  0.164157  0.509507  0.752201  1
  Lu  Lu9  1  0.838167  0.493225  0.250493  1
  Lu  Lu10  1  0.335187  0.003786  0.247966  1
  Lu  Lu11  1  0.666666  0.991225  0.751259  1
  Lu  Lu12  1  0.340526  0.175487  0.624025  1
  Lu  Lu13  1  0.662647  0.821473  0.375076  1
  Lu  Lu14  1  0.167673  0.673612  0.372897  1
  Lu  Lu15  1  0.669957  0.823012  0.122537  1
  Lu  Lu16  1  0.829855  0.326172  0.623741  1
  Lu  Lu17  1  0.329404  0.179099  0.879003  1
  Lu  Lu18  1  0.828783  0.322246  0.878946  1
  Sc  Sc19  1  0.169049  0.677134  0.125422  1
  Si  Si20  1  0.038745  0.115843  0.751808  1
  Si  Si21  1  0.964167  0.885276  0.247611  1
  Si  Si22  1  0.463781  0.607973  0.245608  1
  Si  Si23  1  0.535922  0.393952  0.752228  1
  Si  Si24  1  0.282885  0.875524  0.751939  1
  Si  Si25  1  0.715192  0.127437  0.247214  1
  Si  Si26  1  0.217941  0.369405  0.246118  1
  Si  Si27  1  0.784793  0.629480  0.753685  1
  Si  Si28  1  0.833541  0.532179  0.458656  1
  Si  Si29  1  0.330983  0.964614  0.460049  1
  Si  Si30  1  0.849463  0.533177  0.040778  1
  Si  Si31  1  0.665861  0.034185  0.537782  1
  Si  Si32  1  0.156565  0.470694  0.965569  1
  Si  Si33  1  0.657633  0.030402  0.960162  1
  Si  Si34  1  0.335234  0.961474  0.040259  1
  Ag  Ag35  1  0.163183  0.466813  0.537601  1
