# generated using pymatgen
data_Cs6Nb2Se7S
_symmetry_space_group_name_H-M   'P 1'
_cell_length_a   10.45713200
_cell_length_b   10.48318600
_cell_length_c   12.09649700
_cell_angle_alpha   90.00000000
_cell_angle_beta   90.00000000
_cell_angle_gamma   90.00000000
_symmetry_Int_Tables_number   1
_chemical_formula_structural   Cs6Nb2Se7S
_chemical_formula_sum   'Cs12 Nb4 Se14 S2'
_cell_volume   1326.06711029
_cell_formula_units_Z   2
loop_
 _symmetry_equiv_pos_site_id
 _symmetry_equiv_pos_as_xyz
  1  'x, y, z'
loop_
 _atom_site_type_symbol
 _atom_site_label
 _atom_site_symmetry_multiplicity
 _atom_site_fract_x
 _atom_site_fract_y
 _atom_site_fract_z
 _atom_site_occupancy
  Cs  Cs0  1  0.550755  0.208561  0.049221  1
  Cs  Cs1  1  0.050755  0.291439  0.450779  1
  Cs  Cs2  1  0.450898  0.792711  0.542290  1
  Cs  Cs3  1  0.950898  0.707289  0.957710  1
  Cs  Cs4  1  0.450898  0.792711  0.957710  1
  Cs  Cs5  1  0.950898  0.707289  0.542290  1
  Cs  Cs6  1  0.550755  0.208561  0.450779  1
  Cs  Cs7  1  0.050755  0.291439  0.049221  1
  Cs  Cs8  1  0.641900  0.408568  0.750000  1
  Cs  Cs9  1  0.141900  0.091432  0.750000  1
  Cs  Cs10  1  0.357749  0.579578  0.250000  1
  Cs  Cs11  1  0.857749  0.920422  0.250000  1
  Nb  Nb12  1  0.720787  0.984742  0.750000  1
  Nb  Nb13  1  0.220787  0.515258  0.750000  1
  Nb  Nb14  1  0.279060  0.019976  0.250000  1
  Nb  Nb15  1  0.779060  0.480024  0.250000  1
  Se  Se16  1  0.832532  0.050729  0.583967  1
  Se  Se17  1  0.332532  0.449271  0.916033  1
  Se  Se18  1  0.166282  0.954412  0.084268  1
  Se  Se19  1  0.666282  0.545588  0.415732  1
  Se  Se20  1  0.166282  0.954412  0.415732  1
  Se  Se21  1  0.666282  0.545588  0.084268  1
  Se  Se22  1  0.832532  0.050729  0.916033  1
  Se  Se23  1  0.332532  0.449271  0.583967  1
  Se  Se24  1  0.506361  0.073843  0.750000  1
  Se  Se25  1  0.006361  0.426157  0.750000  1
  Se  Se26  1  0.493229  0.928420  0.250000  1
  Se  Se27  1  0.993229  0.571580  0.250000  1
  Se  Se28  1  0.705478  0.754094  0.750000  1
  Se  Se29  1  0.205478  0.745906  0.750000  1
  S  S30  1  0.294500  0.237971  0.250000  1
  S  S31  1  0.794500  0.262029  0.250000  1
