# generated using pymatgen
data_TbY6Th(ReB6)4
_symmetry_space_group_name_H-M   'P 1'
_cell_length_a   3.71148400
_cell_length_b   9.21316247
_cell_length_c   11.61398300
_cell_angle_alpha   89.94881315
_cell_angle_beta   90.00000000
_cell_angle_gamma   90.00000000
_symmetry_Int_Tables_number   1
_chemical_formula_structural   TbY6Th(ReB6)4
_chemical_formula_sum   'Tb1 Y6 Th1 Re4 B24'
_cell_volume   397.13424267
_cell_formula_units_Z   1
loop_
 _symmetry_equiv_pos_site_id
 _symmetry_equiv_pos_as_xyz
  1  'x, y, z'
loop_
 _atom_site_type_symbol
 _atom_site_label
 _atom_site_symmetry_multiplicity
 _atom_site_fract_x
 _atom_site_fract_y
 _atom_site_fract_z
 _atom_site_occupancy
  Tb  Tb0  1  0.000000  0.177732  0.912819  1
  Y  Y1  1  0.000000  0.323350  0.414815  1
  Y  Y2  1  0.000000  0.676094  0.585884  1
  Y  Y3  1  0.000000  0.441723  0.130393  1
  Y  Y4  1  0.000000  0.556284  0.868867  1
  Y  Y5  1  0.000000  0.943229  0.371748  1
  Y  Y6  1  0.000000  0.057587  0.629446  1
  Th  Th7  1  0.000000  0.822582  0.085892  1
  Re  Re8  1  0.000000  0.138461  0.179317  1
  Re  Re9  1  0.000000  0.862173  0.820139  1
  Re  Re10  1  0.000000  0.638114  0.321477  1
  Re  Re11  1  0.000000  0.361936  0.678920  1
  B  B12  1  0.500000  0.055430  0.068025  1
  B  B13  1  0.500000  0.946819  0.930548  1
  B  B14  1  0.500000  0.553005  0.433187  1
  B  B15  1  0.500000  0.446751  0.567298  1
  B  B16  1  0.500000  0.249301  0.082062  1
  B  B17  1  0.500000  0.751466  0.915208  1
  B  B18  1  0.500000  0.748112  0.419232  1
  B  B19  1  0.500000  0.251517  0.581927  1
  B  B20  1  0.500000  0.291324  0.234749  1
  B  B21  1  0.500000  0.708827  0.764335  1
  B  B22  1  0.500000  0.789907  0.267509  1
  B  B23  1  0.500000  0.208821  0.734317  1
  B  B24  1  0.500000  0.131619  0.315057  1
  B  B25  1  0.500000  0.869777  0.685300  1
  B  B26  1  0.500000  0.629310  0.187694  1
  B  B27  1  0.500000  0.369151  0.813593  1
  B  B28  1  0.500000  0.482160  0.288899  1
  B  B29  1  0.500000  0.517130  0.711391  1
  B  B30  1  0.500000  0.985245  0.213441  1
  B  B31  1  0.500000  0.017949  0.786839  1
  B  B32  1  0.500000  0.101498  0.472147  1
  B  B33  1  0.500000  0.899075  0.528660  1
  B  B34  1  0.500000  0.597855  0.027357  1
  B  B35  1  0.500000  0.398689  0.971506  1
