# generated using pymatgen
data_LaSm2SbO7
_symmetry_space_group_name_H-M   'P 1'
_cell_length_a   6.65259894
_cell_length_b   6.65259959
_cell_length_c   7.74525700
_cell_angle_alpha   90.00000000
_cell_angle_beta   90.00000000
_cell_angle_gamma   108.94293443
_symmetry_Int_Tables_number   1
_chemical_formula_structural   LaSm2SbO7
_chemical_formula_sum   'La2 Sm4 Sb2 O14'
_cell_volume   324.21814952
_cell_formula_units_Z   2
loop_
 _symmetry_equiv_pos_site_id
 _symmetry_equiv_pos_as_xyz
  1  'x, y, z'
loop_
 _atom_site_type_symbol
 _atom_site_label
 _atom_site_symmetry_multiplicity
 _atom_site_fract_x
 _atom_site_fract_y
 _atom_site_fract_z
 _atom_site_occupancy
  La  La0  1  0.501523  0.501523  0.500000  1
  La  La1  1  0.498477  0.498477  0.000000  1
  Sm  Sm2  1  0.467865  0.999877  0.249811  1
  Sm  Sm3  1  0.000123  0.532135  0.250189  1
  Sm  Sm4  1  0.532135  0.000123  0.749811  1
  Sm  Sm5  1  0.999877  0.467865  0.750189  1
  Sb  Sb6  1  0.000346  0.000346  0.500000  1
  Sb  Sb7  1  0.999654  0.999654  0.000000  1
  O  O8  1  0.314846  0.064993  0.528269  1
  O  O9  1  0.935007  0.685154  0.971731  1
  O  O10  1  0.685154  0.935007  0.028269  1
  O  O11  1  0.064993  0.314846  0.471731  1
  O  O12  1  0.934991  0.685821  0.528937  1
  O  O13  1  0.314179  0.065009  0.971063  1
  O  O14  1  0.065009  0.314179  0.028937  1
  O  O15  1  0.685821  0.934991  0.471063  1
  O  O16  1  0.633520  0.366480  0.250000  1
  O  O17  1  0.366480  0.633520  0.750000  1
  O  O18  1  0.639029  0.360971  0.750000  1
  O  O19  1  0.360971  0.639029  0.250000  1
  O  O20  1  0.064767  0.935233  0.250000  1
  O  O21  1  0.935233  0.064767  0.750000  1
