# generated using pymatgen
data_Ho5ErPdRh
_symmetry_space_group_name_H-M   'P 1'
_cell_length_a   6.38097100
_cell_length_b   7.08814700
_cell_length_c   9.45949000
_cell_angle_alpha   89.99935565
_cell_angle_beta   90.00000000
_cell_angle_gamma   90.00000000
_symmetry_Int_Tables_number   1
_chemical_formula_structural   Ho5ErPdRh
_chemical_formula_sum   'Ho10 Er2 Pd2 Rh2'
_cell_volume   427.84573693
_cell_formula_units_Z   2
loop_
 _symmetry_equiv_pos_site_id
 _symmetry_equiv_pos_as_xyz
  1  'x, y, z'
loop_
 _atom_site_type_symbol
 _atom_site_label
 _atom_site_symmetry_multiplicity
 _atom_site_fract_x
 _atom_site_fract_y
 _atom_site_fract_z
 _atom_site_occupancy
  Ho  Ho0  1  0.675658  0.185126  0.060144  1
  Ho  Ho1  1  0.175658  0.314874  0.939856  1
  Ho  Ho2  1  0.829332  0.677092  0.438147  1
  Ho  Ho3  1  0.329332  0.822908  0.561853  1
  Ho  Ho4  1  0.329502  0.822869  0.938173  1
  Ho  Ho5  1  0.829502  0.677131  0.061827  1
  Ho  Ho6  1  0.862204  0.974287  0.749885  1
  Ho  Ho7  1  0.362204  0.525713  0.250115  1
  Ho  Ho8  1  0.627303  0.466287  0.749835  1
  Ho  Ho9  1  0.127303  0.033713  0.250165  1
  Er  Er10  1  0.175596  0.315115  0.560006  1
  Er  Er11  1  0.675596  0.184885  0.439994  1
  Pd  Pd12  1  0.054395  0.611121  0.749799  1
  Pd  Pd13  1  0.554395  0.888879  0.250201  1
  Rh  Rh14  1  0.446012  0.114440  0.749637  1
  Rh  Rh15  1  0.946012  0.385560  0.250363  1
