# generated using pymatgen
data_Tb7Yb(B6Ru)4
_symmetry_space_group_name_H-M   'P 1'
_cell_length_a   3.68255600
_cell_length_b   9.16265620
_cell_length_c   11.53732226
_cell_angle_alpha   90.02412382
_cell_angle_beta   90.00000000
_cell_angle_gamma   90.00000000
_symmetry_Int_Tables_number   1
_chemical_formula_structural   Tb7Yb(B6Ru)4
_chemical_formula_sum   'Tb7 Yb1 B24 Ru4'
_cell_volume   389.29223047
_cell_formula_units_Z   1
loop_
 _symmetry_equiv_pos_site_id
 _symmetry_equiv_pos_as_xyz
  1  'x, y, z'
loop_
 _atom_site_type_symbol
 _atom_site_label
 _atom_site_symmetry_multiplicity
 _atom_site_fract_x
 _atom_site_fract_y
 _atom_site_fract_z
 _atom_site_occupancy
  Tb  Tb0  1  0.000000  0.324138  0.415243  1
  Tb  Tb1  1  0.000000  0.675649  0.588215  1
  Tb  Tb2  1  0.000000  0.822800  0.083796  1
  Tb  Tb3  1  0.000000  0.177150  0.912968  1
  Tb  Tb4  1  0.000000  0.943270  0.371847  1
  Tb  Tb5  1  0.000000  0.056550  0.628707  1
  Tb  Tb6  1  0.000000  0.444143  0.126393  1
  Yb  Yb7  1  0.000000  0.556652  0.871116  1
  B  B8  1  0.500000  0.553823  0.432561  1
  B  B9  1  0.500000  0.446238  0.568528  1
  B  B10  1  0.500000  0.054395  0.067193  1
  B  B11  1  0.500000  0.945064  0.932163  1
  B  B12  1  0.500000  0.747431  0.419564  1
  B  B13  1  0.500000  0.252765  0.581117  1
  B  B14  1  0.500000  0.248236  0.079739  1
  B  B15  1  0.500000  0.750861  0.919020  1
  B  B16  1  0.500000  0.790194  0.266264  1
  B  B17  1  0.500000  0.210558  0.733767  1
  B  B18  1  0.500000  0.291001  0.232884  1
  B  B19  1  0.500000  0.708143  0.767515  1
  B  B20  1  0.500000  0.632203  0.184689  1
  B  B21  1  0.500000  0.369623  0.814787  1
  B  B22  1  0.500000  0.132381  0.314216  1
  B  B23  1  0.500000  0.867323  0.686670  1
  B  B24  1  0.500000  0.984532  0.212268  1
  B  B25  1  0.500000  0.015353  0.787973  1
  B  B26  1  0.500000  0.484404  0.286991  1
  B  B27  1  0.500000  0.516090  0.713748  1
  B  B28  1  0.500000  0.607320  0.029036  1
  B  B29  1  0.500000  0.393232  0.969786  1
  B  B30  1  0.500000  0.109557  0.469867  1
  B  B31  1  0.500000  0.890156  0.530412  1
  Ru  Ru32  1  0.000000  0.637430  0.321644  1
  Ru  Ru33  1  0.000000  0.362201  0.679134  1
  Ru  Ru34  1  0.000000  0.138216  0.179157  1
  Ru  Ru35  1  0.000000  0.860920  0.821020  1
