# generated using pymatgen
data_HoTm19(GaBi2)4
_symmetry_space_group_name_H-M   'P 1'
_cell_length_a   8.00960606
_cell_length_b   9.22886800
_cell_length_c   11.87130809
_cell_angle_alpha   90.00000000
_cell_angle_beta   89.98578256
_cell_angle_gamma   90.00000000
_symmetry_Int_Tables_number   1
_chemical_formula_structural   HoTm19(GaBi2)4
_chemical_formula_sum   'Ho1 Tm19 Ga4 Bi8'
_cell_volume   877.52228385
_cell_formula_units_Z   1
loop_
 _symmetry_equiv_pos_site_id
 _symmetry_equiv_pos_as_xyz
  1  'x, y, z'
loop_
 _atom_site_type_symbol
 _atom_site_label
 _atom_site_symmetry_multiplicity
 _atom_site_fract_x
 _atom_site_fract_y
 _atom_site_fract_z
 _atom_site_occupancy
  Ho  Ho0  1  0.144874  0.250000  0.205162  1
  Tm  Tm1  1  0.819643  0.554231  0.062261  1
  Tm  Tm2  1  0.680278  0.945688  0.562247  1
  Tm  Tm3  1  0.180359  0.054236  0.937582  1
  Tm  Tm4  1  0.319785  0.445828  0.437827  1
  Tm  Tm5  1  0.180359  0.445764  0.937582  1
  Tm  Tm6  1  0.319785  0.054172  0.437827  1
  Tm  Tm7  1  0.819643  0.945769  0.062261  1
  Tm  Tm8  1  0.680278  0.554312  0.562247  1
  Tm  Tm9  1  0.174370  0.750000  0.217915  1
  Tm  Tm10  1  0.325603  0.750000  0.717912  1
  Tm  Tm11  1  0.825584  0.250000  0.782080  1
  Tm  Tm12  1  0.674211  0.250000  0.282115  1
  Tm  Tm13  1  0.463140  0.750000  0.003756  1
  Tm  Tm14  1  0.036805  0.750000  0.503751  1
  Tm  Tm15  1  0.536907  0.250000  0.996254  1
  Tm  Tm16  1  0.963020  0.250000  0.496404  1
  Tm  Tm17  1  0.644779  0.750000  0.294978  1
  Tm  Tm18  1  0.855241  0.750000  0.794945  1
  Tm  Tm19  1  0.355313  0.250000  0.705034  1
  Ga  Ga20  1  0.404921  0.750000  0.475877  1
  Ga  Ga21  1  0.095146  0.750000  0.975851  1
  Ga  Ga22  1  0.595125  0.250000  0.524163  1
  Ga  Ga23  1  0.904463  0.250000  0.023785  1
  Bi  Bi24  1  0.937254  0.509857  0.324600  1
  Bi  Bi25  1  0.562610  0.990310  0.824484  1
  Bi  Bi26  1  0.062628  0.009635  0.675511  1
  Bi  Bi27  1  0.437695  0.490536  0.175496  1
  Bi  Bi28  1  0.062628  0.490365  0.675511  1
  Bi  Bi29  1  0.437695  0.009464  0.175496  1
  Bi  Bi30  1  0.937254  0.990143  0.324600  1
  Bi  Bi31  1  0.562610  0.509690  0.824484  1
