# generated using pymatgen
data_Er3Mg(AlPt)4
_symmetry_space_group_name_H-M   'P 1'
_cell_length_a   4.33009900
_cell_length_b   6.81277466
_cell_length_c   7.72365954
_cell_angle_alpha   87.56374442
_cell_angle_beta   90.00000000
_cell_angle_gamma   90.00000000
_symmetry_Int_Tables_number   1
_chemical_formula_structural   Er3Mg(AlPt)4
_chemical_formula_sum   'Er3 Mg1 Al4 Pt4'
_cell_volume   227.64192507
_cell_formula_units_Z   1
loop_
 _symmetry_equiv_pos_site_id
 _symmetry_equiv_pos_as_xyz
  1  'x, y, z'
loop_
 _atom_site_type_symbol
 _atom_site_label
 _atom_site_symmetry_multiplicity
 _atom_site_fract_x
 _atom_site_fract_y
 _atom_site_fract_z
 _atom_site_occupancy
  Er  Er0  1  0.750000  0.525760  0.830400  1
  Er  Er1  1  0.750000  0.030796  0.679076  1
  Er  Er2  1  0.250000  0.971763  0.317653  1
  Mg  Mg3  1  0.250000  0.472822  0.175921  1
  Al  Al4  1  0.250000  0.851761  0.941001  1
  Al  Al5  1  0.750000  0.143328  0.063270  1
  Al  Al6  1  0.750000  0.640304  0.437836  1
  Al  Al7  1  0.250000  0.362126  0.554607  1
  Pt  Pt8  1  0.250000  0.728129  0.626104  1
  Pt  Pt9  1  0.750000  0.277095  0.372117  1
  Pt  Pt10  1  0.750000  0.767999  0.120976  1
  Pt  Pt11  1  0.250000  0.228116  0.881038  1
