# generated using pymatgen
data_CsYBi2S5
_symmetry_space_group_name_H-M   'P 1'
_cell_length_a   4.04506600
_cell_length_b   12.02643500
_cell_length_c   22.30211800
_cell_angle_alpha   90.00000000
_cell_angle_beta   90.00000000
_cell_angle_gamma   90.00000000
_symmetry_Int_Tables_number   1
_chemical_formula_structural   CsYBi2S5
_chemical_formula_sum   'Cs4 Y4 Bi8 S20'
_cell_volume   1084.94726591
_cell_formula_units_Z   4
loop_
 _symmetry_equiv_pos_site_id
 _symmetry_equiv_pos_as_xyz
  1  'x, y, z'
loop_
 _atom_site_type_symbol
 _atom_site_label
 _atom_site_symmetry_multiplicity
 _atom_site_fract_x
 _atom_site_fract_y
 _atom_site_fract_z
 _atom_site_occupancy
  Cs  Cs0  1  0.250000  0.488086  0.211614  1
  Cs  Cs1  1  0.750000  0.511914  0.788386  1
  Cs  Cs2  1  0.750000  0.988086  0.288386  1
  Cs  Cs3  1  0.250000  0.011914  0.711614  1
  Y  Y4  1  0.250000  0.364170  0.023531  1
  Y  Y5  1  0.750000  0.635830  0.976469  1
  Y  Y6  1  0.750000  0.864170  0.476469  1
  Y  Y7  1  0.250000  0.135830  0.523531  1
  Bi  Bi8  1  0.250000  0.800966  0.120326  1
  Bi  Bi9  1  0.750000  0.199034  0.879674  1
  Bi  Bi10  1  0.750000  0.300966  0.379674  1
  Bi  Bi11  1  0.250000  0.699034  0.620326  1
  Bi  Bi12  1  0.250000  0.593930  0.426436  1
  Bi  Bi13  1  0.750000  0.406070  0.573564  1
  Bi  Bi14  1  0.750000  0.093930  0.073564  1
  Bi  Bi15  1  0.250000  0.906070  0.926436  1
  S  S16  1  0.250000  0.807940  0.396512  1
  S  S17  1  0.750000  0.192060  0.603488  1
  S  S18  1  0.750000  0.307940  0.103488  1
  S  S19  1  0.250000  0.692060  0.896512  1
  S  S20  1  0.250000  0.248979  0.306037  1
  S  S21  1  0.750000  0.751021  0.693963  1
  S  S22  1  0.750000  0.748979  0.193963  1
  S  S23  1  0.250000  0.251021  0.806037  1
  S  S24  1  0.250000  0.353714  0.482513  1
  S  S25  1  0.750000  0.646286  0.517487  1
  S  S26  1  0.750000  0.853714  0.017487  1
  S  S27  1  0.250000  0.146286  0.982513  1
  S  S28  1  0.250000  0.024414  0.151101  1
  S  S29  1  0.750000  0.975586  0.848899  1
  S  S30  1  0.750000  0.524414  0.348899  1
  S  S31  1  0.250000  0.475586  0.651101  1
  S  S32  1  0.250000  0.583074  0.055627  1
  S  S33  1  0.750000  0.416926  0.944373  1
  S  S34  1  0.750000  0.083074  0.444373  1
  S  S35  1  0.250000  0.916926  0.555627  1
