# generated using pymatgen
data_Tm6Lu2B24Mo3Rh
_symmetry_space_group_name_H-M   'P 1'
_cell_length_a   3.61063800
_cell_length_b   9.16620704
_cell_length_c   11.54065605
_cell_angle_alpha   90.14698496
_cell_angle_beta   90.00000000
_cell_angle_gamma   90.00000000
_symmetry_Int_Tables_number   1
_chemical_formula_structural   Tm6Lu2B24Mo3Rh
_chemical_formula_sum   'Tm6 Lu2 B24 Mo3 Rh1'
_cell_volume   381.94662757
_cell_formula_units_Z   1
loop_
 _symmetry_equiv_pos_site_id
 _symmetry_equiv_pos_as_xyz
  1  'x, y, z'
loop_
 _atom_site_type_symbol
 _atom_site_label
 _atom_site_symmetry_multiplicity
 _atom_site_fract_x
 _atom_site_fract_y
 _atom_site_fract_z
 _atom_site_occupancy
  Tm  Tm0  1  0.500000  0.317616  0.414622  1
  Tm  Tm1  1  0.500000  0.679365  0.588605  1
  Tm  Tm2  1  0.500000  0.178503  0.913359  1
  Tm  Tm3  1  0.500000  0.824669  0.082806  1
  Tm  Tm4  1  0.500000  0.443445  0.129550  1
  Tm  Tm5  1  0.500000  0.556249  0.872611  1
  Lu  Lu6  1  0.500000  0.054843  0.627492  1
  Lu  Lu7  1  0.500000  0.942618  0.370870  1
  B  B8  1  0.000000  0.098213  0.471755  1
  B  B9  1  0.000000  0.896546  0.526739  1
  B  B10  1  0.000000  0.398562  0.972729  1
  B  B11  1  0.000000  0.603230  0.030214  1
  B  B12  1  0.000000  0.130683  0.318472  1
  B  B13  1  0.000000  0.868265  0.682560  1
  B  B14  1  0.000000  0.369168  0.815946  1
  B  B15  1  0.000000  0.632143  0.184117  1
  B  B16  1  0.000000  0.052424  0.065456  1
  B  B17  1  0.000000  0.948943  0.934556  1
  B  B18  1  0.000000  0.448672  0.563652  1
  B  B19  1  0.000000  0.555006  0.433448  1
  B  B20  1  0.000000  0.483569  0.288415  1
  B  B21  1  0.000000  0.521181  0.711975  1
  B  B22  1  0.000000  0.020948  0.786546  1
  B  B23  1  0.000000  0.978097  0.212662  1
  B  B24  1  0.000000  0.252063  0.079444  1
  B  B25  1  0.000000  0.749324  0.921589  1
  B  B26  1  0.000000  0.246263  0.578192  1
  B  B27  1  0.000000  0.750187  0.420048  1
  B  B28  1  0.000000  0.295569  0.238024  1
  B  B29  1  0.000000  0.705108  0.764581  1
  B  B30  1  0.000000  0.205016  0.734949  1
  B  B31  1  0.000000  0.792096  0.264635  1
  Mo  Mo32  1  0.500000  0.139483  0.181480  1
  Mo  Mo33  1  0.500000  0.860916  0.819573  1
  Mo  Mo34  1  0.500000  0.361413  0.677365  1
  Rh  Rh35  1  0.500000  0.639607  0.320959  1
