# generated using pymatgen
data_Ce4B4SbIr9
_symmetry_space_group_name_H-M   'P 1'
_cell_length_a   10.88115869
_cell_length_b   10.88115829
_cell_length_c   10.88115940
_cell_angle_alpha   29.90824984
_cell_angle_beta   29.90825135
_cell_angle_gamma   29.90825464
_symmetry_Int_Tables_number   1
_chemical_formula_structural   Ce4B4SbIr9
_chemical_formula_sum   'Ce4 B4 Sb1 Ir9'
_cell_volume   283.67415651
_cell_formula_units_Z   1
loop_
 _symmetry_equiv_pos_site_id
 _symmetry_equiv_pos_as_xyz
  1  'x, y, z'
loop_
 _atom_site_type_symbol
 _atom_site_label
 _atom_site_symmetry_multiplicity
 _atom_site_fract_x
 _atom_site_fract_y
 _atom_site_fract_z
 _atom_site_occupancy
  Ce  Ce0  1  0.146338  0.146338  0.146338  1
  Ce  Ce1  1  0.950503  0.950503  0.950503  1
  Ce  Ce2  1  0.853662  0.853662  0.853662  1
  Ce  Ce3  1  0.049497  0.049497  0.049497  1
  B  B4  1  0.616866  0.616866  0.616866  1
  B  B5  1  0.716565  0.716565  0.716565  1
  B  B6  1  0.383134  0.383134  0.383134  1
  B  B7  1  0.283435  0.283435  0.283435  1
  Sb  Sb8  1  0.500000  0.500000  0.500000  1
  Ir  Ir9  1  0.403174  0.907163  0.403174  1
  Ir  Ir10  1  0.907163  0.403174  0.403174  1
  Ir  Ir11  1  0.500000  0.500000  0.000000  1
  Ir  Ir12  1  0.500000  0.000000  0.500000  1
  Ir  Ir13  1  0.000000  0.500000  0.500000  1
  Ir  Ir14  1  0.596826  0.092837  0.596826  1
  Ir  Ir15  1  0.596826  0.596826  0.092837  1
  Ir  Ir16  1  0.092837  0.596826  0.596826  1
  Ir  Ir17  1  0.403174  0.403174  0.907163  1
