# generated using pymatgen
data_DyHo15(In3Co)2
_symmetry_space_group_name_H-M   'P 1'
_cell_length_a   10.33783100
_cell_length_b   10.33809466
_cell_length_c   6.95868700
_cell_angle_alpha   90.00018850
_cell_angle_beta   90.00000000
_cell_angle_gamma   119.99915315
_symmetry_Int_Tables_number   1
_chemical_formula_structural   DyHo15(In3Co)2
_chemical_formula_sum   'Dy1 Ho15 In6 Co2'
_cell_volume   644.06777834
_cell_formula_units_Z   1
loop_
 _symmetry_equiv_pos_site_id
 _symmetry_equiv_pos_as_xyz
  1  'x, y, z'
loop_
 _atom_site_type_symbol
 _atom_site_label
 _atom_site_symmetry_multiplicity
 _atom_site_fract_x
 _atom_site_fract_y
 _atom_site_fract_z
 _atom_site_occupancy
  Dy  Dy0  1  0.534597  0.069195  0.504692  1
  Ho  Ho1  1  0.930636  0.465360  0.504982  1
  Ho  Ho2  1  0.534724  0.465360  0.504982  1
  Ho  Ho3  1  0.465195  0.930389  0.004880  1
  Ho  Ho4  1  0.069405  0.534683  0.005019  1
  Ho  Ho5  1  0.465278  0.534683  0.005019  1
  Ho  Ho6  1  0.178173  0.356345  0.713344  1
  Ho  Ho7  1  0.643807  0.821697  0.713501  1
  Ho  Ho8  1  0.177890  0.821697  0.713501  1
  Ho  Ho9  1  0.821795  0.643591  0.213278  1
  Ho  Ho10  1  0.356175  0.178245  0.213111  1
  Ho  Ho11  1  0.822069  0.178245  0.213111  1
  Ho  Ho12  1  0.666791  0.333582  0.894819  1
  Ho  Ho13  1  0.333222  0.666444  0.394488  1
  Ho  Ho14  1  0.999988  0.999976  0.493865  1
  Ho  Ho15  1  0.000034  0.000068  0.993968  1
  In  In16  1  0.837202  0.674404  0.751139  1
  In  In17  1  0.325453  0.162818  0.751302  1
  In  In18  1  0.837365  0.162818  0.751302  1
  In  In19  1  0.162778  0.325557  0.251143  1
  In  In20  1  0.674441  0.837222  0.251008  1
  In  In21  1  0.162780  0.837222  0.251008  1
  Co  Co22  1  0.666875  0.333750  0.282220  1
  Co  Co23  1  0.333325  0.666651  0.782362  1
