# generated using pymatgen
data_EuP2IrRh
_symmetry_space_group_name_H-M   'P 1'
_cell_length_a   6.73396404
_cell_length_b   6.74884462
_cell_length_c   7.08668284
_cell_angle_alpha   90.00337215
_cell_angle_beta   89.88351481
_cell_angle_gamma   120.14806376
_symmetry_Int_Tables_number   1
_chemical_formula_structural   EuP2IrRh
_chemical_formula_sum   'Eu3 P6 Ir3 Rh3'
_cell_volume   278.49845232
_cell_formula_units_Z   3
loop_
 _symmetry_equiv_pos_site_id
 _symmetry_equiv_pos_as_xyz
  1  'x, y, z'
loop_
 _atom_site_type_symbol
 _atom_site_label
 _atom_site_symmetry_multiplicity
 _atom_site_fract_x
 _atom_site_fract_y
 _atom_site_fract_z
 _atom_site_occupancy
  Eu  Eu0  1  0.606550  0.002176  0.167250  1
  Eu  Eu1  1  0.393544  0.395682  0.499401  1
  Eu  Eu2  1  0.999985  0.604870  0.833342  1
  P  P3  1  0.113760  0.336588  0.123313  1
  P  P4  1  0.777170  0.659601  0.209681  1
  P  P5  1  0.222847  0.882404  0.456928  1
  P  P6  1  0.886260  0.222889  0.543273  1
  P  P7  1  0.660157  0.778330  0.790664  1
  P  P8  1  0.339744  0.118207  0.875955  1
  Ir  Ir9  1  0.516886  0.002186  0.665143  1
  Ir  Ir10  1  0.999940  0.128930  0.833325  1
  Ir  Ir11  1  0.483098  0.485257  0.001467  1
  Rh  Rh12  1  0.131576  0.998556  0.167345  1
  Rh  Rh13  1  0.000021  0.517315  0.333345  1
  Rh  Rh14  1  0.868461  0.867008  0.499273  1
