# generated using pymatgen
data_Ho2Er6Si8Pd5Pt3
_symmetry_space_group_name_H-M   'P 1'
_cell_length_a   4.27354700
_cell_length_b   7.48069909
_cell_length_c   13.92344800
_cell_angle_alpha   90.00769512
_cell_angle_beta   90.00000000
_cell_angle_gamma   90.00000000
_symmetry_Int_Tables_number   1
_chemical_formula_structural   Ho2Er6Si8Pd5Pt3
_chemical_formula_sum   'Ho2 Er6 Si8 Pd5 Pt3'
_cell_volume   445.12036408
_cell_formula_units_Z   1
loop_
 _symmetry_equiv_pos_site_id
 _symmetry_equiv_pos_as_xyz
  1  'x, y, z'
loop_
 _atom_site_type_symbol
 _atom_site_label
 _atom_site_symmetry_multiplicity
 _atom_site_fract_x
 _atom_site_fract_y
 _atom_site_fract_z
 _atom_site_occupancy
  Ho  Ho0  1  0.000000  0.299597  0.000100  1
  Ho  Ho1  1  0.500000  0.701658  0.500231  1
  Er  Er2  1  0.000000  0.291867  0.499914  1
  Er  Er3  1  0.500000  0.708338  0.999769  1
  Er  Er4  1  0.000000  0.205343  0.250409  1
  Er  Er5  1  0.500000  0.793424  0.250117  1
  Er  Er6  1  0.000000  0.205076  0.749723  1
  Er  Er7  1  0.500000  0.794774  0.750451  1
  Si  Si8  1  0.000000  0.908463  0.592614  1
  Si  Si9  1  0.500000  0.091307  0.908650  1
  Si  Si10  1  0.000000  0.908246  0.407021  1
  Si  Si11  1  0.500000  0.093637  0.093555  1
  Si  Si12  1  0.000000  0.593273  0.143901  1
  Si  Si13  1  0.500000  0.405461  0.356800  1
  Si  Si14  1  0.000000  0.594630  0.856711  1
  Si  Si15  1  0.500000  0.405189  0.642965  1
  Pd  Pd16  1  0.000000  0.923624  0.107271  1
  Pd  Pd17  1  0.500000  0.421432  0.157530  1
  Pd  Pd18  1  0.000000  0.579558  0.341975  1
  Pd  Pd19  1  0.500000  0.420853  0.842582  1
  Pd  Pd20  1  0.000000  0.579032  0.657898  1
  Pt  Pt21  1  0.500000  0.075184  0.609179  1
  Pt  Pt22  1  0.000000  0.924878  0.890337  1
  Pt  Pt23  1  0.500000  0.075154  0.390299  1
