# generated using pymatgen
data_Pr3Cd2CuHgPd2
_symmetry_space_group_name_H-M   'P 1'
_cell_length_a   7.92119700
_cell_length_b   7.89245885
_cell_length_c   3.90822500
_cell_angle_alpha   90.00000000
_cell_angle_beta   90.00000000
_cell_angle_gamma   120.12051955
_symmetry_Int_Tables_number   1
_chemical_formula_structural   Pr3Cd2CuHgPd2
_chemical_formula_sum   'Pr3 Cd2 Cu1 Hg1 Pd2'
_cell_volume   211.34142251
_cell_formula_units_Z   1
loop_
 _symmetry_equiv_pos_site_id
 _symmetry_equiv_pos_as_xyz
  1  'x, y, z'
loop_
 _atom_site_type_symbol
 _atom_site_label
 _atom_site_symmetry_multiplicity
 _atom_site_fract_x
 _atom_site_fract_y
 _atom_site_fract_z
 _atom_site_occupancy
  Pr  Pr0  1  0.416594  0.000000  0.500000  1
  Pr  Pr1  1  0.998017  0.409379  0.500000  1
  Pr  Pr2  1  0.588639  0.590621  0.500000  1
  Cd  Cd3  1  0.001198  0.753548  0.000000  1
  Cd  Cd4  1  0.247650  0.246452  0.000000  1
  Cu  Cu5  1  0.002339  0.000000  0.500000  1
  Hg  Hg6  1  0.751076  0.000000  0.000000  1
  Pd  Pd7  1  0.328679  0.662875  0.000000  1
  Pd  Pd8  1  0.665806  0.337125  0.000000  1
