# generated using pymatgen
data_Sr4Li4Si7Ge
_symmetry_space_group_name_H-M   'P 1'
_cell_length_a   4.44304100
_cell_length_b   7.06246787
_cell_length_c   11.41433694
_cell_angle_alpha   89.91715238
_cell_angle_beta   90.00000000
_cell_angle_gamma   90.00000000
_symmetry_Int_Tables_number   1
_chemical_formula_structural   Sr4Li4Si7Ge
_chemical_formula_sum   'Sr4 Li4 Si7 Ge1'
_cell_volume   358.16821328
_cell_formula_units_Z   1
loop_
 _symmetry_equiv_pos_site_id
 _symmetry_equiv_pos_as_xyz
  1  'x, y, z'
loop_
 _atom_site_type_symbol
 _atom_site_label
 _atom_site_symmetry_multiplicity
 _atom_site_fract_x
 _atom_site_fract_y
 _atom_site_fract_z
 _atom_site_occupancy
  Sr  Sr0  1  0.250000  0.137340  0.143394  1
  Sr  Sr1  1  0.750000  0.860868  0.857504  1
  Sr  Sr2  1  0.250000  0.637707  0.358081  1
  Sr  Sr3  1  0.750000  0.362282  0.641275  1
  Li  Li4  1  0.250000  0.124405  0.439531  1
  Li  Li5  1  0.750000  0.876043  0.559336  1
  Li  Li6  1  0.250000  0.624482  0.059790  1
  Li  Li7  1  0.750000  0.378360  0.940606  1
  Si  Si8  1  0.750000  0.469590  0.165958  1
  Si  Si9  1  0.250000  0.535385  0.834176  1
  Si  Si10  1  0.750000  0.969034  0.333872  1
  Si  Si11  1  0.250000  0.029086  0.663216  1
  Si  Si12  1  0.750000  0.302804  0.348267  1
  Si  Si13  1  0.250000  0.695886  0.650428  1
  Si  Si14  1  0.750000  0.803184  0.151412  1
  Ge  Ge15  1  0.250000  0.193545  0.853153  1
