# generated using pymatgen
data_V2Ni2Se2O11
_symmetry_space_group_name_H-M   'P 1'
_cell_length_a   8.91747400
_cell_length_b   4.87193903
_cell_length_c   10.69476318
_cell_angle_alpha   78.48724884
_cell_angle_beta   90.00000000
_cell_angle_gamma   90.00000000
_symmetry_Int_Tables_number   1
_chemical_formula_structural   V2Ni2Se2O11
_chemical_formula_sum   'V4 Ni4 Se4 O22'
_cell_volume   455.28977841
_cell_formula_units_Z   2
loop_
 _symmetry_equiv_pos_site_id
 _symmetry_equiv_pos_as_xyz
  1  'x, y, z'
loop_
 _atom_site_type_symbol
 _atom_site_label
 _atom_site_symmetry_multiplicity
 _atom_site_fract_x
 _atom_site_fract_y
 _atom_site_fract_z
 _atom_site_occupancy
  V  V0  1  0.060255  0.464901  0.849672  1
  V  V1  1  0.560255  0.535099  0.150328  1
  V  V2  1  0.939745  0.535099  0.150328  1
  V  V3  1  0.439745  0.464901  0.849672  1
  Ni  Ni4  1  0.929143  0.040275  0.631971  1
  Ni  Ni5  1  0.429143  0.959725  0.368029  1
  Ni  Ni6  1  0.070857  0.959725  0.368029  1
  Ni  Ni7  1  0.570857  0.040275  0.631971  1
  Se  Se8  1  0.750000  0.613501  0.451389  1
  Se  Se9  1  0.250000  0.386499  0.548611  1
  Se  Se10  1  0.750000  0.865299  0.895950  1
  Se  Se11  1  0.250000  0.134701  0.104050  1
  O  O12  1  0.750000  0.309745  0.567834  1
  O  O13  1  0.250000  0.690255  0.432166  1
  O  O14  1  0.956094  0.234756  0.788986  1
  O  O15  1  0.456094  0.765244  0.211014  1
  O  O16  1  0.043906  0.765244  0.211014  1
  O  O17  1  0.543906  0.234756  0.788986  1
  O  O18  1  0.900428  0.626730  0.952222  1
  O  O19  1  0.400428  0.373270  0.047778  1
  O  O20  1  0.099572  0.373270  0.047778  1
  O  O21  1  0.599572  0.626730  0.952222  1
  O  O22  1  0.595640  0.791207  0.496349  1
  O  O23  1  0.095640  0.208793  0.503651  1
  O  O24  1  0.404360  0.208793  0.503651  1
  O  O25  1  0.904360  0.791207  0.496349  1
  O  O26  1  0.750000  0.830521  0.741301  1
  O  O27  1  0.250000  0.169479  0.258699  1
  O  O28  1  0.075701  0.755751  0.738109  1
  O  O29  1  0.575701  0.244249  0.261891  1
  O  O30  1  0.924299  0.244249  0.261891  1
  O  O31  1  0.424299  0.755751  0.738109  1
  O  O32  1  0.250000  0.316520  0.850070  1
  O  O33  1  0.750000  0.683480  0.149930  1
