# generated using pymatgen
data_LaTh2(SnIr)3
_symmetry_space_group_name_H-M   'P 1'
_cell_length_a   7.62763827
_cell_length_b   7.62763867
_cell_length_c   4.14301500
_cell_angle_alpha   90.00000000
_cell_angle_beta   90.00000000
_cell_angle_gamma   120.46301544
_symmetry_Int_Tables_number   1
_chemical_formula_structural   LaTh2(SnIr)3
_chemical_formula_sum   'La1 Th2 Sn3 Ir3'
_cell_volume   207.76964843
_cell_formula_units_Z   1
loop_
 _symmetry_equiv_pos_site_id
 _symmetry_equiv_pos_as_xyz
  1  'x, y, z'
loop_
 _atom_site_type_symbol
 _atom_site_label
 _atom_site_symmetry_multiplicity
 _atom_site_fract_x
 _atom_site_fract_y
 _atom_site_fract_z
 _atom_site_occupancy
  La  La0  1  0.411236  0.411236  0.000000  1
  Th  Th1  1  0.586578  0.999891  0.000000  1
  Th  Th2  1  0.999891  0.586578  0.000000  1
  Sn  Sn3  1  0.248939  0.004032  0.500000  1
  Sn  Sn4  1  0.004032  0.248939  0.500000  1
  Sn  Sn5  1  0.744369  0.744369  0.500000  1
  Ir  Ir6  1  0.332449  0.682421  0.500000  1
  Ir  Ir7  1  0.682421  0.332449  0.500000  1
  Ir  Ir8  1  0.990085  0.990085  0.000000  1
