# generated using pymatgen
data_Lu10Hg3Pt4Pb5
_symmetry_space_group_name_H-M   'P 1'
_cell_length_a   3.63652300
_cell_length_b   8.03311934
_cell_length_c   18.11808833
_cell_angle_alpha   90.20925741
_cell_angle_beta   90.00000000
_cell_angle_gamma   90.00000000
_symmetry_Int_Tables_number   1
_chemical_formula_structural   Lu10Hg3Pt4Pb5
_chemical_formula_sum   'Lu10 Hg3 Pt4 Pb5'
_cell_volume   529.27335833
_cell_formula_units_Z   1
loop_
 _symmetry_equiv_pos_site_id
 _symmetry_equiv_pos_as_xyz
  1  'x, y, z'
loop_
 _atom_site_type_symbol
 _atom_site_label
 _atom_site_symmetry_multiplicity
 _atom_site_fract_x
 _atom_site_fract_y
 _atom_site_fract_z
 _atom_site_occupancy
  Lu  Lu0  1  0.000000  0.104227  0.415514  1
  Lu  Lu1  1  0.000000  0.894764  0.584747  1
  Lu  Lu2  1  0.000000  0.396691  0.912827  1
  Lu  Lu3  1  0.000000  0.615799  0.085163  1
  Lu  Lu4  1  0.000000  0.245435  0.220954  1
  Lu  Lu5  1  0.000000  0.752655  0.782240  1
  Lu  Lu6  1  0.000000  0.251640  0.717027  1
  Lu  Lu7  1  0.000000  0.747903  0.284180  1
  Lu  Lu8  1  0.000000  0.990546  0.997047  1
  Lu  Lu9  1  0.000000  0.500112  0.499800  1
  Hg  Hg10  1  0.500000  0.706980  0.937925  1
  Hg  Hg11  1  0.500000  0.207181  0.561514  1
  Hg  Hg12  1  0.500000  0.793150  0.438275  1
  Pt  Pt13  1  0.500000  0.029447  0.303503  1
  Pt  Pt14  1  0.500000  0.971321  0.696453  1
  Pt  Pt15  1  0.500000  0.471718  0.803406  1
  Pt  Pt16  1  0.500000  0.531725  0.196765  1
  Pb  Pb17  1  0.500000  0.422820  0.354867  1
  Pb  Pb18  1  0.500000  0.576228  0.645199  1
  Pb  Pb19  1  0.500000  0.077382  0.854143  1
  Pb  Pb20  1  0.500000  0.920584  0.146653  1
  Pb  Pb21  1  0.500000  0.291693  0.061798  1
