# generated using pymatgen
data_Sm7Er3(Sn3Cl)2
_symmetry_space_group_name_H-M   'P 1'
_cell_length_a   9.24873900
_cell_length_b   9.24873968
_cell_length_c   6.62140000
_cell_angle_alpha   90.00000000
_cell_angle_beta   90.00000000
_cell_angle_gamma   119.99999399
_symmetry_Int_Tables_number   1
_chemical_formula_structural   Sm7Er3(Sn3Cl)2
_chemical_formula_sum   'Sm7 Er3 Sn6 Cl2'
_cell_volume   490.50739802
_cell_formula_units_Z   1
loop_
 _symmetry_equiv_pos_site_id
 _symmetry_equiv_pos_as_xyz
  1  'x, y, z'
loop_
 _atom_site_type_symbol
 _atom_site_label
 _atom_site_symmetry_multiplicity
 _atom_site_fract_x
 _atom_site_fract_y
 _atom_site_fract_z
 _atom_site_occupancy
  Sm  Sm0  1  0.333333  0.666667  0.000000  1
  Sm  Sm1  1  0.739014  0.998968  0.749742  1
  Sm  Sm2  1  0.739014  0.740046  0.250258  1
  Sm  Sm3  1  0.001032  0.260986  0.250258  1
  Sm  Sm4  1  0.001032  0.740046  0.749742  1
  Sm  Sm5  1  0.259954  0.260986  0.749742  1
  Sm  Sm6  1  0.259954  0.998968  0.250258  1
  Er  Er7  1  0.666667  0.333333  0.000000  1
  Er  Er8  1  0.333333  0.666667  0.500000  1
  Er  Er9  1  0.666667  0.333333  0.500000  1
  Sn  Sn10  1  0.609805  0.606630  0.747067  1
  Sn  Sn11  1  0.996825  0.606630  0.252933  1
  Sn  Sn12  1  0.609805  0.003175  0.252933  1
  Sn  Sn13  1  0.393370  0.003175  0.747067  1
  Sn  Sn14  1  0.996825  0.390195  0.747067  1
  Sn  Sn15  1  0.393370  0.390195  0.252933  1
  Cl  Cl16  1  0.000000  0.000000  0.500000  1
  Cl  Cl17  1  0.000000  0.000000  0.000000  1
