# generated using pymatgen
data_Hf3Ti3Si6(MoRu2)2
_symmetry_space_group_name_H-M   'P 1'
_cell_length_a   7.57019843
_cell_length_b   7.56590478
_cell_length_c   7.57019878
_cell_angle_alpha   126.53782006
_cell_angle_beta   125.33492820
_cell_angle_gamma   80.01042362
_symmetry_Int_Tables_number   1
_chemical_formula_structural   Hf3Ti3Si6(MoRu2)2
_chemical_formula_sum   'Hf3 Ti3 Si6 Mo2 Ru4'
_cell_volume   274.37066113
_cell_formula_units_Z   1
loop_
 _symmetry_equiv_pos_site_id
 _symmetry_equiv_pos_as_xyz
  1  'x, y, z'
loop_
 _atom_site_type_symbol
 _atom_site_label
 _atom_site_symmetry_multiplicity
 _atom_site_fract_x
 _atom_site_fract_y
 _atom_site_fract_z
 _atom_site_occupancy
  Hf  Hf0  1  0.241574  0.900825  0.159250  1
  Hf  Hf1  1  0.962231  0.489484  0.027252  1
  Hf  Hf2  1  0.037329  0.057599  0.520270  1
  Ti  Ti3  1  0.439152  0.479225  0.540073  1
  Ti  Ti4  1  0.757808  0.924744  0.666935  1
  Ti  Ti5  1  0.558845  0.109273  0.050428  1
  Si  Si6  1  0.772603  0.543011  0.270409  1
  Si  Si7  1  0.181139  0.159486  0.002207  1
  Si  Si8  1  0.657279  0.159486  0.478345  1
  Si  Si9  1  0.355452  0.821782  0.515617  1
  Si  Si10  1  0.228128  0.485888  0.757760  1
  Si  Si11  1  0.806166  0.821782  0.966330  1
  Mo  Mo12  1  0.505707  0.247089  0.752116  1
  Mo  Mo13  1  0.994974  0.247089  0.241383  1
  Ru  Ru14  1  0.842179  0.496791  0.593809  1
  Ru  Ru15  1  0.596553  0.750934  0.091033  1
  Ru  Ru16  1  0.402981  0.496791  0.154611  1
  Ru  Ru17  1  0.159901  0.750934  0.654381  1
