# generated using pymatgen
data_Y13Ho7(Bi2Rh)4
_symmetry_space_group_name_H-M   'P 1'
_cell_length_a   8.01894903
_cell_length_b   8.99438300
_cell_length_c   12.51049705
_cell_angle_alpha   90.00267334
_cell_angle_beta   89.99036735
_cell_angle_gamma   90.00194975
_symmetry_Int_Tables_number   1
_chemical_formula_structural   Y13Ho7(Bi2Rh)4
_chemical_formula_sum   'Y13 Ho7 Bi8 Rh4'
_cell_volume   902.32582627
_cell_formula_units_Z   1
loop_
 _symmetry_equiv_pos_site_id
 _symmetry_equiv_pos_as_xyz
  1  'x, y, z'
loop_
 _atom_site_type_symbol
 _atom_site_label
 _atom_site_symmetry_multiplicity
 _atom_site_fract_x
 _atom_site_fract_y
 _atom_site_fract_z
 _atom_site_occupancy
  Y  Y0  1  0.839843  0.749842  0.792462  1
  Y  Y1  1  0.160182  0.250119  0.207719  1
  Y  Y2  1  0.339480  0.250439  0.707882  1
  Y  Y3  1  0.660223  0.749909  0.292187  1
  Y  Y4  1  0.372795  0.749710  0.693205  1
  Y  Y5  1  0.626721  0.250306  0.306607  1
  Y  Y6  1  0.872989  0.250211  0.807016  1
  Y  Y7  1  0.126939  0.749983  0.193024  1
  Y  Y8  1  0.953888  0.749131  0.500936  1
  Y  Y9  1  0.047397  0.250768  0.498659  1
  Y  Y10  1  0.453243  0.250069  0.998803  1
  Y  Y11  1  0.546658  0.749967  0.001202  1
  Y  Y12  1  0.677807  0.042131  0.567324  1
  Ho  Ho13  1  0.325406  0.958074  0.433679  1
  Ho  Ho14  1  0.174996  0.957978  0.933709  1
  Ho  Ho15  1  0.324821  0.541840  0.433437  1
  Ho  Ho16  1  0.824888  0.042088  0.066424  1
  Ho  Ho17  1  0.675290  0.457632  0.566590  1
  Ho  Ho18  1  0.824893  0.457967  0.066482  1
  Ho  Ho19  1  0.175039  0.542164  0.933635  1
  Bi  Bi20  1  0.566723  0.492206  0.826286  1
  Bi  Bi21  1  0.433135  0.507973  0.173545  1
  Bi  Bi22  1  0.066592  0.507977  0.673834  1
  Bi  Bi23  1  0.433247  0.992138  0.173640  1
  Bi  Bi24  1  0.933085  0.492121  0.326112  1
  Bi  Bi25  1  0.566423  0.007858  0.826353  1
  Bi  Bi26  1  0.932815  0.007942  0.326581  1
  Bi  Bi27  1  0.067101  0.992042  0.673600  1
  Rh  Rh28  1  0.569907  0.748351  0.508904  1
  Rh  Rh29  1  0.427425  0.251023  0.490170  1
  Rh  Rh30  1  0.070730  0.250046  0.990782  1
  Rh  Rh31  1  0.929317  0.749994  0.009214  1
