# generated using pymatgen
data_Sr8Si12Hg3Pt
_symmetry_space_group_name_H-M   'P 1'
_cell_length_a   11.90787642
_cell_length_b   10.28668328
_cell_length_c   8.47596693
_cell_angle_alpha   78.13269814
_cell_angle_beta   57.71970380
_cell_angle_gamma   44.15337092
_symmetry_Int_Tables_number   1
_chemical_formula_structural   Sr8Si12Hg3Pt
_chemical_formula_sum   'Sr8 Si12 Hg3 Pt1'
_cell_volume   583.00016420
_cell_formula_units_Z   1
loop_
 _symmetry_equiv_pos_site_id
 _symmetry_equiv_pos_as_xyz
  1  'x, y, z'
loop_
 _atom_site_type_symbol
 _atom_site_label
 _atom_site_symmetry_multiplicity
 _atom_site_fract_x
 _atom_site_fract_y
 _atom_site_fract_z
 _atom_site_occupancy
  Sr  Sr0  1  0.122923  0.131195  0.879677  1
  Sr  Sr1  1  0.879678  0.866206  0.122922  1
  Sr  Sr2  1  0.125203  0.133578  0.368385  1
  Sr  Sr3  1  0.368386  0.372835  0.125202  1
  Sr  Sr4  1  0.632463  0.620720  0.370362  1
  Sr  Sr5  1  0.370362  0.376456  0.632463  1
  Sr  Sr6  1  0.627179  0.628851  0.872942  1
  Sr  Sr7  1  0.872943  0.871029  0.627178  1
  Si  Si8  1  0.919755  0.584667  0.410713  1
  Si  Si9  1  0.060975  0.435548  0.595893  1
  Si  Si10  1  0.410713  0.084865  0.919755  1
  Si  Si11  1  0.595893  0.907584  0.060975  1
  Si  Si12  1  0.341189  0.658268  0.818366  1
  Si  Si13  1  0.655229  0.338101  0.185196  1
  Si  Si14  1  0.818366  0.182178  0.341189  1
  Si  Si15  1  0.185196  0.821475  0.655229  1
  Si  Si16  1  0.919108  0.580893  0.919107  1
  Si  Si17  1  0.593109  0.906892  0.593108  1
  Si  Si18  1  0.340522  0.659479  0.340522  1
  Si  Si19  1  0.659891  0.340109  0.659891  1
  Hg  Hg20  1  0.833188  0.166812  0.833188  1
  Hg  Hg21  1  0.167242  0.832758  0.167242  1
  Hg  Hg22  1  0.417124  0.082876  0.417124  1
  Pt  Pt23  1  0.083367  0.416633  0.083367  1
