# generated using pymatgen
data_AcGe3Pt
_symmetry_space_group_name_H-M   'P 1'
_cell_length_a   5.99659119
_cell_length_b   5.99659110
_cell_length_c   5.99659134
_cell_angle_alpha   134.62252690
_cell_angle_beta   134.62252003
_cell_angle_gamma   66.11728020
_symmetry_Int_Tables_number   1
_chemical_formula_structural   AcGe3Pt
_chemical_formula_sum   'Ac1 Ge3 Pt1'
_cell_volume   107.55501473
_cell_formula_units_Z   1
loop_
 _symmetry_equiv_pos_site_id
 _symmetry_equiv_pos_as_xyz
  1  'x, y, z'
loop_
 _atom_site_type_symbol
 _atom_site_label
 _atom_site_symmetry_multiplicity
 _atom_site_fract_x
 _atom_site_fract_y
 _atom_site_fract_z
 _atom_site_occupancy
  Ac  Ac0  1  0.998908  0.998908  0.000000  1
  Ge  Ge1  1  0.257975  0.757975  0.500000  1
  Ge  Ge2  1  0.757975  0.257975  0.500000  1
  Ge  Ge3  1  0.400045  0.400045  0.000000  1
  Pt  Pt4  1  0.650867  0.650867  0.000000  1
