# generated using pymatgen
data_Hf5Zr5(CoAs3)2
_symmetry_space_group_name_H-M   'P 1'
_cell_length_a   3.70995600
_cell_length_b   10.50555194
_cell_length_c   17.50188057
_cell_angle_alpha   89.95140244
_cell_angle_beta   90.00000000
_cell_angle_gamma   90.00000000
_symmetry_Int_Tables_number   1
_chemical_formula_structural   Hf5Zr5(CoAs3)2
_chemical_formula_sum   'Hf10 Zr10 Co4 As12'
_cell_volume   682.13792099
_cell_formula_units_Z   2
loop_
 _symmetry_equiv_pos_site_id
 _symmetry_equiv_pos_as_xyz
  1  'x, y, z'
loop_
 _atom_site_type_symbol
 _atom_site_label
 _atom_site_symmetry_multiplicity
 _atom_site_fract_x
 _atom_site_fract_y
 _atom_site_fract_z
 _atom_site_occupancy
  Hf  Hf0  1  0.750000  0.443803  0.423210  1
  Hf  Hf1  1  0.250000  0.556197  0.576790  1
  Hf  Hf2  1  0.250000  0.242143  0.167438  1
  Hf  Hf3  1  0.750000  0.757857  0.832562  1
  Hf  Hf4  1  0.750000  0.741519  0.333429  1
  Hf  Hf5  1  0.250000  0.258481  0.666571  1
  Hf  Hf6  1  0.250000  0.515844  0.276798  1
  Hf  Hf7  1  0.750000  0.484156  0.723202  1
  Hf  Hf8  1  0.750000  0.015647  0.223851  1
  Hf  Hf9  1  0.250000  0.984353  0.776149  1
  Zr  Zr10  1  0.250000  0.184983  0.367371  1
  Zr  Zr11  1  0.750000  0.815017  0.632629  1
  Zr  Zr12  1  0.750000  0.685053  0.133258  1
  Zr  Zr13  1  0.250000  0.314947  0.866742  1
  Zr  Zr14  1  0.250000  0.878838  0.477426  1
  Zr  Zr15  1  0.750000  0.121162  0.522574  1
  Zr  Zr16  1  0.750000  0.379727  0.022904  1
  Zr  Zr17  1  0.250000  0.620273  0.977096  1
  Zr  Zr18  1  0.250000  0.941609  0.077078  1
  Zr  Zr19  1  0.750000  0.058391  0.922922  1
  Co  Co20  1  0.250000  0.629156  0.407712  1
  Co  Co21  1  0.750000  0.370844  0.592288  1
  Co  Co22  1  0.750000  0.132961  0.093555  1
  Co  Co23  1  0.250000  0.867039  0.906445  1
  As  As24  1  0.250000  0.491351  0.119922  1
  As  As25  1  0.750000  0.508649  0.880078  1
  As  As26  1  0.750000  0.991075  0.380487  1
  As  As27  1  0.250000  0.008925  0.619513  1
  As  As28  1  0.250000  0.815587  0.220649  1
  As  As29  1  0.750000  0.184413  0.779351  1
  As  As30  1  0.750000  0.316793  0.280733  1
  As  As31  1  0.250000  0.683207  0.719267  1
  As  As32  1  0.250000  0.187940  0.009042  1
  As  As33  1  0.750000  0.812060  0.990958  1
  As  As34  1  0.750000  0.687066  0.491947  1
  As  As35  1  0.250000  0.312934  0.508053  1
