# generated using pymatgen
data_Np2SiB2Ru5
_symmetry_space_group_name_H-M   'P 1'
_cell_length_a   9.55124900
_cell_length_b   9.55124900
_cell_length_c   3.04260900
_cell_angle_alpha   90.00000000
_cell_angle_beta   90.00000000
_cell_angle_gamma   90.00000000
_symmetry_Int_Tables_number   1
_chemical_formula_structural   Np2SiB2Ru5
_chemical_formula_sum   'Np4 Si2 B4 Ru10'
_cell_volume   277.56613625
_cell_formula_units_Z   2
loop_
 _symmetry_equiv_pos_site_id
 _symmetry_equiv_pos_as_xyz
  1  'x, y, z'
loop_
 _atom_site_type_symbol
 _atom_site_label
 _atom_site_symmetry_multiplicity
 _atom_site_fract_x
 _atom_site_fract_y
 _atom_site_fract_z
 _atom_site_occupancy
  Np  Np0  1  0.823700  0.676300  0.000000  1
  Np  Np1  1  0.176300  0.323700  0.000000  1
  Np  Np2  1  0.323700  0.823700  0.000000  1
  Np  Np3  1  0.676300  0.176300  0.000000  1
  Si  Si4  1  0.500000  0.500000  0.000000  1
  Si  Si5  1  0.000000  0.000000  0.000000  1
  B  B6  1  0.623761  0.876239  0.000000  1
  B  B7  1  0.376239  0.123761  0.000000  1
  B  B8  1  0.123761  0.623761  0.000000  1
  B  B9  1  0.876239  0.376239  0.000000  1
  Ru  Ru10  1  0.568711  0.712598  0.500000  1
  Ru  Ru11  1  0.431289  0.287402  0.500000  1
  Ru  Ru12  1  0.068711  0.787402  0.500000  1
  Ru  Ru13  1  0.931289  0.212598  0.500000  1
  Ru  Ru14  1  0.287402  0.568711  0.500000  1
  Ru  Ru15  1  0.712598  0.431289  0.500000  1
  Ru  Ru16  1  0.212598  0.068711  0.500000  1
  Ru  Ru17  1  0.787402  0.931289  0.500000  1
  Ru  Ru18  1  0.500000  0.000000  0.500000  1
  Ru  Ru19  1  0.000000  0.500000  0.500000  1
