# generated using pymatgen
data_PuPa(Co5P3)2
_symmetry_space_group_name_H-M   'P 1'
_cell_length_a   3.68287600
_cell_length_b   10.34675400
_cell_length_c   11.72143000
_cell_angle_alpha   90.00000000
_cell_angle_beta   90.00000000
_cell_angle_gamma   90.00000000
_symmetry_Int_Tables_number   1
_chemical_formula_structural   PuPa(Co5P3)2
_chemical_formula_sum   'Pu2 Pa2 Co20 P12'
_cell_volume   446.65460777
_cell_formula_units_Z   2
loop_
 _symmetry_equiv_pos_site_id
 _symmetry_equiv_pos_as_xyz
  1  'x, y, z'
loop_
 _atom_site_type_symbol
 _atom_site_label
 _atom_site_symmetry_multiplicity
 _atom_site_fract_x
 _atom_site_fract_y
 _atom_site_fract_z
 _atom_site_occupancy
  Pu  Pu0  1  0.250000  0.584496  0.701297  1
  Pu  Pu1  1  0.250000  0.915504  0.201297  1
  Pa  Pa2  1  0.750000  0.416897  0.297761  1
  Pa  Pa3  1  0.750000  0.083103  0.797761  1
  Co  Co4  1  0.250000  0.714124  0.992849  1
  Co  Co5  1  0.250000  0.785876  0.492849  1
  Co  Co6  1  0.750000  0.283687  0.012180  1
  Co  Co7  1  0.750000  0.216313  0.512180  1
  Co  Co8  1  0.250000  0.406386  0.481192  1
  Co  Co9  1  0.250000  0.093614  0.981192  1
  Co  Co10  1  0.750000  0.591159  0.511001  1
  Co  Co11  1  0.750000  0.908841  0.011001  1
  Co  Co12  1  0.250000  0.220501  0.177145  1
  Co  Co13  1  0.250000  0.279499  0.677145  1
  Co  Co14  1  0.750000  0.781471  0.823761  1
  Co  Co15  1  0.750000  0.718529  0.323761  1
  Co  Co16  1  0.250000  0.887418  0.699777  1
  Co  Co17  1  0.250000  0.612582  0.199777  1
  Co  Co18  1  0.750000  0.120800  0.303331  1
  Co  Co19  1  0.750000  0.379200  0.803331  1
  Co  Co20  1  0.250000  0.470356  0.931470  1
  Co  Co21  1  0.250000  0.029644  0.431470  1
  Co  Co22  1  0.750000  0.531618  0.068921  1
  Co  Co23  1  0.750000  0.968382  0.568921  1
  P  P24  1  0.250000  0.415945  0.109594  1
  P  P25  1  0.250000  0.084055  0.609594  1
  P  P26  1  0.750000  0.581998  0.885844  1
  P  P27  1  0.750000  0.918002  0.385844  1
  P  P28  1  0.250000  0.276407  0.870908  1
  P  P29  1  0.250000  0.223593  0.370908  1
  P  P30  1  0.750000  0.727564  0.130271  1
  P  P31  1  0.750000  0.772436  0.630271  1
  P  P32  1  0.250000  0.607136  0.392514  1
  P  P33  1  0.250000  0.892864  0.892514  1
  P  P34  1  0.750000  0.398062  0.610185  1
  P  P35  1  0.750000  0.101938  0.110185  1
