# generated using pymatgen
data_DyHoMoRuC3
_symmetry_space_group_name_H-M   'P 1'
_cell_length_a   6.03630505
_cell_length_b   6.03630517
_cell_length_c   5.68647594
_cell_angle_alpha   67.71744180
_cell_angle_beta   67.71744433
_cell_angle_gamma   32.35443567
_symmetry_Int_Tables_number   1
_chemical_formula_structural   DyHoMoRuC3
_chemical_formula_sum   'Dy1 Ho1 Mo1 Ru1 C3'
_cell_volume   101.87539438
_cell_formula_units_Z   1
loop_
 _symmetry_equiv_pos_site_id
 _symmetry_equiv_pos_as_xyz
  1  'x, y, z'
loop_
 _atom_site_type_symbol
 _atom_site_label
 _atom_site_symmetry_multiplicity
 _atom_site_fract_x
 _atom_site_fract_y
 _atom_site_fract_z
 _atom_site_occupancy
  Dy  Dy0  1  0.390739  0.390739  0.820288  1
  Ho  Ho1  1  0.608685  0.608685  0.169038  1
  Mo  Mo2  1  0.841846  0.841846  0.323994  1
  Ru  Ru3  1  0.158851  0.158851  0.680676  1
  C  C4  1  0.752367  0.752367  0.730974  1
  C  C5  1  0.245943  0.245943  0.271501  1
  C  C6  1  0.001568  0.001568  0.003530  1
