# generated using pymatgen
data_TbPr15(CoHg)4
_symmetry_space_group_name_H-M   'P 1'
_cell_length_a   9.83410767
_cell_length_b   9.85451489
_cell_length_c   9.83410813
_cell_angle_alpha   59.93133179
_cell_angle_beta   60.13036965
_cell_angle_gamma   59.93133583
_symmetry_Int_Tables_number   1
_chemical_formula_structural   TbPr15(CoHg)4
_chemical_formula_sum   'Tb1 Pr15 Co4 Hg4'
_cell_volume   673.85093893
_cell_formula_units_Z   1
loop_
 _symmetry_equiv_pos_site_id
 _symmetry_equiv_pos_as_xyz
  1  'x, y, z'
loop_
 _atom_site_type_symbol
 _atom_site_label
 _atom_site_symmetry_multiplicity
 _atom_site_fract_x
 _atom_site_fract_y
 _atom_site_fract_z
 _atom_site_occupancy
  Tb  Tb0  1  0.058532  0.441468  0.058532  1
  Pr  Pr1  1  0.436267  0.441147  0.059909  1
  Pr  Pr2  1  0.597533  0.597508  0.597533  1
  Pr  Pr3  1  0.188724  0.810247  0.811358  1
  Pr  Pr4  1  0.059909  0.062677  0.436267  1
  Pr  Pr5  1  0.436267  0.062677  0.059909  1
  Pr  Pr6  1  0.810772  0.189228  0.810772  1
  Pr  Pr7  1  0.439905  0.060095  0.439905  1
  Pr  Pr8  1  0.597533  0.207425  0.597533  1
  Pr  Pr9  1  0.811358  0.810247  0.188724  1
  Pr  Pr10  1  0.205843  0.596363  0.601432  1
  Pr  Pr11  1  0.811358  0.189670  0.188724  1
  Pr  Pr12  1  0.059909  0.441147  0.436267  1
  Pr  Pr13  1  0.190799  0.809201  0.190799  1
  Pr  Pr14  1  0.601432  0.596363  0.205843  1
  Pr  Pr15  1  0.188724  0.189670  0.811358  1
  Co  Co16  1  0.391602  0.389147  0.391602  1
  Co  Co17  1  0.830247  0.390113  0.389528  1
  Co  Co18  1  0.391602  0.827651  0.391602  1
  Co  Co19  1  0.389528  0.390113  0.830247  1
  Hg  Hg20  1  0.833153  0.832521  0.501803  1
  Hg  Hg21  1  0.833600  0.831019  0.833600  1
  Hg  Hg22  1  0.501803  0.832521  0.833153  1
  Hg  Hg23  1  0.833600  0.501779  0.833600  1
