# generated using pymatgen
data_Li2Pr3LuAu3
_symmetry_space_group_name_H-M   'P 1'
_cell_length_a   7.86405300
_cell_length_b   7.79637191
_cell_length_c   4.27247700
_cell_angle_alpha   90.00000000
_cell_angle_beta   90.00000000
_cell_angle_gamma   120.28759919
_symmetry_Int_Tables_number   1
_chemical_formula_structural   Li2Pr3LuAu3
_chemical_formula_sum   'Li2 Pr3 Lu1 Au3'
_cell_volume   226.19522505
_cell_formula_units_Z   1
loop_
 _symmetry_equiv_pos_site_id
 _symmetry_equiv_pos_as_xyz
  1  'x, y, z'
loop_
 _atom_site_type_symbol
 _atom_site_label
 _atom_site_symmetry_multiplicity
 _atom_site_fract_x
 _atom_site_fract_y
 _atom_site_fract_z
 _atom_site_occupancy
  Li  Li0  1  0.003735  0.241628  0.500000  1
  Li  Li1  1  0.762106  0.758372  0.500000  1
  Pr  Pr2  1  0.413383  0.437548  0.000000  1
  Pr  Pr3  1  0.615328  0.000000  0.000000  1
  Pr  Pr4  1  0.975835  0.562452  0.000000  1
  Lu  Lu5  1  0.242721  0.000000  0.500000  1
  Au  Au6  1  0.006156  0.000000  0.000000  1
  Au  Au7  1  0.651600  0.322462  0.500000  1
  Au  Au8  1  0.329137  0.677538  0.500000  1
