# generated using pymatgen
data_Tb7Co4Sn23Ru2
_symmetry_space_group_name_H-M   'P 1'
_cell_length_a   9.76163843
_cell_length_b   9.76163752
_cell_length_c   10.03116321
_cell_angle_alpha   90.29010303
_cell_angle_beta   89.70989942
_cell_angle_gamma   119.85101565
_symmetry_Int_Tables_number   1
_chemical_formula_structural   Tb7Co4Sn23Ru2
_chemical_formula_sum   'Tb7 Co4 Sn23 Ru2'
_cell_volume   829.02938554
_cell_formula_units_Z   1
loop_
 _symmetry_equiv_pos_site_id
 _symmetry_equiv_pos_as_xyz
  1  'x, y, z'
loop_
 _atom_site_type_symbol
 _atom_site_label
 _atom_site_symmetry_multiplicity
 _atom_site_fract_x
 _atom_site_fract_y
 _atom_site_fract_z
 _atom_site_occupancy
  Tb  Tb0  1  0.000000  0.000000  0.000000  1
  Tb  Tb1  1  0.479901  0.520099  0.306502  1
  Tb  Tb2  1  0.520099  0.479901  0.693498  1
  Tb  Tb3  1  0.481050  0.959381  0.305142  1
  Tb  Tb4  1  0.518950  0.040619  0.694858  1
  Tb  Tb5  1  0.040619  0.518950  0.305142  1
  Tb  Tb6  1  0.959381  0.481050  0.694858  1
  Co  Co7  1  0.830499  0.663012  0.198223  1
  Co  Co8  1  0.169501  0.336988  0.801777  1
  Co  Co9  1  0.336988  0.169501  0.198223  1
  Co  Co10  1  0.663012  0.830499  0.801777  1
  Sn  Sn11  1  0.348925  0.003085  0.003833  1
  Sn  Sn12  1  0.651075  0.996915  0.996167  1
  Sn  Sn13  1  0.003085  0.348925  0.996167  1
  Sn  Sn14  1  0.996915  0.651075  0.003833  1
  Sn  Sn15  1  0.653674  0.653674  0.000000  1
  Sn  Sn16  1  0.346326  0.346326  0.000000  1
  Sn  Sn17  1  0.334508  0.665492  0.817609  1
  Sn  Sn18  1  0.665492  0.334508  0.182391  1
  Sn  Sn19  1  0.000000  0.000000  0.500000  1
  Sn  Sn20  1  0.780494  0.219506  0.457436  1
  Sn  Sn21  1  0.219506  0.780494  0.542564  1
  Sn  Sn22  1  0.782094  0.564355  0.451969  1
  Sn  Sn23  1  0.217906  0.435645  0.548031  1
  Sn  Sn24  1  0.435645  0.217906  0.451969  1
  Sn  Sn25  1  0.564355  0.782094  0.548031  1
  Sn  Sn26  1  0.333557  0.666443  0.117377  1
  Sn  Sn27  1  0.666443  0.333557  0.882623  1
  Sn  Sn28  1  0.117011  0.882989  0.271754  1
  Sn  Sn29  1  0.882989  0.117011  0.728246  1
  Sn  Sn30  1  0.122575  0.235721  0.274977  1
  Sn  Sn31  1  0.877425  0.764279  0.725023  1
  Sn  Sn32  1  0.764279  0.877425  0.274977  1
  Sn  Sn33  1  0.235721  0.122575  0.725023  1
  Ru  Ru34  1  0.832344  0.167656  0.198365  1
  Ru  Ru35  1  0.167656  0.832344  0.801635  1
