# generated using pymatgen
data_CsP4AuO12
_symmetry_space_group_name_H-M   'P 1'
_cell_length_a   14.35306900
_cell_length_b   5.66488981
_cell_length_c   7.50517638
_cell_angle_alpha   76.35096978
_cell_angle_beta   90.00000000
_cell_angle_gamma   90.00000000
_symmetry_Int_Tables_number   1
_chemical_formula_structural   CsP4AuO12
_chemical_formula_sum   'Cs2 P8 Au2 O24'
_cell_volume   593.00165249
_cell_formula_units_Z   2
loop_
 _symmetry_equiv_pos_site_id
 _symmetry_equiv_pos_as_xyz
  1  'x, y, z'
loop_
 _atom_site_type_symbol
 _atom_site_label
 _atom_site_symmetry_multiplicity
 _atom_site_fract_x
 _atom_site_fract_y
 _atom_site_fract_z
 _atom_site_occupancy
  Cs  Cs0  1  0.002970  0.379017  0.830218  1
  Cs  Cs1  1  0.502970  0.620983  0.169782  1
  P  P2  1  0.883208  0.950861  0.446701  1
  P  P3  1  0.817297  0.789786  0.126464  1
  P  P4  1  0.383208  0.049139  0.553299  1
  P  P5  1  0.179286  0.859625  0.093810  1
  P  P6  1  0.089462  0.960600  0.430165  1
  P  P7  1  0.589462  0.039400  0.569835  1
  P  P8  1  0.679286  0.140375  0.906190  1
  P  P9  1  0.317297  0.210214  0.873536  1
  Au  Au10  1  0.236252  0.504438  0.488894  1
  Au  Au11  1  0.736252  0.495562  0.511106  1
  O  O12  1  0.150483  0.758509  0.547135  1
  O  O13  1  0.087854  0.192873  0.486165  1
  O  O14  1  0.617953  0.999586  0.782393  1
  O  O15  1  0.986872  0.838161  0.436061  1
  O  O16  1  0.884400  0.177739  0.510545  1
  O  O17  1  0.847021  0.993284  0.238683  1
  O  O18  1  0.117953  0.000414  0.217607  1
  O  O19  1  0.626674  0.160685  0.070251  1
  O  O20  1  0.126674  0.839315  0.929749  1
  O  O21  1  0.236650  0.360474  0.764026  1
  O  O22  1  0.384400  0.822261  0.489455  1
  O  O23  1  0.587854  0.807127  0.513835  1
  O  O24  1  0.650483  0.241491  0.452865  1
  O  O25  1  0.486872  0.161839  0.563939  1
  O  O26  1  0.268290  0.041006  0.050494  1
  O  O27  1  0.898741  0.666759  0.070677  1
  O  O28  1  0.718390  0.379199  0.786209  1
  O  O29  1  0.768290  0.958994  0.949506  1
  O  O30  1  0.398741  0.333241  0.929323  1
  O  O31  1  0.827960  0.739342  0.569901  1
  O  O32  1  0.327960  0.260658  0.430099  1
  O  O33  1  0.347021  0.006716  0.761317  1
  O  O34  1  0.736650  0.639526  0.235974  1
  O  O35  1  0.218390  0.620801  0.213791  1
