# generated using pymatgen
data_Mg2Ta3Co9P7
_symmetry_space_group_name_H-M   'P 1'
_cell_length_a   3.58972900
_cell_length_b   9.22114800
_cell_length_c   9.22114700
_cell_angle_alpha   119.99998660
_cell_angle_beta   90.00000000
_cell_angle_gamma   90.00000000
_symmetry_Int_Tables_number   1
_chemical_formula_structural   Mg2Ta3Co9P7
_chemical_formula_sum   'Mg2 Ta3 Co9 P7'
_cell_volume   264.33963862
_cell_formula_units_Z   1
loop_
 _symmetry_equiv_pos_site_id
 _symmetry_equiv_pos_as_xyz
  1  'x, y, z'
loop_
 _atom_site_type_symbol
 _atom_site_label
 _atom_site_symmetry_multiplicity
 _atom_site_fract_x
 _atom_site_fract_y
 _atom_site_fract_z
 _atom_site_occupancy
  Mg  Mg0  1  0.000000  0.666667  0.333333  1
  Mg  Mg1  1  0.500000  0.333333  0.666667  1
  Ta  Ta2  1  0.500000  0.771360  0.897777  1
  Ta  Ta3  1  0.500000  0.126417  0.228640  1
  Ta  Ta4  1  0.500000  0.102223  0.873583  1
  Co  Co5  1  0.000000  0.566318  0.931134  1
  Co  Co6  1  0.000000  0.364816  0.433682  1
  Co  Co7  1  0.000000  0.068866  0.635184  1
  Co  Co8  1  0.500000  0.944321  0.388426  1
  Co  Co9  1  0.500000  0.444103  0.055679  1
  Co  Co10  1  0.500000  0.611574  0.555897  1
  Co  Co11  1  0.000000  0.878154  0.160571  1
  Co  Co12  1  0.000000  0.282417  0.121846  1
  Co  Co13  1  0.000000  0.839429  0.717583  1
  P  P14  1  0.500000  0.710132  0.134752  1
  P  P15  1  0.500000  0.424620  0.289868  1
  P  P16  1  0.500000  0.865248  0.575380  1
  P  P17  1  0.000000  0.000000  0.000000  1
  P  P18  1  0.000000  0.575238  0.689436  1
  P  P19  1  0.000000  0.114198  0.424762  1
  P  P20  1  0.000000  0.310564  0.885802  1
