# generated using pymatgen
data_Na6Ce2O7
_symmetry_space_group_name_H-M   'P 1'
_cell_length_a   6.79766290
_cell_length_b   6.79779365
_cell_length_c   11.44680169
_cell_angle_alpha   80.85604835
_cell_angle_beta   80.85831359
_cell_angle_gamma   59.40511564
_symmetry_Int_Tables_number   1
_chemical_formula_structural   Na6Ce2O7
_chemical_formula_sum   'Na12 Ce4 O14'
_cell_volume   447.62747637
_cell_formula_units_Z   2
loop_
 _symmetry_equiv_pos_site_id
 _symmetry_equiv_pos_as_xyz
  1  'x, y, z'
loop_
 _atom_site_type_symbol
 _atom_site_label
 _atom_site_symmetry_multiplicity
 _atom_site_fract_x
 _atom_site_fract_y
 _atom_site_fract_z
 _atom_site_occupancy
  Na  Na0  1  0.536544  0.325527  0.113509  1
  Na  Na1  1  0.079013  0.788022  0.095888  1
  Na  Na2  1  0.325527  0.536542  0.613506  1
  Na  Na3  1  0.787992  0.079039  0.595886  1
  Na  Na4  1  0.674200  0.922125  0.385376  1
  Na  Na5  1  0.922112  0.674214  0.885380  1
  Na  Na6  1  0.077888  0.325786  0.114620  1
  Na  Na7  1  0.325800  0.077875  0.614624  1
  Na  Na8  1  0.212008  0.920961  0.404114  1
  Na  Na9  1  0.674473  0.463458  0.386494  1
  Na  Na10  1  0.920987  0.211978  0.904112  1
  Na  Na11  1  0.463456  0.674473  0.886491  1
  Ce  Ce12  1  0.192917  0.440121  0.365207  1
  Ce  Ce13  1  0.440146  0.192908  0.865212  1
  Ce  Ce14  1  0.559854  0.807092  0.134788  1
  Ce  Ce15  1  0.807083  0.559879  0.634793  1
  O  O16  1  0.480578  0.269162  0.468055  1
  O  O17  1  0.269176  0.480557  0.968053  1
  O  O18  1  0.717433  0.998857  0.000805  1
  O  O19  1  0.878737  0.628740  0.249214  1
  O  O20  1  0.371255  0.121270  0.250783  1
  O  O21  1  0.998863  0.717391  0.500795  1
  O  O22  1  0.001137  0.282609  0.499205  1
  O  O23  1  0.628745  0.878730  0.749217  1
  O  O24  1  0.121263  0.371260  0.750786  1
  O  O25  1  0.282567  0.001143  0.999195  1
  O  O26  1  0.730824  0.519443  0.031947  1
  O  O27  1  0.357067  0.642910  0.250003  1
  O  O28  1  0.519422  0.730838  0.531945  1
  O  O29  1  0.642933  0.357090  0.749997  1
