# generated using pymatgen
data_Gd3ScMnC6
_symmetry_space_group_name_H-M   'P 1'
_cell_length_a   8.35628000
_cell_length_b   8.35627994
_cell_length_c   5.20772500
_cell_angle_alpha   90.00000000
_cell_angle_beta   90.00000000
_cell_angle_gamma   119.99998229
_symmetry_Int_Tables_number   1
_chemical_formula_structural   Gd3ScMnC6
_chemical_formula_sum   'Gd6 Sc2 Mn2 C12'
_cell_volume   314.92324393
_cell_formula_units_Z   2
loop_
 _symmetry_equiv_pos_site_id
 _symmetry_equiv_pos_as_xyz
  1  'x, y, z'
loop_
 _atom_site_type_symbol
 _atom_site_label
 _atom_site_symmetry_multiplicity
 _atom_site_fract_x
 _atom_site_fract_y
 _atom_site_fract_z
 _atom_site_occupancy
  Gd  Gd0  1  0.614569  0.676220  0.750000  1
  Gd  Gd1  1  0.938350  0.614569  0.250000  1
  Gd  Gd2  1  0.676220  0.061650  0.250000  1
  Gd  Gd3  1  0.323780  0.938350  0.750000  1
  Gd  Gd4  1  0.061650  0.385431  0.750000  1
  Gd  Gd5  1  0.385431  0.323780  0.250000  1
  Sc  Sc6  1  0.000000  0.000000  0.500000  1
  Sc  Sc7  1  0.000000  0.000000  0.000000  1
  Mn  Mn8  1  0.666667  0.333333  0.750000  1
  Mn  Mn9  1  0.333333  0.666667  0.250000  1
  C  C10  1  0.965512  0.753074  0.750000  1
  C  C11  1  0.212439  0.965512  0.250000  1
  C  C12  1  0.753074  0.787561  0.250000  1
  C  C13  1  0.246926  0.212439  0.750000  1
  C  C14  1  0.787561  0.034488  0.750000  1
  C  C15  1  0.034488  0.246926  0.250000  1
  C  C16  1  0.858849  0.566130  0.750000  1
  C  C17  1  0.292719  0.858849  0.250000  1
  C  C18  1  0.566130  0.707281  0.250000  1
  C  C19  1  0.433870  0.292719  0.750000  1
  C  C20  1  0.141151  0.433870  0.250000  1
  C  C21  1  0.707281  0.141151  0.750000  1
