# generated using pymatgen
data_ZrSc5H18
_symmetry_space_group_name_H-M   'P 1'
_cell_length_a   5.82823100
_cell_length_b   5.82809508
_cell_length_c   6.08265012
_cell_angle_alpha   90.15601510
_cell_angle_beta   89.99893925
_cell_angle_gamma   119.99981503
_symmetry_Int_Tables_number   1
_chemical_formula_structural   ZrSc5H18
_chemical_formula_sum   'Zr1 Sc5 H18'
_cell_volume   178.93097542
_cell_formula_units_Z   1
loop_
 _symmetry_equiv_pos_site_id
 _symmetry_equiv_pos_as_xyz
  1  'x, y, z'
loop_
 _atom_site_type_symbol
 _atom_site_label
 _atom_site_symmetry_multiplicity
 _atom_site_fract_x
 _atom_site_fract_y
 _atom_site_fract_z
 _atom_site_occupancy
  Zr  Zr0  1  0.334239  0.000018  0.249999  1
  Sc  Sc1  1  0.665976  0.999969  0.749996  1
  Sc  Sc2  1  0.335425  0.337098  0.749408  1
  Sc  Sc3  1  0.998290  0.662913  0.750615  1
  Sc  Sc4  1  0.664238  0.664554  0.249853  1
  Sc  Sc5  1  0.999702  0.335472  0.250148  1
  H  H6  1  0.322577  0.973059  0.909003  1
  H  H7  1  0.650442  0.675918  0.910579  1
  H  H8  1  0.025143  0.347531  0.910748  1
  H  H9  1  0.323053  0.339733  0.405444  1
  H  H10  1  0.031619  0.682135  0.409715  1
  H  H11  1  0.645061  0.974242  0.407178  1
  H  H12  1  0.670826  0.025753  0.092823  1
  H  H13  1  0.349478  0.317868  0.090290  1
  H  H14  1  0.983310  0.660264  0.094562  1
  H  H15  1  0.677607  0.652462  0.589257  1
  H  H16  1  0.974522  0.324079  0.589417  1
  H  H17  1  0.349517  0.026937  0.590990  1
  H  H18  1  0.000380  0.999992  0.749997  1
  H  H19  1  0.996612  0.000008  0.249999  1
  H  H20  1  0.666546  0.333268  0.801081  1
  H  H21  1  0.668686  0.335210  0.307970  1
  H  H22  1  0.333480  0.664803  0.192014  1
  H  H23  1  0.333273  0.666719  0.698917  1
