# generated using pymatgen
data_Sc2VOs3
_symmetry_space_group_name_H-M   'P 1'
_cell_length_a   5.31378200
_cell_length_b   5.31378232
_cell_length_c   8.17227000
_cell_angle_alpha   90.00000000
_cell_angle_beta   90.00000000
_cell_angle_gamma   120.00001043
_symmetry_Int_Tables_number   1
_chemical_formula_structural   Sc2VOs3
_chemical_formula_sum   'Sc4 V2 Os6'
_cell_volume   199.83924762
_cell_formula_units_Z   2
loop_
 _symmetry_equiv_pos_site_id
 _symmetry_equiv_pos_as_xyz
  1  'x, y, z'
loop_
 _atom_site_type_symbol
 _atom_site_label
 _atom_site_symmetry_multiplicity
 _atom_site_fract_x
 _atom_site_fract_y
 _atom_site_fract_z
 _atom_site_occupancy
  Sc  Sc0  1  0.333333  0.666667  0.435478  1
  Sc  Sc1  1  0.666667  0.333333  0.564522  1
  Sc  Sc2  1  0.666667  0.333333  0.935478  1
  Sc  Sc3  1  0.333333  0.666667  0.064522  1
  V  V4  1  0.000000  0.000000  0.000000  1
  V  V5  1  0.000000  0.000000  0.500000  1
  Os  Os6  1  0.170867  0.341733  0.750000  1
  Os  Os7  1  0.170867  0.829133  0.750000  1
  Os  Os8  1  0.341733  0.170867  0.250000  1
  Os  Os9  1  0.829133  0.658267  0.250000  1
  Os  Os10  1  0.658267  0.829133  0.750000  1
  Os  Os11  1  0.829133  0.170867  0.250000  1
