# generated using pymatgen
data_TbCe4Lu11(CdRu)4
_symmetry_space_group_name_H-M   'P 1'
_cell_length_a   9.51999604
_cell_length_b   9.49865354
_cell_length_c   9.49865467
_cell_angle_alpha   59.90963347
_cell_angle_beta   59.92565309
_cell_angle_gamma   59.92565014
_symmetry_Int_Tables_number   1
_chemical_formula_structural   TbCe4Lu11(CdRu)4
_chemical_formula_sum   'Tb1 Ce4 Lu11 Cd4 Ru4'
_cell_volume   606.26171195
_cell_formula_units_Z   1
loop_
 _symmetry_equiv_pos_site_id
 _symmetry_equiv_pos_as_xyz
  1  'x, y, z'
loop_
 _atom_site_type_symbol
 _atom_site_label
 _atom_site_symmetry_multiplicity
 _atom_site_fract_x
 _atom_site_fract_y
 _atom_site_fract_z
 _atom_site_occupancy
  Tb  Tb0  1  0.812163  0.187837  0.187837  1
  Ce  Ce1  1  0.346940  0.348604  0.957518  1
  Ce  Ce2  1  0.346940  0.957518  0.348604  1
  Ce  Ce3  1  0.959099  0.347449  0.347449  1
  Ce  Ce4  1  0.346004  0.347449  0.347449  1
  Lu  Lu5  1  0.563464  0.564899  0.934848  1
  Lu  Lu6  1  0.936790  0.564899  0.934848  1
  Lu  Lu7  1  0.562928  0.937072  0.937072  1
  Lu  Lu8  1  0.936790  0.934848  0.564899  1
  Lu  Lu9  1  0.563464  0.934848  0.564899  1
  Lu  Lu10  1  0.936250  0.563750  0.563750  1
  Lu  Lu11  1  0.189964  0.187083  0.810971  1
  Lu  Lu12  1  0.811982  0.187083  0.810971  1
  Lu  Lu13  1  0.187064  0.812936  0.812935  1
  Lu  Lu14  1  0.811982  0.810972  0.187083  1
  Lu  Lu15  1  0.189963  0.810971  0.187082  1
  Cd  Cd16  1  0.581953  0.582316  0.253778  1
  Cd  Cd17  1  0.581953  0.253778  0.582316  1
  Cd  Cd18  1  0.254868  0.581498  0.581498  1
  Cd  Cd19  1  0.582137  0.581498  0.581498  1
  Ru  Ru20  1  0.142078  0.146888  0.568955  1
  Ru  Ru21  1  0.142078  0.568955  0.146888  1
  Ru  Ru22  1  0.567742  0.143426  0.143426  1
  Ru  Ru23  1  0.145405  0.143426  0.143426  1
