# generated using pymatgen
data_Yb11DyZn24
_symmetry_space_group_name_H-M   'P 1'
_cell_length_a   4.56709800
_cell_length_b   7.47979604
_cell_length_c   21.62667504
_cell_angle_alpha   89.99088825
_cell_angle_beta   90.00000000
_cell_angle_gamma   90.00000000
_symmetry_Int_Tables_number   1
_chemical_formula_structural   Yb11DyZn24
_chemical_formula_sum   'Yb11 Dy1 Zn24'
_cell_volume   738.78800450
_cell_formula_units_Z   1
loop_
 _symmetry_equiv_pos_site_id
 _symmetry_equiv_pos_as_xyz
  1  'x, y, z'
loop_
 _atom_site_type_symbol
 _atom_site_label
 _atom_site_symmetry_multiplicity
 _atom_site_fract_x
 _atom_site_fract_y
 _atom_site_fract_z
 _atom_site_occupancy
  Yb  Yb0  1  0.250000  0.701100  0.000440  1
  Yb  Yb1  1  0.750000  0.298764  0.000830  1
  Yb  Yb2  1  0.750000  0.201192  0.499589  1
  Yb  Yb3  1  0.250000  0.799320  0.499932  1
  Yb  Yb4  1  0.250000  0.798922  0.166684  1
  Yb  Yb5  1  0.750000  0.202422  0.833342  1
  Yb  Yb6  1  0.750000  0.298317  0.333353  1
  Yb  Yb7  1  0.250000  0.701453  0.666198  1
  Yb  Yb8  1  0.250000  0.701245  0.333275  1
  Yb  Yb9  1  0.750000  0.299234  0.665910  1
  Yb  Yb10  1  0.750000  0.200714  0.167163  1
  Dy  Dy11  1  0.250000  0.793861  0.833312  1
  Zn  Zn12  1  0.250000  0.415758  0.104069  1
  Zn  Zn13  1  0.750000  0.585532  0.895955  1
  Zn  Zn14  1  0.750000  0.914928  0.396230  1
  Zn  Zn15  1  0.250000  0.085774  0.603003  1
  Zn  Zn16  1  0.250000  0.413767  0.230686  1
  Zn  Zn17  1  0.750000  0.586875  0.770471  1
  Zn  Zn18  1  0.750000  0.913527  0.270119  1
  Zn  Zn19  1  0.250000  0.083613  0.730783  1
  Zn  Zn20  1  0.250000  0.415171  0.436322  1
  Zn  Zn21  1  0.750000  0.585937  0.563423  1
  Zn  Zn22  1  0.750000  0.916032  0.063154  1
  Zn  Zn23  1  0.250000  0.082249  0.936197  1
  Zn  Zn24  1  0.250000  0.086305  0.063934  1
  Zn  Zn25  1  0.750000  0.912282  0.934832  1
  Zn  Zn26  1  0.750000  0.585124  0.436257  1
  Zn  Zn27  1  0.250000  0.415317  0.562853  1
  Zn  Zn28  1  0.250000  0.084460  0.270503  1
  Zn  Zn29  1  0.750000  0.913587  0.731476  1
  Zn  Zn30  1  0.750000  0.583778  0.230042  1
  Zn  Zn31  1  0.250000  0.418451  0.769139  1
  Zn  Zn32  1  0.250000  0.085811  0.396600  1
  Zn  Zn33  1  0.750000  0.915486  0.603186  1
  Zn  Zn34  1  0.750000  0.586458  0.102883  1
  Zn  Zn35  1  0.250000  0.417236  0.897853  1
