# generated using pymatgen
data_LaU3(Al8Pt3)3
_symmetry_space_group_name_H-M   'P 1'
_cell_length_a   7.58638423
_cell_length_b   7.60056473
_cell_length_c   13.22954358
_cell_angle_alpha   84.26212601
_cell_angle_beta   78.93727252
_cell_angle_gamma   59.90713437
_symmetry_Int_Tables_number   1
_chemical_formula_structural   LaU3(Al8Pt3)3
_chemical_formula_sum   'La1 U3 Al24 Pt9'
_cell_volume   647.73690059
_cell_formula_units_Z   1
loop_
 _symmetry_equiv_pos_site_id
 _symmetry_equiv_pos_as_xyz
  1  'x, y, z'
loop_
 _atom_site_type_symbol
 _atom_site_label
 _atom_site_symmetry_multiplicity
 _atom_site_fract_x
 _atom_site_fract_y
 _atom_site_fract_z
 _atom_site_occupancy
  La  La0  1  0.394293  0.167332  0.809305  1
  U  U1  1  0.606030  0.831368  0.195597  1
  U  U2  1  0.735662  0.498363  0.803304  1
  U  U3  1  0.263838  0.502098  0.196053  1
  Al  Al4  1  0.685390  0.829356  0.948965  1
  Al  Al5  1  0.317645  0.165226  0.058125  1
  Al  Al6  1  0.146000  0.833858  0.560325  1
  Al  Al7  1  0.853676  0.166489  0.439115  1
  Al  Al8  1  0.481734  0.166912  0.557424  1
  Al  Al9  1  0.518287  0.833936  0.441624  1
  Al  Al10  1  0.215489  0.165795  0.330104  1
  Al  Al11  1  0.785369  0.834484  0.667209  1
  Al  Al12  1  0.436770  0.507712  0.667618  1
  Al  Al13  1  0.563073  0.493085  0.329823  1
  Al  Al14  1  0.111207  0.157320  0.666544  1
  Al  Al15  1  0.889458  0.843625  0.331270  1
  Al  Al16  1  0.353867  0.501452  0.948352  1
  Al  Al17  1  0.645253  0.502076  0.053582  1
  Al  Al18  1  0.011336  0.169229  0.954617  1
  Al  Al19  1  0.985166  0.829520  0.048587  1
  Al  Al20  1  0.186207  0.500179  0.441759  1
  Al  Al21  1  0.814308  0.499627  0.557270  1
  Al  Al22  1  0.735074  0.164971  0.181908  1
  Al  Al23  1  0.265712  0.830274  0.817178  1
  Al  Al24  1  0.056118  0.635447  0.816141  1
  Al  Al25  1  0.938306  0.368752  0.183028  1
  Al  Al26  1  0.860127  0.041069  0.817148  1
  Al  Al27  1  0.143607  0.959250  0.182543  1
  Pt  Pt28  1  0.119660  0.493508  0.637692  1
  Pt  Pt29  1  0.879442  0.508457  0.360174  1
  Pt  Pt30  1  0.659754  0.168577  0.000161  1
  Pt  Pt31  1  0.338741  0.832188  0.000234  1
  Pt  Pt32  1  0.537685  0.168371  0.360892  1
  Pt  Pt33  1  0.462602  0.831520  0.637517  1
  Pt  Pt34  1  0.781044  0.173891  0.636615  1
  Pt  Pt35  1  0.219760  0.826622  0.362159  1
  Pt  Pt36  1  0.002311  0.498061  0.000038  1
