# generated using pymatgen
data_YHo5Al24GaOs7
_symmetry_space_group_name_H-M   'P 1'
_cell_length_a   8.84830403
_cell_length_b   8.85026593
_cell_length_c   9.53140710
_cell_angle_alpha   90.08688732
_cell_angle_beta   89.87542936
_cell_angle_gamma   119.82451986
_symmetry_Int_Tables_number   1
_chemical_formula_structural   YHo5Al24GaOs7
_chemical_formula_sum   'Y1 Ho5 Al24 Ga1 Os7'
_cell_volume   647.54232077
_cell_formula_units_Z   1
loop_
 _symmetry_equiv_pos_site_id
 _symmetry_equiv_pos_as_xyz
  1  'x, y, z'
loop_
 _atom_site_type_symbol
 _atom_site_label
 _atom_site_symmetry_multiplicity
 _atom_site_fract_x
 _atom_site_fract_y
 _atom_site_fract_z
 _atom_site_occupancy
  Y  Y0  1  0.191648  0.384810  0.245822  1
  Ho  Ho1  1  0.808362  0.614074  0.753856  1
  Ho  Ho2  1  0.614369  0.808670  0.246196  1
  Ho  Ho3  1  0.385900  0.191652  0.753808  1
  Ho  Ho4  1  0.194820  0.805548  0.255428  1
  Ho  Ho5  1  0.805207  0.194845  0.744604  1
  Al  Al6  1  0.327582  0.673090  0.022042  1
  Al  Al7  1  0.672572  0.327438  0.977656  1
  Al  Al8  1  0.666024  0.334107  0.518682  1
  Al  Al9  1  0.334189  0.666344  0.481559  1
  Al  Al10  1  0.162630  0.325539  0.572437  1
  Al  Al11  1  0.837412  0.674429  0.427963  1
  Al  Al12  1  0.674484  0.837345  0.572094  1
  Al  Al13  1  0.852256  0.678709  0.081785  1
  Al  Al14  1  0.325656  0.162468  0.428108  1
  Al  Al15  1  0.147675  0.321206  0.917839  1
  Al  Al16  1  0.162880  0.836987  0.576212  1
  Al  Al17  1  0.321349  0.147487  0.081604  1
  Al  Al18  1  0.836766  0.162778  0.423997  1
  Al  Al19  1  0.678739  0.852263  0.918173  1
  Al  Al20  1  0.836474  0.162978  0.076996  1
  Al  Al21  1  0.163165  0.836799  0.922771  1
  Al  Al22  1  0.561778  0.120934  0.249490  1
  Al  Al23  1  0.438180  0.878991  0.750506  1
  Al  Al24  1  0.878560  0.438362  0.249528  1
  Al  Al25  1  0.121021  0.561813  0.750486  1
  Al  Al26  1  0.565737  0.434929  0.257886  1
  Al  Al27  1  0.434756  0.565203  0.742152  1
  Al  Al28  1  0.998385  0.000350  0.250727  1
  Al  Al29  1  0.001180  0.998740  0.749260  1
  Ga  Ga30  1  0.500283  0.500060  0.999860  1
  Os  Os31  1  0.500090  0.000141  0.000018  1
  Os  Os32  1  0.999622  0.500215  0.999532  1
  Os  Os33  1  0.500141  0.000207  0.500022  1
  Os  Os34  1  0.999616  0.500231  0.500535  1
  Os  Os35  1  0.500457  0.500152  0.500409  1
  Os  Os36  1  0.000012  0.000008  0.000048  1
  Os  Os37  1  0.000023  0.000097  0.499910  1
