# generated using pymatgen
data_Pr3Y7Cd3Os
_symmetry_space_group_name_H-M   'P 1'
_cell_length_a   9.78170600
_cell_length_b   9.78170610
_cell_length_c   9.96614400
_cell_angle_alpha   90.00000000
_cell_angle_beta   90.00000000
_cell_angle_gamma   119.99999967
_symmetry_Int_Tables_number   1
_chemical_formula_structural   Pr3Y7Cd3Os
_chemical_formula_sum   'Pr6 Y14 Cd6 Os2'
_cell_volume   825.82306104
_cell_formula_units_Z   2
loop_
 _symmetry_equiv_pos_site_id
 _symmetry_equiv_pos_as_xyz
  1  'x, y, z'
loop_
 _atom_site_type_symbol
 _atom_site_label
 _atom_site_symmetry_multiplicity
 _atom_site_fract_x
 _atom_site_fract_y
 _atom_site_fract_z
 _atom_site_occupancy
  Pr  Pr0  1  0.539456  0.460544  0.250000  1
  Pr  Pr1  1  0.539456  0.078912  0.250000  1
  Pr  Pr2  1  0.921088  0.460544  0.250000  1
  Pr  Pr3  1  0.460544  0.539456  0.750000  1
  Pr  Pr4  1  0.460544  0.921088  0.750000  1
  Pr  Pr5  1  0.078912  0.539456  0.750000  1
  Y  Y6  1  0.000000  0.000000  0.500000  1
  Y  Y7  1  0.000000  0.000000  0.000000  1
  Y  Y8  1  0.209901  0.790099  0.438500  1
  Y  Y9  1  0.209901  0.419802  0.438500  1
  Y  Y10  1  0.580198  0.790099  0.438500  1
  Y  Y11  1  0.790099  0.209901  0.561500  1
  Y  Y12  1  0.790099  0.580198  0.561500  1
  Y  Y13  1  0.419802  0.209901  0.561500  1
  Y  Y14  1  0.790099  0.209901  0.938500  1
  Y  Y15  1  0.790099  0.580198  0.938500  1
  Y  Y16  1  0.419802  0.209901  0.938500  1
  Y  Y17  1  0.209901  0.790099  0.061500  1
  Y  Y18  1  0.209901  0.419802  0.061500  1
  Y  Y19  1  0.580198  0.790099  0.061500  1
  Cd  Cd20  1  0.887646  0.112354  0.250000  1
  Cd  Cd21  1  0.887646  0.775293  0.250000  1
  Cd  Cd22  1  0.224707  0.112354  0.250000  1
  Cd  Cd23  1  0.112354  0.887646  0.750000  1
  Cd  Cd24  1  0.112354  0.224707  0.750000  1
  Cd  Cd25  1  0.775293  0.887646  0.750000  1
  Os  Os26  1  0.333333  0.666667  0.250000  1
  Os  Os27  1  0.666667  0.333333  0.750000  1
