# generated using pymatgen
data_Zr16Co4Tc3Pt
_symmetry_space_group_name_H-M   'P 1'
_cell_length_a   8.73602359
_cell_length_b   8.70151828
_cell_length_c   8.70151800
_cell_angle_alpha   60.00000108
_cell_angle_beta   60.13057272
_cell_angle_gamma   60.13057321
_symmetry_Int_Tables_number   1
_chemical_formula_structural   Zr16Co4Tc3Pt
_chemical_formula_sum   'Zr16 Co4 Tc3 Pt1'
_cell_volume   468.64412631
_cell_formula_units_Z   1
loop_
 _symmetry_equiv_pos_site_id
 _symmetry_equiv_pos_as_xyz
  1  'x, y, z'
loop_
 _atom_site_type_symbol
 _atom_site_label
 _atom_site_symmetry_multiplicity
 _atom_site_fract_x
 _atom_site_fract_y
 _atom_site_fract_z
 _atom_site_occupancy
  Zr  Zr0  1  0.051017  0.649661  0.649661  1
  Zr  Zr1  1  0.648714  0.050718  0.650284  1
  Zr  Zr2  1  0.648714  0.650284  0.050718  1
  Zr  Zr3  1  0.648714  0.650284  0.650284  1
  Zr  Zr4  1  0.797623  0.800237  0.201070  1
  Zr  Zr5  1  0.201766  0.202040  0.798097  1
  Zr  Zr6  1  0.797623  0.201070  0.800237  1
  Zr  Zr7  1  0.201766  0.798097  0.202040  1
  Zr  Zr8  1  0.201766  0.798097  0.798097  1
  Zr  Zr9  1  0.797623  0.201070  0.201070  1
  Zr  Zr10  1  0.435837  0.434938  0.064613  1
  Zr  Zr11  1  0.070268  0.058992  0.435370  1
  Zr  Zr12  1  0.435837  0.064613  0.434938  1
  Zr  Zr13  1  0.070268  0.435370  0.058992  1
  Zr  Zr14  1  0.070268  0.435370  0.435370  1
  Zr  Zr15  1  0.435837  0.064613  0.064613  1
  Co  Co16  1  0.419547  0.860151  0.860151  1
  Co  Co17  1  0.858979  0.420608  0.860206  1
  Co  Co18  1  0.858979  0.860206  0.420608  1
  Co  Co19  1  0.858979  0.860206  0.860206  1
  Tc  Tc20  1  0.415102  0.747781  0.418558  1
  Tc  Tc21  1  0.415102  0.418558  0.747781  1
  Tc  Tc22  1  0.415102  0.418558  0.418558  1
  Pt  Pt23  1  0.744572  0.418476  0.418476  1
