# generated using pymatgen
data_Li4Nd2ThSn4
_symmetry_space_group_name_H-M   'P 1'
_cell_length_a   8.81474774
_cell_length_b   8.81474674
_cell_length_c   8.81474848
_cell_angle_alpha   149.00119645
_cell_angle_beta   131.61752027
_cell_angle_gamma   58.57829606
_symmetry_Int_Tables_number   1
_chemical_formula_structural   Li4Nd2ThSn4
_chemical_formula_sum   'Li4 Nd2 Th1 Sn4'
_cell_volume   261.65184070
_cell_formula_units_Z   1
loop_
 _symmetry_equiv_pos_site_id
 _symmetry_equiv_pos_as_xyz
  1  'x, y, z'
loop_
 _atom_site_type_symbol
 _atom_site_label
 _atom_site_symmetry_multiplicity
 _atom_site_fract_x
 _atom_site_fract_y
 _atom_site_fract_z
 _atom_site_occupancy
  Li  Li0  1  0.640996  0.328114  0.312882  1
  Li  Li1  1  0.360259  0.671349  0.688911  1
  Li  Li2  1  0.015230  0.328114  0.687118  1
  Li  Li3  1  0.982439  0.671349  0.311089  1
  Nd  Nd4  1  0.628653  0.128653  0.500000  1
  Nd  Nd5  1  0.000718  0.000718  0.000000  1
  Th  Th6  1  0.371791  0.871791  0.500000  1
  Sn  Sn7  1  0.216668  0.216668  0.000000  1
  Sn  Sn8  1  0.786113  0.786113  0.000000  1
  Sn  Sn9  1  0.696960  0.498566  0.198396  1
  Sn  Sn10  1  0.300170  0.498566  0.801604  1
