# generated using pymatgen
data_ErU2(GaRh)3
_symmetry_space_group_name_H-M   'P 1'
_cell_length_a   7.13189866
_cell_length_b   7.13189762
_cell_length_c   3.89812000
_cell_angle_alpha   90.00000000
_cell_angle_beta   90.00000000
_cell_angle_gamma   120.99094269
_symmetry_Int_Tables_number   1
_chemical_formula_structural   ErU2(GaRh)3
_chemical_formula_sum   'Er1 U2 Ga3 Rh3'
_cell_volume   169.97001277
_cell_formula_units_Z   1
loop_
 _symmetry_equiv_pos_site_id
 _symmetry_equiv_pos_as_xyz
  1  'x, y, z'
loop_
 _atom_site_type_symbol
 _atom_site_label
 _atom_site_symmetry_multiplicity
 _atom_site_fract_x
 _atom_site_fract_y
 _atom_site_fract_z
 _atom_site_occupancy
  Er  Er0  1  0.411701  0.411701  0.500000  1
  U  U1  1  0.585261  0.003956  0.500000  1
  U  U2  1  0.003956  0.585261  0.500000  1
  Ga  Ga3  1  0.739724  0.739724  0.000000  1
  Ga  Ga4  1  0.245914  0.012286  0.000000  1
  Ga  Ga5  1  0.012286  0.245914  0.000000  1
  Rh  Rh6  1  0.690342  0.330640  0.000000  1
  Rh  Rh7  1  0.330640  0.690342  0.000000  1
  Rh  Rh8  1  0.980176  0.980176  0.500000  1
