# generated using pymatgen
data_Hf3Zr4P3S
_symmetry_space_group_name_H-M   'P 1'
_cell_length_a   8.09477321
_cell_length_b   8.09477329
_cell_length_c   14.81578786
_cell_angle_alpha   75.99625251
_cell_angle_beta   75.99625262
_cell_angle_gamma   25.31031049
_symmetry_Int_Tables_number   1
_chemical_formula_structural   Hf3Zr4P3S
_chemical_formula_sum   'Hf6 Zr8 P6 S2'
_cell_volume   402.07413258
_cell_formula_units_Z   2
loop_
 _symmetry_equiv_pos_site_id
 _symmetry_equiv_pos_as_xyz
  1  'x, y, z'
loop_
 _atom_site_type_symbol
 _atom_site_label
 _atom_site_symmetry_multiplicity
 _atom_site_fract_x
 _atom_site_fract_y
 _atom_site_fract_z
 _atom_site_occupancy
  Hf  Hf0  1  0.195252  0.195252  0.690977  1
  Hf  Hf1  1  0.804748  0.804748  0.309023  1
  Hf  Hf2  1  0.432571  0.432571  0.166923  1
  Hf  Hf3  1  0.567429  0.567429  0.833077  1
  Hf  Hf4  1  0.500000  0.500000  0.500000  1
  Hf  Hf5  1  0.000000  0.000000  0.000000  1
  Zr  Zr6  1  0.660579  0.660579  0.028639  1
  Zr  Zr7  1  0.339421  0.339421  0.971361  1
  Zr  Zr8  1  0.998143  0.998143  0.669676  1
  Zr  Zr9  1  0.001857  0.001857  0.330324  1
  Zr  Zr10  1  0.823890  0.823890  0.542560  1
  Zr  Zr11  1  0.176110  0.176110  0.457440  1
  Zr  Zr12  1  0.207479  0.207479  0.200525  1
  Zr  Zr13  1  0.792521  0.792521  0.799475  1
  P  P14  1  0.369928  0.369928  0.661780  1
  P  P15  1  0.630072  0.630072  0.338220  1
  P  P16  1  0.372151  0.372151  0.401845  1
  P  P17  1  0.627849  0.627849  0.598155  1
  P  P18  1  0.173089  0.173089  0.888805  1
  P  P19  1  0.826911  0.826911  0.111195  1
  S  S20  1  0.062304  0.062304  0.147808  1
  S  S21  1  0.937696  0.937696  0.852192  1
