# generated using pymatgen
data_U4MnCo2Si2Ni3
_symmetry_space_group_name_H-M   'P 1'
_cell_length_a   5.07494700
_cell_length_b   5.20124922
_cell_length_c   7.59763800
_cell_angle_alpha   90.00000000
_cell_angle_beta   90.00000000
_cell_angle_gamma   119.19991582
_symmetry_Int_Tables_number   1
_chemical_formula_structural   U4MnCo2Si2Ni3
_chemical_formula_sum   'U4 Mn1 Co2 Si2 Ni3'
_cell_volume   175.06269334
_cell_formula_units_Z   1
loop_
 _symmetry_equiv_pos_site_id
 _symmetry_equiv_pos_as_xyz
  1  'x, y, z'
loop_
 _atom_site_type_symbol
 _atom_site_label
 _atom_site_symmetry_multiplicity
 _atom_site_fract_x
 _atom_site_fract_y
 _atom_site_fract_z
 _atom_site_occupancy
  U  U0  1  0.671455  0.342908  0.424276  1
  U  U1  1  0.328407  0.656813  0.556786  1
  U  U2  1  0.328407  0.656813  0.943214  1
  U  U3  1  0.671455  0.342908  0.075724  1
  Mn  Mn4  1  0.168099  0.336200  0.250000  1
  Co  Co5  1  0.169882  0.838418  0.250000  1
  Co  Co6  1  0.668535  0.838418  0.250000  1
  Si  Si7  1  0.000688  0.001377  0.001648  1
  Si  Si8  1  0.000688  0.001377  0.498352  1
  Ni  Ni9  1  0.826435  0.161020  0.750000  1
  Ni  Ni10  1  0.334586  0.161020  0.750000  1
  Ni  Ni11  1  0.831364  0.662727  0.750000  1
