# generated using pymatgen
data_Ca2Pu(PO5)2
_symmetry_space_group_name_H-M   'P 1'
_cell_length_a   5.41173435
_cell_length_b   6.10136997
_cell_length_c   6.81206121
_cell_angle_alpha   89.80911826
_cell_angle_beta   98.79222588
_cell_angle_gamma   107.95385689
_symmetry_Int_Tables_number   1
_chemical_formula_structural   Ca2Pu(PO5)2
_chemical_formula_sum   'Ca2 Pu1 P2 O10'
_cell_volume   211.23072916
_cell_formula_units_Z   1
loop_
 _symmetry_equiv_pos_site_id
 _symmetry_equiv_pos_as_xyz
  1  'x, y, z'
loop_
 _atom_site_type_symbol
 _atom_site_label
 _atom_site_symmetry_multiplicity
 _atom_site_fract_x
 _atom_site_fract_y
 _atom_site_fract_z
 _atom_site_occupancy
  Ca  Ca0  1  0.648107  0.391040  0.747944  1
  Ca  Ca1  1  0.351893  0.608960  0.252056  1
  Pu  Pu2  1  0.000000  0.000000  0.000000  1
  P  P3  1  0.347883  0.761773  0.759156  1
  P  P4  1  0.652117  0.238227  0.240844  1
  O  O5  1  0.387002  0.013467  0.716191  1
  O  O6  1  0.612998  0.986533  0.283809  1
  O  O7  1  0.327633  0.593417  0.587069  1
  O  O8  1  0.672367  0.406583  0.412931  1
  O  O9  1  0.584839  0.733901  0.918691  1
  O  O10  1  0.415161  0.266099  0.081309  1
  O  O11  1  0.097400  0.680188  0.866423  1
  O  O12  1  0.902600  0.319812  0.133577  1
  O  O13  1  0.935882  0.136929  0.773630  1
  O  O14  1  0.064118  0.863071  0.226370  1
