# generated using pymatgen
data_Hf5Nb5(ZnSn3)2
_symmetry_space_group_name_H-M   'P 1'
_cell_length_a   8.46865300
_cell_length_b   8.48657397
_cell_length_c   5.72355000
_cell_angle_alpha   90.00000000
_cell_angle_beta   90.00000000
_cell_angle_gamma   119.93016667
_symmetry_Int_Tables_number   1
_chemical_formula_structural   Hf5Nb5(ZnSn3)2
_chemical_formula_sum   'Hf5 Nb5 Zn2 Sn6'
_cell_volume   356.49055621
_cell_formula_units_Z   1
loop_
 _symmetry_equiv_pos_site_id
 _symmetry_equiv_pos_as_xyz
  1  'x, y, z'
loop_
 _atom_site_type_symbol
 _atom_site_label
 _atom_site_symmetry_multiplicity
 _atom_site_fract_x
 _atom_site_fract_y
 _atom_site_fract_z
 _atom_site_occupancy
  Hf  Hf0  1  0.267066  0.269283  0.750000  1
  Hf  Hf1  1  0.997782  0.730717  0.750000  1
  Hf  Hf2  1  0.996727  0.272240  0.250000  1
  Hf  Hf3  1  0.724487  0.727760  0.250000  1
  Hf  Hf4  1  0.736412  0.000000  0.750000  1
  Nb  Nb5  1  0.333770  0.666856  0.999767  1
  Nb  Nb6  1  0.666915  0.333144  0.500233  1
  Nb  Nb7  1  0.666915  0.333144  0.999767  1
  Nb  Nb8  1  0.333770  0.666856  0.500233  1
  Nb  Nb9  1  0.273544  0.000000  0.250000  1
  Zn  Zn10  1  0.004488  0.000000  0.010217  1
  Zn  Zn11  1  0.004488  0.000000  0.489783  1
  Sn  Sn12  1  0.609130  0.000000  0.250000  1
  Sn  Sn13  1  0.610451  0.610874  0.750000  1
  Sn  Sn14  1  0.999577  0.389126  0.750000  1
  Sn  Sn15  1  0.001938  0.617676  0.250000  1
  Sn  Sn16  1  0.384262  0.382324  0.250000  1
  Sn  Sn17  1  0.388279  0.000000  0.750000  1
