# generated using pymatgen
data_Tm2Lu2As6Rh7
_symmetry_space_group_name_H-M   'P 1'
_cell_length_a   7.23608425
_cell_length_b   7.23608484
_cell_length_c   7.22533477
_cell_angle_alpha   109.46756073
_cell_angle_beta   109.46756095
_cell_angle_gamma   109.53873188
_symmetry_Int_Tables_number   1
_chemical_formula_structural   Tm2Lu2As6Rh7
_chemical_formula_sum   'Tm2 Lu2 As6 Rh7'
_cell_volume   291.01819793
_cell_formula_units_Z   1
loop_
 _symmetry_equiv_pos_site_id
 _symmetry_equiv_pos_as_xyz
  1  'x, y, z'
loop_
 _atom_site_type_symbol
 _atom_site_label
 _atom_site_symmetry_multiplicity
 _atom_site_fract_x
 _atom_site_fract_y
 _atom_site_fract_z
 _atom_site_occupancy
  Tm  Tm0  1  0.500000  0.500000  0.500000  1
  Tm  Tm1  1  0.000000  0.000000  0.500000  1
  Lu  Lu2  1  0.000000  0.500000  0.000000  1
  Lu  Lu3  1  0.500000  0.000000  0.000000  1
  As  As4  1  0.683508  0.000475  0.683984  1
  As  As5  1  0.683505  0.683505  0.000000  1
  As  As6  1  0.316495  0.316495  0.000000  1
  As  As7  1  0.000475  0.683508  0.683984  1
  As  As8  1  0.999525  0.316492  0.316016  1
  As  As9  1  0.316492  0.999525  0.316016  1
  Rh  Rh10  1  0.750011  0.498694  0.248705  1
  Rh  Rh11  1  0.501306  0.249989  0.751295  1
  Rh  Rh12  1  0.750000  0.250000  0.500000  1
  Rh  Rh13  1  0.250000  0.750000  0.500000  1
  Rh  Rh14  1  0.249989  0.501306  0.751295  1
  Rh  Rh15  1  0.498694  0.750011  0.248705  1
  Rh  Rh16  1  0.000000  0.000000  0.000000  1
