# generated using pymatgen
data_SrLa2Er4FeBr12
_symmetry_space_group_name_H-M   'P 1'
_cell_length_a   9.40187238
_cell_length_b   9.31704827
_cell_length_c   9.15483010
_cell_angle_alpha   107.09780665
_cell_angle_beta   104.57313776
_cell_angle_gamma   105.86176243
_symmetry_Int_Tables_number   1
_chemical_formula_structural   SrLa2Er4FeBr12
_chemical_formula_sum   'Sr1 La2 Er4 Fe1 Br12'
_cell_volume   687.57409941
_cell_formula_units_Z   1
loop_
 _symmetry_equiv_pos_site_id
 _symmetry_equiv_pos_as_xyz
  1  'x, y, z'
loop_
 _atom_site_type_symbol
 _atom_site_label
 _atom_site_symmetry_multiplicity
 _atom_site_fract_x
 _atom_site_fract_y
 _atom_site_fract_z
 _atom_site_occupancy
  Sr  Sr0  1  0.500000  0.500000  0.500000  1
  La  La1  1  0.986255  0.908437  0.716121  1
  La  La2  1  0.013745  0.091563  0.283879  1
  Er  Er3  1  0.101150  0.311194  0.022766  1
  Er  Er4  1  0.303722  0.017787  0.096919  1
  Er  Er5  1  0.898850  0.688806  0.977234  1
  Er  Er6  1  0.696278  0.982213  0.903081  1
  Fe  Fe7  1  0.000000  0.000000  0.000000  1
  Br  Br8  1  0.562339  0.640438  0.866483  1
  Br  Br9  1  0.437661  0.359562  0.133517  1
  Br  Br10  1  0.336106  0.930070  0.789169  1
  Br  Br11  1  0.368813  0.138100  0.438958  1
  Br  Br12  1  0.915380  0.758967  0.304987  1
  Br  Br13  1  0.663894  0.069930  0.210831  1
  Br  Br14  1  0.084620  0.241033  0.695013  1
  Br  Br15  1  0.788263  0.324351  0.934571  1
  Br  Br16  1  0.211737  0.675649  0.065429  1
  Br  Br17  1  0.849208  0.540548  0.636803  1
  Br  Br18  1  0.150792  0.459452  0.363197  1
  Br  Br19  1  0.631187  0.861900  0.561042  1
