# generated using pymatgen
data_Nd12Ir3AuI12
_symmetry_space_group_name_H-M   'P 1'
_cell_length_a   10.93157544
_cell_length_b   10.93157636
_cell_length_c   10.93157701
_cell_angle_alpha   109.83961325
_cell_angle_beta   109.83961457
_cell_angle_gamma   109.83962388
_symmetry_Int_Tables_number   1
_chemical_formula_structural   Nd12Ir3AuI12
_chemical_formula_sum   'Nd12 Ir3 Au1 I12'
_cell_volume   991.64982694
_cell_formula_units_Z   1
loop_
 _symmetry_equiv_pos_site_id
 _symmetry_equiv_pos_as_xyz
  1  'x, y, z'
loop_
 _atom_site_type_symbol
 _atom_site_label
 _atom_site_symmetry_multiplicity
 _atom_site_fract_x
 _atom_site_fract_y
 _atom_site_fract_z
 _atom_site_occupancy
  Nd  Nd0  1  0.460382  0.488165  0.223787  1
  Nd  Nd1  1  0.750000  0.228544  0.271456  1
  Nd  Nd2  1  0.750000  0.020406  0.479594  1
  Nd  Nd3  1  0.223787  0.460382  0.488165  1
  Nd  Nd4  1  0.271456  0.750000  0.228544  1
  Nd  Nd5  1  0.039618  0.276213  0.011835  1
  Nd  Nd6  1  0.011835  0.039618  0.276213  1
  Nd  Nd7  1  0.479594  0.750000  0.020406  1
  Nd  Nd8  1  0.488165  0.223787  0.460382  1
  Nd  Nd9  1  0.020406  0.479594  0.750000  1
  Nd  Nd10  1  0.276213  0.011835  0.039618  1
  Nd  Nd11  1  0.228544  0.271456  0.750000  1
  Ir  Ir12  1  0.501191  0.998809  0.250000  1
  Ir  Ir13  1  0.998809  0.250000  0.501191  1
  Ir  Ir14  1  0.250000  0.501191  0.998809  1
  Au  Au15  1  0.250000  0.250000  0.250000  1
  I  I16  1  0.250000  0.760113  0.739887  1
  I  I17  1  0.515609  0.506872  0.756804  1
  I  I18  1  0.984391  0.743196  0.993128  1
  I  I19  1  0.739887  0.250000  0.760113  1
  I  I20  1  0.993128  0.984391  0.743196  1
  I  I21  1  0.250000  0.993040  0.506960  1
  I  I22  1  0.756804  0.515609  0.506872  1
  I  I23  1  0.506960  0.250000  0.993040  1
  I  I24  1  0.760113  0.739887  0.250000  1
  I  I25  1  0.743196  0.993128  0.984391  1
  I  I26  1  0.993040  0.506960  0.250000  1
  I  I27  1  0.506872  0.756804  0.515609  1
