# generated using pymatgen
data_Ta3Nb9Ga8(CoC)4
_symmetry_space_group_name_H-M   'P 1'
_cell_length_a   8.22752749
_cell_length_b   8.22479337
_cell_length_c   8.22965294
_cell_angle_alpha   60.00245622
_cell_angle_beta   60.03155167
_cell_angle_gamma   60.02809382
_symmetry_Int_Tables_number   1
_chemical_formula_structural   Ta3Nb9Ga8(CoC)4
_chemical_formula_sum   'Ta3 Nb9 Ga8 Co4 C4'
_cell_volume   393.97126653
_cell_formula_units_Z   1
loop_
 _symmetry_equiv_pos_site_id
 _symmetry_equiv_pos_as_xyz
  1  'x, y, z'
loop_
 _atom_site_type_symbol
 _atom_site_label
 _atom_site_symmetry_multiplicity
 _atom_site_fract_x
 _atom_site_fract_y
 _atom_site_fract_z
 _atom_site_occupancy
  Ta  Ta0  1  0.691447  0.308553  0.691447  1
  Ta  Ta1  1  0.941865  0.558468  0.558452  1
  Ta  Ta2  1  0.558452  0.941214  0.941865  1
  Nb  Nb3  1  0.939427  0.560573  0.939427  1
  Nb  Nb4  1  0.560143  0.560182  0.940226  1
  Nb  Nb5  1  0.940226  0.939448  0.560143  1
  Nb  Nb6  1  0.690306  0.690615  0.309821  1
  Nb  Nb7  1  0.311690  0.688705  0.688365  1
  Nb  Nb8  1  0.688365  0.311241  0.311690  1
  Nb  Nb9  1  0.309821  0.309259  0.690306  1
  Nb  Nb10  1  0.561637  0.938363  0.561637  1
  Nb  Nb11  1  0.308893  0.691107  0.308893  1
  Ga  Ga12  1  0.335337  0.331506  0.332760  1
  Ga  Ga13  1  0.249644  0.916511  0.914985  1
  Ga  Ga14  1  0.916216  0.250237  0.918605  1
  Ga  Ga15  1  0.914985  0.918860  0.249644  1
  Ga  Ga16  1  0.332760  0.000397  0.335337  1
  Ga  Ga17  1  0.331717  0.335657  0.999829  1
  Ga  Ga18  1  0.999829  0.332799  0.331717  1
  Ga  Ga19  1  0.918605  0.914940  0.916216  1
  Co  Co20  1  0.130120  0.122168  0.122849  1
  Co  Co21  1  0.625220  0.124742  0.118164  1
  Co  Co22  1  0.122849  0.624864  0.130120  1
  Co  Co23  1  0.118164  0.131874  0.625220  1
  C  C24  1  0.628018  0.622126  0.625316  1
  C  C25  1  0.124316  0.624069  0.624631  1
  C  C26  1  0.625316  0.124541  0.628018  1
  C  C27  1  0.624631  0.626984  0.124316  1
