# generated using pymatgen
data_YbPrB5Os3
_symmetry_space_group_name_H-M   'P 1'
_cell_length_a   5.70767410
_cell_length_b   5.66723315
_cell_length_c   8.11114834
_cell_angle_alpha   122.82282876
_cell_angle_beta   122.52566438
_cell_angle_gamma   41.93642761
_symmetry_Int_Tables_number   1
_chemical_formula_structural   YbPrB5Os3
_chemical_formula_sum   'Yb1 Pr1 B5 Os3'
_cell_volume   143.06402342
_cell_formula_units_Z   1
loop_
 _symmetry_equiv_pos_site_id
 _symmetry_equiv_pos_as_xyz
  1  'x, y, z'
loop_
 _atom_site_type_symbol
 _atom_site_label
 _atom_site_symmetry_multiplicity
 _atom_site_fract_x
 _atom_site_fract_y
 _atom_site_fract_z
 _atom_site_occupancy
  Yb  Yb0  1  0.073657  0.603511  0.743768  1
  Pr  Pr1  1  0.388734  0.935638  0.259162  1
  B  B2  1  0.733160  0.262280  0.995054  1
  B  B3  1  0.082222  0.623914  0.189011  1
  B  B4  1  0.480196  0.471754  0.381363  1
  B  B5  1  0.532512  0.519131  0.619203  1
  B  B6  1  0.375303  0.918032  0.811066  1
  Os  Os7  1  0.613152  0.123868  0.097245  1
  Os  Os8  1  0.012319  0.987287  0.502491  1
  Os  Os9  1  0.875045  0.388285  0.901636  1
