# generated using pymatgen
data_Pr4BCl5
_symmetry_space_group_name_H-M   'P 1'
_cell_length_a   9.25270810
_cell_length_b   9.25270802
_cell_length_c   8.19959966
_cell_angle_alpha   104.10729307
_cell_angle_beta   104.10729392
_cell_angle_gamma   25.31767549
_symmetry_Int_Tables_number   1
_chemical_formula_structural   Pr4BCl5
_chemical_formula_sum   'Pr4 B1 Cl5'
_cell_volume   290.67851005
_cell_formula_units_Z   1
loop_
 _symmetry_equiv_pos_site_id
 _symmetry_equiv_pos_as_xyz
  1  'x, y, z'
loop_
 _atom_site_type_symbol
 _atom_site_label
 _atom_site_symmetry_multiplicity
 _atom_site_fract_x
 _atom_site_fract_y
 _atom_site_fract_z
 _atom_site_occupancy
  Pr  Pr0  1  0.649908  0.649908  0.090501  1
  Pr  Pr1  1  0.998618  0.998618  0.220706  1
  Pr  Pr2  1  0.001382  0.001382  0.779294  1
  Pr  Pr3  1  0.350092  0.350092  0.909498  1
  B  B4  1  0.500000  0.500000  0.000000  1
  Cl  Cl5  1  0.830503  0.830503  0.153445  1
  Cl  Cl6  1  0.163069  0.163069  0.343300  1
  Cl  Cl7  1  0.500000  0.500000  0.500000  1
  Cl  Cl8  1  0.836931  0.836931  0.656699  1
  Cl  Cl9  1  0.169497  0.169497  0.846555  1
