# generated using pymatgen
data_Ba2AgClO2
_symmetry_space_group_name_H-M   'P 1'
_cell_length_a   10.47686226
_cell_length_b   10.47686245
_cell_length_c   10.47686199
_cell_angle_alpha   23.69091663
_cell_angle_beta   23.69091398
_cell_angle_gamma   23.69091763
_symmetry_Int_Tables_number   1
_chemical_formula_structural   Ba2AgClO2
_chemical_formula_sum   'Ba2 Ag1 Cl1 O2'
_cell_volume   163.07611896
_cell_formula_units_Z   1
loop_
 _symmetry_equiv_pos_site_id
 _symmetry_equiv_pos_as_xyz
  1  'x, y, z'
loop_
 _atom_site_type_symbol
 _atom_site_label
 _atom_site_symmetry_multiplicity
 _atom_site_fract_x
 _atom_site_fract_y
 _atom_site_fract_z
 _atom_site_occupancy
  Ba  Ba0  1  0.258013  0.258013  0.258013  1
  Ba  Ba1  1  0.741987  0.741987  0.741987  1
  Ag  Ag2  1  0.500000  0.500000  0.500000  1
  Cl  Cl3  1  0.000000  0.000000  0.000000  1
  O  O4  1  0.432629  0.432629  0.432629  1
  O  O5  1  0.567371  0.567371  0.567371  1
