# generated using pymatgen
data_Dy3Pa(ZnRh)4
_symmetry_space_group_name_H-M   'P 1'
_cell_length_a   3.85979400
_cell_length_b   7.12773012
_cell_length_c   8.32085730
_cell_angle_alpha   90.76773644
_cell_angle_beta   90.00000000
_cell_angle_gamma   90.00000000
_symmetry_Int_Tables_number   1
_chemical_formula_structural   Dy3Pa(ZnRh)4
_chemical_formula_sum   'Dy3 Pa1 Zn4 Rh4'
_cell_volume   228.89929691
_cell_formula_units_Z   1
loop_
 _symmetry_equiv_pos_site_id
 _symmetry_equiv_pos_as_xyz
  1  'x, y, z'
loop_
 _atom_site_type_symbol
 _atom_site_label
 _atom_site_symmetry_multiplicity
 _atom_site_fract_x
 _atom_site_fract_y
 _atom_site_fract_z
 _atom_site_occupancy
  Dy  Dy0  1  0.750000  0.444303  0.807873  1
  Dy  Dy1  1  0.250000  0.051974  0.319628  1
  Dy  Dy2  1  0.750000  0.940546  0.688821  1
  Pa  Pa3  1  0.250000  0.552537  0.179290  1
  Zn  Zn4  1  0.250000  0.128774  0.935809  1
  Zn  Zn5  1  0.750000  0.895140  0.063825  1
  Zn  Zn6  1  0.250000  0.620560  0.562554  1
  Zn  Zn7  1  0.750000  0.368393  0.441903  1
  Rh  Rh8  1  0.750000  0.738565  0.355674  1
  Rh  Rh9  1  0.250000  0.234784  0.625986  1
  Rh  Rh10  1  0.750000  0.283781  0.128734  1
  Rh  Rh11  1  0.250000  0.740642  0.889904  1
