# generated using pymatgen
data_Ce3Lu7Ru5Pt
_symmetry_space_group_name_H-M   'P 1'
_cell_length_a   8.04363961
_cell_length_b   8.04401321
_cell_length_c   6.32617800
_cell_angle_alpha   90.00000000
_cell_angle_beta   90.00000000
_cell_angle_gamma   120.00154224
_symmetry_Int_Tables_number   1
_chemical_formula_structural   Ce3Lu7Ru5Pt
_chemical_formula_sum   'Ce3 Lu7 Ru5 Pt1'
_cell_volume   354.47912838
_cell_formula_units_Z   1
loop_
 _symmetry_equiv_pos_site_id
 _symmetry_equiv_pos_as_xyz
  1  'x, y, z'
loop_
 _atom_site_type_symbol
 _atom_site_label
 _atom_site_symmetry_multiplicity
 _atom_site_fract_x
 _atom_site_fract_y
 _atom_site_fract_z
 _atom_site_occupancy
  Ce  Ce0  1  0.758909  0.757104  0.250000  1
  Ce  Ce1  1  0.241091  0.998194  0.250000  1
  Ce  Ce2  1  0.000000  0.244657  0.250000  1
  Lu  Lu3  1  0.661883  0.331731  0.502865  1
  Lu  Lu4  1  0.338117  0.669848  0.502865  1
  Lu  Lu5  1  0.338117  0.669848  0.997135  1
  Lu  Lu6  1  0.661883  0.331731  0.997135  1
  Lu  Lu7  1  0.252450  0.244905  0.750000  1
  Lu  Lu8  1  0.747550  0.992454  0.750000  1
  Lu  Lu9  1  0.000000  0.754681  0.750000  1
  Ru  Ru10  1  0.362963  0.368660  0.250000  1
  Ru  Ru11  1  0.637037  0.005697  0.250000  1
  Ru  Ru12  1  0.000000  0.639079  0.250000  1
  Ru  Ru13  1  0.591986  0.590417  0.750000  1
  Ru  Ru14  1  0.408014  0.998431  0.750000  1
  Pt  Pt15  1  0.000000  0.402562  0.750000  1
