# generated using pymatgen
data_BaGaPRh2
_symmetry_space_group_name_H-M   'P 1'
_cell_length_a   6.84366865
_cell_length_b   6.84366867
_cell_length_c   6.84366791
_cell_angle_alpha   144.86961413
_cell_angle_beta   144.86961203
_cell_angle_gamma   50.52887611
_symmetry_Int_Tables_number   1
_chemical_formula_structural   BaGaPRh2
_chemical_formula_sum   'Ba1 Ga1 P1 Rh2'
_cell_volume   105.60250313
_cell_formula_units_Z   1
loop_
 _symmetry_equiv_pos_site_id
 _symmetry_equiv_pos_as_xyz
  1  'x, y, z'
loop_
 _atom_site_type_symbol
 _atom_site_label
 _atom_site_symmetry_multiplicity
 _atom_site_fract_x
 _atom_site_fract_y
 _atom_site_fract_z
 _atom_site_occupancy
  Ba  Ba0  1  0.990357  0.990357  0.000000  1
  Ga  Ga1  1  0.645243  0.645243  0.000000  1
  P  P2  1  0.346183  0.346183  0.000000  1
  Rh  Rh3  1  0.759109  0.259109  0.500000  1
  Rh  Rh4  1  0.259109  0.759109  0.500000  1
