# generated using pymatgen
data_TbY5Fe2(Co4P3)4
_symmetry_space_group_name_H-M   'P 1'
_cell_length_a   3.70233800
_cell_length_b   10.52857900
_cell_length_c   12.18327400
_cell_angle_alpha   90.00000000
_cell_angle_beta   90.00000000
_cell_angle_gamma   90.00000000
_symmetry_Int_Tables_number   1
_chemical_formula_structural   TbY5Fe2(Co4P3)4
_chemical_formula_sum   'Tb1 Y5 Fe2 Co16 P12'
_cell_volume   474.90838357
_cell_formula_units_Z   1
loop_
 _symmetry_equiv_pos_site_id
 _symmetry_equiv_pos_as_xyz
  1  'x, y, z'
loop_
 _atom_site_type_symbol
 _atom_site_label
 _atom_site_symmetry_multiplicity
 _atom_site_fract_x
 _atom_site_fract_y
 _atom_site_fract_z
 _atom_site_occupancy
  Tb  Tb0  1  0.000000  0.500000  0.521901  1
  Y  Y1  1  0.500000  0.000000  0.478109  1
  Y  Y2  1  0.500000  0.817683  0.205050  1
  Y  Y3  1  0.500000  0.182317  0.205050  1
  Y  Y4  1  0.000000  0.682320  0.794954  1
  Y  Y5  1  0.000000  0.317680  0.794954  1
  Fe  Fe6  1  0.500000  0.500000  0.157014  1
  Fe  Fe7  1  0.000000  0.000000  0.842988  1
  Co  Co8  1  0.500000  0.500000  0.702008  1
  Co  Co9  1  0.000000  0.000000  0.297992  1
  Co  Co10  1  0.000000  0.500000  0.986297  1
  Co  Co11  1  0.500000  0.000000  0.013705  1
  Co  Co12  1  0.500000  0.333017  0.994225  1
  Co  Co13  1  0.500000  0.666983  0.994225  1
  Co  Co14  1  0.000000  0.166980  0.005776  1
  Co  Co15  1  0.000000  0.833020  0.005776  1
  Co  Co16  1  0.500000  0.296854  0.430714  1
  Co  Co17  1  0.500000  0.703146  0.430714  1
  Co  Co18  1  0.000000  0.203140  0.569282  1
  Co  Co19  1  0.000000  0.796860  0.569282  1
  Co  Co20  1  0.500000  0.879159  0.709184  1
  Co  Co21  1  0.500000  0.120841  0.709184  1
  Co  Co22  1  0.000000  0.620842  0.290814  1
  Co  Co23  1  0.000000  0.379158  0.290814  1
  P  P24  1  0.500000  0.500000  0.882346  1
  P  P25  1  0.000000  0.000000  0.117655  1
  P  P26  1  0.500000  0.500000  0.342328  1
  P  P27  1  0.000000  0.000000  0.657659  1
  P  P28  1  0.500000  0.309981  0.616075  1
  P  P29  1  0.500000  0.690019  0.616075  1
  P  P30  1  0.000000  0.190010  0.383923  1
  P  P31  1  0.000000  0.809990  0.383923  1
  P  P32  1  0.500000  0.847706  0.892909  1
  P  P33  1  0.500000  0.152294  0.892909  1
  P  P34  1  0.000000  0.652293  0.107091  1
  P  P35  1  0.000000  0.347707  0.107091  1
