# generated using pymatgen
data_Th4FeCuSi6
_symmetry_space_group_name_H-M   'P 1'
_cell_length_a   8.19434565
_cell_length_b   8.10793158
_cell_length_c   5.87219506
_cell_angle_alpha   69.67576634
_cell_angle_beta   68.10257305
_cell_angle_gamma   42.22165732
_symmetry_Int_Tables_number   1
_chemical_formula_structural   Th4FeCuSi6
_chemical_formula_sum   'Th4 Fe1 Cu1 Si6'
_cell_volume   241.67281476
_cell_formula_units_Z   1
loop_
 _symmetry_equiv_pos_site_id
 _symmetry_equiv_pos_as_xyz
  1  'x, y, z'
loop_
 _atom_site_type_symbol
 _atom_site_label
 _atom_site_symmetry_multiplicity
 _atom_site_fract_x
 _atom_site_fract_y
 _atom_site_fract_z
 _atom_site_occupancy
  Th  Th0  1  0.747157  0.747157  0.752843  1
  Th  Th1  1  0.753861  0.253151  0.746849  1
  Th  Th2  1  0.247157  0.247157  0.252843  1
  Th  Th3  1  0.253151  0.753861  0.246139  1
  Fe  Fe4  1  0.665608  0.665608  0.334392  1
  Cu  Cu5  1  0.334611  0.334611  0.665389  1
  Si  Si6  1  0.826929  0.345295  0.173071  1
  Si  Si7  1  0.666325  0.165754  0.333675  1
  Si  Si8  1  0.165754  0.666325  0.834246  1
  Si  Si9  1  0.345295  0.826929  0.654705  1
  Si  Si10  1  0.168334  0.168334  0.831666  1
  Si  Si11  1  0.825816  0.825816  0.174184  1
