# generated using pymatgen
data_Pr2ErTm(ReB6)2
_symmetry_space_group_name_H-M   'P 1'
_cell_length_a   3.72482500
_cell_length_b   9.23589401
_cell_length_c   11.71586101
_cell_angle_alpha   90.00482908
_cell_angle_beta   90.00000000
_cell_angle_gamma   90.00000000
_symmetry_Int_Tables_number   1
_chemical_formula_structural   Pr2ErTm(ReB6)2
_chemical_formula_sum   'Pr4 Er2 Tm2 Re4 B24'
_cell_volume   403.05009058
_cell_formula_units_Z   2
loop_
 _symmetry_equiv_pos_site_id
 _symmetry_equiv_pos_as_xyz
  1  'x, y, z'
loop_
 _atom_site_type_symbol
 _atom_site_label
 _atom_site_symmetry_multiplicity
 _atom_site_fract_x
 _atom_site_fract_y
 _atom_site_fract_z
 _atom_site_occupancy
  Pr  Pr0  1  0.000000  0.322667  0.414598  1
  Pr  Pr1  1  0.000000  0.677333  0.585402  1
  Pr  Pr2  1  0.000000  0.822519  0.085319  1
  Pr  Pr3  1  0.000000  0.177481  0.914681  1
  Er  Er4  1  0.000000  0.942844  0.369195  1
  Er  Er5  1  0.000000  0.057156  0.630805  1
  Tm  Tm6  1  0.000000  0.442936  0.130747  1
  Tm  Tm7  1  0.000000  0.557064  0.869253  1
  Re  Re8  1  0.000000  0.639714  0.318401  1
  Re  Re9  1  0.000000  0.360286  0.681599  1
  Re  Re10  1  0.000000  0.140250  0.181346  1
  Re  Re11  1  0.000000  0.859750  0.818654  1
  B  B12  1  0.500000  0.555847  0.429474  1
  B  B13  1  0.500000  0.444153  0.570526  1
  B  B14  1  0.500000  0.055894  0.070460  1
  B  B15  1  0.500000  0.944106  0.929540  1
  B  B16  1  0.500000  0.750607  0.414900  1
  B  B17  1  0.500000  0.249393  0.585100  1
  B  B18  1  0.500000  0.251020  0.085030  1
  B  B19  1  0.500000  0.748980  0.914970  1
  B  B20  1  0.500000  0.791591  0.265822  1
  B  B21  1  0.500000  0.208409  0.734178  1
  B  B22  1  0.500000  0.292026  0.234106  1
  B  B23  1  0.500000  0.707974  0.765894  1
  B  B24  1  0.500000  0.629064  0.185925  1
  B  B25  1  0.500000  0.370936  0.814075  1
  B  B26  1  0.500000  0.129381  0.313853  1
  B  B27  1  0.500000  0.870619  0.686147  1
  B  B28  1  0.500000  0.984175  0.213638  1
  B  B29  1  0.500000  0.015825  0.786362  1
  B  B30  1  0.500000  0.483943  0.286154  1
  B  B31  1  0.500000  0.516057  0.713846  1
  B  B32  1  0.500000  0.594685  0.025938  1
  B  B33  1  0.500000  0.405315  0.974062  1
  B  B34  1  0.500000  0.095002  0.474002  1
  B  B35  1  0.500000  0.904998  0.525998  1
