# generated using pymatgen
data_Be8VTc2W
_symmetry_space_group_name_H-M   'P 1'
_cell_length_a   4.37159100
_cell_length_b   4.37159137
_cell_length_c   7.18501800
_cell_angle_alpha   90.00000000
_cell_angle_beta   90.00000000
_cell_angle_gamma   120.00000476
_symmetry_Int_Tables_number   1
_chemical_formula_structural   Be8VTc2W
_chemical_formula_sum   'Be8 V1 Tc2 W1'
_cell_volume   118.91525034
_cell_formula_units_Z   1
loop_
 _symmetry_equiv_pos_site_id
 _symmetry_equiv_pos_as_xyz
  1  'x, y, z'
loop_
 _atom_site_type_symbol
 _atom_site_label
 _atom_site_symmetry_multiplicity
 _atom_site_fract_x
 _atom_site_fract_y
 _atom_site_fract_z
 _atom_site_occupancy
  Be  Be0  1  0.000000  0.000000  0.000128  1
  Be  Be1  1  0.000000  0.000000  0.497124  1
  Be  Be2  1  0.830341  0.660680  0.252716  1
  Be  Be3  1  0.169098  0.830902  0.747384  1
  Be  Be4  1  0.661804  0.830902  0.747384  1
  Be  Be5  1  0.339320  0.169659  0.252716  1
  Be  Be6  1  0.830341  0.169659  0.252716  1
  Be  Be7  1  0.169098  0.338196  0.747384  1
  V  V8  1  0.333333  0.666667  0.437021  1
  Tc  Tc9  1  0.333333  0.666667  0.064483  1
  Tc  Tc10  1  0.666667  0.333333  0.561906  1
  W  W11  1  0.666667  0.333333  0.939035  1
