# generated using pymatgen
data_Sc9Mo4S
_symmetry_space_group_name_H-M   'P 1'
_cell_length_a   8.75702200
_cell_length_b   8.75702106
_cell_length_c   8.56490600
_cell_angle_alpha   90.00000000
_cell_angle_beta   90.00000000
_cell_angle_gamma   119.99999601
_symmetry_Int_Tables_number   1
_chemical_formula_structural   Sc9Mo4S
_chemical_formula_sum   'Sc18 Mo8 S2'
_cell_volume   568.80850932
_cell_formula_units_Z   2
loop_
 _symmetry_equiv_pos_site_id
 _symmetry_equiv_pos_as_xyz
  1  'x, y, z'
loop_
 _atom_site_type_symbol
 _atom_site_label
 _atom_site_symmetry_multiplicity
 _atom_site_fract_x
 _atom_site_fract_y
 _atom_site_fract_z
 _atom_site_occupancy
  Sc  Sc0  1  0.197819  0.802181  0.448613  1
  Sc  Sc1  1  0.197819  0.395637  0.448613  1
  Sc  Sc2  1  0.604363  0.802181  0.448613  1
  Sc  Sc3  1  0.802181  0.197819  0.551387  1
  Sc  Sc4  1  0.802181  0.604363  0.551387  1
  Sc  Sc5  1  0.395637  0.197819  0.551387  1
  Sc  Sc6  1  0.802181  0.197819  0.948613  1
  Sc  Sc7  1  0.802181  0.604363  0.948613  1
  Sc  Sc8  1  0.395637  0.197819  0.948613  1
  Sc  Sc9  1  0.197819  0.802181  0.051387  1
  Sc  Sc10  1  0.197819  0.395637  0.051387  1
  Sc  Sc11  1  0.604363  0.802181  0.051387  1
  Sc  Sc12  1  0.541197  0.458803  0.250000  1
  Sc  Sc13  1  0.541197  0.082394  0.250000  1
  Sc  Sc14  1  0.917606  0.458803  0.250000  1
  Sc  Sc15  1  0.458803  0.541197  0.750000  1
  Sc  Sc16  1  0.458803  0.917606  0.750000  1
  Sc  Sc17  1  0.082394  0.541197  0.750000  1
  Mo  Mo18  1  0.890211  0.109789  0.250000  1
  Mo  Mo19  1  0.890211  0.780422  0.250000  1
  Mo  Mo20  1  0.219578  0.109789  0.250000  1
  Mo  Mo21  1  0.109789  0.890211  0.750000  1
  Mo  Mo22  1  0.109789  0.219578  0.750000  1
  Mo  Mo23  1  0.780422  0.890211  0.750000  1
  Mo  Mo24  1  0.000000  0.000000  0.500000  1
  Mo  Mo25  1  0.000000  0.000000  0.000000  1
  S  S26  1  0.333333  0.666667  0.250000  1
  S  S27  1  0.666667  0.333333  0.750000  1
