# generated using pymatgen
data_CoTc3P4
_symmetry_space_group_name_H-M   'P 1'
_cell_length_a   3.09007700
_cell_length_b   5.60170666
_cell_length_c   6.14720373
_cell_angle_alpha   90.10231264
_cell_angle_beta   90.00000000
_cell_angle_gamma   90.00000000
_symmetry_Int_Tables_number   1
_chemical_formula_structural   CoTc3P4
_chemical_formula_sum   'Co1 Tc3 P4'
_cell_volume   106.40611292
_cell_formula_units_Z   1
loop_
 _symmetry_equiv_pos_site_id
 _symmetry_equiv_pos_as_xyz
  1  'x, y, z'
loop_
 _atom_site_type_symbol
 _atom_site_label
 _atom_site_symmetry_multiplicity
 _atom_site_fract_x
 _atom_site_fract_y
 _atom_site_fract_z
 _atom_site_occupancy
  Co  Co0  1  0.750000  0.498515  0.718662  1
  Tc  Tc1  1  0.750000  0.994722  0.795602  1
  Tc  Tc2  1  0.250000  0.504756  0.304054  1
  Tc  Tc3  1  0.250000  0.003974  0.191516  1
  P  P4  1  0.750000  0.314535  0.057293  1
  P  P5  1  0.750000  0.806346  0.444311  1
  P  P6  1  0.250000  0.678777  0.926529  1
  P  P7  1  0.250000  0.198375  0.562033  1
