# generated using pymatgen
data_Er10CoAu3
_symmetry_space_group_name_H-M   'P 1'
_cell_length_a   9.30952800
_cell_length_b   9.30952735
_cell_length_c   9.41677200
_cell_angle_alpha   90.00000000
_cell_angle_beta   90.00000000
_cell_angle_gamma   120.00000229
_symmetry_Int_Tables_number   1
_chemical_formula_structural   Er10CoAu3
_chemical_formula_sum   'Er20 Co2 Au6'
_cell_volume   706.78605445
_cell_formula_units_Z   2
loop_
 _symmetry_equiv_pos_site_id
 _symmetry_equiv_pos_as_xyz
  1  'x, y, z'
loop_
 _atom_site_type_symbol
 _atom_site_label
 _atom_site_symmetry_multiplicity
 _atom_site_fract_x
 _atom_site_fract_y
 _atom_site_fract_z
 _atom_site_occupancy
  Er  Er0  1  0.000000  0.000000  0.500000  1
  Er  Er1  1  0.000000  0.000000  0.000000  1
  Er  Er2  1  0.542831  0.457169  0.250000  1
  Er  Er3  1  0.542831  0.085664  0.250000  1
  Er  Er4  1  0.914336  0.457169  0.250000  1
  Er  Er5  1  0.457169  0.542831  0.750000  1
  Er  Er6  1  0.457169  0.914336  0.750000  1
  Er  Er7  1  0.085664  0.542831  0.750000  1
  Er  Er8  1  0.209585  0.790415  0.437956  1
  Er  Er9  1  0.209585  0.419170  0.437956  1
  Er  Er10  1  0.580830  0.790415  0.437956  1
  Er  Er11  1  0.790415  0.209585  0.562044  1
  Er  Er12  1  0.790415  0.580830  0.562044  1
  Er  Er13  1  0.419170  0.209585  0.562044  1
  Er  Er14  1  0.790415  0.209585  0.937956  1
  Er  Er15  1  0.790415  0.580830  0.937956  1
  Er  Er16  1  0.419170  0.209585  0.937956  1
  Er  Er17  1  0.209585  0.790415  0.062044  1
  Er  Er18  1  0.209585  0.419170  0.062044  1
  Er  Er19  1  0.580830  0.790415  0.062044  1
  Co  Co20  1  0.333333  0.666667  0.250000  1
  Co  Co21  1  0.666667  0.333333  0.750000  1
  Au  Au22  1  0.881615  0.118385  0.250000  1
  Au  Au23  1  0.881615  0.763231  0.250000  1
  Au  Au24  1  0.236769  0.118385  0.250000  1
  Au  Au25  1  0.118385  0.881615  0.750000  1
  Au  Au26  1  0.118385  0.236769  0.750000  1
  Au  Au27  1  0.763231  0.881615  0.750000  1
