# generated using pymatgen
data_Ho4Tm2Al17Si7Os8
_symmetry_space_group_name_H-M   'P 1'
_cell_length_a   8.68318302
_cell_length_b   8.67444441
_cell_length_c   9.46202800
_cell_angle_alpha   90.00000000
_cell_angle_beta   90.00000000
_cell_angle_gamma   120.08056804
_symmetry_Int_Tables_number   1
_chemical_formula_structural   Ho4Tm2Al17Si7Os8
_chemical_formula_sum   'Ho4 Tm2 Al17 Si7 Os8'
_cell_volume   616.71189616
_cell_formula_units_Z   1
loop_
 _symmetry_equiv_pos_site_id
 _symmetry_equiv_pos_as_xyz
  1  'x, y, z'
loop_
 _atom_site_type_symbol
 _atom_site_label
 _atom_site_symmetry_multiplicity
 _atom_site_fract_x
 _atom_site_fract_y
 _atom_site_fract_z
 _atom_site_occupancy
  Ho  Ho0  1  0.193106  0.388817  0.250000  1
  Ho  Ho1  1  0.806859  0.613831  0.750000  1
  Ho  Ho2  1  0.388295  0.191338  0.750000  1
  Ho  Ho3  1  0.802534  0.191796  0.750000  1
  Tm  Tm4  1  0.608991  0.806392  0.250000  1
  Tm  Tm5  1  0.196798  0.804401  0.250000  1
  Al  Al6  1  0.164288  0.329414  0.578771  1
  Al  Al7  1  0.834279  0.671318  0.420676  1
  Al  Al8  1  0.671395  0.834983  0.578139  1
  Al  Al9  1  0.834279  0.671318  0.079324  1
  Al  Al10  1  0.329719  0.165882  0.421928  1
  Al  Al11  1  0.164288  0.329414  0.921229  1
  Al  Al12  1  0.163622  0.834295  0.577193  1
  Al  Al13  1  0.329719  0.165882  0.078072  1
  Al  Al14  1  0.835399  0.164048  0.421074  1
  Al  Al15  1  0.671395  0.834983  0.921861  1
  Al  Al16  1  0.835399  0.164048  0.078926  1
  Al  Al17  1  0.163622  0.834295  0.922807  1
  Al  Al18  1  0.125649  0.565373  0.750000  1
  Al  Al19  1  0.564701  0.435384  0.250000  1
  Al  Al20  1  0.438647  0.566222  0.750000  1
  Al  Al21  1  0.999206  0.998768  0.250000  1
  Al  Al22  1  0.000058  0.000937  0.750000  1
  Si  Si23  1  0.333637  0.665156  0.039654  1
  Si  Si24  1  0.666552  0.335714  0.959838  1
  Si  Si25  1  0.666552  0.335714  0.540162  1
  Si  Si26  1  0.333637  0.665156  0.460346  1
  Si  Si27  1  0.564286  0.123773  0.250000  1
  Si  Si28  1  0.436505  0.873174  0.750000  1
  Si  Si29  1  0.874833  0.435284  0.250000  1
  Os  Os30  1  0.500652  0.000465  0.001699  1
  Os  Os31  1  0.998980  0.499971  0.007027  1
  Os  Os32  1  0.500652  0.000465  0.498301  1
  Os  Os33  1  0.500702  0.500667  0.000817  1
  Os  Os34  1  0.998980  0.499971  0.492973  1
  Os  Os35  1  0.500702  0.500667  0.499183  1
  Os  Os36  1  0.000542  0.000340  0.000271  1
  Os  Os37  1  0.000542  0.000340  0.499729  1
