# generated using pymatgen
data_PSe8Br3
_symmetry_space_group_name_H-M   'P 1'
_cell_length_a   9.33157855
_cell_length_b   10.22536884
_cell_length_c   12.03619952
_cell_angle_alpha   96.16388029
_cell_angle_beta   109.05038653
_cell_angle_gamma   106.63314491
_symmetry_Int_Tables_number   1
_chemical_formula_structural   PSe8Br3
_chemical_formula_sum   'P2 Se16 Br6'
_cell_volume   1014.26858723
_cell_formula_units_Z   2
loop_
 _symmetry_equiv_pos_site_id
 _symmetry_equiv_pos_as_xyz
  1  'x, y, z'
loop_
 _atom_site_type_symbol
 _atom_site_label
 _atom_site_symmetry_multiplicity
 _atom_site_fract_x
 _atom_site_fract_y
 _atom_site_fract_z
 _atom_site_occupancy
  P  P0  1  0.777672  0.031766  0.852656  1
  P  P1  1  0.222328  0.968234  0.147344  1
  Se  Se2  1  0.851972  0.518733  0.828223  1
  Se  Se3  1  0.148028  0.481267  0.171777  1
  Se  Se4  1  0.713897  0.429479  0.618772  1
  Se  Se5  1  0.286103  0.570521  0.381228  1
  Se  Se6  1  0.732338  0.205704  0.573257  1
  Se  Se7  1  0.267662  0.794296  0.426743  1
  Se  Se8  1  0.940714  0.228582  0.498434  1
  Se  Se9  1  0.059286  0.771418  0.501566  1
  Se  Se10  1  0.887458  0.329838  0.141019  1
  Se  Se11  1  0.112542  0.670162  0.858981  1
  Se  Se12  1  0.706849  0.454800  0.085897  1
  Se  Se13  1  0.293151  0.545200  0.914103  1
  Se  Se14  1  0.658794  0.532533  0.257985  1
  Se  Se15  1  0.341206  0.467467  0.742015  1
  Se  Se16  1  0.826917  0.768424  0.343468  1
  Se  Se17  1  0.173083  0.231576  0.656532  1
  Br  Br18  1  0.526503  0.042734  0.794316  1
  Br  Br19  1  0.473497  0.957266  0.205684  1
  Br  Br20  1  0.775138  0.907415  0.996762  1
  Br  Br21  1  0.224862  0.092585  0.003238  1
  Br  Br22  1  0.749857  0.866994  0.698940  1
  Br  Br23  1  0.250143  0.133006  0.301060  1
