# generated using pymatgen
data_HoPaCdPt2
_symmetry_space_group_name_H-M   'P 1'
_cell_length_a   7.76887400
_cell_length_b   7.89861900
_cell_length_c   3.63264300
_cell_angle_alpha   90.00000000
_cell_angle_beta   90.00000000
_cell_angle_gamma   90.00000000
_symmetry_Int_Tables_number   1
_chemical_formula_structural   HoPaCdPt2
_chemical_formula_sum   'Ho2 Pa2 Cd2 Pt4'
_cell_volume   222.91123750
_cell_formula_units_Z   2
loop_
 _symmetry_equiv_pos_site_id
 _symmetry_equiv_pos_as_xyz
  1  'x, y, z'
loop_
 _atom_site_type_symbol
 _atom_site_label
 _atom_site_symmetry_multiplicity
 _atom_site_fract_x
 _atom_site_fract_y
 _atom_site_fract_z
 _atom_site_occupancy
  Ho  Ho0  1  0.829050  0.671533  0.500000  1
  Ho  Ho1  1  0.670950  0.171533  0.500000  1
  Pa  Pa2  1  0.164927  0.331447  0.500000  1
  Pa  Pa3  1  0.335073  0.831447  0.500000  1
  Cd  Cd4  1  0.508023  0.494409  0.000000  1
  Cd  Cd5  1  0.991977  0.994409  0.000000  1
  Pt  Pt6  1  0.616706  0.870741  0.000000  1
  Pt  Pt7  1  0.148502  0.631870  0.000000  1
  Pt  Pt8  1  0.883294  0.370741  0.000000  1
  Pt  Pt9  1  0.351498  0.131870  0.000000  1
