# generated using pymatgen
data_Tb3Mn8NiP6
_symmetry_space_group_name_H-M   'P 1'
_cell_length_a   3.66367400
_cell_length_b   10.83685300
_cell_length_c   12.66164100
_cell_angle_alpha   90.00000000
_cell_angle_beta   90.00000000
_cell_angle_gamma   90.00000000
_symmetry_Int_Tables_number   1
_chemical_formula_structural   Tb3Mn8NiP6
_chemical_formula_sum   'Tb6 Mn16 Ni2 P12'
_cell_volume   502.70129080
_cell_formula_units_Z   2
loop_
 _symmetry_equiv_pos_site_id
 _symmetry_equiv_pos_as_xyz
  1  'x, y, z'
loop_
 _atom_site_type_symbol
 _atom_site_label
 _atom_site_symmetry_multiplicity
 _atom_site_fract_x
 _atom_site_fract_y
 _atom_site_fract_z
 _atom_site_occupancy
  Tb  Tb0  1  0.000000  0.500000  0.530587  1
  Tb  Tb1  1  0.500000  0.000000  0.469413  1
  Tb  Tb2  1  0.500000  0.819824  0.205372  1
  Tb  Tb3  1  0.500000  0.180176  0.205372  1
  Tb  Tb4  1  0.000000  0.680176  0.794628  1
  Tb  Tb5  1  0.000000  0.319824  0.794628  1
  Mn  Mn6  1  0.500000  0.500000  0.167267  1
  Mn  Mn7  1  0.000000  0.000000  0.832733  1
  Mn  Mn8  1  0.000000  0.500000  0.991642  1
  Mn  Mn9  1  0.500000  0.000000  0.008358  1
  Mn  Mn10  1  0.500000  0.333045  0.997379  1
  Mn  Mn11  1  0.500000  0.666955  0.997379  1
  Mn  Mn12  1  0.000000  0.166955  0.002621  1
  Mn  Mn13  1  0.000000  0.833045  0.002621  1
  Mn  Mn14  1  0.500000  0.298236  0.432572  1
  Mn  Mn15  1  0.500000  0.701764  0.432572  1
  Mn  Mn16  1  0.000000  0.201764  0.567428  1
  Mn  Mn17  1  0.000000  0.798236  0.567428  1
  Mn  Mn18  1  0.500000  0.882085  0.702284  1
  Mn  Mn19  1  0.500000  0.117915  0.702284  1
  Mn  Mn20  1  0.000000  0.617915  0.297716  1
  Mn  Mn21  1  0.000000  0.382085  0.297716  1
  Ni  Ni22  1  0.500000  0.500000  0.705618  1
  Ni  Ni23  1  0.000000  0.000000  0.294382  1
  P  P24  1  0.500000  0.500000  0.881706  1
  P  P25  1  0.000000  0.000000  0.118294  1
  P  P26  1  0.500000  0.500000  0.359092  1
  P  P27  1  0.000000  0.000000  0.640908  1
  P  P28  1  0.500000  0.316366  0.618291  1
  P  P29  1  0.500000  0.683634  0.618291  1
  P  P30  1  0.000000  0.183634  0.381709  1
  P  P31  1  0.000000  0.816366  0.381709  1
  P  P32  1  0.500000  0.846420  0.885536  1
  P  P33  1  0.500000  0.153580  0.885536  1
  P  P34  1  0.000000  0.653580  0.114464  1
  P  P35  1  0.000000  0.346420  0.114464  1
