# generated using pymatgen
data_CoNiMo12(Pt3N2)2
_symmetry_space_group_name_H-M   'P 1'
_cell_length_a   6.83891585
_cell_length_b   6.83148259
_cell_length_c   6.84870985
_cell_angle_alpha   89.80336967
_cell_angle_beta   89.96107139
_cell_angle_gamma   89.95823758
_symmetry_Int_Tables_number   1
_chemical_formula_structural   CoNiMo12(Pt3N2)2
_chemical_formula_sum   'Co1 Ni1 Mo12 Pt6 N4'
_cell_volume   319.96923340
_cell_formula_units_Z   1
loop_
 _symmetry_equiv_pos_site_id
 _symmetry_equiv_pos_as_xyz
  1  'x, y, z'
loop_
 _atom_site_type_symbol
 _atom_site_label
 _atom_site_symmetry_multiplicity
 _atom_site_fract_x
 _atom_site_fract_y
 _atom_site_fract_z
 _atom_site_occupancy
  Co  Co0  1  0.555755  0.438404  0.944293  1
  Ni  Ni1  1  0.056408  0.062321  0.056243  1
  Mo  Mo2  1  0.207388  0.446156  0.122799  1
  Mo  Mo3  1  0.048612  0.876323  0.706419  1
  Mo  Mo4  1  0.447842  0.127998  0.201811  1
  Mo  Mo5  1  0.297827  0.549132  0.627235  1
  Mo  Mo6  1  0.945816  0.371815  0.799346  1
  Mo  Mo7  1  0.551487  0.621050  0.289710  1
  Mo  Mo8  1  0.704180  0.054101  0.876437  1
  Mo  Mo9  1  0.626165  0.300292  0.553771  1
  Mo  Mo10  1  0.877334  0.708879  0.052460  1
  Mo  Mo11  1  0.377861  0.788727  0.946762  1
  Mo  Mo12  1  0.127485  0.200010  0.449433  1
  Mo  Mo13  1  0.798583  0.952354  0.371617  1
  Pt  Pt14  1  0.940330  0.559989  0.439629  1
  Pt  Pt15  1  0.188850  0.817963  0.297262  1
  Pt  Pt16  1  0.440467  0.940407  0.560541  1
  Pt  Pt17  1  0.688251  0.681876  0.703531  1
  Pt  Pt18  1  0.808260  0.307790  0.179460  1
  Pt  Pt19  1  0.309325  0.193919  0.820782  1
  N  N20  1  0.875703  0.125496  0.624049  1
  N  N21  1  0.625085  0.876336  0.125042  1
  N  N22  1  0.124838  0.623568  0.874849  1
  N  N23  1  0.376150  0.375094  0.376517  1
