# generated using pymatgen
data_Nb5GeB2
_symmetry_space_group_name_H-M   'P 1'
_cell_length_a   6.30614760
_cell_length_b   6.30614808
_cell_length_c   7.38330848
_cell_angle_alpha   115.28077023
_cell_angle_beta   115.28077355
_cell_angle_gamma   90.00000524
_symmetry_Int_Tables_number   1
_chemical_formula_structural   Nb5GeB2
_chemical_formula_sum   'Nb10 Ge2 B4'
_cell_volume   234.01909747
_cell_formula_units_Z   2
loop_
 _symmetry_equiv_pos_site_id
 _symmetry_equiv_pos_as_xyz
  1  'x, y, z'
loop_
 _atom_site_type_symbol
 _atom_site_label
 _atom_site_symmetry_multiplicity
 _atom_site_fract_x
 _atom_site_fract_y
 _atom_site_fract_z
 _atom_site_occupancy
  Nb  Nb0  1  0.000000  0.000000  0.000000  1
  Nb  Nb1  1  0.499999  0.499999  0.000000  1
  Nb  Nb2  1  0.468582  0.304252  0.272833  1
  Nb  Nb3  1  0.968581  0.468582  0.272833  1
  Nb  Nb4  1  0.304252  0.804251  0.272833  1
  Nb  Nb5  1  0.804251  0.968581  0.272833  1
  Nb  Nb6  1  0.195748  0.031418  0.727166  1
  Nb  Nb7  1  0.695749  0.195748  0.727166  1
  Nb  Nb8  1  0.031418  0.531419  0.727166  1
  Nb  Nb9  1  0.531419  0.695749  0.727166  1
  Ge  Ge10  1  0.250000  0.250000  0.500000  1
  Ge  Ge11  1  0.750000  0.750000  0.500000  1
  B  B12  1  0.613605  0.113604  0.000000  1
  B  B13  1  0.113604  0.386395  0.000000  1
  B  B14  1  0.886396  0.613605  0.000000  1
  B  B15  1  0.386395  0.886396  0.000000  1
