# generated using pymatgen
data_Tm4Sc2B4IrRh9
_symmetry_space_group_name_H-M   'P 1'
_cell_length_a   3.20604700
_cell_length_b   9.66245203
_cell_length_c   9.64912803
_cell_angle_alpha   89.99034565
_cell_angle_beta   90.00000000
_cell_angle_gamma   90.00000000
_symmetry_Int_Tables_number   1
_chemical_formula_structural   Tm4Sc2B4IrRh9
_chemical_formula_sum   'Tm4 Sc2 B4 Ir1 Rh9'
_cell_volume   298.91334096
_cell_formula_units_Z   1
loop_
 _symmetry_equiv_pos_site_id
 _symmetry_equiv_pos_as_xyz
  1  'x, y, z'
loop_
 _atom_site_type_symbol
 _atom_site_label
 _atom_site_symmetry_multiplicity
 _atom_site_fract_x
 _atom_site_fract_y
 _atom_site_fract_z
 _atom_site_occupancy
  Tm  Tm0  1  0.000000  0.175698  0.675552  1
  Tm  Tm1  1  0.000000  0.824595  0.324459  1
  Tm  Tm2  1  0.000000  0.324971  0.175357  1
  Tm  Tm3  1  0.000000  0.675942  0.824456  1
  Sc  Sc4  1  0.000000  0.999931  0.999978  1
  Sc  Sc5  1  0.000000  0.501066  0.500326  1
  B  B6  1  0.000000  0.619582  0.119783  1
  B  B7  1  0.000000  0.379886  0.880015  1
  B  B8  1  0.000000  0.880458  0.620020  1
  B  B9  1  0.000000  0.121843  0.380700  1
  Ir  Ir10  1  0.500000  0.274366  0.428972  1
  Rh  Rh11  1  0.500000  0.069845  0.224634  1
  Rh  Rh12  1  0.500000  0.928789  0.775152  1
  Rh  Rh13  1  0.500000  0.774222  0.071470  1
  Rh  Rh14  1  0.500000  0.428730  0.724930  1
  Rh  Rh15  1  0.500000  0.225361  0.929225  1
  Rh  Rh16  1  0.500000  0.570148  0.274473  1
  Rh  Rh17  1  0.500000  0.725281  0.571190  1
  Rh  Rh18  1  0.500000  0.999111  0.500275  1
  Rh  Rh19  1  0.500000  0.500176  0.999032  1
