# generated using pymatgen
data_Ho2Lu4TcRu
_symmetry_space_group_name_H-M   'P 1'
_cell_length_a   6.20999900
_cell_length_b   7.29140000
_cell_length_c   8.94133000
_cell_angle_alpha   90.00000000
_cell_angle_beta   90.00000000
_cell_angle_gamma   90.00000000
_symmetry_Int_Tables_number   1
_chemical_formula_structural   Ho2Lu4TcRu
_chemical_formula_sum   'Ho4 Lu8 Tc2 Ru2'
_cell_volume   404.85972703
_cell_formula_units_Z   2
loop_
 _symmetry_equiv_pos_site_id
 _symmetry_equiv_pos_as_xyz
  1  'x, y, z'
loop_
 _atom_site_type_symbol
 _atom_site_label
 _atom_site_symmetry_multiplicity
 _atom_site_fract_x
 _atom_site_fract_y
 _atom_site_fract_z
 _atom_site_occupancy
  Ho  Ho0  1  0.875436  0.539090  0.250000  1
  Ho  Ho1  1  0.624564  0.039090  0.250000  1
  Ho  Ho2  1  0.130895  0.457249  0.750000  1
  Ho  Ho3  1  0.369105  0.957248  0.750000  1
  Lu  Lu4  1  0.335263  0.676065  0.063165  1
  Lu  Lu5  1  0.164737  0.176065  0.436835  1
  Lu  Lu6  1  0.663062  0.324627  0.562723  1
  Lu  Lu7  1  0.836938  0.824627  0.937277  1
  Lu  Lu8  1  0.663062  0.324627  0.937277  1
  Lu  Lu9  1  0.836938  0.824627  0.562723  1
  Lu  Lu10  1  0.335263  0.676065  0.436835  1
  Lu  Lu11  1  0.164737  0.176065  0.063165  1
  Tc  Tc12  1  0.039684  0.885579  0.250000  1
  Tc  Tc13  1  0.460316  0.385579  0.250000  1
  Ru  Ru14  1  0.958320  0.116699  0.750000  1
  Ru  Ru15  1  0.541680  0.616699  0.750000  1
