# generated using pymatgen
data_Hf4In2NiRh9
_symmetry_space_group_name_H-M   'P 1'
_cell_length_a   4.15622000
_cell_length_b   5.55859565
_cell_length_c   11.07938216
_cell_angle_alpha   89.64508752
_cell_angle_beta   90.00000000
_cell_angle_gamma   90.00000000
_symmetry_Int_Tables_number   1
_chemical_formula_structural   Hf4In2NiRh9
_chemical_formula_sum   'Hf4 In2 Ni1 Rh9'
_cell_volume   255.95924577
_cell_formula_units_Z   1
loop_
 _symmetry_equiv_pos_site_id
 _symmetry_equiv_pos_as_xyz
  1  'x, y, z'
loop_
 _atom_site_type_symbol
 _atom_site_label
 _atom_site_symmetry_multiplicity
 _atom_site_fract_x
 _atom_site_fract_y
 _atom_site_fract_z
 _atom_site_occupancy
  Hf  Hf0  1  0.500000  0.186392  0.640553  1
  Hf  Hf1  1  0.500000  0.809983  0.359856  1
  Hf  Hf2  1  0.500000  0.691222  0.860046  1
  Hf  Hf3  1  0.500000  0.311825  0.139406  1
  In  In4  1  0.000000  0.498174  0.502987  1
  In  In5  1  0.000000  0.003391  0.998862  1
  Ni  Ni6  1  0.000000  0.443892  0.752455  1
  Rh  Rh7  1  0.500000  0.217311  0.879070  1
  Rh  Rh8  1  0.500000  0.791124  0.117116  1
  Rh  Rh9  1  0.500000  0.702630  0.619920  1
  Rh  Rh10  1  0.500000  0.291109  0.383037  1
  Rh  Rh11  1  0.000000  0.553387  0.249143  1
  Rh  Rh12  1  0.000000  0.998678  0.501129  1
  Rh  Rh13  1  0.000000  0.503458  0.995719  1
  Rh  Rh14  1  0.000000  0.053993  0.250148  1
  Rh  Rh15  1  0.000000  0.943430  0.750553  1
