# generated using pymatgen
data_Tm5MnRuO12
_symmetry_space_group_name_H-M   'P 1'
_cell_length_a   6.75711002
_cell_length_b   6.75711121
_cell_length_c   7.13380560
_cell_angle_alpha   74.58502369
_cell_angle_beta   74.58502139
_cell_angle_gamma   50.64957237
_symmetry_Int_Tables_number   1
_chemical_formula_structural   Tm5MnRuO12
_chemical_formula_sum   'Tm5 Mn1 Ru1 O12'
_cell_volume   240.73617004
_cell_formula_units_Z   1
loop_
 _symmetry_equiv_pos_site_id
 _symmetry_equiv_pos_as_xyz
  1  'x, y, z'
loop_
 _atom_site_type_symbol
 _atom_site_label
 _atom_site_symmetry_multiplicity
 _atom_site_fract_x
 _atom_site_fract_y
 _atom_site_fract_z
 _atom_site_occupancy
  Tm  Tm0  1  0.692876  0.693453  0.667549  1
  Tm  Tm1  1  0.693251  0.705004  0.139821  1
  Tm  Tm2  1  0.002392  0.997608  0.000000  1
  Tm  Tm3  1  0.294996  0.306749  0.860179  1
  Tm  Tm4  1  0.306547  0.307124  0.332451  1
  Mn  Mn5  1  0.250970  0.749030  0.500000  1
  Ru  Ru6  1  0.759688  0.240312  0.500000  1
  O  O7  1  0.401325  0.904931  0.925390  1
  O  O8  1  0.571759  0.095749  0.584112  1
  O  O9  1  0.904251  0.428241  0.415888  1
  O  O10  1  0.095069  0.598675  0.074610  1
  O  O11  1  0.005561  0.994359  0.315927  1
  O  O12  1  0.496555  0.503401  0.686665  1
  O  O13  1  0.900400  0.401901  0.926398  1
  O  O14  1  0.099219  0.575199  0.582686  1
  O  O15  1  0.424801  0.900781  0.417314  1
  O  O16  1  0.598099  0.099600  0.073602  1
  O  O17  1  0.496599  0.503445  0.313335  1
  O  O18  1  0.005641  0.994439  0.684073  1
