# generated using pymatgen
data_Sr2Pd3PtO8
_symmetry_space_group_name_H-M   'P 1'
_cell_length_a   5.75339385
_cell_length_b   6.23036207
_cell_length_c   6.70247563
_cell_angle_alpha   116.04473782
_cell_angle_beta   95.46188184
_cell_angle_gamma   110.61889645
_symmetry_Int_Tables_number   1
_chemical_formula_structural   Sr2Pd3PtO8
_chemical_formula_sum   'Sr2 Pd3 Pt1 O8'
_cell_volume   192.91016580
_cell_formula_units_Z   1
loop_
 _symmetry_equiv_pos_site_id
 _symmetry_equiv_pos_as_xyz
  1  'x, y, z'
loop_
 _atom_site_type_symbol
 _atom_site_label
 _atom_site_symmetry_multiplicity
 _atom_site_fract_x
 _atom_site_fract_y
 _atom_site_fract_z
 _atom_site_occupancy
  Sr  Sr0  1  0.871485  0.243829  0.641448  1
  Sr  Sr1  1  0.128515  0.756171  0.358552  1
  Pd  Pd2  1  0.500000  0.500000  0.500000  1
  Pd  Pd3  1  0.500000  0.000000  0.000000  1
  Pd  Pd4  1  0.000000  0.000000  0.000000  1
  Pt  Pt5  1  0.500000  0.500000  0.000000  1
  O  O6  1  0.639364  0.398743  0.223005  1
  O  O7  1  0.360636  0.601257  0.776995  1
  O  O8  1  0.860981  0.645758  0.977336  1
  O  O9  1  0.139019  0.354242  0.022664  1
  O  O10  1  0.539279  0.873120  0.229875  1
  O  O11  1  0.460721  0.126880  0.770125  1
  O  O12  1  0.847272  0.823089  0.652887  1
  O  O13  1  0.152728  0.176911  0.347113  1
