# generated using pymatgen
data_K2Sn(BSe)9
_symmetry_space_group_name_H-M   'P 1'
_cell_length_a   9.98810230
_cell_length_b   10.76675954
_cell_length_c   11.32077600
_cell_angle_alpha   100.23804690
_cell_angle_beta   90.60580412
_cell_angle_gamma   116.28401575
_symmetry_Int_Tables_number   1
_chemical_formula_structural   K2Sn(BSe)9
_chemical_formula_sum   'K4 Sn2 B18 Se18'
_cell_volume   1068.66721958
_cell_formula_units_Z   2
loop_
 _symmetry_equiv_pos_site_id
 _symmetry_equiv_pos_as_xyz
  1  'x, y, z'
loop_
 _atom_site_type_symbol
 _atom_site_label
 _atom_site_symmetry_multiplicity
 _atom_site_fract_x
 _atom_site_fract_y
 _atom_site_fract_z
 _atom_site_occupancy
  K  K0  1  0.791904  0.172689  0.021072  1
  K  K1  1  0.208096  0.827311  0.978928  1
  K  K2  1  0.191121  0.352216  0.507477  1
  K  K3  1  0.808879  0.647784  0.492523  1
  Sn  Sn4  1  0.344698  0.379875  0.040505  1
  Sn  Sn5  1  0.655302  0.620125  0.959495  1
  B  B6  1  0.514069  0.161973  0.552295  1
  B  B7  1  0.485931  0.838027  0.447705  1
  B  B8  1  0.663333  0.121676  0.585333  1
  B  B9  1  0.336667  0.878324  0.414667  1
  B  B10  1  0.489413  0.042592  0.648160  1
  B  B11  1  0.510587  0.957408  0.351840  1
  B  B12  1  0.339046  0.007435  0.541198  1
  B  B13  1  0.660954  0.992565  0.458802  1
  B  B14  1  0.419671  0.062140  0.407720  1
  B  B15  1  0.580329  0.937860  0.592280  1
  B  B16  1  0.618552  0.131108  0.436183  1
  B  B17  1  0.381448  0.868892  0.563817  1
  B  B18  1  0.751844  0.420478  0.707156  1
  B  B19  1  0.248156  0.579522  0.292844  1
  B  B20  1  0.258604  0.083841  0.787504  1
  B  B21  1  0.741396  0.916159  0.212496  1
  B  B22  1  0.562178  0.273510  0.261377  1
  B  B23  1  0.437822  0.726490  0.738623  1
  Se  Se24  1  0.552456  0.360901  0.625503  1
  Se  Se25  1  0.447544  0.639099  0.374497  1
  Se  Se26  1  0.839484  0.286192  0.692135  1
  Se  Se27  1  0.160516  0.713808  0.307865  1
  Se  Se28  1  0.456923  0.094831  0.821257  1
  Se  Se29  1  0.543077  0.905169  0.178743  1
  Se  Se30  1  0.166829  0.029644  0.618809  1
  Se  Se31  1  0.833171  0.970356  0.381191  1
  Se  Se32  1  0.355430  0.151724  0.291773  1
  Se  Se33  1  0.644570  0.848276  0.708227  1
  Se  Se34  1  0.739523  0.285873  0.349979  1
  Se  Se35  1  0.260477  0.714127  0.650021  1
  Se  Se36  1  0.863883  0.616214  0.795901  1
  Se  Se37  1  0.136117  0.383786  0.204099  1
  Se  Se38  1  0.144501  0.111420  0.920170  1
  Se  Se39  1  0.855499  0.888580  0.079830  1
  Se  Se40  1  0.606061  0.387083  0.139811  1
  Se  Se41  1  0.393939  0.612917  0.860189  1
