# generated using pymatgen
data_TbAl4(AgO4)3
_symmetry_space_group_name_H-M   'P 1'
_cell_length_a   6.39381706
_cell_length_b   6.39536804
_cell_length_c   6.39594100
_cell_angle_alpha   109.47687137
_cell_angle_beta   109.47136936
_cell_angle_gamma   109.47054020
_symmetry_Int_Tables_number   1
_chemical_formula_structural   TbAl4(AgO4)3
_chemical_formula_sum   'Tb1 Al4 Ag3 O12'
_cell_volume   201.31719253
_cell_formula_units_Z   1
loop_
 _symmetry_equiv_pos_site_id
 _symmetry_equiv_pos_as_xyz
  1  'x, y, z'
loop_
 _atom_site_type_symbol
 _atom_site_label
 _atom_site_symmetry_multiplicity
 _atom_site_fract_x
 _atom_site_fract_y
 _atom_site_fract_z
 _atom_site_occupancy
  Tb  Tb0  1  0.000000  0.000000  0.999999  1
  Al  Al1  1  0.500000  0.000000  0.000000  1
  Al  Al2  1  0.000000  0.000001  0.500000  1
  Al  Al3  1  0.000001  0.500000  0.000000  1
  Al  Al4  1  0.500000  0.500000  0.500000  1
  Ag  Ag5  1  0.500001  0.000001  0.500001  1
  Ag  Ag6  1  0.499999  0.500000  0.000000  1
  Ag  Ag7  1  0.000001  0.500000  0.500000  1
  O  O8  1  0.816109  0.290140  0.106509  1
  O  O9  1  0.183891  0.709861  0.893491  1
  O  O10  1  0.816153  0.709747  0.525653  1
  O  O11  1  0.290197  0.473987  0.183843  1
  O  O12  1  0.474314  0.184250  0.290682  1
  O  O13  1  0.106200  0.815617  0.289898  1
  O  O14  1  0.708897  0.893460  0.183939  1
  O  O15  1  0.525686  0.815749  0.709319  1
  O  O16  1  0.183846  0.290255  0.474347  1
  O  O17  1  0.709806  0.526013  0.816155  1
  O  O18  1  0.893797  0.184382  0.710101  1
  O  O19  1  0.291102  0.106540  0.816060  1
