# generated using pymatgen
data_Ba20Si11Bi
_symmetry_space_group_name_H-M   'P 1'
_cell_length_a   8.47693100
_cell_length_b   8.47693100
_cell_length_c   16.96518100
_cell_angle_alpha   90.00000000
_cell_angle_beta   90.00000000
_cell_angle_gamma   90.00000000
_symmetry_Int_Tables_number   1
_chemical_formula_structural   Ba20Si11Bi
_chemical_formula_sum   'Ba20 Si11 Bi1'
_cell_volume   1219.09006983
_cell_formula_units_Z   1
loop_
 _symmetry_equiv_pos_site_id
 _symmetry_equiv_pos_as_xyz
  1  'x, y, z'
loop_
 _atom_site_type_symbol
 _atom_site_label
 _atom_site_symmetry_multiplicity
 _atom_site_fract_x
 _atom_site_fract_y
 _atom_site_fract_z
 _atom_site_occupancy
  Ba  Ba0  1  0.318255  0.676455  0.109840  1
  Ba  Ba1  1  0.176455  0.181745  0.109840  1
  Ba  Ba2  1  0.500000  0.000000  0.720358  1
  Ba  Ba3  1  0.327111  0.690310  0.394035  1
  Ba  Ba4  1  0.664983  0.695964  0.890295  1
  Ba  Ba5  1  0.190310  0.172889  0.394035  1
  Ba  Ba6  1  0.672889  0.309690  0.394035  1
  Ba  Ba7  1  0.170767  0.809204  0.605674  1
  Ba  Ba8  1  0.335017  0.304036  0.890295  1
  Ba  Ba9  1  0.195964  0.835017  0.890295  1
  Ba  Ba10  1  0.500000  0.000000  0.235353  1
  Ba  Ba11  1  0.829233  0.190796  0.605674  1
  Ba  Ba12  1  0.309204  0.329233  0.605674  1
  Ba  Ba13  1  0.809690  0.827111  0.394035  1
  Ba  Ba14  1  0.804036  0.164983  0.890295  1
  Ba  Ba15  1  0.823545  0.818255  0.109840  1
  Ba  Ba16  1  0.000000  0.500000  0.271162  1
  Ba  Ba17  1  0.000000  0.500000  0.764913  1
  Ba  Ba18  1  0.681745  0.323545  0.109840  1
  Ba  Ba19  1  0.690796  0.670767  0.605674  1
  Si  Si20  1  0.100834  0.101388  0.749204  1
  Si  Si21  1  0.398612  0.600834  0.749204  1
  Si  Si22  1  0.600769  0.601329  0.251435  1
  Si  Si23  1  0.500000  0.000000  0.017075  1
  Si  Si24  1  0.101329  0.899231  0.251435  1
  Si  Si25  1  0.601388  0.399166  0.749204  1
  Si  Si26  1  0.899166  0.898612  0.749204  1
  Si  Si27  1  0.399231  0.398671  0.251435  1
  Si  Si28  1  0.898671  0.100769  0.251435  1
  Si  Si29  1  0.500000  0.000000  0.513605  1
  Si  Si30  1  0.000000  0.500000  0.487065  1
  Bi  Bi31  1  0.000000  0.500000  0.988536  1
