# generated using pymatgen
data_Y15ThCdHg3Pt4
_symmetry_space_group_name_H-M   'P 1'
_cell_length_a   9.69825716
_cell_length_b   9.71017273
_cell_length_c   9.71017281
_cell_angle_alpha   60.21304908
_cell_angle_beta   60.22196702
_cell_angle_gamma   60.22196596
_symmetry_Int_Tables_number   1
_chemical_formula_structural   Y15ThCdHg3Pt4
_chemical_formula_sum   'Y15 Th1 Cd1 Hg3 Pt4'
_cell_volume   649.80136878
_cell_formula_units_Z   1
loop_
 _symmetry_equiv_pos_site_id
 _symmetry_equiv_pos_as_xyz
  1  'x, y, z'
loop_
 _atom_site_type_symbol
 _atom_site_label
 _atom_site_symmetry_multiplicity
 _atom_site_fract_x
 _atom_site_fract_y
 _atom_site_fract_z
 _atom_site_occupancy
  Y  Y0  1  0.356563  0.355950  0.933301  1
  Y  Y1  1  0.356563  0.933301  0.355950  1
  Y  Y2  1  0.930425  0.357138  0.357138  1
  Y  Y3  1  0.812212  0.189723  0.189723  1
  Y  Y4  1  0.189881  0.811073  0.811073  1
  Y  Y5  1  0.188699  0.812944  0.189642  1
  Y  Y6  1  0.810318  0.191211  0.810433  1
  Y  Y7  1  0.188699  0.189642  0.812944  1
  Y  Y8  1  0.810318  0.810433  0.191211  1
  Y  Y9  1  0.937223  0.565595  0.565595  1
  Y  Y10  1  0.562224  0.937617  0.937617  1
  Y  Y11  1  0.564848  0.937764  0.565276  1
  Y  Y12  1  0.936632  0.563143  0.937851  1
  Y  Y13  1  0.564848  0.565276  0.937764  1
  Y  Y14  1  0.936632  0.937851  0.563143  1
  Th  Th15  1  0.349585  0.349359  0.349359  1
  Cd  Cd16  1  0.253542  0.581875  0.581875  1
  Hg  Hg17  1  0.585046  0.587037  0.587037  1
  Hg  Hg18  1  0.585282  0.587726  0.238848  1
  Hg  Hg19  1  0.585282  0.238848  0.587726  1
  Pt  Pt20  1  0.144655  0.145281  0.145281  1
  Pt  Pt21  1  0.140729  0.141298  0.568813  1
  Pt  Pt22  1  0.140729  0.568813  0.141298  1
  Pt  Pt23  1  0.569062  0.141101  0.141101  1
