# generated using pymatgen
data_Pr7Sb(WO6)4
_symmetry_space_group_name_H-M   'P 1'
_cell_length_a   5.46982957
_cell_length_b   9.46120685
_cell_length_c   10.34052600
_cell_angle_alpha   90.15886368
_cell_angle_beta   89.94449363
_cell_angle_gamma   90.07218839
_symmetry_Int_Tables_number   1
_chemical_formula_structural   Pr7Sb(WO6)4
_chemical_formula_sum   'Pr7 Sb1 W4 O24'
_cell_volume   535.13178372
_cell_formula_units_Z   1
loop_
 _symmetry_equiv_pos_site_id
 _symmetry_equiv_pos_as_xyz
  1  'x, y, z'
loop_
 _atom_site_type_symbol
 _atom_site_label
 _atom_site_symmetry_multiplicity
 _atom_site_fract_x
 _atom_site_fract_y
 _atom_site_fract_z
 _atom_site_occupancy
  Pr  Pr0  1  0.480789  0.604068  0.537483  1
  Pr  Pr1  1  0.984190  0.893704  0.463048  1
  Pr  Pr2  1  0.518214  0.106507  0.963301  1
  Pr  Pr3  1  0.022833  0.396937  0.037535  1
  Pr  Pr4  1  0.974775  0.782118  0.865751  1
  Pr  Pr5  1  0.461374  0.717039  0.131649  1
  Pr  Pr6  1  0.034176  0.282785  0.630152  1
  Sb  Sb7  1  0.467745  0.215422  0.359498  1
  W  W8  1  0.475407  0.995329  0.650919  1
  W  W9  1  0.946884  0.502998  0.347611  1
  W  W10  1  0.543775  0.496988  0.851006  1
  W  W11  1  0.025611  0.001353  0.150967  1
  O  O12  1  0.275096  0.090502  0.499623  1
  O  O13  1  0.769093  0.422563  0.495124  1
  O  O14  1  0.749131  0.588745  0.989535  1
  O  O15  1  0.250366  0.916060  0.013263  1
  O  O16  1  0.750552  0.099208  0.585852  1
  O  O17  1  0.224320  0.374327  0.422694  1
  O  O18  1  0.278875  0.612550  0.932981  1
  O  O19  1  0.779101  0.885544  0.067350  1
  O  O20  1  0.581116  0.846576  0.531351  1
  O  O21  1  0.088387  0.649067  0.465281  1
  O  O22  1  0.425459  0.349729  0.970643  1
  O  O23  1  0.931170  0.148826  0.027672  1
  O  O24  1  0.191557  0.868174  0.259411  1
  O  O25  1  0.688868  0.637121  0.740849  1
  O  O26  1  0.804529  0.368602  0.236214  1
  O  O27  1  0.325392  0.139952  0.755104  1
  O  O28  1  0.820207  0.042006  0.289116  1
  O  O29  1  0.331854  0.452285  0.710711  1
  O  O30  1  0.167913  0.550452  0.209798  1
  O  O31  1  0.650954  0.939488  0.798916  1
  O  O32  1  0.291627  0.149077  0.192121  1
  O  O33  1  0.808168  0.364465  0.820521  1
  O  O34  1  0.691862  0.638959  0.320785  1
  O  O35  1  0.188630  0.870476  0.676161  1
