# generated using pymatgen
data_SrY(PPd)2
_symmetry_space_group_name_H-M   'P 1'
_cell_length_a   4.13578900
_cell_length_b   8.27140616
_cell_length_c   7.29672505
_cell_angle_alpha   90.13335637
_cell_angle_beta   90.00000000
_cell_angle_gamma   90.00000000
_symmetry_Int_Tables_number   1
_chemical_formula_structural   SrY(PPd)2
_chemical_formula_sum   'Sr2 Y2 P4 Pd4'
_cell_volume   249.61146328
_cell_formula_units_Z   2
loop_
 _symmetry_equiv_pos_site_id
 _symmetry_equiv_pos_as_xyz
  1  'x, y, z'
loop_
 _atom_site_type_symbol
 _atom_site_label
 _atom_site_symmetry_multiplicity
 _atom_site_fract_x
 _atom_site_fract_y
 _atom_site_fract_z
 _atom_site_occupancy
  Sr  Sr0  1  0.250000  0.499958  0.250323  1
  Sr  Sr1  1  0.750000  0.500042  0.749677  1
  Y  Y2  1  0.750000  0.999887  0.751338  1
  Y  Y3  1  0.250000  0.000113  0.248662  1
  P  P4  1  0.250000  0.773836  0.913266  1
  P  P5  1  0.750000  0.226164  0.086734  1
  P  P6  1  0.750000  0.775102  0.413278  1
  P  P7  1  0.250000  0.224898  0.586722  1
  Pd  Pd8  1  0.250000  0.769387  0.583066  1
  Pd  Pd9  1  0.750000  0.230613  0.416934  1
  Pd  Pd10  1  0.750000  0.767747  0.083463  1
  Pd  Pd11  1  0.250000  0.232253  0.916537  1
