# generated using pymatgen
data_Nb6CuAu3N2
_symmetry_space_group_name_H-M   'P 1'
_cell_length_a   7.12538066
_cell_length_b   7.11316890
_cell_length_c   7.11379400
_cell_angle_alpha   90.00000000
_cell_angle_beta   90.00000000
_cell_angle_gamma   89.95637542
_symmetry_Int_Tables_number   1
_chemical_formula_structural   Nb6CuAu3N2
_chemical_formula_sum   'Nb12 Cu2 Au6 N4'
_cell_volume   360.55568761
_cell_formula_units_Z   2
loop_
 _symmetry_equiv_pos_site_id
 _symmetry_equiv_pos_as_xyz
  1  'x, y, z'
loop_
 _atom_site_type_symbol
 _atom_site_label
 _atom_site_symmetry_multiplicity
 _atom_site_fract_x
 _atom_site_fract_y
 _atom_site_fract_z
 _atom_site_occupancy
  Nb  Nb0  1  0.793092  0.957294  0.375440  1
  Nb  Nb1  1  0.706908  0.042706  0.875440  1
  Nb  Nb2  1  0.206464  0.461888  0.128434  1
  Nb  Nb3  1  0.293536  0.538112  0.628434  1
  Nb  Nb4  1  0.960713  0.372587  0.792417  1
  Nb  Nb5  1  0.041703  0.875476  0.706204  1
  Nb  Nb6  1  0.458297  0.124524  0.206204  1
  Nb  Nb7  1  0.539287  0.627413  0.292417  1
  Nb  Nb8  1  0.373244  0.794140  0.959995  1
  Nb  Nb9  1  0.875637  0.708848  0.041613  1
  Nb  Nb10  1  0.126756  0.205860  0.459995  1
  Nb  Nb11  1  0.624363  0.291152  0.541613  1
  Cu  Cu12  1  0.186812  0.818716  0.315256  1
  Cu  Cu13  1  0.313188  0.181284  0.815256  1
  Au  Au14  1  0.817575  0.315417  0.183705  1
  Au  Au15  1  0.682425  0.684583  0.683705  1
  Au  Au16  1  0.554516  0.423289  0.929675  1
  Au  Au17  1  0.420617  0.938375  0.566215  1
  Au  Au18  1  0.945484  0.576711  0.429675  1
  Au  Au19  1  0.079383  0.061625  0.066215  1
  N  N20  1  0.874438  0.124340  0.625095  1
  N  N21  1  0.625562  0.875660  0.125095  1
  N  N22  1  0.123869  0.625088  0.875952  1
  N  N23  1  0.376131  0.374912  0.375952  1
