# generated using pymatgen
data_TbPr2Dy3CoBr10
_symmetry_space_group_name_H-M   'P 1'
_cell_length_a   7.44282955
_cell_length_b   9.30862389
_cell_length_c   9.30642507
_cell_angle_alpha   108.57458500
_cell_angle_beta   96.96602815
_cell_angle_gamma   104.01926515
_symmetry_Int_Tables_number   1
_chemical_formula_structural   TbPr2Dy3CoBr10
_chemical_formula_sum   'Tb1 Pr2 Dy3 Co1 Br10'
_cell_volume   579.01222866
_cell_formula_units_Z   1
loop_
 _symmetry_equiv_pos_site_id
 _symmetry_equiv_pos_as_xyz
  1  'x, y, z'
loop_
 _atom_site_type_symbol
 _atom_site_label
 _atom_site_symmetry_multiplicity
 _atom_site_fract_x
 _atom_site_fract_y
 _atom_site_fract_z
 _atom_site_occupancy
  Tb  Tb0  1  0.645989  0.871714  0.322085  1
  Pr  Pr1  1  0.034645  0.712080  0.408384  1
  Pr  Pr2  1  0.966057  0.288167  0.592110  1
  Dy  Dy3  1  0.879437  0.956594  0.744834  1
  Dy  Dy4  1  0.121633  0.044040  0.255673  1
  Dy  Dy5  1  0.352476  0.127474  0.676882  1
  Co  Co6  1  0.999933  0.000027  0.499892  1
  Br  Br7  1  0.462416  0.827056  0.586930  1
  Br  Br8  1  0.537458  0.174531  0.414981  1
  Br  Br9  1  0.909548  0.639736  0.680756  1
  Br  Br10  1  0.090540  0.360387  0.319395  1
  Br  Br11  1  0.245763  0.083497  0.955577  1
  Br  Br12  1  0.755901  0.917199  0.043607  1
  Br  Br13  1  0.360817  0.444360  0.772381  1
  Br  Br14  1  0.640366  0.554008  0.227965  1
  Br  Br15  1  0.770272  0.244998  0.850793  1
  Br  Br16  1  0.226749  0.754131  0.147755  1
