# generated using pymatgen
data_Pu3O10
_symmetry_space_group_name_H-M   'P 1'
_cell_length_a   5.59986335
_cell_length_b   5.93240720
_cell_length_c   7.16821192
_cell_angle_alpha   71.91979545
_cell_angle_beta   73.20663933
_cell_angle_gamma   73.43110245
_symmetry_Int_Tables_number   1
_chemical_formula_structural   Pu3O10
_chemical_formula_sum   'Pu3 O10'
_cell_volume   211.66078282
_cell_formula_units_Z   1
loop_
 _symmetry_equiv_pos_site_id
 _symmetry_equiv_pos_as_xyz
  1  'x, y, z'
loop_
 _atom_site_type_symbol
 _atom_site_label
 _atom_site_symmetry_multiplicity
 _atom_site_fract_x
 _atom_site_fract_y
 _atom_site_fract_z
 _atom_site_occupancy
  Pu  Pu0  1  0.000000  0.000000  0.000000  1
  Pu  Pu1  1  0.530375  0.459204  0.746837  1
  Pu  Pu2  1  0.469625  0.540796  0.253163  1
  O  O3  1  0.915752  0.063480  0.761841  1
  O  O4  1  0.084248  0.936520  0.238159  1
  O  O5  1  0.668033  0.331262  0.450195  1
  O  O6  1  0.331967  0.668738  0.549805  1
  O  O7  1  0.307489  0.693273  0.968074  1
  O  O8  1  0.692511  0.306727  0.031926  1
  O  O9  1  0.696509  0.745828  0.144098  1
  O  O10  1  0.303491  0.254172  0.855902  1
  O  O11  1  0.765599  0.638806  0.654076  1
  O  O12  1  0.234401  0.361194  0.345924  1
