# generated using pymatgen
data_Pr16Ho4Si15Au
_symmetry_space_group_name_H-M   'P 1'
_cell_length_a   7.86060032
_cell_length_b   7.83597513
_cell_length_c   15.30147900
_cell_angle_alpha   89.99630018
_cell_angle_beta   89.71197464
_cell_angle_gamma   89.99036639
_symmetry_Int_Tables_number   1
_chemical_formula_structural   Pr16Ho4Si15Au
_chemical_formula_sum   'Pr16 Ho4 Si15 Au1'
_cell_volume   942.48984519
_cell_formula_units_Z   1
loop_
 _symmetry_equiv_pos_site_id
 _symmetry_equiv_pos_as_xyz
  1  'x, y, z'
loop_
 _atom_site_type_symbol
 _atom_site_label
 _atom_site_symmetry_multiplicity
 _atom_site_fract_x
 _atom_site_fract_y
 _atom_site_fract_z
 _atom_site_occupancy
  Pr  Pr0  1  0.374861  0.013959  0.446938  1
  Pr  Pr1  1  0.488997  0.874804  0.697220  1
  Pr  Pr2  1  0.513327  0.120050  0.195731  1
  Pr  Pr3  1  0.880331  0.486743  0.303410  1
  Pr  Pr4  1  0.117722  0.517049  0.804151  1
  Pr  Pr5  1  0.624590  0.986629  0.948033  1
  Pr  Pr6  1  0.004042  0.380727  0.551190  1
  Pr  Pr7  1  0.988568  0.623678  0.055181  1
  Pr  Pr8  1  0.131179  0.979206  0.879096  1
  Pr  Pr9  1  0.524013  0.628098  0.128619  1
  Pr  Pr10  1  0.475156  0.372800  0.628694  1
  Pr  Pr11  1  0.626026  0.524061  0.872985  1
  Pr  Pr12  1  0.373983  0.477544  0.370167  1
  Pr  Pr13  1  0.875619  0.025098  0.378225  1
  Pr  Pr14  1  0.977656  0.125525  0.122123  1
  Pr  Pr15  1  0.019345  0.870727  0.619453  1
  Ho  Ho16  1  0.310299  0.308938  0.999867  1
  Ho  Ho17  1  0.191310  0.810197  0.250119  1
  Ho  Ho18  1  0.806139  0.187755  0.751291  1
  Ho  Ho19  1  0.689509  0.687937  0.499066  1
  Si  Si20  1  0.328916  0.688234  0.957427  1
  Si  Si21  1  0.665912  0.310527  0.456991  1
  Si  Si22  1  0.691222  0.330685  0.043530  1
  Si  Si23  1  0.311623  0.671446  0.541206  1
  Si  Si24  1  0.814336  0.827913  0.209415  1
  Si  Si25  1  0.173705  0.187878  0.291889  1
  Si  Si26  1  0.830742  0.812761  0.792586  1
  Si  Si27  1  0.285452  0.920648  0.064114  1
  Si  Si28  1  0.581407  0.785321  0.314453  1
  Si  Si29  1  0.434163  0.209533  0.817360  1
  Si  Si30  1  0.781970  0.580702  0.686767  1
  Si  Si31  1  0.214730  0.421790  0.185826  1
  Si  Si32  1  0.709505  0.077604  0.562410  1
  Si  Si33  1  0.922170  0.287359  0.937135  1
  Si  Si34  1  0.079763  0.714884  0.435522  1
  Au  Au35  1  0.181710  0.171190  0.701804  1
