# generated using pymatgen
data_Ce3Y(AlRu)4
_symmetry_space_group_name_H-M   'P 1'
_cell_length_a   4.00637900
_cell_length_b   7.30125800
_cell_length_c   15.95637025
_cell_angle_alpha   90.19498585
_cell_angle_beta   90.00000000
_cell_angle_gamma   90.00000000
_symmetry_Int_Tables_number   1
_chemical_formula_structural   Ce3Y(AlRu)4
_chemical_formula_sum   'Ce6 Y2 Al8 Ru8'
_cell_volume   466.74676459
_cell_formula_units_Z   2
loop_
 _symmetry_equiv_pos_site_id
 _symmetry_equiv_pos_as_xyz
  1  'x, y, z'
loop_
 _atom_site_type_symbol
 _atom_site_label
 _atom_site_symmetry_multiplicity
 _atom_site_fract_x
 _atom_site_fract_y
 _atom_site_fract_z
 _atom_site_occupancy
  Ce  Ce0  1  0.750000  0.821167  0.437581  1
  Ce  Ce1  1  0.750000  0.453693  0.282627  1
  Ce  Ce2  1  0.750000  0.329988  0.063096  1
  Ce  Ce3  1  0.250000  0.675816  0.938935  1
  Ce  Ce4  1  0.250000  0.048966  0.779368  1
  Ce  Ce5  1  0.250000  0.542614  0.718659  1
  Y  Y6  1  0.750000  0.957255  0.218362  1
  Y  Y7  1  0.250000  0.158639  0.559117  1
  Al  Al8  1  0.750000  0.487734  0.562718  1
  Al  Al9  1  0.750000  0.372207  0.851048  1
  Al  Al10  1  0.750000  0.007718  0.936981  1
  Al  Al11  1  0.750000  0.870454  0.648411  1
  Al  Al12  1  0.250000  0.485991  0.437947  1
  Al  Al13  1  0.250000  0.997797  0.066253  1
  Al  Al14  1  0.250000  0.638196  0.153044  1
  Al  Al15  1  0.250000  0.123221  0.344421  1
  Ru  Ru16  1  0.750000  0.752348  0.816710  1
  Ru  Ru17  1  0.250000  0.241172  0.938930  1
  Ru  Ru18  1  0.750000  0.264491  0.425249  1
  Ru  Ru19  1  0.250000  0.752310  0.325274  1
  Ru  Ru20  1  0.750000  0.763688  0.061736  1
  Ru  Ru21  1  0.750000  0.249372  0.691338  1
  Ru  Ru22  1  0.250000  0.274322  0.178202  1
  Ru  Ru23  1  0.250000  0.730839  0.563995  1
