# generated using pymatgen
data_LiLu2Co8P6Ru
_symmetry_space_group_name_H-M   'P 1'
_cell_length_a   3.66376800
_cell_length_b   10.25818700
_cell_length_c   11.77328600
_cell_angle_alpha   90.00000000
_cell_angle_beta   90.00000000
_cell_angle_gamma   90.00000000
_symmetry_Int_Tables_number   1
_chemical_formula_structural   LiLu2Co8P6Ru
_chemical_formula_sum   'Li2 Lu4 Co16 P12 Ru2'
_cell_volume   442.48267502
_cell_formula_units_Z   2
loop_
 _symmetry_equiv_pos_site_id
 _symmetry_equiv_pos_as_xyz
  1  'x, y, z'
loop_
 _atom_site_type_symbol
 _atom_site_label
 _atom_site_symmetry_multiplicity
 _atom_site_fract_x
 _atom_site_fract_y
 _atom_site_fract_z
 _atom_site_occupancy
  Li  Li0  1  0.750000  0.297017  0.009170  1
  Li  Li1  1  0.750000  0.202983  0.509170  1
  Lu  Lu2  1  0.250000  0.579043  0.702059  1
  Lu  Lu3  1  0.250000  0.920957  0.202059  1
  Lu  Lu4  1  0.750000  0.416935  0.295509  1
  Lu  Lu5  1  0.750000  0.083065  0.795509  1
  Co  Co6  1  0.250000  0.407802  0.484064  1
  Co  Co7  1  0.250000  0.092198  0.984064  1
  Co  Co8  1  0.750000  0.592745  0.512074  1
  Co  Co9  1  0.750000  0.907255  0.012074  1
  Co  Co10  1  0.250000  0.218897  0.175089  1
  Co  Co11  1  0.250000  0.281103  0.675089  1
  Co  Co12  1  0.750000  0.775980  0.823712  1
  Co  Co13  1  0.750000  0.724020  0.323712  1
  Co  Co14  1  0.250000  0.883850  0.703428  1
  Co  Co15  1  0.250000  0.616150  0.203428  1
  Co  Co16  1  0.750000  0.117357  0.300338  1
  Co  Co17  1  0.750000  0.382643  0.800338  1
  Co  Co18  1  0.250000  0.463715  0.933477  1
  Co  Co19  1  0.250000  0.036285  0.433477  1
  Co  Co20  1  0.750000  0.536124  0.070409  1
  Co  Co21  1  0.750000  0.963876  0.570409  1
  P  P22  1  0.250000  0.419820  0.116416  1
  P  P23  1  0.250000  0.080180  0.616416  1
  P  P24  1  0.750000  0.575989  0.886505  1
  P  P25  1  0.750000  0.924011  0.386505  1
  P  P26  1  0.250000  0.268308  0.862606  1
  P  P27  1  0.250000  0.231692  0.362606  1
  P  P28  1  0.750000  0.733675  0.134565  1
  P  P29  1  0.750000  0.766325  0.634565  1
  P  P30  1  0.250000  0.595507  0.390824  1
  P  P31  1  0.250000  0.904493  0.890824  1
  P  P32  1  0.750000  0.398593  0.607524  1
  P  P33  1  0.750000  0.101407  0.107524  1
  Ru  Ru34  1  0.250000  0.712575  0.992231  1
  Ru  Ru35  1  0.250000  0.787425  0.492231  1
