# generated using pymatgen
data_Yb3ErTcOs7
_symmetry_space_group_name_H-M   'P 1'
_cell_length_a   5.33648000
_cell_length_b   5.33647842
_cell_length_c   8.66608000
_cell_angle_alpha   90.00000000
_cell_angle_beta   90.00000000
_cell_angle_gamma   119.99999739
_symmetry_Int_Tables_number   1
_chemical_formula_structural   Yb3ErTcOs7
_chemical_formula_sum   'Yb3 Er1 Tc1 Os7'
_cell_volume   213.72876715
_cell_formula_units_Z   1
loop_
 _symmetry_equiv_pos_site_id
 _symmetry_equiv_pos_as_xyz
  1  'x, y, z'
loop_
 _atom_site_type_symbol
 _atom_site_label
 _atom_site_symmetry_multiplicity
 _atom_site_fract_x
 _atom_site_fract_y
 _atom_site_fract_z
 _atom_site_occupancy
  Yb  Yb0  1  0.666667  0.333333  0.571462  1
  Yb  Yb1  1  0.666667  0.333333  0.934848  1
  Yb  Yb2  1  0.333333  0.666667  0.060323  1
  Er  Er3  1  0.333333  0.666667  0.430108  1
  Tc  Tc4  1  0.000000  0.000000  0.500668  1
  Os  Os5  1  0.000000  0.000000  0.001778  1
  Os  Os6  1  0.826767  0.173233  0.250764  1
  Os  Os7  1  0.826767  0.653536  0.250764  1
  Os  Os8  1  0.346464  0.173233  0.250764  1
  Os  Os9  1  0.172436  0.827564  0.749507  1
  Os  Os10  1  0.172436  0.344871  0.749507  1
  Os  Os11  1  0.655129  0.827564  0.749507  1
