# generated using pymatgen
data_Ca3Al12Os3Rh
_symmetry_space_group_name_H-M   'P 1'
_cell_length_a   8.85297719
_cell_length_b   8.86388661
_cell_length_c   9.66118900
_cell_angle_alpha   90.00000000
_cell_angle_beta   90.00000000
_cell_angle_gamma   120.04076330
_symmetry_Int_Tables_number   1
_chemical_formula_structural   Ca3Al12Os3Rh
_chemical_formula_sum   'Ca6 Al24 Os6 Rh2'
_cell_volume   656.29064002
_cell_formula_units_Z   2
loop_
 _symmetry_equiv_pos_site_id
 _symmetry_equiv_pos_as_xyz
  1  'x, y, z'
loop_
 _atom_site_type_symbol
 _atom_site_label
 _atom_site_symmetry_multiplicity
 _atom_site_fract_x
 _atom_site_fract_y
 _atom_site_fract_z
 _atom_site_occupancy
  Ca  Ca0  1  0.196562  0.385319  0.250000  1
  Ca  Ca1  1  0.803438  0.614681  0.750000  1
  Ca  Ca2  1  0.609219  0.804609  0.250000  1
  Ca  Ca3  1  0.390781  0.195391  0.750000  1
  Ca  Ca4  1  0.196562  0.811243  0.250000  1
  Ca  Ca5  1  0.803438  0.188757  0.750000  1
  Al  Al6  1  0.334506  0.667254  0.001600  1
  Al  Al7  1  0.665494  0.332746  0.998400  1
  Al  Al8  1  0.665494  0.332746  0.501600  1
  Al  Al9  1  0.334506  0.667254  0.498400  1
  Al  Al10  1  0.165002  0.324964  0.574098  1
  Al  Al11  1  0.834998  0.675036  0.425902  1
  Al  Al12  1  0.673790  0.836895  0.569954  1
  Al  Al13  1  0.834998  0.675036  0.074098  1
  Al  Al14  1  0.326210  0.163105  0.430046  1
  Al  Al15  1  0.165002  0.324964  0.925902  1
  Al  Al16  1  0.165002  0.840036  0.574098  1
  Al  Al17  1  0.326210  0.163105  0.069954  1
  Al  Al18  1  0.834998  0.159964  0.425902  1
  Al  Al19  1  0.673790  0.836895  0.930046  1
  Al  Al20  1  0.834998  0.159964  0.074098  1
  Al  Al21  1  0.165002  0.840036  0.925902  1
  Al  Al22  1  0.563205  0.123261  0.250000  1
  Al  Al23  1  0.436795  0.876739  0.750000  1
  Al  Al24  1  0.877865  0.438933  0.250000  1
  Al  Al25  1  0.122135  0.561067  0.750000  1
  Al  Al26  1  0.563205  0.439943  0.250000  1
  Al  Al27  1  0.436795  0.560057  0.750000  1
  Al  Al28  1  0.997335  0.998668  0.250000  1
  Al  Al29  1  0.002665  0.001332  0.750000  1
  Os  Os30  1  0.500000  0.000000  0.000000  1
  Os  Os31  1  0.500000  0.000000  0.500000  1
  Os  Os32  1  0.500000  0.500000  0.000000  1
  Os  Os33  1  0.500000  0.500000  0.500000  1
  Os  Os34  1  0.000000  0.000000  0.000000  1
  Os  Os35  1  0.000000  0.000000  0.500000  1
  Rh  Rh36  1  0.000000  0.500000  0.000000  1
  Rh  Rh37  1  0.000000  0.500000  0.500000  1
