# generated using pymatgen
data_Er2AlTc3
_symmetry_space_group_name_H-M   'P 1'
_cell_length_a   5.33500300
_cell_length_b   5.33500314
_cell_length_c   8.95522100
_cell_angle_alpha   90.00000000
_cell_angle_beta   90.00000000
_cell_angle_gamma   120.00000533
_symmetry_Int_Tables_number   1
_chemical_formula_structural   Er2AlTc3
_chemical_formula_sum   'Er4 Al2 Tc6'
_cell_volume   220.73757324
_cell_formula_units_Z   2
loop_
 _symmetry_equiv_pos_site_id
 _symmetry_equiv_pos_as_xyz
  1  'x, y, z'
loop_
 _atom_site_type_symbol
 _atom_site_label
 _atom_site_symmetry_multiplicity
 _atom_site_fract_x
 _atom_site_fract_y
 _atom_site_fract_z
 _atom_site_occupancy
  Er  Er0  1  0.333333  0.666667  0.432414  1
  Er  Er1  1  0.666667  0.333333  0.567586  1
  Er  Er2  1  0.666667  0.333333  0.932414  1
  Er  Er3  1  0.333333  0.666667  0.067586  1
  Al  Al4  1  0.000000  0.000000  0.500000  1
  Al  Al5  1  0.000000  0.000000  0.000000  1
  Tc  Tc6  1  0.829990  0.170010  0.250000  1
  Tc  Tc7  1  0.829990  0.659981  0.250000  1
  Tc  Tc8  1  0.340019  0.170010  0.250000  1
  Tc  Tc9  1  0.170010  0.829990  0.750000  1
  Tc  Tc10  1  0.170010  0.340019  0.750000  1
  Tc  Tc11  1  0.659981  0.829990  0.750000  1
