# generated using pymatgen
data_DyHo3Tm2(Co3P2)6
_symmetry_space_group_name_H-M   'P 1'
_cell_length_a   3.68249700
_cell_length_b   10.47451300
_cell_length_c   12.11958600
_cell_angle_alpha   90.00000000
_cell_angle_beta   90.00000000
_cell_angle_gamma   90.00000000
_symmetry_Int_Tables_number   1
_chemical_formula_structural   DyHo3Tm2(Co3P2)6
_chemical_formula_sum   'Dy1 Ho3 Tm2 Co18 P12'
_cell_volume   467.48106695
_cell_formula_units_Z   1
loop_
 _symmetry_equiv_pos_site_id
 _symmetry_equiv_pos_as_xyz
  1  'x, y, z'
loop_
 _atom_site_type_symbol
 _atom_site_label
 _atom_site_symmetry_multiplicity
 _atom_site_fract_x
 _atom_site_fract_y
 _atom_site_fract_z
 _atom_site_occupancy
  Dy  Dy0  1  0.500000  0.000000  0.477179  1
  Ho  Ho1  1  0.000000  0.500000  0.522113  1
  Ho  Ho2  1  0.000000  0.682391  0.793972  1
  Ho  Ho3  1  0.000000  0.317609  0.793972  1
  Tm  Tm4  1  0.500000  0.818033  0.206119  1
  Tm  Tm5  1  0.500000  0.181967  0.206119  1
  Co  Co6  1  0.000000  0.500000  0.986909  1
  Co  Co7  1  0.500000  0.000000  0.014876  1
  Co  Co8  1  0.500000  0.297500  0.429929  1
  Co  Co9  1  0.500000  0.702500  0.429929  1
  Co  Co10  1  0.000000  0.202575  0.568991  1
  Co  Co11  1  0.000000  0.797425  0.568991  1
  Co  Co12  1  0.500000  0.879077  0.709567  1
  Co  Co13  1  0.500000  0.120923  0.709567  1
  Co  Co14  1  0.000000  0.621368  0.289954  1
  Co  Co15  1  0.000000  0.378632  0.289954  1
  Co  Co16  1  0.500000  0.332809  0.995119  1
  Co  Co17  1  0.500000  0.667191  0.995119  1
  Co  Co18  1  0.000000  0.166299  0.006093  1
  Co  Co19  1  0.000000  0.833701  0.006093  1
  Co  Co20  1  0.500000  0.500000  0.159133  1
  Co  Co21  1  0.000000  0.000000  0.840866  1
  Co  Co22  1  0.500000  0.500000  0.703413  1
  Co  Co23  1  0.000000  0.000000  0.296046  1
  P  P24  1  0.500000  0.311081  0.615862  1
  P  P25  1  0.500000  0.688919  0.615862  1
  P  P26  1  0.000000  0.188924  0.382864  1
  P  P27  1  0.000000  0.811076  0.382864  1
  P  P28  1  0.500000  0.500000  0.882809  1
  P  P29  1  0.000000  0.000000  0.118418  1
  P  P30  1  0.500000  0.847901  0.893032  1
  P  P31  1  0.500000  0.152099  0.893032  1
  P  P32  1  0.000000  0.653510  0.107662  1
  P  P33  1  0.000000  0.346490  0.107662  1
  P  P34  1  0.500000  0.500000  0.344145  1
  P  P35  1  0.000000  0.000000  0.655767  1
