# generated using pymatgen
data_Er3Lu2(In2Au)2
_symmetry_space_group_name_H-M   'P 1'
_cell_length_a   3.66732000
_cell_length_b   8.19040200
_cell_length_c   18.31946900
_cell_angle_alpha   90.00000000
_cell_angle_beta   90.00000000
_cell_angle_gamma   90.00000000
_symmetry_Int_Tables_number   1
_chemical_formula_structural   Er3Lu2(In2Au)2
_chemical_formula_sum   'Er6 Lu4 In8 Au4'
_cell_volume   550.25868559
_cell_formula_units_Z   2
loop_
 _symmetry_equiv_pos_site_id
 _symmetry_equiv_pos_as_xyz
  1  'x, y, z'
loop_
 _atom_site_type_symbol
 _atom_site_label
 _atom_site_symmetry_multiplicity
 _atom_site_fract_x
 _atom_site_fract_y
 _atom_site_fract_z
 _atom_site_occupancy
  Er  Er0  1  0.000000  0.238640  0.215771  1
  Er  Er1  1  0.000000  0.761360  0.784229  1
  Er  Er2  1  0.000000  0.261360  0.715771  1
  Er  Er3  1  0.000000  0.738640  0.284229  1
  Er  Er4  1  0.000000  0.000000  0.000000  1
  Er  Er5  1  0.000000  0.500000  0.500000  1
  Lu  Lu6  1  0.000000  0.121021  0.419089  1
  Lu  Lu7  1  0.000000  0.878979  0.580911  1
  Lu  Lu8  1  0.000000  0.378979  0.919089  1
  Lu  Lu9  1  0.000000  0.621021  0.080911  1
  In  In10  1  0.500000  0.418053  0.352884  1
  In  In11  1  0.500000  0.581947  0.647116  1
  In  In12  1  0.500000  0.081947  0.852884  1
  In  In13  1  0.500000  0.918053  0.147116  1
  In  In14  1  0.500000  0.295320  0.063296  1
  In  In15  1  0.500000  0.704680  0.936704  1
  In  In16  1  0.500000  0.204680  0.563296  1
  In  In17  1  0.500000  0.795320  0.436704  1
  Au  Au18  1  0.500000  0.030419  0.304563  1
  Au  Au19  1  0.500000  0.969581  0.695437  1
  Au  Au20  1  0.500000  0.469581  0.804563  1
  Au  Au21  1  0.500000  0.530419  0.195437  1
