# generated using pymatgen
data_Pr7Lu(IrO6)4
_symmetry_space_group_name_H-M   'P 1'
_cell_length_a   5.34849919
_cell_length_b   9.25158743
_cell_length_c   9.97483300
_cell_angle_alpha   90.07774170
_cell_angle_beta   89.98487395
_cell_angle_gamma   90.03688171
_symmetry_Int_Tables_number   1
_chemical_formula_structural   Pr7Lu(IrO6)4
_chemical_formula_sum   'Pr7 Lu1 Ir4 O24'
_cell_volume   493.57518857
_cell_formula_units_Z   1
loop_
 _symmetry_equiv_pos_site_id
 _symmetry_equiv_pos_as_xyz
  1  'x, y, z'
loop_
 _atom_site_type_symbol
 _atom_site_label
 _atom_site_symmetry_multiplicity
 _atom_site_fract_x
 _atom_site_fract_y
 _atom_site_fract_z
 _atom_site_occupancy
  Pr  Pr0  1  0.467928  0.599799  0.536157  1
  Pr  Pr1  1  0.966038  0.893908  0.462912  1
  Pr  Pr2  1  0.534438  0.107472  0.964333  1
  Pr  Pr3  1  0.031190  0.396496  0.039517  1
  Pr  Pr4  1  0.971010  0.785715  0.868751  1
  Pr  Pr5  1  0.470078  0.719861  0.135218  1
  Pr  Pr6  1  0.034092  0.279707  0.628843  1
  Lu  Lu7  1  0.534049  0.217199  0.369698  1
  Ir  Ir8  1  0.453469  0.998992  0.637902  1
  Ir  Ir9  1  0.947796  0.495106  0.357073  1
  Ir  Ir10  1  0.550697  0.498135  0.857655  1
  Ir  Ir11  1  0.050021  0.008889  0.148310  1
  O  O12  1  0.252145  0.092463  0.495257  1
  O  O13  1  0.730119  0.398010  0.491072  1
  O  O14  1  0.762371  0.592754  0.995465  1
  O  O15  1  0.262626  0.914020  0.009742  1
  O  O16  1  0.722510  0.112810  0.555300  1
  O  O17  1  0.230934  0.378528  0.426011  1
  O  O18  1  0.278156  0.614160  0.934518  1
  O  O19  1  0.777562  0.892926  0.068557  1
  O  O20  1  0.546302  0.850447  0.508797  1
  O  O21  1  0.044079  0.637092  0.493077  1
  O  O22  1  0.452426  0.355937  0.991913  1
  O  O23  1  0.959919  0.148099  0.010675  1
  O  O24  1  0.174468  0.858745  0.263321  1
  O  O25  1  0.682033  0.642220  0.738071  1
  O  O26  1  0.799421  0.353121  0.239676  1
  O  O27  1  0.321904  0.141854  0.759162  1
  O  O28  1  0.825750  0.066461  0.286976  1
  O  O29  1  0.335415  0.440009  0.716828  1
  O  O30  1  0.158327  0.558727  0.216810  1
  O  O31  1  0.668873  0.945749  0.780622  1
  O  O32  1  0.322741  0.140324  0.191950  1
  O  O33  1  0.818143  0.363135  0.820381  1
  O  O34  1  0.682773  0.632992  0.322263  1
  O  O35  1  0.180199  0.868138  0.677190  1
