# generated using pymatgen
data_PrYP7Ru12
_symmetry_space_group_name_H-M   'P 1'
_cell_length_a   9.45583700
_cell_length_b   9.45583534
_cell_length_c   3.97322200
_cell_angle_alpha   90.00000000
_cell_angle_beta   90.00000000
_cell_angle_gamma   119.99999533
_symmetry_Int_Tables_number   1
_chemical_formula_structural   PrYP7Ru12
_chemical_formula_sum   'Pr1 Y1 P7 Ru12'
_cell_volume   307.66164774
_cell_formula_units_Z   1
loop_
 _symmetry_equiv_pos_site_id
 _symmetry_equiv_pos_as_xyz
  1  'x, y, z'
loop_
 _atom_site_type_symbol
 _atom_site_label
 _atom_site_symmetry_multiplicity
 _atom_site_fract_x
 _atom_site_fract_y
 _atom_site_fract_z
 _atom_site_occupancy
  Pr  Pr0  1  0.333333  0.666667  0.000000  1
  Y  Y1  1  0.666667  0.333333  0.500000  1
  P  P2  1  0.605138  0.718455  0.500000  1
  P  P3  1  0.000000  0.000000  0.000000  1
  P  P4  1  0.281545  0.886683  0.500000  1
  P  P5  1  0.113317  0.394862  0.500000  1
  P  P6  1  0.887097  0.572517  0.000000  1
  P  P7  1  0.427483  0.314581  0.000000  1
  P  P8  1  0.685419  0.112903  0.000000  1
  Ru  Ru9  1  0.559729  0.954765  0.500000  1
  Ru  Ru10  1  0.395037  0.440271  0.500000  1
  Ru  Ru11  1  0.914685  0.119631  0.500000  1
  Ru  Ru12  1  0.204946  0.085315  0.500000  1
  Ru  Ru13  1  0.880369  0.795054  0.500000  1
  Ru  Ru14  1  0.729219  0.893075  0.000000  1
  Ru  Ru15  1  0.106925  0.836143  0.000000  1
  Ru  Ru16  1  0.163857  0.270781  0.000000  1
  Ru  Ru17  1  0.421764  0.068377  0.000000  1
  Ru  Ru18  1  0.931623  0.353388  0.000000  1
  Ru  Ru19  1  0.646612  0.578236  0.000000  1
  Ru  Ru20  1  0.045235  0.604963  0.500000  1
