# generated using pymatgen
data_NaCa3(PAu)4
_symmetry_space_group_name_H-M   'P 1'
_cell_length_a   8.51829079
_cell_length_b   4.14536900
_cell_length_c   7.31899700
_cell_angle_alpha   90.00000000
_cell_angle_beta   90.06075783
_cell_angle_gamma   90.00000000
_symmetry_Int_Tables_number   1
_chemical_formula_structural   NaCa3(PAu)4
_chemical_formula_sum   'Na1 Ca3 P4 Au4'
_cell_volume   258.44431404
_cell_formula_units_Z   1
loop_
 _symmetry_equiv_pos_site_id
 _symmetry_equiv_pos_as_xyz
  1  'x, y, z'
loop_
 _atom_site_type_symbol
 _atom_site_label
 _atom_site_symmetry_multiplicity
 _atom_site_fract_x
 _atom_site_fract_y
 _atom_site_fract_z
 _atom_site_occupancy
  Na  Na0  1  0.500051  0.249999  0.249828  1
  Ca  Ca1  1  0.000089  0.249999  0.250114  1
  Ca  Ca2  1  0.000008  0.749999  0.749988  1
  Ca  Ca3  1  0.499879  0.749999  0.750102  1
  P  P4  1  0.233336  0.749999  0.085561  1
  P  P5  1  0.766437  0.749999  0.414664  1
  P  P6  1  0.252344  0.249999  0.587369  1
  P  P7  1  0.747827  0.249999  0.912860  1
  Au  Au8  1  0.747864  0.749999  0.084927  1
  Au  Au9  1  0.252327  0.749999  0.414844  1
  Au  Au10  1  0.753093  0.249999  0.582286  1
  Au  Au11  1  0.246748  0.249999  0.917455  1
