# generated using pymatgen
data_LaSn4PdRh5
_symmetry_space_group_name_H-M   'P 1'
_cell_length_a   7.60290200
_cell_length_b   7.72899573
_cell_length_c   4.11376600
_cell_angle_alpha   90.00000000
_cell_angle_beta   90.00000000
_cell_angle_gamma   119.46177646
_symmetry_Int_Tables_number   1
_chemical_formula_structural   LaSn4PdRh5
_chemical_formula_sum   'La1 Sn4 Pd1 Rh5'
_cell_volume   210.47601543
_cell_formula_units_Z   1
loop_
 _symmetry_equiv_pos_site_id
 _symmetry_equiv_pos_as_xyz
  1  'x, y, z'
loop_
 _atom_site_type_symbol
 _atom_site_label
 _atom_site_symmetry_multiplicity
 _atom_site_fract_x
 _atom_site_fract_y
 _atom_site_fract_z
 _atom_site_occupancy
  La  La0  1  0.992341  0.984681  0.000000  1
  Sn  Sn1  1  0.337296  0.674593  0.000000  1
  Sn  Sn2  1  0.801221  0.602442  0.500000  1
  Sn  Sn3  1  0.393890  0.195997  0.500000  1
  Sn  Sn4  1  0.802107  0.195997  0.500000  1
  Pd  Pd5  1  0.203471  0.406942  0.500000  1
  Rh  Rh6  1  0.534680  0.069359  0.000000  1
  Rh  Rh7  1  0.933468  0.466107  0.000000  1
  Rh  Rh8  1  0.532639  0.466107  0.000000  1
  Rh  Rh9  1  0.600530  0.802220  0.500000  1
  Rh  Rh10  1  0.201692  0.802220  0.500000  1
