# generated using pymatgen
data_Nd8TmLu11Sb12
_symmetry_space_group_name_H-M   'P 1'
_cell_length_a   8.21190623
_cell_length_b   9.22831419
_cell_length_c   12.02374954
_cell_angle_alpha   89.99182432
_cell_angle_beta   90.01063467
_cell_angle_gamma   90.01205907
_symmetry_Int_Tables_number   1
_chemical_formula_structural   Nd8TmLu11Sb12
_chemical_formula_sum   'Nd8 Tm1 Lu11 Sb12'
_cell_volume   911.18435303
_cell_formula_units_Z   1
loop_
 _symmetry_equiv_pos_site_id
 _symmetry_equiv_pos_as_xyz
  1  'x, y, z'
loop_
 _atom_site_type_symbol
 _atom_site_label
 _atom_site_symmetry_multiplicity
 _atom_site_fract_x
 _atom_site_fract_y
 _atom_site_fract_z
 _atom_site_occupancy
  Nd  Nd0  1  0.310746  0.442399  0.434273  1
  Nd  Nd1  1  0.175086  0.750176  0.226290  1
  Nd  Nd2  1  0.676742  0.249177  0.270806  1
  Nd  Nd3  1  0.823662  0.249270  0.771755  1
  Nd  Nd4  1  0.322625  0.749823  0.728899  1
  Nd  Nd5  1  0.659370  0.749147  0.290598  1
  Nd  Nd6  1  0.160740  0.249404  0.207782  1
  Nd  Nd7  1  0.340340  0.248771  0.710398  1
  Tm  Tm8  1  0.838406  0.749411  0.790844  1
  Lu  Lu9  1  0.811112  0.937738  0.064389  1
  Lu  Lu10  1  0.311916  0.062685  0.433959  1
  Lu  Lu11  1  0.188107  0.438059  0.934243  1
  Lu  Lu12  1  0.687980  0.562268  0.568059  1
  Lu  Lu13  1  0.188123  0.061694  0.934298  1
  Lu  Lu14  1  0.690850  0.937845  0.568846  1
  Lu  Lu15  1  0.810825  0.561745  0.064329  1
  Lu  Lu16  1  0.525664  0.249385  0.994996  1
  Lu  Lu17  1  0.024467  0.749722  0.505208  1
  Lu  Lu18  1  0.474587  0.750088  0.002228  1
  Lu  Lu19  1  0.973270  0.249188  0.497284  1
  Sb  Sb20  1  0.939160  0.990754  0.331472  1
  Sb  Sb21  1  0.439811  0.007023  0.167394  1
  Sb  Sb22  1  0.058034  0.493619  0.671741  1
  Sb  Sb23  1  0.565524  0.510752  0.831346  1
  Sb  Sb24  1  0.057621  0.004692  0.671430  1
  Sb  Sb25  1  0.565654  0.988415  0.831530  1
  Sb  Sb26  1  0.936785  0.508567  0.330526  1
  Sb  Sb27  1  0.441556  0.492241  0.165571  1
  Sb  Sb28  1  0.899125  0.249745  0.025254  1
  Sb  Sb29  1  0.404293  0.759133  0.477281  1
  Sb  Sb30  1  0.094481  0.749983  0.970162  1
  Sb  Sb31  1  0.603340  0.247083  0.526811  1
