# generated using pymatgen
data_Ce2Tm3AgSn3
_symmetry_space_group_name_H-M   'P 1'
_cell_length_a   6.37151200
_cell_length_b   9.37722159
_cell_length_c   9.37722200
_cell_angle_alpha   120.00000143
_cell_angle_beta   90.00000000
_cell_angle_gamma   90.00000000
_symmetry_Int_Tables_number   1
_chemical_formula_structural   Ce2Tm3AgSn3
_chemical_formula_sum   'Ce4 Tm6 Ag2 Sn6'
_cell_volume   485.20079924
_cell_formula_units_Z   2
loop_
 _symmetry_equiv_pos_site_id
 _symmetry_equiv_pos_as_xyz
  1  'x, y, z'
loop_
 _atom_site_type_symbol
 _atom_site_label
 _atom_site_symmetry_multiplicity
 _atom_site_fract_x
 _atom_site_fract_y
 _atom_site_fract_z
 _atom_site_occupancy
  Ce  Ce0  1  0.000000  0.666667  0.333333  1
  Ce  Ce1  1  0.000000  0.333333  0.666667  1
  Ce  Ce2  1  0.500000  0.333333  0.666667  1
  Ce  Ce3  1  0.500000  0.666667  0.333333  1
  Tm  Tm4  1  0.750000  0.722508  0.722508  1
  Tm  Tm5  1  0.250000  0.277492  0.277492  1
  Tm  Tm6  1  0.750000  0.000000  0.277492  1
  Tm  Tm7  1  0.250000  0.000000  0.722508  1
  Tm  Tm8  1  0.750000  0.277492  0.000000  1
  Tm  Tm9  1  0.250000  0.722508  0.000000  1
  Ag  Ag10  1  0.000000  0.000000  0.000000  1
  Ag  Ag11  1  0.500000  0.000000  0.000000  1
  Sn  Sn12  1  0.750000  0.372411  0.372411  1
  Sn  Sn13  1  0.250000  0.627589  0.627589  1
  Sn  Sn14  1  0.750000  0.000000  0.627589  1
  Sn  Sn15  1  0.250000  0.000000  0.372411  1
  Sn  Sn16  1  0.750000  0.627589  0.000000  1
  Sn  Sn17  1  0.250000  0.372411  0.000000  1
