# generated using pymatgen
data_CuAg(S2O7)2
_symmetry_space_group_name_H-M   'P 1'
_cell_length_a   5.73279373
_cell_length_b   6.98256511
_cell_length_c   8.83119395
_cell_angle_alpha   106.32947375
_cell_angle_beta   94.74090424
_cell_angle_gamma   103.02606862
_symmetry_Int_Tables_number   1
_chemical_formula_structural   CuAg(S2O7)2
_chemical_formula_sum   'Cu1 Ag1 S4 O14'
_cell_volume   326.46337246
_cell_formula_units_Z   1
loop_
 _symmetry_equiv_pos_site_id
 _symmetry_equiv_pos_as_xyz
  1  'x, y, z'
loop_
 _atom_site_type_symbol
 _atom_site_label
 _atom_site_symmetry_multiplicity
 _atom_site_fract_x
 _atom_site_fract_y
 _atom_site_fract_z
 _atom_site_occupancy
  Cu  Cu0  1  0.500000  0.500000  0.500000  1
  Ag  Ag1  1  0.500000  0.000000  0.000000  1
  S  S2  1  0.930502  0.725182  0.755337  1
  S  S3  1  0.069498  0.274818  0.244663  1
  S  S4  1  0.661350  0.317613  0.745816  1
  S  S5  1  0.338650  0.682387  0.254184  1
  O  O6  1  0.829409  0.644101  0.578993  1
  O  O7  1  0.170591  0.355899  0.421007  1
  O  O8  1  0.473174  0.409015  0.681866  1
  O  O9  1  0.526826  0.590985  0.318134  1
  O  O10  1  0.189570  0.809779  0.771077  1
  O  O11  1  0.810430  0.190221  0.228923  1
  O  O12  1  0.794755  0.849985  0.849832  1
  O  O13  1  0.205245  0.150015  0.150168  1
  O  O14  1  0.592313  0.279409  0.890732  1
  O  O15  1  0.407687  0.720591  0.109268  1
  O  O16  1  0.909183  0.519030  0.812628  1
  O  O17  1  0.090817  0.480970  0.187372  1
  O  O18  1  0.732265  0.163501  0.628444  1
  O  O19  1  0.267735  0.836499  0.371556  1
