# generated using pymatgen
data_K2Li3AlO4
_symmetry_space_group_name_H-M   'P 1'
_cell_length_a   7.77020582
_cell_length_b   7.77020668
_cell_length_c   7.77020644
_cell_angle_alpha   143.55971495
_cell_angle_beta   103.59100885
_cell_angle_gamma   87.73818567
_symmetry_Int_Tables_number   1
_chemical_formula_structural   K2Li3AlO4
_chemical_formula_sum   'K4 Li6 Al2 O8'
_cell_volume   261.60803087
_cell_formula_units_Z   2
loop_
 _symmetry_equiv_pos_site_id
 _symmetry_equiv_pos_as_xyz
  1  'x, y, z'
loop_
 _atom_site_type_symbol
 _atom_site_label
 _atom_site_symmetry_multiplicity
 _atom_site_fract_x
 _atom_site_fract_y
 _atom_site_fract_z
 _atom_site_occupancy
  K  K0  1  0.372213  0.237281  0.609493  1
  K  K1  1  0.627787  0.762719  0.390507  1
  K  K2  1  0.872213  0.262719  0.134932  1
  K  K3  1  0.127787  0.737281  0.865068  1
  Li  Li4  1  0.488929  0.750000  0.738929  1
  Li  Li5  1  0.988929  0.250000  0.738929  1
  Li  Li6  1  0.011071  0.750000  0.261071  1
  Li  Li7  1  0.250000  0.750000  0.500000  1
  Li  Li8  1  0.511071  0.250000  0.261071  1
  Li  Li9  1  0.750000  0.250000  0.500000  1
  Al  Al10  1  0.750000  0.750000  0.000000  1
  Al  Al11  1  0.250000  0.250000  0.000000  1
  O  O12  1  0.054822  0.944237  0.659935  1
  O  O13  1  0.215698  0.555763  0.110585  1
  O  O14  1  0.784302  0.444237  0.889415  1
  O  O15  1  0.554822  0.894887  0.110585  1
  O  O16  1  0.945178  0.055763  0.340065  1
  O  O17  1  0.715698  0.605113  0.659935  1
  O  O18  1  0.445178  0.105113  0.889415  1
  O  O19  1  0.284302  0.394887  0.340065  1
