# generated using pymatgen
data_Dy10Bi4IrOs
_symmetry_space_group_name_H-M   'P 1'
_cell_length_a   7.98860833
_cell_length_b   9.03203600
_cell_length_c   12.48915997
_cell_angle_alpha   90.00000000
_cell_angle_beta   89.85547374
_cell_angle_gamma   90.00000000
_symmetry_Int_Tables_number   1
_chemical_formula_structural   Dy10Bi4IrOs
_chemical_formula_sum   'Dy20 Bi8 Ir2 Os2'
_cell_volume   901.13246349
_cell_formula_units_Z   2
loop_
 _symmetry_equiv_pos_site_id
 _symmetry_equiv_pos_as_xyz
  1  'x, y, z'
loop_
 _atom_site_type_symbol
 _atom_site_label
 _atom_site_symmetry_multiplicity
 _atom_site_fract_x
 _atom_site_fract_y
 _atom_site_fract_z
 _atom_site_occupancy
  Dy  Dy0  1  0.841856  0.750000  0.792549  1
  Dy  Dy1  1  0.158144  0.250000  0.207451  1
  Dy  Dy2  1  0.339928  0.250000  0.707800  1
  Dy  Dy3  1  0.660072  0.750000  0.292200  1
  Dy  Dy4  1  0.374366  0.750000  0.692905  1
  Dy  Dy5  1  0.625634  0.250000  0.307095  1
  Dy  Dy6  1  0.875761  0.250000  0.806764  1
  Dy  Dy7  1  0.124239  0.750000  0.193236  1
  Dy  Dy8  1  0.945579  0.750000  0.503455  1
  Dy  Dy9  1  0.054421  0.250000  0.496545  1
  Dy  Dy10  1  0.442370  0.250000  0.996069  1
  Dy  Dy11  1  0.557630  0.750000  0.003931  1
  Dy  Dy12  1  0.676724  0.043460  0.565444  1
  Dy  Dy13  1  0.323276  0.956540  0.434556  1
  Dy  Dy14  1  0.174258  0.958090  0.935892  1
  Dy  Dy15  1  0.323276  0.543460  0.434556  1
  Dy  Dy16  1  0.825742  0.041910  0.064108  1
  Dy  Dy17  1  0.676724  0.456540  0.565444  1
  Dy  Dy18  1  0.825742  0.458090  0.064108  1
  Dy  Dy19  1  0.174258  0.541910  0.935892  1
  Bi  Bi20  1  0.567988  0.492905  0.827442  1
  Bi  Bi21  1  0.432012  0.507095  0.172558  1
  Bi  Bi22  1  0.067983  0.507078  0.672316  1
  Bi  Bi23  1  0.432012  0.992905  0.172558  1
  Bi  Bi24  1  0.932017  0.492922  0.327684  1
  Bi  Bi25  1  0.567988  0.007095  0.827442  1
  Bi  Bi26  1  0.932017  0.007078  0.327684  1
  Bi  Bi27  1  0.067983  0.992922  0.672316  1
  Ir  Ir28  1  0.572673  0.750000  0.509999  1
  Ir  Ir29  1  0.427327  0.250000  0.490001  1
  Os  Os30  1  0.075529  0.250000  0.989380  1
  Os  Os31  1  0.924471  0.750000  0.010620  1
