# generated using pymatgen
data_LiNd8HgIr2
_symmetry_space_group_name_H-M   'P 1'
_cell_length_a   9.95451284
_cell_length_b   9.95451299
_cell_length_c   9.93202700
_cell_angle_alpha   60.07469154
_cell_angle_beta   60.07469105
_cell_angle_gamma   60.17399933
_symmetry_Int_Tables_number   1
_chemical_formula_structural   LiNd8HgIr2
_chemical_formula_sum   'Li2 Nd16 Hg2 Ir4'
_cell_volume   697.62403722
_cell_formula_units_Z   2
loop_
 _symmetry_equiv_pos_site_id
 _symmetry_equiv_pos_as_xyz
  1  'x, y, z'
loop_
 _atom_site_type_symbol
 _atom_site_label
 _atom_site_symmetry_multiplicity
 _atom_site_fract_x
 _atom_site_fract_y
 _atom_site_fract_z
 _atom_site_occupancy
  Li  Li0  1  0.567309  0.567309  0.575491  1
  Li  Li1  1  0.567309  0.567309  0.289891  1
  Nd  Nd2  1  0.349229  0.349229  0.350585  1
  Nd  Nd3  1  0.349229  0.349229  0.950957  1
  Nd  Nd4  1  0.347726  0.958536  0.346868  1
  Nd  Nd5  1  0.958536  0.347726  0.346868  1
  Nd  Nd6  1  0.811355  0.189625  0.190208  1
  Nd  Nd7  1  0.189625  0.811355  0.808812  1
  Nd  Nd8  1  0.189625  0.811355  0.190208  1
  Nd  Nd9  1  0.811355  0.189625  0.808812  1
  Nd  Nd10  1  0.194014  0.194014  0.805986  1
  Nd  Nd11  1  0.815904  0.815904  0.184096  1
  Nd  Nd12  1  0.939679  0.561436  0.561816  1
  Nd  Nd13  1  0.561436  0.939679  0.937069  1
  Nd  Nd14  1  0.561436  0.939679  0.561816  1
  Nd  Nd15  1  0.939679  0.561436  0.937069  1
  Nd  Nd16  1  0.561767  0.561767  0.938233  1
  Nd  Nd17  1  0.939449  0.939449  0.560551  1
  Hg  Hg18  1  0.591528  0.246685  0.580894  1
  Hg  Hg19  1  0.246685  0.591528  0.580894  1
  Ir  Ir20  1  0.143120  0.143120  0.139680  1
  Ir  Ir21  1  0.143120  0.143120  0.574078  1
  Ir  Ir22  1  0.145297  0.575583  0.139559  1
  Ir  Ir23  1  0.575583  0.145297  0.139559  1
