# generated using pymatgen
data_Er4Bi3Sb
_symmetry_space_group_name_H-M   'P 1'
_cell_length_a   7.66457038
_cell_length_b   7.66457133
_cell_length_c   7.66457200
_cell_angle_alpha   131.83474165
_cell_angle_beta   131.83474429
_cell_angle_gamma   70.49016067
_symmetry_Int_Tables_number   1
_chemical_formula_structural   Er4Bi3Sb
_chemical_formula_sum   'Er4 Bi3 Sb1'
_cell_volume   244.91535331
_cell_formula_units_Z   1
loop_
 _symmetry_equiv_pos_site_id
 _symmetry_equiv_pos_as_xyz
  1  'x, y, z'
loop_
 _atom_site_type_symbol
 _atom_site_label
 _atom_site_symmetry_multiplicity
 _atom_site_fract_x
 _atom_site_fract_y
 _atom_site_fract_z
 _atom_site_occupancy
  Er  Er0  1  0.254099  0.254099  0.000000  1
  Er  Er1  1  0.745901  0.745901  0.000000  1
  Er  Er2  1  0.500000  0.000000  0.500000  1
  Er  Er3  1  0.000000  0.500000  0.500000  1
  Bi  Bi4  1  0.000000  0.000000  0.000000  1
  Bi  Bi5  1  0.750000  0.250000  0.500000  1
  Bi  Bi6  1  0.250000  0.750000  0.500000  1
  Sb  Sb7  1  0.500000  0.500000  0.000000  1
