# generated using pymatgen
data_Sc6Nb4Al2Ga10Os7
_symmetry_space_group_name_H-M   'P 1'
_cell_length_a   8.90648360
_cell_length_b   8.88081606
_cell_length_c   8.88087852
_cell_angle_alpha   59.78956125
_cell_angle_beta   59.90412346
_cell_angle_gamma   59.90480727
_symmetry_Int_Tables_number   1
_chemical_formula_structural   Sc6Nb4Al2Ga10Os7
_chemical_formula_sum   'Sc6 Nb4 Al2 Ga10 Os7'
_cell_volume   495.19696835
_cell_formula_units_Z   1
loop_
 _symmetry_equiv_pos_site_id
 _symmetry_equiv_pos_as_xyz
  1  'x, y, z'
loop_
 _atom_site_type_symbol
 _atom_site_label
 _atom_site_symmetry_multiplicity
 _atom_site_fract_x
 _atom_site_fract_y
 _atom_site_fract_z
 _atom_site_occupancy
  Sc  Sc0  1  0.710542  0.713785  0.287529  1
  Sc  Sc1  1  0.288135  0.713795  0.287522  1
  Sc  Sc2  1  0.712682  0.287318  0.287318  1
  Sc  Sc3  1  0.288143  0.287529  0.713785  1
  Sc  Sc4  1  0.710546  0.287522  0.713795  1
  Sc  Sc5  1  0.288474  0.711526  0.711526  1
  Nb  Nb6  1  0.878634  0.878133  0.364599  1
  Nb  Nb7  1  0.878637  0.364599  0.878133  1
  Nb  Nb8  1  0.366097  0.877788  0.877786  1
  Nb  Nb9  1  0.878330  0.877786  0.877788  1
  Al  Al10  1  0.121447  0.121890  0.635214  1
  Al  Al11  1  0.121447  0.635214  0.121890  1
  Ga  Ga12  1  0.641782  0.119648  0.119650  1
  Ga  Ga13  1  0.118919  0.119650  0.119648  1
  Ga  Ga14  1  0.658567  0.658442  0.024421  1
  Ga  Ga15  1  0.658570  0.024421  0.658442  1
  Ga  Ga16  1  0.024389  0.658527  0.658525  1
  Ga  Ga17  1  0.658559  0.658525  0.658527  1
  Ga  Ga18  1  0.337549  0.339819  0.985085  1
  Ga  Ga19  1  0.337549  0.985085  0.339819  1
  Ga  Ga20  1  0.983517  0.339631  0.339632  1
  Ga  Ga21  1  0.337221  0.339632  0.339631  1
  Os  Os22  1  0.003644  0.996356  0.996356  1
  Os  Os23  1  0.997473  0.998036  0.502946  1
  Os  Os24  1  0.501547  0.998035  0.502948  1
  Os  Os25  1  0.997024  0.502976  0.502976  1
  Os  Os26  1  0.501546  0.502946  0.998036  1
  Os  Os27  1  0.997471  0.502948  0.998035  1
  Os  Os28  1  0.501562  0.998438  0.998438  1
