# generated using pymatgen
data_Zr8Ta9Ti3Ge16
_symmetry_space_group_name_H-M   'P 1'
_cell_length_a   6.85404065
_cell_length_b   6.95454225
_cell_length_c   13.29410280
_cell_angle_alpha   89.99761253
_cell_angle_beta   90.03970074
_cell_angle_gamma   89.96962771
_symmetry_Int_Tables_number   1
_chemical_formula_structural   Zr8Ta9Ti3Ge16
_chemical_formula_sum   'Zr8 Ta9 Ti3 Ge16'
_cell_volume   633.68597125
_cell_formula_units_Z   1
loop_
 _symmetry_equiv_pos_site_id
 _symmetry_equiv_pos_as_xyz
  1  'x, y, z'
loop_
 _atom_site_type_symbol
 _atom_site_label
 _atom_site_symmetry_multiplicity
 _atom_site_fract_x
 _atom_site_fract_y
 _atom_site_fract_z
 _atom_site_occupancy
  Zr  Zr0  1  0.488037  0.674493  0.591909  1
  Zr  Zr1  1  0.987411  0.825931  0.908217  1
  Zr  Zr2  1  0.512460  0.325405  0.090985  1
  Zr  Zr3  1  0.012557  0.174541  0.408410  1
  Zr  Zr4  1  0.511091  0.326404  0.408006  1
  Zr  Zr5  1  0.009896  0.176018  0.090986  1
  Zr  Zr6  1  0.490865  0.676163  0.907806  1
  Zr  Zr7  1  0.990192  0.823409  0.591333  1
  Ta  Ta8  1  0.839605  0.667458  0.375433  1
  Ta  Ta9  1  0.342280  0.832769  0.375333  1
  Ta  Ta10  1  0.840765  0.665929  0.124342  1
  Ta  Ta11  1  0.658069  0.166545  0.875401  1
  Ta  Ta12  1  0.158343  0.332660  0.625246  1
  Ta  Ta13  1  0.835371  0.491443  0.749989  1
  Ta  Ta14  1  0.334946  0.008723  0.750685  1
  Ta  Ta15  1  0.163733  0.509135  0.250199  1
  Ta  Ta16  1  0.665010  0.989579  0.251170  1
  Ti  Ti17  1  0.659621  0.166365  0.625479  1
  Ti  Ti18  1  0.160871  0.333095  0.875247  1
  Ti  Ti19  1  0.339192  0.833596  0.124388  1
  Ge  Ge20  1  0.683277  0.964160  0.462740  1
  Ge  Ge21  1  0.185460  0.540835  0.038334  1
  Ge  Ge22  1  0.314038  0.040337  0.961217  1
  Ge  Ge23  1  0.814164  0.456710  0.540575  1
  Ge  Ge24  1  0.320994  0.039674  0.540702  1
  Ge  Ge25  1  0.822154  0.460131  0.959105  1
  Ge  Ge26  1  0.678455  0.959892  0.040488  1
  Ge  Ge27  1  0.180779  0.539100  0.460661  1
  Ge  Ge28  1  0.460671  0.384324  0.749603  1
  Ge  Ge29  1  0.960393  0.115815  0.751043  1
  Ge  Ge30  1  0.536510  0.614940  0.247483  1
  Ge  Ge31  1  0.041887  0.886537  0.248407  1
  Ge  Ge32  1  0.693877  0.852647  0.748463  1
  Ge  Ge33  1  0.193455  0.647281  0.751833  1
  Ge  Ge34  1  0.307494  0.148278  0.248701  1
  Ge  Ge35  1  0.806077  0.349675  0.250083  1
