# generated using pymatgen
data_PrPa5(Al3Os)8
_symmetry_space_group_name_H-M   'P 1'
_cell_length_a   8.88697114
_cell_length_b   8.88697073
_cell_length_c   9.44728400
_cell_angle_alpha   90.00000000
_cell_angle_beta   90.00000000
_cell_angle_gamma   119.88604978
_symmetry_Int_Tables_number   1
_chemical_formula_structural   PrPa5(Al3Os)8
_chemical_formula_sum   'Pr1 Pa5 Al24 Os8'
_cell_volume   646.90819319
_cell_formula_units_Z   1
loop_
 _symmetry_equiv_pos_site_id
 _symmetry_equiv_pos_as_xyz
  1  'x, y, z'
loop_
 _atom_site_type_symbol
 _atom_site_label
 _atom_site_symmetry_multiplicity
 _atom_site_fract_x
 _atom_site_fract_y
 _atom_site_fract_z
 _atom_site_occupancy
  Pr  Pr0  1  0.807867  0.192133  0.750000  1
  Pa  Pa1  1  0.195437  0.395101  0.250000  1
  Pa  Pa2  1  0.800681  0.607487  0.750000  1
  Pa  Pa3  1  0.604899  0.804563  0.250000  1
  Pa  Pa4  1  0.392513  0.199319  0.750000  1
  Pa  Pa5  1  0.198084  0.801916  0.250000  1
  Al  Al6  1  0.334407  0.665593  0.015948  1
  Al  Al7  1  0.668666  0.331334  0.980542  1
  Al  Al8  1  0.668666  0.331334  0.519458  1
  Al  Al9  1  0.334407  0.665593  0.484052  1
  Al  Al10  1  0.162696  0.324919  0.576962  1
  Al  Al11  1  0.837502  0.676004  0.421005  1
  Al  Al12  1  0.675081  0.837304  0.576962  1
  Al  Al13  1  0.837502  0.676004  0.078995  1
  Al  Al14  1  0.323996  0.162498  0.421005  1
  Al  Al15  1  0.162696  0.324919  0.923038  1
  Al  Al16  1  0.161668  0.838332  0.579509  1
  Al  Al17  1  0.323996  0.162498  0.078995  1
  Al  Al18  1  0.837798  0.162202  0.419790  1
  Al  Al19  1  0.675081  0.837304  0.923038  1
  Al  Al20  1  0.837798  0.162202  0.080210  1
  Al  Al21  1  0.161668  0.838332  0.920491  1
  Al  Al22  1  0.563234  0.127961  0.250000  1
  Al  Al23  1  0.438387  0.877818  0.750000  1
  Al  Al24  1  0.872039  0.436766  0.250000  1
  Al  Al25  1  0.122182  0.561613  0.750000  1
  Al  Al26  1  0.561861  0.438139  0.250000  1
  Al  Al27  1  0.435872  0.564128  0.750000  1
  Al  Al28  1  0.000189  0.999811  0.250000  1
  Al  Al29  1  0.003221  0.996779  0.750000  1
  Os  Os30  1  0.494742  0.995202  0.005779  1
  Os  Os31  1  0.004798  0.505258  0.005779  1
  Os  Os32  1  0.494742  0.995202  0.494221  1
  Os  Os33  1  0.500774  0.499226  0.998843  1
  Os  Os34  1  0.004798  0.505258  0.494221  1
  Os  Os35  1  0.500774  0.499226  0.501157  1
  Os  Os36  1  0.999639  0.000361  0.000415  1
  Os  Os37  1  0.999639  0.000361  0.499585  1
