# generated using pymatgen
data_Tb2Yb2Ni13C4
_symmetry_space_group_name_H-M   'P 1'
_cell_length_a   8.33084379
_cell_length_b   8.33084435
_cell_length_c   3.85407100
_cell_angle_alpha   90.00000000
_cell_angle_beta   90.00000000
_cell_angle_gamma   90.91697083
_symmetry_Int_Tables_number   1
_chemical_formula_structural   Tb2Yb2Ni13C4
_chemical_formula_sum   'Tb2 Yb2 Ni13 C4'
_cell_volume   267.44969183
_cell_formula_units_Z   1
loop_
 _symmetry_equiv_pos_site_id
 _symmetry_equiv_pos_as_xyz
  1  'x, y, z'
loop_
 _atom_site_type_symbol
 _atom_site_label
 _atom_site_symmetry_multiplicity
 _atom_site_fract_x
 _atom_site_fract_y
 _atom_site_fract_z
 _atom_site_occupancy
  Tb  Tb0  1  0.346358  0.346358  0.500000  1
  Tb  Tb1  1  0.653642  0.653642  0.500000  1
  Yb  Yb2  1  0.808558  0.191442  0.500000  1
  Yb  Yb3  1  0.191442  0.808558  0.500000  1
  Ni  Ni4  1  0.000000  0.000000  0.000000  1
  Ni  Ni5  1  0.215099  0.570758  0.000000  1
  Ni  Ni6  1  0.784901  0.429242  0.000000  1
  Ni  Ni7  1  0.429242  0.784901  0.000000  1
  Ni  Ni8  1  0.570758  0.215099  0.000000  1
  Ni  Ni9  1  0.000000  0.500000  0.500000  1
  Ni  Ni10  1  0.500000  0.000000  0.500000  1
  Ni  Ni11  1  0.073264  0.289141  0.000000  1
  Ni  Ni12  1  0.926736  0.710859  0.000000  1
  Ni  Ni13  1  0.710859  0.926736  0.000000  1
  Ni  Ni14  1  0.289141  0.073264  0.000000  1
  Ni  Ni15  1  0.117323  0.117323  0.500000  1
  Ni  Ni16  1  0.882677  0.882677  0.500000  1
  C  C17  1  0.000000  0.500000  0.000000  1
  C  C18  1  0.500000  0.000000  0.000000  1
  C  C19  1  0.442744  0.557256  0.000000  1
  C  C20  1  0.557256  0.442744  0.000000  1
