# generated using pymatgen
data_Sr3SmMnFeO8
_symmetry_space_group_name_H-M   'P 1'
_cell_length_a   5.47912100
_cell_length_b   12.46657200
_cell_length_c   5.49478800
_cell_angle_alpha   89.99995582
_cell_angle_beta   90.00000048
_cell_angle_gamma   90.00020207
_symmetry_Int_Tables_number   1
_chemical_formula_structural   Sr3SmMnFeO8
_chemical_formula_sum   'Sr6 Sm2 Mn2 Fe2 O16'
_cell_volume   375.32620035
_cell_formula_units_Z   2
loop_
 _symmetry_equiv_pos_site_id
 _symmetry_equiv_pos_as_xyz
  1  'x, y, z'
loop_
 _atom_site_type_symbol
 _atom_site_label
 _atom_site_symmetry_multiplicity
 _atom_site_fract_x
 _atom_site_fract_y
 _atom_site_fract_z
 _atom_site_occupancy
  Sr  Sr0  1  0.500000  0.145376  0.000001  1
  Sr  Sr1  1  0.500003  0.645377  0.500000  1
  Sr  Sr2  1  0.000009  0.143599  0.500001  1
  Sr  Sr3  1  0.000001  0.643599  0.999996  1
  Sr  Sr4  1  0.000000  0.354395  0.999999  1
  Sr  Sr5  1  0.000001  0.854397  0.500001  1
  Sm  Sm6  1  0.500005  0.362738  0.500009  1
  Sm  Sm7  1  0.500058  0.862738  0.000002  1
  Mn  Mn8  1  0.999978  0.500299  0.500007  1
  Mn  Mn9  1  0.999995  0.000304  0.999988  1
  Fe  Fe10  1  0.500011  0.000917  0.500009  1
  Fe  Fe11  1  0.500008  0.500909  0.999993  1
  O  O12  1  0.999998  0.339961  0.500001  1
  O  O13  1  0.999887  0.839965  0.000002  1
  O  O14  1  0.500004  0.338031  0.999988  1
  O  O15  1  0.500010  0.838035  0.500002  1
  O  O16  1  0.500000  0.176302  0.500001  1
  O  O17  1  0.499989  0.676303  0.000001  1
  O  O18  1  0.000014  0.156082  0.000001  1
  O  O19  1  0.000006  0.656082  0.499996  1
  O  O20  1  0.251704  0.495573  0.740707  1
  O  O21  1  0.251701  0.995567  0.240707  1
  O  O22  1  0.748300  0.495573  0.259288  1
  O  O23  1  0.748307  0.995585  0.759287  1
  O  O24  1  0.748305  0.495575  0.740714  1
  O  O25  1  0.748305  0.995585  0.240717  1
  O  O26  1  0.251701  0.495571  0.259284  1
  O  O27  1  0.251702  0.995567  0.759298  1
