# generated using pymatgen
data_Zr2Pd3Au
_symmetry_space_group_name_H-M   'P 1'
_cell_length_a   3.54896900
_cell_length_b   7.03830809
_cell_length_c   8.74184700
_cell_angle_alpha   89.99100468
_cell_angle_beta   90.00000000
_cell_angle_gamma   90.00000000
_symmetry_Int_Tables_number   1
_chemical_formula_structural   Zr2Pd3Au
_chemical_formula_sum   'Zr4 Pd6 Au2'
_cell_volume   218.36029627
_cell_formula_units_Z   2
loop_
 _symmetry_equiv_pos_site_id
 _symmetry_equiv_pos_as_xyz
  1  'x, y, z'
loop_
 _atom_site_type_symbol
 _atom_site_label
 _atom_site_symmetry_multiplicity
 _atom_site_fract_x
 _atom_site_fract_y
 _atom_site_fract_z
 _atom_site_occupancy
  Zr  Zr0  1  0.250000  0.617734  0.753428  1
  Zr  Zr1  1  0.750000  0.382266  0.246572  1
  Zr  Zr2  1  0.250000  0.129462  0.759212  1
  Zr  Zr3  1  0.750000  0.870538  0.240788  1
  Pd  Pd4  1  0.750000  0.374125  0.914569  1
  Pd  Pd5  1  0.250000  0.625875  0.085431  1
  Pd  Pd6  1  0.250000  0.125857  0.089624  1
  Pd  Pd7  1  0.750000  0.874143  0.910376  1
  Pd  Pd8  1  0.250000  0.624665  0.409762  1
  Pd  Pd9  1  0.750000  0.375335  0.590238  1
  Au  Au10  1  0.750000  0.871044  0.584139  1
  Au  Au11  1  0.250000  0.128956  0.415861  1
