# generated using pymatgen
data_Pr16Cd3Hg(OsPt)2
_symmetry_space_group_name_H-M   'P 1'
_cell_length_a   10.05250690
_cell_length_b   10.05250673
_cell_length_c   10.13677025
_cell_angle_alpha   59.74311223
_cell_angle_beta   59.74311386
_cell_angle_gamma   59.72219948
_symmetry_Int_Tables_number   1
_chemical_formula_structural   Pr16Cd3Hg(OsPt)2
_chemical_formula_sum   'Pr16 Cd3 Hg1 Os2 Pt2'
_cell_volume   719.98445892
_cell_formula_units_Z   1
loop_
 _symmetry_equiv_pos_site_id
 _symmetry_equiv_pos_as_xyz
  1  'x, y, z'
loop_
 _atom_site_type_symbol
 _atom_site_label
 _atom_site_symmetry_multiplicity
 _atom_site_fract_x
 _atom_site_fract_y
 _atom_site_fract_z
 _atom_site_occupancy
  Pr  Pr0  1  0.347600  0.347600  0.353429  1
  Pr  Pr1  1  0.349442  0.349442  0.948248  1
  Pr  Pr2  1  0.344826  0.956382  0.349114  1
  Pr  Pr3  1  0.956382  0.344826  0.349114  1
  Pr  Pr4  1  0.814829  0.189297  0.190317  1
  Pr  Pr5  1  0.188766  0.813634  0.803443  1
  Pr  Pr6  1  0.189297  0.814829  0.190317  1
  Pr  Pr7  1  0.813634  0.188766  0.803443  1
  Pr  Pr8  1  0.189160  0.189160  0.810566  1
  Pr  Pr9  1  0.804116  0.804116  0.194810  1
  Pr  Pr10  1  0.938622  0.556494  0.565327  1
  Pr  Pr11  1  0.555385  0.939417  0.940428  1
  Pr  Pr12  1  0.556494  0.938622  0.565327  1
  Pr  Pr13  1  0.939417  0.555385  0.940428  1
  Pr  Pr14  1  0.561885  0.561885  0.939205  1
  Pr  Pr15  1  0.939686  0.939686  0.558226  1
  Cd  Cd16  1  0.579351  0.579351  0.260343  1
  Cd  Cd17  1  0.580100  0.259334  0.579586  1
  Cd  Cd18  1  0.259334  0.580100  0.579586  1
  Hg  Hg19  1  0.582932  0.582932  0.583449  1
  Os  Os20  1  0.143544  0.143544  0.137954  1
  Os  Os21  1  0.144253  0.144253  0.576065  1
  Pt  Pt22  1  0.146048  0.574895  0.140636  1
  Pt  Pt23  1  0.574895  0.146048  0.140636  1
