# generated using pymatgen
data_Ba2Ir2Cl
_symmetry_space_group_name_H-M   'P 1'
_cell_length_a   4.41552700
_cell_length_b   4.41552764
_cell_length_c   17.88115700
_cell_angle_alpha   90.00000000
_cell_angle_beta   90.00000000
_cell_angle_gamma   120.00000272
_symmetry_Int_Tables_number   1
_chemical_formula_structural   Ba2Ir2Cl
_chemical_formula_sum   'Ba4 Ir4 Cl2'
_cell_volume   301.91965621
_cell_formula_units_Z   2
loop_
 _symmetry_equiv_pos_site_id
 _symmetry_equiv_pos_as_xyz
  1  'x, y, z'
loop_
 _atom_site_type_symbol
 _atom_site_label
 _atom_site_symmetry_multiplicity
 _atom_site_fract_x
 _atom_site_fract_y
 _atom_site_fract_z
 _atom_site_occupancy
  Ba  Ba0  1  0.000000  0.000000  0.121523  1
  Ba  Ba1  1  0.000000  0.000000  0.378477  1
  Ba  Ba2  1  0.000000  0.000000  0.621523  1
  Ba  Ba3  1  0.000000  0.000000  0.878477  1
  Ir  Ir4  1  0.333334  0.666667  0.000523  1
  Ir  Ir5  1  0.333334  0.666667  0.499477  1
  Ir  Ir6  1  0.666666  0.333334  0.500523  1
  Ir  Ir7  1  0.666666  0.333334  0.999477  1
  Cl  Cl8  1  0.666666  0.333334  0.250000  1
  Cl  Cl9  1  0.333334  0.666667  0.750000  1
