# generated using pymatgen
data_Dy6Sn2BRh12C
_symmetry_space_group_name_H-M   'P 1'
_cell_length_a   5.81422600
_cell_length_b   5.81422564
_cell_length_c   13.79580300
_cell_angle_alpha   90.00000000
_cell_angle_beta   90.00000000
_cell_angle_gamma   120.00000207
_symmetry_Int_Tables_number   1
_chemical_formula_structural   Dy6Sn2BRh12C
_chemical_formula_sum   'Dy6 Sn2 B1 Rh12 C1'
_cell_volume   403.88841613
_cell_formula_units_Z   1
loop_
 _symmetry_equiv_pos_site_id
 _symmetry_equiv_pos_as_xyz
  1  'x, y, z'
loop_
 _atom_site_type_symbol
 _atom_site_label
 _atom_site_symmetry_multiplicity
 _atom_site_fract_x
 _atom_site_fract_y
 _atom_site_fract_z
 _atom_site_occupancy
  Dy  Dy0  1  0.000000  0.000000  0.751601  1
  Dy  Dy1  1  0.000000  0.000000  0.248399  1
  Dy  Dy2  1  0.333333  0.666667  0.407848  1
  Dy  Dy3  1  0.666667  0.333333  0.911241  1
  Dy  Dy4  1  0.666667  0.333333  0.592152  1
  Dy  Dy5  1  0.333333  0.666667  0.088759  1
  Sn  Sn6  1  0.333333  0.666667  0.748672  1
  Sn  Sn7  1  0.666667  0.333333  0.251328  1
  B  B8  1  0.000000  0.000000  0.000000  1
  Rh  Rh9  1  0.340076  0.170039  0.415267  1
  Rh  Rh10  1  0.829961  0.170039  0.415267  1
  Rh  Rh11  1  0.829961  0.659924  0.415267  1
  Rh  Rh12  1  0.172136  0.344271  0.913262  1
  Rh  Rh13  1  0.659924  0.829961  0.584733  1
  Rh  Rh14  1  0.655729  0.827864  0.913262  1
  Rh  Rh15  1  0.344271  0.172136  0.086738  1
  Rh  Rh16  1  0.170039  0.340076  0.584733  1
  Rh  Rh17  1  0.170039  0.829961  0.584733  1
  Rh  Rh18  1  0.827864  0.172136  0.086738  1
  Rh  Rh19  1  0.827864  0.655729  0.086738  1
  Rh  Rh20  1  0.172136  0.827864  0.913262  1
  C  C21  1  0.000000  0.000000  0.500000  1
