# generated using pymatgen
data_Er6RuO12
_symmetry_space_group_name_H-M   'P 1'
_cell_length_a   6.41092844
_cell_length_b   6.40171782
_cell_length_c   6.40753719
_cell_angle_alpha   98.58849739
_cell_angle_beta   98.61332386
_cell_angle_gamma   98.58921630
_symmetry_Int_Tables_number   1
_chemical_formula_structural   Er6RuO12
_chemical_formula_sum   'Er6 Ru1 O12'
_cell_volume   253.09319725
_cell_formula_units_Z   1
loop_
 _symmetry_equiv_pos_site_id
 _symmetry_equiv_pos_as_xyz
  1  'x, y, z'
loop_
 _atom_site_type_symbol
 _atom_site_label
 _atom_site_symmetry_multiplicity
 _atom_site_fract_x
 _atom_site_fract_y
 _atom_site_fract_z
 _atom_site_occupancy
  Er  Er0  1  0.611608  0.314179  0.143646  1
  Er  Er1  1  0.143574  0.611836  0.314359  1
  Er  Er2  1  0.685448  0.856286  0.387993  1
  Er  Er3  1  0.314552  0.143714  0.612006  1
  Er  Er4  1  0.856426  0.388163  0.685640  1
  Er  Er5  1  0.388392  0.685821  0.856354  1
  Ru  Ru6  1  0.000000  0.000000  0.000000  1
  O  O7  1  0.699709  0.926282  0.036037  1
  O  O8  1  0.964021  0.300005  0.073777  1
  O  O9  1  0.432727  0.590119  0.177448  1
  O  O10  1  0.073539  0.964010  0.299984  1
  O  O11  1  0.822630  0.567023  0.409558  1
  O  O12  1  0.590632  0.177494  0.433180  1
  O  O13  1  0.409368  0.822506  0.566820  1
  O  O14  1  0.177370  0.432976  0.590442  1
  O  O15  1  0.926461  0.035990  0.700016  1
  O  O16  1  0.567273  0.409881  0.822552  1
  O  O17  1  0.035979  0.699995  0.926223  1
  O  O18  1  0.300291  0.073718  0.963963  1
