# generated using pymatgen
data_Tb8Ta9Ge16Mo3
_symmetry_space_group_name_H-M   'P 1'
_cell_length_a   6.95882206
_cell_length_b   7.16320806
_cell_length_c   13.54169000
_cell_angle_alpha   90.00000000
_cell_angle_beta   90.00000000
_cell_angle_gamma   89.98544257
_symmetry_Int_Tables_number   1
_chemical_formula_structural   Tb8Ta9Ge16Mo3
_chemical_formula_sum   'Tb8 Ta9 Ge16 Mo3'
_cell_volume   675.01923812
_cell_formula_units_Z   1
loop_
 _symmetry_equiv_pos_site_id
 _symmetry_equiv_pos_as_xyz
  1  'x, y, z'
loop_
 _atom_site_type_symbol
 _atom_site_label
 _atom_site_symmetry_multiplicity
 _atom_site_fract_x
 _atom_site_fract_y
 _atom_site_fract_z
 _atom_site_occupancy
  Tb  Tb0  1  0.494854  0.673517  0.593412  1
  Tb  Tb1  1  0.994842  0.826387  0.906500  1
  Tb  Tb2  1  0.505093  0.326728  0.093667  1
  Tb  Tb3  1  0.004770  0.173588  0.406462  1
  Tb  Tb4  1  0.505093  0.326728  0.406333  1
  Tb  Tb5  1  0.004770  0.173588  0.093538  1
  Tb  Tb6  1  0.494854  0.673517  0.906588  1
  Tb  Tb7  1  0.994842  0.826387  0.593500  1
  Ta  Ta8  1  0.659672  0.165824  0.627740  1
  Ta  Ta9  1  0.159298  0.334255  0.872676  1
  Ta  Ta10  1  0.340239  0.833004  0.126303  1
  Ta  Ta11  1  0.840978  0.666125  0.373025  1
  Ta  Ta12  1  0.340239  0.833004  0.373697  1
  Ta  Ta13  1  0.840978  0.666125  0.126975  1
  Ta  Ta14  1  0.659672  0.165824  0.872260  1
  Ta  Ta15  1  0.159298  0.334255  0.627324  1
  Ta  Ta16  1  0.665447  0.985390  0.250000  1
  Ge  Ge17  1  0.676191  0.958720  0.457237  1
  Ge  Ge18  1  0.175652  0.542349  0.043001  1
  Ge  Ge19  1  0.324497  0.042634  0.956527  1
  Ge  Ge20  1  0.824520  0.457163  0.543555  1
  Ge  Ge21  1  0.324497  0.042634  0.543473  1
  Ge  Ge22  1  0.824520  0.457163  0.956445  1
  Ge  Ge23  1  0.676191  0.958720  0.042763  1
  Ge  Ge24  1  0.175652  0.542349  0.456999  1
  Ge  Ge25  1  0.462123  0.378543  0.750000  1
  Ge  Ge26  1  0.963235  0.120545  0.750000  1
  Ge  Ge27  1  0.535592  0.619869  0.250000  1
  Ge  Ge28  1  0.041005  0.878545  0.250000  1
  Ge  Ge29  1  0.691499  0.859360  0.750000  1
  Ge  Ge30  1  0.191664  0.640471  0.750000  1
  Ge  Ge31  1  0.306195  0.142116  0.250000  1
  Ge  Ge32  1  0.807660  0.361027  0.250000  1
  Mo  Mo33  1  0.835049  0.484309  0.750000  1
  Mo  Mo34  1  0.335190  0.014698  0.750000  1
  Mo  Mo35  1  0.164126  0.514540  0.250000  1
