# generated using pymatgen
data_La7Nd9(InIr)4
_symmetry_space_group_name_H-M   'P 1'
_cell_length_a   10.03933268
_cell_length_b   10.03676268
_cell_length_c   10.10172786
_cell_angle_alpha   59.80251900
_cell_angle_beta   60.22316353
_cell_angle_gamma   60.42015231
_symmetry_Int_Tables_number   1
_chemical_formula_structural   La7Nd9(InIr)4
_chemical_formula_sum   'La7 Nd9 In4 Ir4'
_cell_volume   722.12516879
_cell_formula_units_Z   1
loop_
 _symmetry_equiv_pos_site_id
 _symmetry_equiv_pos_as_xyz
  1  'x, y, z'
loop_
 _atom_site_type_symbol
 _atom_site_label
 _atom_site_symmetry_multiplicity
 _atom_site_fract_x
 _atom_site_fract_y
 _atom_site_fract_z
 _atom_site_occupancy
  La  La0  1  0.347844  0.347260  0.348861  1
  La  La1  1  0.348925  0.346728  0.956470  1
  La  La2  1  0.348861  0.956035  0.347844  1
  La  La3  1  0.956470  0.347877  0.348925  1
  La  La4  1  0.808651  0.191612  0.188646  1
  La  La5  1  0.188646  0.811091  0.808651  1
  La  La6  1  0.190631  0.809369  0.190631  1
  Nd  Nd7  1  0.807221  0.192779  0.807221  1
  Nd  Nd8  1  0.192250  0.195408  0.805024  1
  Nd  Nd9  1  0.805024  0.807319  0.192250  1
  Nd  Nd10  1  0.937425  0.561287  0.563106  1
  Nd  Nd11  1  0.563106  0.938182  0.937425  1
  Nd  Nd12  1  0.562288  0.937712  0.562288  1
  Nd  Nd13  1  0.938310  0.561690  0.938310  1
  Nd  Nd14  1  0.563026  0.560968  0.937346  1
  Nd  Nd15  1  0.937346  0.938660  0.563026  1
  In  In16  1  0.583728  0.580570  0.579741  1
  In  In17  1  0.582012  0.582691  0.256395  1
  In  In18  1  0.579741  0.255961  0.583728  1
  In  In19  1  0.256395  0.578903  0.582012  1
  Ir  Ir20  1  0.138791  0.139068  0.144079  1
  Ir  Ir21  1  0.142674  0.137672  0.576556  1
  Ir  Ir22  1  0.144079  0.578060  0.138791  1
  Ir  Ir23  1  0.576556  0.143098  0.142674  1
