# generated using pymatgen
data_Pa4Ta2Zn6Os
_symmetry_space_group_name_H-M   'P 1'
_cell_length_a   10.65327000
_cell_length_b   10.65327028
_cell_length_c   10.65327000
_cell_angle_alpha   28.16577540
_cell_angle_beta   28.16577098
_cell_angle_gamma   28.16578108
_symmetry_Int_Tables_number   1
_chemical_formula_structural   Pa4Ta2Zn6Os
_chemical_formula_sum   'Pa4 Ta2 Zn6 Os1'
_cell_volume   237.98926419
_cell_formula_units_Z   1
loop_
 _symmetry_equiv_pos_site_id
 _symmetry_equiv_pos_as_xyz
  1  'x, y, z'
loop_
 _atom_site_type_symbol
 _atom_site_label
 _atom_site_symmetry_multiplicity
 _atom_site_fract_x
 _atom_site_fract_y
 _atom_site_fract_z
 _atom_site_occupancy
  Pa  Pa0  1  0.831663  0.831663  0.831663  1
  Pa  Pa1  1  0.168337  0.168337  0.168337  1
  Pa  Pa2  1  0.651868  0.651868  0.651868  1
  Pa  Pa3  1  0.348132  0.348132  0.348132  1
  Ta  Ta4  1  0.542976  0.542976  0.542976  1
  Ta  Ta5  1  0.457024  0.457024  0.457024  1
  Zn  Zn6  1  0.910560  0.408119  0.910560  1
  Zn  Zn7  1  0.910560  0.910560  0.408119  1
  Zn  Zn8  1  0.408119  0.910560  0.910560  1
  Zn  Zn9  1  0.089440  0.591881  0.089440  1
  Zn  Zn10  1  0.089440  0.089440  0.591881  1
  Zn  Zn11  1  0.591881  0.089440  0.089440  1
  Os  Os12  1  0.000000  0.000000  0.000000  1
