# generated using pymatgen
data_Rb6Er(AsBr6)3
_symmetry_space_group_name_H-M   'P 1'
_cell_length_a   7.79259500
_cell_length_b   7.79259505
_cell_length_c   19.67105900
_cell_angle_alpha   90.00000000
_cell_angle_beta   90.00000000
_cell_angle_gamma   120.00000403
_symmetry_Int_Tables_number   1
_chemical_formula_structural   Rb6Er(AsBr6)3
_chemical_formula_sum   'Rb6 Er1 As3 Br18'
_cell_volume   1034.48111969
_cell_formula_units_Z   1
loop_
 _symmetry_equiv_pos_site_id
 _symmetry_equiv_pos_as_xyz
  1  'x, y, z'
loop_
 _atom_site_type_symbol
 _atom_site_label
 _atom_site_symmetry_multiplicity
 _atom_site_fract_x
 _atom_site_fract_y
 _atom_site_fract_z
 _atom_site_occupancy
  Rb  Rb0  1  0.333333  0.666667  0.083177  1
  Rb  Rb1  1  0.666667  0.333333  0.930866  1
  Rb  Rb2  1  0.666667  0.333333  0.569619  1
  Rb  Rb3  1  0.333333  0.666667  0.429433  1
  Rb  Rb4  1  0.000000  0.000000  0.249118  1
  Rb  Rb5  1  0.000000  0.000000  0.738772  1
  Er  Er6  1  0.333333  0.666667  0.658732  1
  As  As7  1  0.666667  0.333333  0.342160  1
  As  As8  1  0.666667  0.333333  0.157359  1
  As  As9  1  0.333333  0.666667  0.849237  1
  Br  Br10  1  0.165333  0.330667  0.583570  1
  Br  Br11  1  0.824497  0.648994  0.411335  1
  Br  Br12  1  0.669333  0.834667  0.583570  1
  Br  Br13  1  0.825707  0.651413  0.086150  1
  Br  Br14  1  0.351006  0.175503  0.411335  1
  Br  Br15  1  0.175409  0.350818  0.916999  1
  Br  Br16  1  0.165333  0.834667  0.583570  1
  Br  Br17  1  0.348587  0.174293  0.086150  1
  Br  Br18  1  0.824497  0.175503  0.411335  1
  Br  Br19  1  0.649182  0.824591  0.916999  1
  Br  Br20  1  0.825707  0.174293  0.086150  1
  Br  Br21  1  0.175409  0.824591  0.916999  1
  Br  Br22  1  0.503395  0.006791  0.247546  1
  Br  Br23  1  0.495866  0.991731  0.751575  1
  Br  Br24  1  0.993209  0.496605  0.247546  1
  Br  Br25  1  0.008269  0.504134  0.751575  1
  Br  Br26  1  0.503395  0.496605  0.247546  1
  Br  Br27  1  0.495866  0.504134  0.751575  1
