# generated using pymatgen
data_Sc4Tc7OsW4
_symmetry_space_group_name_H-M   'P 1'
_cell_length_a   6.32221700
_cell_length_b   4.49305500
_cell_length_c   8.95454700
_cell_angle_alpha   90.00000000
_cell_angle_beta   89.99961666
_cell_angle_gamma   90.00000000
_symmetry_Int_Tables_number   1
_chemical_formula_structural   Sc4Tc7OsW4
_chemical_formula_sum   'Sc4 Tc7 Os1 W4'
_cell_volume   254.36347728
_cell_formula_units_Z   1
loop_
 _symmetry_equiv_pos_site_id
 _symmetry_equiv_pos_as_xyz
  1  'x, y, z'
loop_
 _atom_site_type_symbol
 _atom_site_label
 _atom_site_symmetry_multiplicity
 _atom_site_fract_x
 _atom_site_fract_y
 _atom_site_fract_z
 _atom_site_occupancy
  Sc  Sc0  1  0.250657  0.250001  0.124980  1
  Sc  Sc1  1  0.750077  0.749999  0.375309  1
  Sc  Sc2  1  0.249367  0.250001  0.624987  1
  Sc  Sc3  1  0.749806  0.749999  0.874727  1
  Tc  Tc4  1  0.499918  0.749999  0.125030  1
  Tc  Tc5  1  0.000010  0.250001  0.373955  1
  Tc  Tc6  1  0.500264  0.250001  0.374670  1
  Tc  Tc7  1  0.499526  0.749999  0.624967  1
  Tc  Tc8  1  0.000455  0.749999  0.625032  1
  Tc  Tc9  1  0.500097  0.250001  0.875334  1
  Tc  Tc10  1  0.999842  0.250001  0.876041  1
  Os  Os11  1  0.000151  0.749999  0.124961  1
  W  W12  1  0.748409  0.250001  0.125034  1
  W  W13  1  0.250795  0.749999  0.376021  1
  W  W14  1  0.750061  0.250001  0.625034  1
  W  W15  1  0.250566  0.749999  0.873920  1
