# generated using pymatgen
data_Rb3TlSe24
_symmetry_space_group_name_H-M   'P 1'
_cell_length_a   11.41429911
_cell_length_b   11.41429837
_cell_length_c   11.44536582
_cell_angle_alpha   129.29873574
_cell_angle_beta   121.02750321
_cell_angle_gamma   81.26062223
_symmetry_Int_Tables_number   1
_chemical_formula_structural   Rb3TlSe24
_chemical_formula_sum   'Rb3 Tl1 Se24'
_cell_volume   953.98187561
_cell_formula_units_Z   1
loop_
 _symmetry_equiv_pos_site_id
 _symmetry_equiv_pos_as_xyz
  1  'x, y, z'
loop_
 _atom_site_type_symbol
 _atom_site_label
 _atom_site_symmetry_multiplicity
 _atom_site_fract_x
 _atom_site_fract_y
 _atom_site_fract_z
 _atom_site_occupancy
  Rb  Rb0  1  0.500000  0.500000  0.000000  1
  Rb  Rb1  1  0.751138  0.251138  0.500000  1
  Rb  Rb2  1  0.248862  0.748862  0.500000  1
  Tl  Tl3  1  0.000000  0.000000  0.000000  1
  Se  Se4  1  0.646310  0.749623  0.895755  1
  Se  Se5  1  0.853868  0.750554  0.104245  1
  Se  Se6  1  0.353690  0.250377  0.104245  1
  Se  Se7  1  0.146132  0.249446  0.895755  1
  Se  Se8  1  0.241080  0.140829  0.678499  1
  Se  Se9  1  0.253417  0.939073  0.902269  1
  Se  Se10  1  0.036805  0.351148  0.097731  1
  Se  Se11  1  0.462330  0.562581  0.321501  1
  Se  Se12  1  0.758920  0.859171  0.321501  1
  Se  Se13  1  0.746583  0.060927  0.097731  1
  Se  Se14  1  0.963195  0.648852  0.902269  1
  Se  Se15  1  0.537670  0.437419  0.678499  1
  Se  Se16  1  0.921533  0.823873  0.526132  1
  Se  Se17  1  0.579497  0.102906  0.901358  1
  Se  Se18  1  0.201548  0.678139  0.098642  1
  Se  Se19  1  0.297740  0.395399  0.473868  1
  Se  Se20  1  0.078467  0.176127  0.473868  1
  Se  Se21  1  0.420503  0.897094  0.098642  1
  Se  Se22  1  0.798453  0.321861  0.901358  1
  Se  Se23  1  0.702260  0.604601  0.526132  1
  Se  Se24  1  0.667293  0.066054  0.733347  1
  Se  Se25  1  0.832404  0.567781  0.400186  1
  Se  Se26  1  0.167596  0.432219  0.599814  1
  Se  Se27  1  0.332707  0.933946  0.266653  1
