# generated using pymatgen
data_Dy5V2TcP12(IrRh7)2
_symmetry_space_group_name_H-M   'P 1'
_cell_length_a   12.69414300
_cell_length_b   12.70137324
_cell_length_c   3.90416200
_cell_angle_alpha   90.00000000
_cell_angle_beta   90.00000000
_cell_angle_gamma   119.98117379
_symmetry_Int_Tables_number   1
_chemical_formula_structural   Dy5V2TcP12(IrRh7)2
_chemical_formula_sum   'Dy5 V2 Tc1 P12 Ir2 Rh14'
_cell_volume   545.24900682
_cell_formula_units_Z   1
loop_
 _symmetry_equiv_pos_site_id
 _symmetry_equiv_pos_as_xyz
  1  'x, y, z'
loop_
 _atom_site_type_symbol
 _atom_site_label
 _atom_site_symmetry_multiplicity
 _atom_site_fract_x
 _atom_site_fract_y
 _atom_site_fract_z
 _atom_site_occupancy
  Dy  Dy0  1  0.333922  0.667223  0.500000  1
  Dy  Dy1  1  0.666257  0.333879  0.500000  1
  Dy  Dy2  1  0.000000  0.811071  0.000000  1
  Dy  Dy3  1  0.190311  0.189229  0.000000  1
  Dy  Dy4  1  0.809850  0.999052  0.000000  1
  V  V5  1  0.549972  0.550507  0.500000  1
  V  V6  1  0.449127  0.000329  0.500000  1
  Tc  Tc7  1  0.999643  0.452542  0.500000  1
  P  P8  1  0.999701  0.636161  0.500000  1
  P  P9  1  0.367269  0.367695  0.500000  1
  P  P10  1  0.633622  0.000182  0.500000  1
  P  P11  1  0.517940  0.681700  0.000000  1
  P  P12  1  0.319031  0.834899  0.000000  1
  P  P13  1  0.165773  0.482353  0.000000  1
  P  P14  1  0.482750  0.164849  0.000000  1
  P  P15  1  0.680804  0.516872  0.000000  1
  P  P16  1  0.834327  0.317085  0.000000  1
  P  P17  1  0.000017  0.177816  0.500000  1
  P  P18  1  0.822464  0.822314  0.500000  1
  P  P19  1  0.177292  0.999867  0.500000  1
  Ir  Ir20  1  0.282699  0.998818  0.000000  1
  Ir  Ir21  1  0.999909  0.000338  0.500000  1
  Rh  Rh22  1  0.513003  0.869369  0.000000  1
  Rh  Rh23  1  0.130698  0.642248  0.000000  1
  Rh  Rh24  1  0.356981  0.487454  0.000000  1
  Rh  Rh25  1  0.487192  0.356928  0.000000  1
  Rh  Rh26  1  0.869141  0.511991  0.000000  1
  Rh  Rh27  1  0.643252  0.130554  0.000000  1
  Rh  Rh28  1  0.999814  0.283671  0.000000  1
  Rh  Rh29  1  0.717873  0.716840  0.000000  1
  Rh  Rh30  1  0.624160  0.801311  0.500000  1
  Rh  Rh31  1  0.197978  0.819685  0.500000  1
  Rh  Rh32  1  0.177462  0.376350  0.500000  1
  Rh  Rh33  1  0.376155  0.177893  0.500000  1
  Rh  Rh34  1  0.801305  0.622201  0.500000  1
  Rh  Rh35  1  0.822304  0.198723  0.500000  1
