# generated using pymatgen
data_Li2LaCeAs4
_symmetry_space_group_name_H-M   'P 1'
_cell_length_a   4.03606000
_cell_length_b   4.03606000
_cell_length_c   10.60373600
_cell_angle_alpha   90.00000000
_cell_angle_beta   90.00000000
_cell_angle_gamma   90.00000000
_symmetry_Int_Tables_number   1
_chemical_formula_structural   Li2LaCeAs4
_chemical_formula_sum   'Li2 La1 Ce1 As4'
_cell_volume   172.73253005
_cell_formula_units_Z   1
loop_
 _symmetry_equiv_pos_site_id
 _symmetry_equiv_pos_as_xyz
  1  'x, y, z'
loop_
 _atom_site_type_symbol
 _atom_site_label
 _atom_site_symmetry_multiplicity
 _atom_site_fract_x
 _atom_site_fract_y
 _atom_site_fract_z
 _atom_site_occupancy
  Li  Li0  1  0.500000  0.500000  0.501898  1
  Li  Li1  1  0.000000  0.000000  0.501898  1
  La  La2  1  0.500000  0.000000  0.227343  1
  Ce  Ce3  1  0.000000  0.500000  0.770192  1
  As  As4  1  0.000000  0.000000  0.991718  1
  As  As5  1  0.500000  0.500000  0.991718  1
  As  As6  1  0.000000  0.500000  0.347558  1
  As  As7  1  0.500000  0.000000  0.667674  1
