# generated using pymatgen
data_SrTa2F12
_symmetry_space_group_name_H-M   'P 1'
_cell_length_a   5.69981476
_cell_length_b   5.69807975
_cell_length_c   10.04788372
_cell_angle_alpha   96.95079298
_cell_angle_beta   95.71318021
_cell_angle_gamma   119.43898420
_symmetry_Int_Tables_number   1
_chemical_formula_structural   SrTa2F12
_chemical_formula_sum   'Sr1 Ta2 F12'
_cell_volume   277.29543061
_cell_formula_units_Z   1
loop_
 _symmetry_equiv_pos_site_id
 _symmetry_equiv_pos_as_xyz
  1  'x, y, z'
loop_
 _atom_site_type_symbol
 _atom_site_label
 _atom_site_symmetry_multiplicity
 _atom_site_fract_x
 _atom_site_fract_y
 _atom_site_fract_z
 _atom_site_occupancy
  Sr  Sr0  1  0.971602  0.941710  0.869607  1
  Ta  Ta1  1  0.202090  0.493053  0.587824  1
  Ta  Ta2  1  0.395333  0.702659  0.142979  1
  F  F3  1  0.423269  0.024786  0.233371  1
  F  F4  1  0.535511  0.598879  0.723771  1
  F  F5  1  0.106715  0.679801  0.001643  1
  F  F6  1  0.117822  0.455798  0.225735  1
  F  F7  1  0.337738  0.373753  0.015416  1
  F  F8  1  0.221527  0.199525  0.495049  1
  F  F9  1  0.691762  0.725612  0.254459  1
  F  F10  1  0.187631  0.785195  0.711700  1
  F  F11  1  0.869995  0.406847  0.483307  1
  F  F12  1  0.005209  0.257604  0.717035  1
  F  F13  1  0.433510  0.758016  0.494616  1
  F  F14  1  0.648284  0.906765  0.021484  1
