# generated using pymatgen
data_Nb10Al(GaIr)2
_symmetry_space_group_name_H-M   'P 1'
_cell_length_a   9.92702800
_cell_length_b   9.92702800
_cell_length_c   5.19497900
_cell_angle_alpha   90.00000000
_cell_angle_beta   90.00000000
_cell_angle_gamma   90.00000000
_symmetry_Int_Tables_number   1
_chemical_formula_structural   Nb10Al(GaIr)2
_chemical_formula_sum   'Nb20 Al2 Ga4 Ir4'
_cell_volume   511.94380266
_cell_formula_units_Z   2
loop_
 _symmetry_equiv_pos_site_id
 _symmetry_equiv_pos_as_xyz
  1  'x, y, z'
loop_
 _atom_site_type_symbol
 _atom_site_label
 _atom_site_symmetry_multiplicity
 _atom_site_fract_x
 _atom_site_fract_y
 _atom_site_fract_z
 _atom_site_occupancy
  Nb  Nb0  1  0.399386  0.392498  0.000000  1
  Nb  Nb1  1  0.892498  0.100614  0.500000  1
  Nb  Nb2  1  0.107502  0.899386  0.500000  1
  Nb  Nb3  1  0.600614  0.607502  0.000000  1
  Nb  Nb4  1  0.129543  0.464729  0.000000  1
  Nb  Nb5  1  0.964729  0.370457  0.500000  1
  Nb  Nb6  1  0.035271  0.629543  0.500000  1
  Nb  Nb7  1  0.870457  0.535271  0.000000  1
  Nb  Nb8  1  0.373729  0.964516  0.500000  1
  Nb  Nb9  1  0.626271  0.035484  0.500000  1
  Nb  Nb10  1  0.464516  0.126271  0.000000  1
  Nb  Nb11  1  0.535484  0.873729  0.000000  1
  Nb  Nb12  1  0.183043  0.184439  0.250103  1
  Nb  Nb13  1  0.684439  0.316957  0.750103  1
  Nb  Nb14  1  0.315561  0.683043  0.750103  1
  Nb  Nb15  1  0.816957  0.815561  0.250103  1
  Nb  Nb16  1  0.315561  0.683043  0.249897  1
  Nb  Nb17  1  0.684439  0.316957  0.249897  1
  Nb  Nb18  1  0.183043  0.184439  0.749897  1
  Nb  Nb19  1  0.816957  0.815561  0.749897  1
  Al  Al20  1  0.000000  0.000000  0.000000  1
  Al  Al21  1  0.500000  0.500000  0.500000  1
  Ga  Ga22  1  0.240313  0.434770  0.500000  1
  Ga  Ga23  1  0.759687  0.565230  0.500000  1
  Ga  Ga24  1  0.934770  0.259687  0.000000  1
  Ga  Ga25  1  0.065230  0.740313  0.000000  1
  Ir  Ir26  1  0.258764  0.933878  0.000000  1
  Ir  Ir27  1  0.433878  0.241236  0.500000  1
  Ir  Ir28  1  0.566122  0.758764  0.500000  1
  Ir  Ir29  1  0.741236  0.066122  0.000000  1
