# generated using pymatgen
data_Ho10Tl5In3PtRh3
_symmetry_space_group_name_H-M   'P 1'
_cell_length_a   3.61611900
_cell_length_b   8.13082107
_cell_length_c   18.35653839
_cell_angle_alpha   89.93440471
_cell_angle_beta   90.00000000
_cell_angle_gamma   90.00000000
_symmetry_Int_Tables_number   1
_chemical_formula_structural   Ho10Tl5In3PtRh3
_chemical_formula_sum   'Ho10 Tl5 In3 Pt1 Rh3'
_cell_volume   539.71889209
_cell_formula_units_Z   1
loop_
 _symmetry_equiv_pos_site_id
 _symmetry_equiv_pos_as_xyz
  1  'x, y, z'
loop_
 _atom_site_type_symbol
 _atom_site_label
 _atom_site_symmetry_multiplicity
 _atom_site_fract_x
 _atom_site_fract_y
 _atom_site_fract_z
 _atom_site_occupancy
  Ho  Ho0  1  0.000000  0.114703  0.412243  1
  Ho  Ho1  1  0.000000  0.884154  0.589649  1
  Ho  Ho2  1  0.000000  0.385027  0.908329  1
  Ho  Ho3  1  0.000000  0.616035  0.087665  1
  Ho  Ho4  1  0.000000  0.239791  0.222216  1
  Ho  Ho5  1  0.000000  0.755746  0.778083  1
  Ho  Ho6  1  0.000000  0.254486  0.721299  1
  Ho  Ho7  1  0.000000  0.749750  0.280163  1
  Ho  Ho8  1  0.000000  0.997471  0.999459  1
  Ho  Ho9  1  0.000000  0.500489  0.500328  1
  Tl  Tl10  1  0.500000  0.422791  0.353876  1
  Tl  Tl11  1  0.500000  0.571315  0.648640  1
  Tl  Tl12  1  0.500000  0.070966  0.850635  1
  Tl  Tl13  1  0.500000  0.926958  0.149205  1
  Tl  Tl14  1  0.500000  0.293014  0.062623  1
  In  In15  1  0.500000  0.704012  0.932304  1
  In  In16  1  0.500000  0.204148  0.567390  1
  In  In17  1  0.500000  0.795643  0.433324  1
  Pt  Pt18  1  0.500000  0.523765  0.197277  1
  Rh  Rh19  1  0.500000  0.019058  0.306624  1
  Rh  Rh20  1  0.500000  0.985497  0.693421  1
  Rh  Rh21  1  0.500000  0.485183  0.805244  1
