# generated using pymatgen
data_Na3Ca2NbO6
_symmetry_space_group_name_H-M   'P 1'
_cell_length_a   11.01070558
_cell_length_b   10.45698646
_cell_length_c   5.84117814
_cell_angle_alpha   79.51430719
_cell_angle_beta   69.04331894
_cell_angle_gamma   31.44237614
_symmetry_Int_Tables_number   1
_chemical_formula_structural   Na3Ca2NbO6
_chemical_formula_sum   'Na6 Ca4 Nb2 O12'
_cell_volume   316.97784699
_cell_formula_units_Z   2
loop_
 _symmetry_equiv_pos_site_id
 _symmetry_equiv_pos_as_xyz
  1  'x, y, z'
loop_
 _atom_site_type_symbol
 _atom_site_label
 _atom_site_symmetry_multiplicity
 _atom_site_fract_x
 _atom_site_fract_y
 _atom_site_fract_z
 _atom_site_occupancy
  Na  Na0  1  0.000000  0.000000  0.000000  1
  Na  Na1  1  0.086263  0.086263  0.413737  1
  Na  Na2  1  0.836263  0.836263  0.163737  1
  Na  Na3  1  0.163737  0.163737  0.836263  1
  Na  Na4  1  0.250000  0.250000  0.250000  1
  Na  Na5  1  0.413737  0.413737  0.086263  1
  Ca  Ca6  1  0.580578  0.580578  0.919422  1
  Ca  Ca7  1  0.919422  0.919422  0.580578  1
  Ca  Ca8  1  0.669422  0.669422  0.330578  1
  Ca  Ca9  1  0.330578  0.330578  0.669422  1
  Nb  Nb10  1  0.750000  0.750000  0.750000  1
  Nb  Nb11  1  0.500000  0.500000  0.500000  1
  O  O12  1  0.286836  0.713164  0.286836  1
  O  O13  1  0.713164  0.286836  0.713164  1
  O  O14  1  0.963164  0.536836  0.963164  1
  O  O15  1  0.536836  0.963164  0.536836  1
  O  O16  1  0.205118  0.646811  0.785373  1
  O  O17  1  0.362698  0.785373  0.646811  1
  O  O18  1  0.785373  0.362698  0.205118  1
  O  O19  1  0.646811  0.205118  0.362698  1
  O  O20  1  0.603189  0.044882  0.887302  1
  O  O21  1  0.887302  0.464627  0.603189  1
  O  O22  1  0.464627  0.887302  0.044882  1
  O  O23  1  0.044882  0.603189  0.464627  1
