# generated using pymatgen
data_ThNiPt3Au
_symmetry_space_group_name_H-M   'P 1'
_cell_length_a   5.23667594
_cell_length_b   5.23667689
_cell_length_c   5.23667724
_cell_angle_alpha   62.29485254
_cell_angle_beta   62.29484186
_cell_angle_gamma   62.29486299
_symmetry_Int_Tables_number   1
_chemical_formula_structural   ThNiPt3Au
_chemical_formula_sum   'Th1 Ni1 Pt3 Au1'
_cell_volume   106.74455310
_cell_formula_units_Z   1
loop_
 _symmetry_equiv_pos_site_id
 _symmetry_equiv_pos_as_xyz
  1  'x, y, z'
loop_
 _atom_site_type_symbol
 _atom_site_label
 _atom_site_symmetry_multiplicity
 _atom_site_fract_x
 _atom_site_fract_y
 _atom_site_fract_z
 _atom_site_occupancy
  Th  Th0  1  0.000822  0.000822  0.000822  1
  Ni  Ni1  1  0.623440  0.623440  0.623440  1
  Pt  Pt2  1  0.623483  0.623483  0.126419  1
  Pt  Pt3  1  0.623483  0.126419  0.623483  1
  Pt  Pt4  1  0.126419  0.623483  0.623483  1
  Au  Au5  1  0.252351  0.252351  0.252351  1
