# generated using pymatgen
data_Yb5Sm3(Cu2Sn5)2
_symmetry_space_group_name_H-M   'P 1'
_cell_length_a   4.48112600
_cell_length_b   8.79413600
_cell_length_c   14.14994800
_cell_angle_alpha   90.00000000
_cell_angle_beta   90.00000000
_cell_angle_gamma   90.00000000
_symmetry_Int_Tables_number   1
_chemical_formula_structural   Yb5Sm3(Cu2Sn5)2
_chemical_formula_sum   'Yb5 Sm3 Cu4 Sn10'
_cell_volume   557.61593620
_cell_formula_units_Z   1
loop_
 _symmetry_equiv_pos_site_id
 _symmetry_equiv_pos_as_xyz
  1  'x, y, z'
loop_
 _atom_site_type_symbol
 _atom_site_label
 _atom_site_symmetry_multiplicity
 _atom_site_fract_x
 _atom_site_fract_y
 _atom_site_fract_z
 _atom_site_occupancy
  Yb  Yb0  1  0.500000  0.791950  0.742031  1
  Yb  Yb1  1  0.000000  0.204795  0.753770  1
  Yb  Yb2  1  0.000000  0.204795  0.246230  1
  Yb  Yb3  1  0.000000  0.865489  0.500000  1
  Yb  Yb4  1  0.500000  0.791950  0.257969  1
  Sm  Sm5  1  0.500000  0.695921  0.000000  1
  Sm  Sm6  1  0.000000  0.297876  0.500000  1
  Sm  Sm7  1  0.500000  0.139786  0.000000  1
  Cu  Cu8  1  0.500000  0.379350  0.645032  1
  Cu  Cu9  1  0.000000  0.622837  0.852908  1
  Cu  Cu10  1  0.000000  0.622837  0.147092  1
  Cu  Cu11  1  0.500000  0.379350  0.354968  1
  Sn  Sn12  1  0.500000  0.083027  0.395403  1
  Sn  Sn13  1  0.000000  0.554273  0.663187  1
  Sn  Sn14  1  0.000000  0.410585  0.000000  1
  Sn  Sn15  1  0.500000  0.442703  0.164705  1
  Sn  Sn16  1  0.500000  0.595275  0.500000  1
  Sn  Sn17  1  0.500000  0.442703  0.835295  1
  Sn  Sn18  1  0.000000  0.918599  0.896138  1
  Sn  Sn19  1  0.000000  0.554273  0.336813  1
  Sn  Sn20  1  0.500000  0.083027  0.604597  1
  Sn  Sn21  1  0.000000  0.918599  0.103862  1
