# generated using pymatgen
data_LaHoGa2(Cu2Si)2
_symmetry_space_group_name_H-M   'P 1'
_cell_length_a   4.09772300
_cell_length_b   4.09772300
_cell_length_c   10.15377300
_cell_angle_alpha   90.00000000
_cell_angle_beta   90.00000000
_cell_angle_gamma   90.00000000
_symmetry_Int_Tables_number   1
_chemical_formula_structural   LaHoGa2(Cu2Si)2
_chemical_formula_sum   'La1 Ho1 Ga2 Cu4 Si2'
_cell_volume   170.49539162
_cell_formula_units_Z   1
loop_
 _symmetry_equiv_pos_site_id
 _symmetry_equiv_pos_as_xyz
  1  'x, y, z'
loop_
 _atom_site_type_symbol
 _atom_site_label
 _atom_site_symmetry_multiplicity
 _atom_site_fract_x
 _atom_site_fract_y
 _atom_site_fract_z
 _atom_site_occupancy
  La  La0  1  0.000000  0.500000  0.760485  1
  Ho  Ho1  1  0.500000  0.000000  0.236051  1
  Ga  Ga2  1  0.500000  0.500000  0.495293  1
  Ga  Ga3  1  0.000000  0.000000  0.495293  1
  Cu  Cu4  1  0.500000  0.000000  0.641884  1
  Cu  Cu5  1  0.000000  0.000000  0.004665  1
  Cu  Cu6  1  0.500000  0.500000  0.004665  1
  Cu  Cu7  1  0.000000  0.500000  0.355400  1
  Si  Si8  1  0.000000  0.500000  0.129594  1
  Si  Si9  1  0.500000  0.000000  0.876671  1
