# generated using pymatgen
data_Pr8ZrPd24
_symmetry_space_group_name_H-M   'P 1'
_cell_length_a   8.58715700
_cell_length_b   8.58715700
_cell_length_c   8.58715700
_cell_angle_alpha   90.00000000
_cell_angle_beta   90.00000000
_cell_angle_gamma   90.00000000
_symmetry_Int_Tables_number   1
_chemical_formula_structural   Pr8ZrPd24
_chemical_formula_sum   'Pr8 Zr1 Pd24'
_cell_volume   633.21064856
_cell_formula_units_Z   1
loop_
 _symmetry_equiv_pos_site_id
 _symmetry_equiv_pos_as_xyz
  1  'x, y, z'
loop_
 _atom_site_type_symbol
 _atom_site_label
 _atom_site_symmetry_multiplicity
 _atom_site_fract_x
 _atom_site_fract_y
 _atom_site_fract_z
 _atom_site_occupancy
  Pr  Pr0  1  0.252486  0.252486  0.252486  1
  Pr  Pr1  1  0.747514  0.747514  0.747514  1
  Pr  Pr2  1  0.747514  0.747514  0.252486  1
  Pr  Pr3  1  0.747514  0.252486  0.747514  1
  Pr  Pr4  1  0.252486  0.252486  0.747514  1
  Pr  Pr5  1  0.252486  0.747514  0.252486  1
  Pr  Pr6  1  0.252486  0.747514  0.747514  1
  Pr  Pr7  1  0.747514  0.252486  0.252486  1
  Zr  Zr8  1  0.000000  0.000000  0.000000  1
  Pd  Pd9  1  0.267142  0.500000  0.000000  1
  Pd  Pd10  1  0.732858  0.500000  0.000000  1
  Pd  Pd11  1  0.000000  0.267142  0.500000  1
  Pd  Pd12  1  0.500000  0.267142  0.000000  1
  Pd  Pd13  1  0.000000  0.732858  0.500000  1
  Pd  Pd14  1  0.500000  0.732858  0.000000  1
  Pd  Pd15  1  0.500000  0.000000  0.267142  1
  Pd  Pd16  1  0.267142  0.000000  0.500000  1
  Pd  Pd17  1  0.500000  0.000000  0.732858  1
  Pd  Pd18  1  0.732858  0.000000  0.500000  1
  Pd  Pd19  1  0.000000  0.500000  0.267142  1
  Pd  Pd20  1  0.000000  0.500000  0.732858  1
  Pd  Pd21  1  0.254043  0.500000  0.500000  1
  Pd  Pd22  1  0.745957  0.500000  0.500000  1
  Pd  Pd23  1  0.500000  0.254043  0.500000  1
  Pd  Pd24  1  0.500000  0.745957  0.500000  1
  Pd  Pd25  1  0.500000  0.500000  0.254043  1
  Pd  Pd26  1  0.500000  0.500000  0.745957  1
  Pd  Pd27  1  0.312640  0.000000  0.000000  1
  Pd  Pd28  1  0.687360  0.000000  0.000000  1
  Pd  Pd29  1  0.000000  0.312640  0.000000  1
  Pd  Pd30  1  0.000000  0.687360  0.000000  1
  Pd  Pd31  1  0.000000  0.000000  0.312640  1
  Pd  Pd32  1  0.000000  0.000000  0.687360  1
