# generated using pymatgen
data_Tb9Dy3Si11Ni
_symmetry_space_group_name_H-M   'P 1'
_cell_length_a   3.86703300
_cell_length_b   5.73044959
_cell_length_c   23.89312968
_cell_angle_alpha   82.75583604
_cell_angle_beta   90.00000000
_cell_angle_gamma   90.00000000
_symmetry_Int_Tables_number   1
_chemical_formula_structural   Tb9Dy3Si11Ni
_chemical_formula_sum   'Tb9 Dy3 Si11 Ni1'
_cell_volume   525.24155599
_cell_formula_units_Z   1
loop_
 _symmetry_equiv_pos_site_id
 _symmetry_equiv_pos_as_xyz
  1  'x, y, z'
loop_
 _atom_site_type_symbol
 _atom_site_label
 _atom_site_symmetry_multiplicity
 _atom_site_fract_x
 _atom_site_fract_y
 _atom_site_fract_z
 _atom_site_occupancy
  Tb  Tb0  1  0.250000  0.660966  0.941026  1
  Tb  Tb1  1  0.250000  0.468845  0.773675  1
  Tb  Tb2  1  0.250000  0.827594  0.606166  1
  Tb  Tb3  1  0.750000  0.352398  0.559124  1
  Tb  Tb4  1  0.250000  0.643812  0.438744  1
  Tb  Tb5  1  0.750000  0.995212  0.726958  1
  Tb  Tb6  1  0.250000  0.994855  0.272353  1
  Tb  Tb7  1  0.750000  0.169974  0.893935  1
  Tb  Tb8  1  0.250000  0.836973  0.108435  1
  Dy  Dy9  1  0.750000  0.356174  0.065998  1
  Dy  Dy10  1  0.750000  0.520600  0.220939  1
  Dy  Dy11  1  0.750000  0.167667  0.392529  1
  Si  Si12  1  0.750000  0.878322  0.013869  1
  Si  Si13  1  0.250000  0.148444  0.989510  1
  Si  Si14  1  0.750000  0.054450  0.178895  1
  Si  Si15  1  0.250000  0.954918  0.821650  1
  Si  Si16  1  0.750000  0.701205  0.344467  1
  Si  Si17  1  0.250000  0.291043  0.653929  1
  Si  Si18  1  0.750000  0.864475  0.511461  1
  Si  Si19  1  0.250000  0.132362  0.486324  1
  Si  Si20  1  0.750000  0.532466  0.679112  1
  Si  Si21  1  0.250000  0.461135  0.318618  1
  Si  Si22  1  0.750000  0.683559  0.846312  1
  Ni  Ni23  1  0.250000  0.302550  0.155970  1
