# generated using pymatgen
data_Pr3SnI3
_symmetry_space_group_name_H-M   'P 1'
_cell_length_a   11.18479608
_cell_length_b   11.18479595
_cell_length_c   11.18479600
_cell_angle_alpha   109.47121891
_cell_angle_beta   109.47121868
_cell_angle_gamma   109.47122026
_symmetry_Int_Tables_number   1
_chemical_formula_structural   Pr3SnI3
_chemical_formula_sum   'Pr12 Sn4 I12'
_cell_volume   1077.11564594
_cell_formula_units_Z   4
loop_
 _symmetry_equiv_pos_site_id
 _symmetry_equiv_pos_as_xyz
  1  'x, y, z'
loop_
 _atom_site_type_symbol
 _atom_site_label
 _atom_site_symmetry_multiplicity
 _atom_site_fract_x
 _atom_site_fract_y
 _atom_site_fract_z
 _atom_site_occupancy
  Pr  Pr0  1  0.478267  0.489133  0.239133  1
  Pr  Pr1  1  0.750000  0.239133  0.260867  1
  Pr  Pr2  1  0.750000  0.010867  0.489133  1
  Pr  Pr3  1  0.239133  0.478267  0.489133  1
  Pr  Pr4  1  0.260867  0.750000  0.239133  1
  Pr  Pr5  1  0.021733  0.260867  0.010867  1
  Pr  Pr6  1  0.010867  0.021733  0.260867  1
  Pr  Pr7  1  0.489133  0.750000  0.010867  1
  Pr  Pr8  1  0.489133  0.239133  0.478267  1
  Pr  Pr9  1  0.010867  0.489133  0.750000  1
  Pr  Pr10  1  0.260867  0.010867  0.021733  1
  Pr  Pr11  1  0.239133  0.260867  0.750000  1
  Sn  Sn12  1  0.250000  0.250000  0.250000  1
  Sn  Sn13  1  0.500000  0.000000  0.250000  1
  Sn  Sn14  1  0.000000  0.250000  0.500000  1
  Sn  Sn15  1  0.250000  0.500000  0.000000  1
  I  I16  1  0.250000  0.753993  0.746007  1
  I  I17  1  0.507985  0.503993  0.753993  1
  I  I18  1  0.992015  0.746007  0.996007  1
  I  I19  1  0.746007  0.250000  0.753993  1
  I  I20  1  0.996007  0.992015  0.746007  1
  I  I21  1  0.250000  0.996007  0.503993  1
  I  I22  1  0.753993  0.507985  0.503993  1
  I  I23  1  0.503993  0.250000  0.996007  1
  I  I24  1  0.753993  0.746007  0.250000  1
  I  I25  1  0.746007  0.996007  0.992015  1
  I  I26  1  0.996007  0.503993  0.250000  1
  I  I27  1  0.503993  0.753993  0.507985  1
