# generated using pymatgen
data_Th3Al12Fe3Ir
_symmetry_space_group_name_H-M   'P 1'
_cell_length_a   8.89902200
_cell_length_b   8.90309684
_cell_length_c   9.45860049
_cell_angle_alpha   89.96794702
_cell_angle_beta   90.00000000
_cell_angle_gamma   119.98486839
_symmetry_Int_Tables_number   1
_chemical_formula_structural   Th3Al12Fe3Ir
_chemical_formula_sum   'Th6 Al24 Fe6 Ir2'
_cell_volume   649.09311178
_cell_formula_units_Z   2
loop_
 _symmetry_equiv_pos_site_id
 _symmetry_equiv_pos_as_xyz
  1  'x, y, z'
loop_
 _atom_site_type_symbol
 _atom_site_label
 _atom_site_symmetry_multiplicity
 _atom_site_fract_x
 _atom_site_fract_y
 _atom_site_fract_z
 _atom_site_occupancy
  Th  Th0  1  0.803327  0.193423  0.746999  1
  Th  Th1  1  0.196673  0.806577  0.253001  1
  Th  Th2  1  0.390096  0.193423  0.746999  1
  Th  Th3  1  0.609904  0.806577  0.253001  1
  Th  Th4  1  0.804925  0.609851  0.746507  1
  Th  Th5  1  0.195075  0.390149  0.253493  1
  Al  Al6  1  0.662963  0.325925  0.993351  1
  Al  Al7  1  0.337037  0.674075  0.006649  1
  Al  Al8  1  0.333525  0.667051  0.493884  1
  Al  Al9  1  0.666475  0.332949  0.506116  1
  Al  Al10  1  0.838401  0.160934  0.423283  1
  Al  Al11  1  0.161599  0.839066  0.576717  1
  Al  Al12  1  0.322533  0.160934  0.423283  1
  Al  Al13  1  0.162594  0.843584  0.923724  1
  Al  Al14  1  0.677467  0.839066  0.576717  1
  Al  Al15  1  0.837406  0.156416  0.076276  1
  Al  Al16  1  0.839127  0.678255  0.423123  1
  Al  Al17  1  0.680990  0.843584  0.923724  1
  Al  Al18  1  0.160873  0.321745  0.576877  1
  Al  Al19  1  0.319010  0.156416  0.076276  1
  Al  Al20  1  0.158906  0.317812  0.923902  1
  Al  Al21  1  0.841094  0.682188  0.076098  1
  Al  Al22  1  0.436639  0.562687  0.744807  1
  Al  Al23  1  0.563361  0.437313  0.255193  1
  Al  Al24  1  0.126048  0.562687  0.744807  1
  Al  Al25  1  0.873952  0.437313  0.255193  1
  Al  Al26  1  0.437843  0.875687  0.750098  1
  Al  Al27  1  0.562157  0.124313  0.249902  1
  Al  Al28  1  0.999748  0.999496  0.750313  1
  Al  Al29  1  0.000252  0.000504  0.249687  1
  Fe  Fe30  1  0.500000  0.500000  0.500000  1
  Fe  Fe31  1  0.500000  0.000000  0.000000  1
  Fe  Fe32  1  0.000000  0.500000  0.500000  1
  Fe  Fe33  1  0.500000  0.000000  0.500000  1
  Fe  Fe34  1  0.000000  0.000000  0.000000  1
  Fe  Fe35  1  0.000000  0.000000  0.500000  1
  Ir  Ir36  1  0.500000  0.500000  0.000000  1
  Ir  Ir37  1  0.000000  0.500000  0.000000  1
