# generated using pymatgen
data_Dy4Al18PtRh4Au
_symmetry_space_group_name_H-M   'P 1'
_cell_length_a   7.60829795
_cell_length_b   7.60829676
_cell_length_c   9.46340212
_cell_angle_alpha   89.99667525
_cell_angle_beta   89.99670569
_cell_angle_gamma   119.66841663
_symmetry_Int_Tables_number   1
_chemical_formula_structural   Dy4Al18PtRh4Au
_chemical_formula_sum   'Dy4 Al18 Pt1 Rh4 Au1'
_cell_volume   475.98612343
_cell_formula_units_Z   1
loop_
 _symmetry_equiv_pos_site_id
 _symmetry_equiv_pos_as_xyz
  1  'x, y, z'
loop_
 _atom_site_type_symbol
 _atom_site_label
 _atom_site_symmetry_multiplicity
 _atom_site_fract_x
 _atom_site_fract_y
 _atom_site_fract_z
 _atom_site_occupancy
  Dy  Dy0  1  0.992640  0.666645  0.750655  1
  Dy  Dy1  1  0.003107  0.330162  0.249564  1
  Dy  Dy2  1  0.669836  0.996892  0.750433  1
  Dy  Dy3  1  0.333356  0.007360  0.249346  1
  Al  Al4  1  0.125113  0.123796  0.752535  1
  Al  Al5  1  0.876204  0.874886  0.247464  1
  Al  Al6  1  0.007936  0.330772  0.579115  1
  Al  Al7  1  0.004467  0.675175  0.421001  1
  Al  Al8  1  0.002099  0.665690  0.073370  1
  Al  Al9  1  0.334310  0.997900  0.926630  1
  Al  Al10  1  0.999581  0.334713  0.926354  1
  Al  Al11  1  0.665286  0.000419  0.073646  1
  Al  Al12  1  0.669228  0.992064  0.420885  1
  Al  Al13  1  0.324824  0.995532  0.578999  1
  Al  Al14  1  0.330439  0.330723  0.049021  1
  Al  Al15  1  0.669278  0.669561  0.950980  1
  Al  Al16  1  0.669189  0.672990  0.559607  1
  Al  Al17  1  0.327009  0.330811  0.440393  1
  Al  Al18  1  0.340935  0.549801  0.755001  1
  Al  Al19  1  0.659886  0.457390  0.240780  1
  Al  Al20  1  0.542609  0.340114  0.759220  1
  Al  Al21  1  0.450198  0.659064  0.245000  1
  Pt  Pt22  1  0.328375  0.671623  0.499999  1
  Rh  Rh23  1  0.327702  0.672302  0.000001  1
  Rh  Rh24  1  0.672488  0.327513  0.000002  1
  Rh  Rh25  1  0.999924  0.000082  0.499998  1
  Rh  Rh26  1  0.000169  0.999835  0.999999  1
  Au  Au27  1  0.673814  0.326184  0.500000  1
