# generated using pymatgen
data_Nd3Er(CuP2)4
_symmetry_space_group_name_H-M   'P 1'
_cell_length_a   3.75522700
_cell_length_b   3.84211269
_cell_length_c   19.87811274
_cell_angle_alpha   89.93057194
_cell_angle_beta   90.00000000
_cell_angle_gamma   90.00000000
_symmetry_Int_Tables_number   1
_chemical_formula_structural   Nd3Er(CuP2)4
_chemical_formula_sum   'Nd3 Er1 Cu4 P8'
_cell_volume   286.80130545
_cell_formula_units_Z   1
loop_
 _symmetry_equiv_pos_site_id
 _symmetry_equiv_pos_as_xyz
  1  'x, y, z'
loop_
 _atom_site_type_symbol
 _atom_site_label
 _atom_site_symmetry_multiplicity
 _atom_site_fract_x
 _atom_site_fract_y
 _atom_site_fract_z
 _atom_site_occupancy
  Nd  Nd0  1  0.250000  0.714729  0.378407  1
  Nd  Nd1  1  0.250000  0.784024  0.885818  1
  Nd  Nd2  1  0.750000  0.285992  0.618901  1
  Er  Er3  1  0.750000  0.214055  0.119144  1
  Cu  Cu4  1  0.250000  0.217237  0.244858  1
  Cu  Cu5  1  0.750000  0.783420  0.752579  1
  Cu  Cu6  1  0.250000  0.283379  0.751797  1
  Cu  Cu7  1  0.750000  0.717386  0.245469  1
  P  P8  1  0.750000  0.815499  0.501038  1
  P  P9  1  0.750000  0.685102  0.008427  1
  P  P10  1  0.250000  0.185242  0.496318  1
  P  P11  1  0.250000  0.313398  0.003638  1
  P  P12  1  0.250000  0.715631  0.169843  1
  P  P13  1  0.750000  0.215564  0.319313  1
  P  P14  1  0.750000  0.284274  0.826156  1
  P  P15  1  0.250000  0.785069  0.678294  1
