# generated using pymatgen
data_CeEr3(MgRh)4
_symmetry_space_group_name_H-M   'P 1'
_cell_length_a   4.03985200
_cell_length_b   7.08842854
_cell_length_c   8.65822675
_cell_angle_alpha   90.82804316
_cell_angle_beta   90.00000000
_cell_angle_gamma   90.00000000
_symmetry_Int_Tables_number   1
_chemical_formula_structural   CeEr3(MgRh)4
_chemical_formula_sum   'Ce1 Er3 Mg4 Rh4'
_cell_volume   247.91283991
_cell_formula_units_Z   1
loop_
 _symmetry_equiv_pos_site_id
 _symmetry_equiv_pos_as_xyz
  1  'x, y, z'
loop_
 _atom_site_type_symbol
 _atom_site_label
 _atom_site_symmetry_multiplicity
 _atom_site_fract_x
 _atom_site_fract_y
 _atom_site_fract_z
 _atom_site_occupancy
  Ce  Ce0  1  0.250000  0.535138  0.180369  1
  Er  Er1  1  0.750000  0.463307  0.818700  1
  Er  Er2  1  0.750000  0.957903  0.676524  1
  Er  Er3  1  0.250000  0.036031  0.328660  1
  Mg  Mg4  1  0.250000  0.633505  0.559407  1
  Mg  Mg5  1  0.750000  0.358250  0.447148  1
  Mg  Mg6  1  0.750000  0.871387  0.057557  1
  Mg  Mg7  1  0.250000  0.137501  0.938774  1
  Rh  Rh8  1  0.250000  0.752776  0.867458  1
  Rh  Rh9  1  0.750000  0.264482  0.131816  1
  Rh  Rh10  1  0.750000  0.746407  0.361681  1
  Rh  Rh11  1  0.250000  0.243314  0.631907  1
