# generated using pymatgen
data_Mn7Mo4Ir
_symmetry_space_group_name_H-M   'P 1'
_cell_length_a   4.72530200
_cell_length_b   4.72530287
_cell_length_c   7.93087300
_cell_angle_alpha   90.00000000
_cell_angle_beta   90.00000000
_cell_angle_gamma   120.00000791
_symmetry_Int_Tables_number   1
_chemical_formula_structural   Mn7Mo4Ir
_chemical_formula_sum   'Mn7 Mo4 Ir1'
_cell_volume   153.35954542
_cell_formula_units_Z   1
loop_
 _symmetry_equiv_pos_site_id
 _symmetry_equiv_pos_as_xyz
  1  'x, y, z'
loop_
 _atom_site_type_symbol
 _atom_site_label
 _atom_site_symmetry_multiplicity
 _atom_site_fract_x
 _atom_site_fract_y
 _atom_site_fract_z
 _atom_site_occupancy
  Mn  Mn0  1  0.175402  0.350804  0.257942  1
  Mn  Mn1  1  0.175401  0.824597  0.257942  1
  Mn  Mn2  1  0.649196  0.824597  0.257942  1
  Mn  Mn3  1  0.000000  0.000000  0.500001  1
  Mn  Mn4  1  0.350805  0.175402  0.742058  1
  Mn  Mn5  1  0.824597  0.175402  0.742058  1
  Mn  Mn6  1  0.824599  0.649195  0.742058  1
  Mo  Mo7  1  0.666667  0.333333  0.070279  1
  Mo  Mo8  1  0.666667  0.333333  0.432290  1
  Mo  Mo9  1  0.333333  0.666666  0.567711  1
  Mo  Mo10  1  0.333333  0.666666  0.929721  1
  Ir  Ir11  1  0.000000  0.000000  0.000000  1
