# generated using pymatgen
data_HoEr3Lu4Ga3Co
_symmetry_space_group_name_H-M   'P 1'
_cell_length_a   9.83385700
_cell_length_b   9.83385590
_cell_length_c   6.86166100
_cell_angle_alpha   90.00000000
_cell_angle_beta   90.00000000
_cell_angle_gamma   120.00000033
_symmetry_Int_Tables_number   1
_chemical_formula_structural   HoEr3Lu4Ga3Co
_chemical_formula_sum   'Ho2 Er6 Lu8 Ga6 Co2'
_cell_volume   574.65556533
_cell_formula_units_Z   2
loop_
 _symmetry_equiv_pos_site_id
 _symmetry_equiv_pos_as_xyz
  1  'x, y, z'
loop_
 _atom_site_type_symbol
 _atom_site_label
 _atom_site_symmetry_multiplicity
 _atom_site_fract_x
 _atom_site_fract_y
 _atom_site_fract_z
 _atom_site_occupancy
  Ho  Ho0  1  0.000000  0.000000  0.230560  1
  Ho  Ho1  1  0.000000  0.000000  0.730560  1
  Er  Er2  1  0.464311  0.535689  0.207974  1
  Er  Er3  1  0.071379  0.535689  0.207974  1
  Er  Er4  1  0.464311  0.928621  0.207974  1
  Er  Er5  1  0.535689  0.464311  0.707974  1
  Er  Er6  1  0.928621  0.464311  0.707974  1
  Er  Er7  1  0.535689  0.071379  0.707974  1
  Lu  Lu8  1  0.173844  0.826156  0.511140  1
  Lu  Lu9  1  0.652312  0.826156  0.511140  1
  Lu  Lu10  1  0.173844  0.347688  0.511140  1
  Lu  Lu11  1  0.826156  0.173844  0.011140  1
  Lu  Lu12  1  0.347688  0.173844  0.011140  1
  Lu  Lu13  1  0.826156  0.652312  0.011140  1
  Lu  Lu14  1  0.333333  0.666667  0.826703  1
  Lu  Lu15  1  0.666667  0.333333  0.326703  1
  Ga  Ga16  1  0.163637  0.836363  0.959019  1
  Ga  Ga17  1  0.672724  0.836363  0.959019  1
  Ga  Ga18  1  0.163637  0.327276  0.959019  1
  Ga  Ga19  1  0.836363  0.163637  0.459019  1
  Ga  Ga20  1  0.327276  0.163637  0.459019  1
  Ga  Ga21  1  0.836363  0.672724  0.459019  1
  Co  Co22  1  0.333333  0.666667  0.445357  1
  Co  Co23  1  0.666667  0.333333  0.945357  1
