# generated using pymatgen
data_Zr3TaCr8
_symmetry_space_group_name_H-M   'P 1'
_cell_length_a   8.70068791
_cell_length_b   8.70068788
_cell_length_c   8.70068626
_cell_angle_alpha   33.49908958
_cell_angle_beta   33.49909158
_cell_angle_gamma   33.49908965
_symmetry_Int_Tables_number   1
_chemical_formula_structural   Zr3TaCr8
_chemical_formula_sum   'Zr3 Ta1 Cr8'
_cell_volume   178.69822196
_cell_formula_units_Z   1
loop_
 _symmetry_equiv_pos_site_id
 _symmetry_equiv_pos_as_xyz
  1  'x, y, z'
loop_
 _atom_site_type_symbol
 _atom_site_label
 _atom_site_symmetry_multiplicity
 _atom_site_fract_x
 _atom_site_fract_y
 _atom_site_fract_z
 _atom_site_occupancy
  Zr  Zr0  1  0.625055  0.625055  0.625055  1
  Zr  Zr1  1  0.000862  0.000862  0.000862  1
  Zr  Zr2  1  0.499213  0.499213  0.499213  1
  Ta  Ta3  1  0.124931  0.124931  0.124931  1
  Cr  Cr4  1  0.563580  0.063978  0.563580  1
  Cr  Cr5  1  0.061946  0.560088  0.061946  1
  Cr  Cr6  1  0.063978  0.563580  0.563580  1
  Cr  Cr7  1  0.560088  0.061946  0.061946  1
  Cr  Cr8  1  0.812312  0.812312  0.812312  1
  Cr  Cr9  1  0.312509  0.312509  0.312509  1
  Cr  Cr10  1  0.563580  0.563580  0.063978  1
  Cr  Cr11  1  0.061946  0.061946  0.560088  1
