# generated using pymatgen
data_Co2Ni(AsO4)2
_symmetry_space_group_name_H-M   'P 1'
_cell_length_a   8.51391200
_cell_length_b   5.33998207
_cell_length_c   9.02940493
_cell_angle_alpha   60.53111785
_cell_angle_beta   90.00000000
_cell_angle_gamma   90.00000000
_symmetry_Int_Tables_number   1
_chemical_formula_structural   Co2Ni(AsO4)2
_chemical_formula_sum   'Co4 Ni2 As4 O16'
_cell_volume   357.40302562
_cell_formula_units_Z   2
loop_
 _symmetry_equiv_pos_site_id
 _symmetry_equiv_pos_as_xyz
  1  'x, y, z'
loop_
 _atom_site_type_symbol
 _atom_site_label
 _atom_site_symmetry_multiplicity
 _atom_site_fract_x
 _atom_site_fract_y
 _atom_site_fract_z
 _atom_site_occupancy
  Co  Co0  1  0.358601  0.989211  0.108207  1
  Co  Co1  1  0.641399  0.010789  0.891793  1
  Co  Co2  1  0.858601  0.010789  0.391793  1
  Co  Co3  1  0.141399  0.989211  0.608207  1
  Ni  Ni4  1  0.000000  0.000000  0.000000  1
  Ni  Ni5  1  0.500000  0.000000  0.500000  1
  As  As6  1  0.693492  0.648008  0.305264  1
  As  As7  1  0.306508  0.351992  0.694736  1
  As  As8  1  0.193492  0.351992  0.194736  1
  As  As9  1  0.806508  0.648008  0.805264  1
  O  O10  1  0.643583  0.728442  0.461770  1
  O  O11  1  0.356417  0.271558  0.538230  1
  O  O12  1  0.143583  0.271558  0.038230  1
  O  O13  1  0.856417  0.728442  0.961770  1
  O  O14  1  0.565540  0.794190  0.135294  1
  O  O15  1  0.434460  0.205810  0.864706  1
  O  O16  1  0.065540  0.205810  0.364706  1
  O  O17  1  0.934460  0.794190  0.635294  1
  O  O18  1  0.873915  0.823917  0.243271  1
  O  O19  1  0.126085  0.176083  0.756729  1
  O  O20  1  0.373915  0.176083  0.256729  1
  O  O21  1  0.626085  0.823917  0.743271  1
  O  O22  1  0.693937  0.281442  0.385928  1
  O  O23  1  0.306063  0.718558  0.614072  1
  O  O24  1  0.193937  0.718558  0.114072  1
  O  O25  1  0.806063  0.281442  0.885928  1
