# generated using pymatgen
data_Er4SnSb5Rh7
_symmetry_space_group_name_H-M   'P 1'
_cell_length_a   7.58885103
_cell_length_b   7.58885252
_cell_length_c   7.58885208
_cell_angle_alpha   109.59226005
_cell_angle_beta   109.41073244
_cell_angle_gamma   109.41073291
_symmetry_Int_Tables_number   1
_chemical_formula_structural   Er4SnSb5Rh7
_chemical_formula_sum   'Er4 Sn1 Sb5 Rh7'
_cell_volume   336.43789502
_cell_formula_units_Z   1
loop_
 _symmetry_equiv_pos_site_id
 _symmetry_equiv_pos_as_xyz
  1  'x, y, z'
loop_
 _atom_site_type_symbol
 _atom_site_label
 _atom_site_symmetry_multiplicity
 _atom_site_fract_x
 _atom_site_fract_y
 _atom_site_fract_z
 _atom_site_occupancy
  Er  Er0  1  0.498733  0.000698  0.000698  1
  Er  Er1  1  0.000000  0.501965  0.000698  1
  Er  Er2  1  0.000000  0.000698  0.501965  1
  Er  Er3  1  0.501267  0.501965  0.501965  1
  Sn  Sn4  1  0.000000  0.313271  0.313271  1
  Sb  Sb5  1  0.683482  0.001466  0.684947  1
  Sb  Sb6  1  0.683482  0.684947  0.001466  1
  Sb  Sb7  1  0.000000  0.678783  0.678783  1
  Sb  Sb8  1  0.316518  0.001466  0.317983  1
  Sb  Sb9  1  0.316518  0.317983  0.001466  1
  Rh  Rh10  1  0.000000  0.994601  0.994601  1
  Rh  Rh11  1  0.500000  0.751172  0.251172  1
  Rh  Rh12  1  0.748992  0.499952  0.248946  1
  Rh  Rh13  1  0.251008  0.750960  0.499952  1
  Rh  Rh14  1  0.251008  0.499952  0.750960  1
  Rh  Rh15  1  0.500000  0.251172  0.751172  1
  Rh  Rh16  1  0.748992  0.248946  0.499952  1
