# generated using pymatgen
data_Hf13Sc5Cr2(Re3P)2
_symmetry_space_group_name_H-M   'P 1'
_cell_length_a   8.59914371
_cell_length_b   8.58530902
_cell_length_c   8.44977500
_cell_angle_alpha   90.00000000
_cell_angle_beta   90.00000000
_cell_angle_gamma   119.94678565
_symmetry_Int_Tables_number   1
_chemical_formula_structural   Hf13Sc5Cr2(Re3P)2
_chemical_formula_sum   'Hf13 Sc5 Cr2 Re6 P2'
_cell_volume   540.52967788
_cell_formula_units_Z   1
loop_
 _symmetry_equiv_pos_site_id
 _symmetry_equiv_pos_as_xyz
  1  'x, y, z'
loop_
 _atom_site_type_symbol
 _atom_site_label
 _atom_site_symmetry_multiplicity
 _atom_site_fract_x
 _atom_site_fract_y
 _atom_site_fract_z
 _atom_site_occupancy
  Hf  Hf0  1  0.194521  0.805749  0.452471  1
  Hf  Hf1  1  0.194521  0.388770  0.452471  1
  Hf  Hf2  1  0.611587  0.805792  0.451826  1
  Hf  Hf3  1  0.805505  0.194012  0.547846  1
  Hf  Hf4  1  0.805505  0.611495  0.547846  1
  Hf  Hf5  1  0.388980  0.194491  0.547491  1
  Hf  Hf6  1  0.805505  0.194012  0.952154  1
  Hf  Hf7  1  0.805505  0.611495  0.952154  1
  Hf  Hf8  1  0.388980  0.194491  0.952509  1
  Hf  Hf9  1  0.194521  0.805749  0.047529  1
  Hf  Hf10  1  0.194521  0.388770  0.047529  1
  Hf  Hf11  1  0.611587  0.805792  0.048174  1
  Hf  Hf12  1  0.078564  0.539282  0.750000  1
  Sc  Sc13  1  0.540715  0.459552  0.250000  1
  Sc  Sc14  1  0.540715  0.081162  0.250000  1
  Sc  Sc15  1  0.919111  0.459556  0.250000  1
  Sc  Sc16  1  0.459150  0.540777  0.750000  1
  Sc  Sc17  1  0.459150  0.918372  0.750000  1
  Cr  Cr18  1  0.999769  0.999885  0.499619  1
  Cr  Cr19  1  0.999769  0.999885  0.000381  1
  Re  Re20  1  0.893040  0.107169  0.250000  1
  Re  Re21  1  0.893040  0.785870  0.250000  1
  Re  Re22  1  0.214001  0.107000  0.250000  1
  Re  Re23  1  0.106997  0.892741  0.750000  1
  Re  Re24  1  0.106997  0.214256  0.750000  1
  Re  Re25  1  0.785822  0.892912  0.750000  1
  P  P26  1  0.333190  0.666596  0.250000  1
  P  P27  1  0.668737  0.334368  0.750000  1
