# generated using pymatgen
data_PrScCo3P7Ru9
_symmetry_space_group_name_H-M   'P 1'
_cell_length_a   9.35223300
_cell_length_b   9.35223330
_cell_length_c   3.82834500
_cell_angle_alpha   90.00000000
_cell_angle_beta   90.00000000
_cell_angle_gamma   119.99999539
_symmetry_Int_Tables_number   1
_chemical_formula_structural   PrScCo3P7Ru9
_chemical_formula_sum   'Pr1 Sc1 Co3 P7 Ru9'
_cell_volume   289.98288800
_cell_formula_units_Z   1
loop_
 _symmetry_equiv_pos_site_id
 _symmetry_equiv_pos_as_xyz
  1  'x, y, z'
loop_
 _atom_site_type_symbol
 _atom_site_label
 _atom_site_symmetry_multiplicity
 _atom_site_fract_x
 _atom_site_fract_y
 _atom_site_fract_z
 _atom_site_occupancy
  Pr  Pr0  1  0.333333  0.666667  0.000000  1
  Sc  Sc1  1  0.666667  0.333333  0.500000  1
  Co  Co2  1  0.730481  0.889266  0.000000  1
  Co  Co3  1  0.110734  0.841212  0.000000  1
  Co  Co4  1  0.158788  0.269519  0.000000  1
  P  P5  1  0.604713  0.717727  0.500000  1
  P  P6  1  0.000000  0.000000  0.000000  1
  P  P7  1  0.282273  0.886985  0.500000  1
  P  P8  1  0.113015  0.395287  0.500000  1
  P  P9  1  0.888371  0.583676  0.000000  1
  P  P10  1  0.416324  0.304695  0.000000  1
  P  P11  1  0.695305  0.111629  0.000000  1
  Ru  Ru12  1  0.567532  0.954088  0.500000  1
  Ru  Ru13  1  0.386557  0.432468  0.500000  1
  Ru  Ru14  1  0.914594  0.118252  0.500000  1
  Ru  Ru15  1  0.203659  0.085406  0.500000  1
  Ru  Ru16  1  0.881748  0.796341  0.500000  1
  Ru  Ru17  1  0.425996  0.066837  0.000000  1
  Ru  Ru18  1  0.933163  0.359161  0.000000  1
  Ru  Ru19  1  0.640839  0.574004  0.000000  1
  Ru  Ru20  1  0.045912  0.613443  0.500000  1
