# generated using pymatgen
data_SmDy2Co8P6W
_symmetry_space_group_name_H-M   'P 1'
_cell_length_a   3.74174100
_cell_length_b   10.60681100
_cell_length_c   12.31423300
_cell_angle_alpha   90.00000000
_cell_angle_beta   90.00000000
_cell_angle_gamma   90.00000000
_symmetry_Int_Tables_number   1
_chemical_formula_structural   SmDy2Co8P6W
_chemical_formula_sum   'Sm2 Dy4 Co16 P12 W2'
_cell_volume   488.72653550
_cell_formula_units_Z   2
loop_
 _symmetry_equiv_pos_site_id
 _symmetry_equiv_pos_as_xyz
  1  'x, y, z'
loop_
 _atom_site_type_symbol
 _atom_site_label
 _atom_site_symmetry_multiplicity
 _atom_site_fract_x
 _atom_site_fract_y
 _atom_site_fract_z
 _atom_site_occupancy
  Sm  Sm0  1  0.000000  0.500000  0.524500  1
  Sm  Sm1  1  0.500000  0.000000  0.475500  1
  Dy  Dy2  1  0.500000  0.819081  0.204464  1
  Dy  Dy3  1  0.500000  0.180919  0.204464  1
  Dy  Dy4  1  0.000000  0.680919  0.795536  1
  Dy  Dy5  1  0.000000  0.319081  0.795536  1
  Co  Co6  1  0.500000  0.500000  0.702915  1
  Co  Co7  1  0.000000  0.000000  0.297085  1
  Co  Co8  1  0.000000  0.500000  0.986868  1
  Co  Co9  1  0.500000  0.000000  0.013132  1
  Co  Co10  1  0.500000  0.332611  0.990532  1
  Co  Co11  1  0.500000  0.667389  0.990532  1
  Co  Co12  1  0.000000  0.167389  0.009468  1
  Co  Co13  1  0.000000  0.832611  0.009468  1
  Co  Co14  1  0.500000  0.295469  0.430502  1
  Co  Co15  1  0.500000  0.704531  0.430502  1
  Co  Co16  1  0.000000  0.204531  0.569498  1
  Co  Co17  1  0.000000  0.795469  0.569498  1
  Co  Co18  1  0.500000  0.878683  0.709103  1
  Co  Co19  1  0.500000  0.121317  0.709103  1
  Co  Co20  1  0.000000  0.621317  0.290897  1
  Co  Co21  1  0.000000  0.378683  0.290897  1
  P  P22  1  0.500000  0.500000  0.881345  1
  P  P23  1  0.000000  0.000000  0.118655  1
  P  P24  1  0.500000  0.500000  0.347593  1
  P  P25  1  0.000000  0.000000  0.652407  1
  P  P26  1  0.500000  0.309253  0.616589  1
  P  P27  1  0.500000  0.690747  0.616589  1
  P  P28  1  0.000000  0.190747  0.383411  1
  P  P29  1  0.000000  0.809253  0.383411  1
  P  P30  1  0.500000  0.844277  0.893422  1
  P  P31  1  0.500000  0.155723  0.893422  1
  P  P32  1  0.000000  0.655723  0.106578  1
  P  P33  1  0.000000  0.344277  0.106578  1
  W  W34  1  0.500000  0.500000  0.154848  1
  W  W35  1  0.000000  0.000000  0.845152  1
