# generated using pymatgen
data_Sr3Li6TaNbO11
_symmetry_space_group_name_H-M   'P 1'
_cell_length_a   5.87089800
_cell_length_b   8.41773000
_cell_length_c   10.67079100
_cell_angle_alpha   90.00000000
_cell_angle_beta   90.00000000
_cell_angle_gamma   90.00000000
_symmetry_Int_Tables_number   1
_chemical_formula_structural   Sr3Li6TaNbO11
_chemical_formula_sum   'Sr6 Li12 Ta2 Nb2 O22'
_cell_volume   527.34658807
_cell_formula_units_Z   2
loop_
 _symmetry_equiv_pos_site_id
 _symmetry_equiv_pos_as_xyz
  1  'x, y, z'
loop_
 _atom_site_type_symbol
 _atom_site_label
 _atom_site_symmetry_multiplicity
 _atom_site_fract_x
 _atom_site_fract_y
 _atom_site_fract_z
 _atom_site_occupancy
  Sr  Sr0  1  0.500000  0.264174  0.500000  1
  Sr  Sr1  1  0.500000  0.735826  0.500000  1
  Sr  Sr2  1  0.500000  0.735826  0.000000  1
  Sr  Sr3  1  0.500000  0.264174  0.000000  1
  Sr  Sr4  1  0.616284  0.000000  0.750000  1
  Sr  Sr5  1  0.383716  0.000000  0.250000  1
  Li  Li6  1  0.000000  0.355417  0.500000  1
  Li  Li7  1  0.000000  0.644583  0.500000  1
  Li  Li8  1  0.000000  0.644583  0.000000  1
  Li  Li9  1  0.000000  0.355417  0.000000  1
  Li  Li10  1  0.148390  0.146137  0.750000  1
  Li  Li11  1  0.851610  0.853863  0.250000  1
  Li  Li12  1  0.148390  0.853863  0.750000  1
  Li  Li13  1  0.851610  0.146137  0.250000  1
  Li  Li14  1  0.780894  0.314723  0.750000  1
  Li  Li15  1  0.219106  0.685277  0.250000  1
  Li  Li16  1  0.780894  0.685277  0.750000  1
  Li  Li17  1  0.219106  0.314723  0.250000  1
  Ta  Ta18  1  0.000000  0.000000  0.500000  1
  Ta  Ta19  1  0.000000  0.000000  0.000000  1
  Nb  Nb20  1  0.262204  0.500000  0.750000  1
  Nb  Nb21  1  0.737796  0.500000  0.250000  1
  O  O22  1  0.132193  0.173782  0.110456  1
  O  O23  1  0.867807  0.826218  0.889544  1
  O  O24  1  0.132193  0.826218  0.389544  1
  O  O25  1  0.867807  0.173782  0.889544  1
  O  O26  1  0.867807  0.173782  0.610456  1
  O  O27  1  0.132193  0.826218  0.110456  1
  O  O28  1  0.867807  0.826218  0.610456  1
  O  O29  1  0.132193  0.173782  0.389544  1
  O  O30  1  0.941289  0.500000  0.750000  1
  O  O31  1  0.058711  0.500000  0.250000  1
  O  O32  1  0.250926  0.500000  0.559395  1
  O  O33  1  0.749074  0.500000  0.440605  1
  O  O34  1  0.250926  0.500000  0.940605  1
  O  O35  1  0.749074  0.500000  0.059395  1
  O  O36  1  0.280721  0.000000  0.607335  1
  O  O37  1  0.719279  0.000000  0.392665  1
  O  O38  1  0.280721  0.000000  0.892665  1
  O  O39  1  0.719279  0.000000  0.107335  1
  O  O40  1  0.430881  0.300467  0.750000  1
  O  O41  1  0.569119  0.699533  0.250000  1
  O  O42  1  0.430881  0.699533  0.750000  1
  O  O43  1  0.569119  0.300467  0.250000  1
