# generated using pymatgen
data_Tm2CuBRh5
_symmetry_space_group_name_H-M   'P 1'
_cell_length_a   5.82398169
_cell_length_b   5.74356880
_cell_length_c   5.74356896
_cell_angle_alpha   60.92844764
_cell_angle_beta   59.53577472
_cell_angle_gamma   59.53577286
_symmetry_Int_Tables_number   1
_chemical_formula_structural   Tm2CuBRh5
_chemical_formula_sum   'Tm2 Cu1 B1 Rh5'
_cell_volume   135.79880161
_cell_formula_units_Z   1
loop_
 _symmetry_equiv_pos_site_id
 _symmetry_equiv_pos_as_xyz
  1  'x, y, z'
loop_
 _atom_site_type_symbol
 _atom_site_label
 _atom_site_symmetry_multiplicity
 _atom_site_fract_x
 _atom_site_fract_y
 _atom_site_fract_z
 _atom_site_occupancy
  Tm  Tm0  1  0.249643  0.250357  0.250357  1
  Tm  Tm1  1  0.749643  0.750357  0.750357  1
  Cu  Cu2  1  0.764690  0.235309  0.235309  1
  B  B3  1  0.500160  0.499840  0.499840  1
  Rh  Rh4  1  0.244004  0.755995  0.245656  1
  Rh  Rh5  1  0.754343  0.755995  0.245656  1
  Rh  Rh6  1  0.244004  0.245656  0.755995  1
  Rh  Rh7  1  0.754343  0.245656  0.755995  1
  Rh  Rh8  1  0.239168  0.760831  0.760831  1
