# generated using pymatgen
data_CsAc(MoO4)2
_symmetry_space_group_name_H-M   'P 1'
_cell_length_a   5.26739800
_cell_length_b   8.83186900
_cell_length_c   9.91256900
_cell_angle_alpha   90.00000000
_cell_angle_beta   90.00000000
_cell_angle_gamma   90.00000000
_symmetry_Int_Tables_number   1
_chemical_formula_structural   CsAc(MoO4)2
_chemical_formula_sum   'Cs2 Ac2 Mo4 O16'
_cell_volume   461.14231622
_cell_formula_units_Z   2
loop_
 _symmetry_equiv_pos_site_id
 _symmetry_equiv_pos_as_xyz
  1  'x, y, z'
loop_
 _atom_site_type_symbol
 _atom_site_label
 _atom_site_symmetry_multiplicity
 _atom_site_fract_x
 _atom_site_fract_y
 _atom_site_fract_z
 _atom_site_occupancy
  Cs  Cs0  1  0.000000  0.250000  0.500000  1
  Cs  Cs1  1  0.000000  0.750000  0.500000  1
  Ac  Ac2  1  0.000000  0.250000  0.000000  1
  Ac  Ac3  1  0.000000  0.750000  0.000000  1
  Mo  Mo4  1  0.515282  0.000000  0.205133  1
  Mo  Mo5  1  0.484718  0.000000  0.794867  1
  Mo  Mo6  1  0.484718  0.500000  0.205133  1
  Mo  Mo7  1  0.515282  0.500000  0.794867  1
  O  O8  1  0.258279  0.000000  0.076993  1
  O  O9  1  0.741721  0.000000  0.923007  1
  O  O10  1  0.741721  0.500000  0.076993  1
  O  O11  1  0.258279  0.500000  0.923007  1
  O  O12  1  0.276953  0.337745  0.193925  1
  O  O13  1  0.723047  0.662255  0.806075  1
  O  O14  1  0.723047  0.337745  0.806075  1
  O  O15  1  0.723047  0.162255  0.193925  1
  O  O16  1  0.276953  0.662255  0.193925  1
  O  O17  1  0.276953  0.837745  0.806075  1
  O  O18  1  0.276953  0.162255  0.806075  1
  O  O19  1  0.723047  0.837745  0.193925  1
  O  O20  1  0.370823  0.000000  0.364498  1
  O  O21  1  0.629177  0.000000  0.635502  1
  O  O22  1  0.629177  0.500000  0.364498  1
  O  O23  1  0.370823  0.500000  0.635502  1
