# generated using pymatgen
data_Pr3Ta(Ga3Pd)8
_symmetry_space_group_name_H-M   'P 1'
_cell_length_a   8.57501884
_cell_length_b   8.57501913
_cell_length_c   8.57501922
_cell_angle_alpha   89.91647903
_cell_angle_beta   89.91647491
_cell_angle_gamma   89.91648462
_symmetry_Int_Tables_number   1
_chemical_formula_structural   Pr3Ta(Ga3Pd)8
_chemical_formula_sum   'Pr3 Ta1 Ga24 Pd8'
_cell_volume   630.52730663
_cell_formula_units_Z   1
loop_
 _symmetry_equiv_pos_site_id
 _symmetry_equiv_pos_as_xyz
  1  'x, y, z'
loop_
 _atom_site_type_symbol
 _atom_site_label
 _atom_site_symmetry_multiplicity
 _atom_site_fract_x
 _atom_site_fract_y
 _atom_site_fract_z
 _atom_site_occupancy
  Pr  Pr0  1  0.000000  0.500000  0.000000  1
  Pr  Pr1  1  0.500000  0.000000  0.000000  1
  Pr  Pr2  1  0.000000  0.000000  0.500000  1
  Ta  Ta3  1  0.500000  0.500000  0.500000  1
  Ga  Ga4  1  0.989173  0.643364  0.643364  1
  Ga  Ga5  1  0.643364  0.643364  0.989173  1
  Ga  Ga6  1  0.643364  0.989173  0.643364  1
  Ga  Ga7  1  0.010827  0.356636  0.356636  1
  Ga  Ga8  1  0.356636  0.356636  0.010827  1
  Ga  Ga9  1  0.356636  0.010827  0.356636  1
  Ga  Ga10  1  0.735443  0.500000  0.264557  1
  Ga  Ga11  1  0.264557  0.500000  0.735443  1
  Ga  Ga12  1  0.500000  0.264557  0.735443  1
  Ga  Ga13  1  0.500000  0.735443  0.264557  1
  Ga  Ga14  1  0.264557  0.735443  0.500000  1
  Ga  Ga15  1  0.735443  0.264557  0.500000  1
  Ga  Ga16  1  0.838626  0.142974  0.838626  1
  Ga  Ga17  1  0.142974  0.838626  0.838626  1
  Ga  Ga18  1  0.838626  0.838626  0.142974  1
  Ga  Ga19  1  0.161374  0.857026  0.161374  1
  Ga  Ga20  1  0.857026  0.161374  0.161374  1
  Ga  Ga21  1  0.161374  0.161374  0.857026  1
  Ga  Ga22  1  0.728329  0.488122  0.728329  1
  Ga  Ga23  1  0.488122  0.728329  0.728329  1
  Ga  Ga24  1  0.728329  0.728329  0.488122  1
  Ga  Ga25  1  0.271671  0.511878  0.271671  1
  Ga  Ga26  1  0.511878  0.271671  0.271671  1
  Ga  Ga27  1  0.271671  0.271671  0.511878  1
  Pd  Pd28  1  0.837574  0.837574  0.837574  1
  Pd  Pd29  1  0.162426  0.162426  0.162426  1
  Pd  Pd30  1  0.663862  0.336138  0.000000  1
  Pd  Pd31  1  0.000000  0.336138  0.663862  1
  Pd  Pd32  1  0.336138  0.000000  0.663862  1
  Pd  Pd33  1  0.336138  0.663862  0.000000  1
  Pd  Pd34  1  0.000000  0.663862  0.336138  1
  Pd  Pd35  1  0.663862  0.000000  0.336138  1
