# generated using pymatgen
data_Li(MnPd2)5
_symmetry_space_group_name_H-M   'P 1'
_cell_length_a   4.14576500
_cell_length_b   5.43049266
_cell_length_c   10.67421826
_cell_angle_alpha   89.10594749
_cell_angle_beta   90.00000000
_cell_angle_gamma   90.00000000
_symmetry_Int_Tables_number   1
_chemical_formula_structural   Li(MnPd2)5
_chemical_formula_sum   'Li1 Mn5 Pd10'
_cell_volume   240.28525170
_cell_formula_units_Z   1
loop_
 _symmetry_equiv_pos_site_id
 _symmetry_equiv_pos_as_xyz
  1  'x, y, z'
loop_
 _atom_site_type_symbol
 _atom_site_label
 _atom_site_symmetry_multiplicity
 _atom_site_fract_x
 _atom_site_fract_y
 _atom_site_fract_z
 _atom_site_occupancy
  Li  Li0  1  0.000000  0.500000  0.500000  1
  Mn  Mn1  1  0.000000  0.000000  0.000000  1
  Mn  Mn2  1  0.500000  0.179200  0.365759  1
  Mn  Mn3  1  0.500000  0.820800  0.634241  1
  Mn  Mn4  1  0.500000  0.681015  0.139423  1
  Mn  Mn5  1  0.500000  0.318985  0.860577  1
  Pd  Pd6  1  0.500000  0.190466  0.111904  1
  Pd  Pd7  1  0.500000  0.809534  0.888096  1
  Pd  Pd8  1  0.500000  0.684472  0.391025  1
  Pd  Pd9  1  0.500000  0.315528  0.608975  1
  Pd  Pd10  1  0.000000  0.000000  0.500000  1
  Pd  Pd11  1  0.000000  0.500000  0.000000  1
  Pd  Pd12  1  0.000000  0.916941  0.244367  1
  Pd  Pd13  1  0.000000  0.083059  0.755633  1
  Pd  Pd14  1  0.000000  0.417412  0.259847  1
  Pd  Pd15  1  0.000000  0.582588  0.740153  1
