# generated using pymatgen
data_Tb4YbDy(Si3Ru)8
_symmetry_space_group_name_H-M   'P 1'
_cell_length_a   10.13415170
_cell_length_b   10.13415275
_cell_length_c   8.15589378
_cell_angle_alpha   89.99086321
_cell_angle_beta   89.99085968
_cell_angle_gamma   132.55506366
_symmetry_Int_Tables_number   1
_chemical_formula_structural   Tb4YbDy(Si3Ru)8
_chemical_formula_sum   'Tb4 Yb1 Dy1 Si24 Ru8'
_cell_volume   617.01317178
_cell_formula_units_Z   1
loop_
 _symmetry_equiv_pos_site_id
 _symmetry_equiv_pos_as_xyz
  1  'x, y, z'
loop_
 _atom_site_type_symbol
 _atom_site_label
 _atom_site_symmetry_multiplicity
 _atom_site_fract_x
 _atom_site_fract_y
 _atom_site_fract_z
 _atom_site_occupancy
  Tb  Tb0  1  0.502339  0.002629  0.749826  1
  Tb  Tb1  1  0.997371  0.497661  0.250174  1
  Tb  Tb2  1  0.497661  0.997371  0.250174  1
  Tb  Tb3  1  0.002629  0.502339  0.749826  1
  Yb  Yb4  1  0.500000  0.500000  0.500000  1
  Dy  Dy5  1  0.000000  0.000000  0.000000  1
  Si  Si6  1  0.795190  0.204810  0.500000  1
  Si  Si7  1  0.295036  0.704964  0.000000  1
  Si  Si8  1  0.204810  0.795190  0.500000  1
  Si  Si9  1  0.704964  0.295036  0.000000  1
  Si  Si10  1  0.333442  0.333442  0.831781  1
  Si  Si11  1  0.666558  0.666558  0.168219  1
  Si  Si12  1  0.169064  0.169064  0.334269  1
  Si  Si13  1  0.830936  0.830936  0.665731  1
  Si  Si14  1  0.122757  0.888910  0.728504  1
  Si  Si15  1  0.111090  0.877243  0.271496  1
  Si  Si16  1  0.610588  0.377667  0.229921  1
  Si  Si17  1  0.622333  0.389412  0.770079  1
  Si  Si18  1  0.877243  0.111090  0.271496  1
  Si  Si19  1  0.888910  0.122757  0.728504  1
  Si  Si20  1  0.389412  0.622333  0.770079  1
  Si  Si21  1  0.377667  0.610588  0.229921  1
  Si  Si22  1  0.346089  0.114027  0.505561  1
  Si  Si23  1  0.885973  0.653911  0.494439  1
  Si  Si24  1  0.388050  0.154948  0.005186  1
  Si  Si25  1  0.845052  0.611950  0.994814  1
  Si  Si26  1  0.653911  0.885973  0.494439  1
  Si  Si27  1  0.114027  0.346089  0.505561  1
  Si  Si28  1  0.611950  0.845052  0.994814  1
  Si  Si29  1  0.154948  0.388050  0.005186  1
  Ru  Ru30  1  0.669979  0.330021  0.500000  1
  Ru  Ru31  1  0.169198  0.830802  0.000000  1
  Ru  Ru32  1  0.330021  0.669979  0.500000  1
  Ru  Ru33  1  0.830802  0.169198  0.000000  1
  Ru  Ru34  1  0.124446  0.124446  0.627540  1
  Ru  Ru35  1  0.875554  0.875554  0.372460  1
  Ru  Ru36  1  0.373544  0.373544  0.125253  1
  Ru  Ru37  1  0.626456  0.626456  0.874747  1
