# generated using pymatgen
data_LiCaGePd3
_symmetry_space_group_name_H-M   'P 1'
_cell_length_a   5.11499336
_cell_length_b   5.11499333
_cell_length_c   5.11499233
_cell_angle_alpha   66.28434777
_cell_angle_beta   66.28434696
_cell_angle_gamma   66.28433710
_symmetry_Int_Tables_number   1
_chemical_formula_structural   LiCaGePd3
_chemical_formula_sum   'Li1 Ca1 Ge1 Pd3'
_cell_volume   107.46287153
_cell_formula_units_Z   1
loop_
 _symmetry_equiv_pos_site_id
 _symmetry_equiv_pos_as_xyz
  1  'x, y, z'
loop_
 _atom_site_type_symbol
 _atom_site_label
 _atom_site_symmetry_multiplicity
 _atom_site_fract_x
 _atom_site_fract_y
 _atom_site_fract_z
 _atom_site_occupancy
  Li  Li0  1  0.865726  0.865726  0.865726  1
  Ca  Ca1  1  0.122193  0.122193  0.122193  1
  Ge  Ge2  1  0.504016  0.504016  0.504016  1
  Pd  Pd3  1  0.503255  0.503255  0.001556  1
  Pd  Pd4  1  0.001556  0.503255  0.503255  1
  Pd  Pd5  1  0.503255  0.001556  0.503255  1
