# generated using pymatgen
data_DyHoAl8GaIr3
_symmetry_space_group_name_H-M   'P 1'
_cell_length_a   7.53387572
_cell_length_b   7.53505321
_cell_length_c   9.50975000
_cell_angle_alpha   90.00000000
_cell_angle_beta   90.00000000
_cell_angle_gamma   119.40549287
_symmetry_Int_Tables_number   1
_chemical_formula_structural   DyHoAl8GaIr3
_chemical_formula_sum   'Dy2 Ho2 Al16 Ga2 Ir6'
_cell_volume   470.30020044
_cell_formula_units_Z   2
loop_
 _symmetry_equiv_pos_site_id
 _symmetry_equiv_pos_as_xyz
  1  'x, y, z'
loop_
 _atom_site_type_symbol
 _atom_site_label
 _atom_site_symmetry_multiplicity
 _atom_site_fract_x
 _atom_site_fract_y
 _atom_site_fract_z
 _atom_site_occupancy
  Dy  Dy0  1  0.994168  0.673502  0.250000  1
  Dy  Dy1  1  0.005832  0.326498  0.750000  1
  Ho  Ho2  1  0.673448  0.994178  0.250000  1
  Ho  Ho3  1  0.326552  0.005822  0.750000  1
  Al  Al4  1  0.001400  0.335586  0.073439  1
  Al  Al5  1  0.998600  0.664414  0.926561  1
  Al  Al6  1  0.998600  0.664414  0.573439  1
  Al  Al7  1  0.335901  0.001518  0.426811  1
  Al  Al8  1  0.001400  0.335586  0.426561  1
  Al  Al9  1  0.664099  0.998482  0.573189  1
  Al  Al10  1  0.664099  0.998482  0.926811  1
  Al  Al11  1  0.335901  0.001518  0.073189  1
  Al  Al12  1  0.334132  0.334003  0.553379  1
  Al  Al13  1  0.665868  0.665997  0.446621  1
  Al  Al14  1  0.665868  0.665997  0.053379  1
  Al  Al15  1  0.334132  0.334003  0.946621  1
  Al  Al16  1  0.338298  0.548999  0.250000  1
  Al  Al17  1  0.661702  0.451001  0.750000  1
  Al  Al18  1  0.548733  0.337675  0.250000  1
  Al  Al19  1  0.451267  0.662325  0.750000  1
  Ga  Ga20  1  0.133227  0.133328  0.250000  1
  Ga  Ga21  1  0.866773  0.866672  0.750000  1
  Ir  Ir22  1  0.671533  0.328331  0.999989  1
  Ir  Ir23  1  0.328467  0.671669  0.000011  1
  Ir  Ir24  1  0.328467  0.671669  0.499989  1
  Ir  Ir25  1  0.671533  0.328331  0.500011  1
  Ir  Ir26  1  0.000000  0.000000  0.000000  1
  Ir  Ir27  1  0.000000  0.000000  0.500000  1
