# generated using pymatgen
data_Ca7Yb(AgPb)4
_symmetry_space_group_name_H-M   'P 1'
_cell_length_a   7.78747309
_cell_length_b   5.32684900
_cell_length_c   10.65811211
_cell_angle_alpha   90.00000000
_cell_angle_beta   89.98291558
_cell_angle_gamma   90.00000000
_symmetry_Int_Tables_number   1
_chemical_formula_structural   Ca7Yb(AgPb)4
_chemical_formula_sum   'Ca7 Yb1 Ag4 Pb4'
_cell_volume   442.12717570
_cell_formula_units_Z   1
loop_
 _symmetry_equiv_pos_site_id
 _symmetry_equiv_pos_as_xyz
  1  'x, y, z'
loop_
 _atom_site_type_symbol
 _atom_site_label
 _atom_site_symmetry_multiplicity
 _atom_site_fract_x
 _atom_site_fract_y
 _atom_site_fract_z
 _atom_site_occupancy
  Ca  Ca0  1  0.500220  0.750000  0.125135  1
  Ca  Ca1  1  0.000228  0.249999  0.374650  1
  Ca  Ca2  1  0.500210  0.249999  0.374741  1
  Ca  Ca3  1  0.499813  0.750000  0.625235  1
  Ca  Ca4  1  0.999630  0.750000  0.625405  1
  Ca  Ca5  1  0.500108  0.249999  0.874981  1
  Ca  Ca6  1  0.999902  0.249999  0.874976  1
  Yb  Yb7  1  0.000269  0.750000  0.125027  1
  Ag  Ag8  1  0.753148  0.249999  0.124888  1
  Ag  Ag9  1  0.248587  0.750000  0.373535  1
  Ag  Ag10  1  0.749986  0.249999  0.624820  1
  Ag  Ag11  1  0.248352  0.750000  0.876668  1
  Pb  Pb12  1  0.247940  0.249999  0.124745  1
  Pb  Pb13  1  0.751158  0.750000  0.374241  1
  Pb  Pb14  1  0.249705  0.249999  0.624890  1
  Pb  Pb15  1  0.750745  0.750000  0.876063  1
