# generated using pymatgen
data_TmLu7In3Fe
_symmetry_space_group_name_H-M   'P 1'
_cell_length_a   10.13315700
_cell_length_b   10.13315655
_cell_length_c   6.92640500
_cell_angle_alpha   90.00000000
_cell_angle_beta   90.00000000
_cell_angle_gamma   120.00001125
_symmetry_Int_Tables_number   1
_chemical_formula_structural   TmLu7In3Fe
_chemical_formula_sum   'Tm2 Lu14 In6 Fe2'
_cell_volume   615.92522142
_cell_formula_units_Z   2
loop_
 _symmetry_equiv_pos_site_id
 _symmetry_equiv_pos_as_xyz
  1  'x, y, z'
loop_
 _atom_site_type_symbol
 _atom_site_label
 _atom_site_symmetry_multiplicity
 _atom_site_fract_x
 _atom_site_fract_y
 _atom_site_fract_z
 _atom_site_occupancy
  Tm  Tm0  1  0.000000  0.000000  0.273163  1
  Tm  Tm1  1  0.000000  0.000000  0.773163  1
  Lu  Lu2  1  0.179949  0.820051  0.991834  1
  Lu  Lu3  1  0.359897  0.179949  0.491834  1
  Lu  Lu4  1  0.820051  0.640103  0.491834  1
  Lu  Lu5  1  0.179949  0.359897  0.991834  1
  Lu  Lu6  1  0.640103  0.820051  0.991834  1
  Lu  Lu7  1  0.820051  0.179949  0.491834  1
  Lu  Lu8  1  0.333333  0.666667  0.678325  1
  Lu  Lu9  1  0.666667  0.333333  0.178325  1
  Lu  Lu10  1  0.464865  0.535135  0.287781  1
  Lu  Lu11  1  0.929728  0.464865  0.787781  1
  Lu  Lu12  1  0.535135  0.070272  0.787781  1
  Lu  Lu13  1  0.464865  0.929728  0.287781  1
  Lu  Lu14  1  0.070272  0.535135  0.287781  1
  Lu  Lu15  1  0.535135  0.464865  0.787781  1
  In  In16  1  0.163474  0.836526  0.536304  1
  In  In17  1  0.326947  0.163474  0.036304  1
  In  In18  1  0.836526  0.673053  0.036304  1
  In  In19  1  0.163474  0.326947  0.536304  1
  In  In20  1  0.673053  0.836526  0.536304  1
  In  In21  1  0.836526  0.163474  0.036304  1
  Fe  Fe22  1  0.333333  0.666667  0.062762  1
  Fe  Fe23  1  0.666667  0.333333  0.562762  1
