# generated using pymatgen
data_LaZr(SnIr)2
_symmetry_space_group_name_H-M   'P 1'
_cell_length_a   7.53383300
_cell_length_b   7.53383295
_cell_length_c   7.89531700
_cell_angle_alpha   90.00000000
_cell_angle_beta   90.00000000
_cell_angle_gamma   119.99999582
_symmetry_Int_Tables_number   1
_chemical_formula_structural   LaZr(SnIr)2
_chemical_formula_sum   'La3 Zr3 Sn6 Ir6'
_cell_volume   388.08977210
_cell_formula_units_Z   3
loop_
 _symmetry_equiv_pos_site_id
 _symmetry_equiv_pos_as_xyz
  1  'x, y, z'
loop_
 _atom_site_type_symbol
 _atom_site_label
 _atom_site_symmetry_multiplicity
 _atom_site_fract_x
 _atom_site_fract_y
 _atom_site_fract_z
 _atom_site_occupancy
  La  La0  1  0.590752  0.590627  0.750000  1
  La  La1  1  0.999874  0.409248  0.750000  1
  La  La2  1  0.409373  0.000126  0.750000  1
  Zr  Zr3  1  0.394627  0.000806  0.250000  1
  Zr  Zr4  1  0.606180  0.605373  0.250000  1
  Zr  Zr5  1  0.999194  0.393820  0.250000  1
  Sn  Sn6  1  0.262112  0.262697  0.486022  1
  Sn  Sn7  1  0.262112  0.262697  0.013978  1
  Sn  Sn8  1  0.737303  0.999417  0.013978  1
  Sn  Sn9  1  0.000583  0.737888  0.486022  1
  Sn  Sn10  1  0.737303  0.999417  0.486022  1
  Sn  Sn11  1  0.000583  0.737888  0.013978  1
  Ir  Ir12  1  0.666667  0.333333  0.457385  1
  Ir  Ir13  1  0.666667  0.333333  0.042615  1
  Ir  Ir14  1  0.333333  0.666667  0.044238  1
  Ir  Ir15  1  0.333333  0.666667  0.455762  1
  Ir  Ir16  1  0.000000  0.000000  0.750000  1
  Ir  Ir17  1  0.000000  0.000000  0.250000  1
