# generated using pymatgen
data_YbPd(PtO3)2
_symmetry_space_group_name_H-M   'P 1'
_cell_length_a   3.26029800
_cell_length_b   6.27696911
_cell_length_c   6.27696988
_cell_angle_alpha   109.24149870
_cell_angle_beta   90.00000000
_cell_angle_gamma   90.00000000
_symmetry_Int_Tables_number   1
_chemical_formula_structural   YbPd(PtO3)2
_chemical_formula_sum   'Yb1 Pd1 Pt2 O6'
_cell_volume   121.28100240
_cell_formula_units_Z   1
loop_
 _symmetry_equiv_pos_site_id
 _symmetry_equiv_pos_as_xyz
  1  'x, y, z'
loop_
 _atom_site_type_symbol
 _atom_site_label
 _atom_site_symmetry_multiplicity
 _atom_site_fract_x
 _atom_site_fract_y
 _atom_site_fract_z
 _atom_site_occupancy
  Yb  Yb0  1  0.000000  0.500000  0.500000  1
  Pd  Pd1  1  0.000000  0.000000  0.000000  1
  Pt  Pt2  1  0.499999  0.500000  0.000000  1
  Pt  Pt3  1  0.499999  0.000001  0.500000  1
  O  O4  1  0.000000  0.919958  0.660888  1
  O  O5  1  0.000000  0.080043  0.339112  1
  O  O6  1  0.000000  0.660888  0.919958  1
  O  O7  1  0.000000  0.339113  0.080043  1
  O  O8  1  0.499999  0.340100  0.659902  1
  O  O9  1  0.499999  0.659901  0.340099  1
