# generated using pymatgen
data_Tb3Sm2HoNiBr10
_symmetry_space_group_name_H-M   'P 1'
_cell_length_a   7.37878488
_cell_length_b   9.22431979
_cell_length_c   9.37505895
_cell_angle_alpha   107.96051803
_cell_angle_beta   96.70653810
_cell_angle_gamma   105.79963023
_symmetry_Int_Tables_number   1
_chemical_formula_structural   Tb3Sm2HoNiBr10
_chemical_formula_sum   'Tb3 Sm2 Ho1 Ni1 Br10'
_cell_volume   569.85858337
_cell_formula_units_Z   1
loop_
 _symmetry_equiv_pos_site_id
 _symmetry_equiv_pos_as_xyz
  1  'x, y, z'
loop_
 _atom_site_type_symbol
 _atom_site_label
 _atom_site_symmetry_multiplicity
 _atom_site_fract_x
 _atom_site_fract_y
 _atom_site_fract_z
 _atom_site_occupancy
  Tb  Tb0  1  0.027873  0.705642  0.907941  1
  Tb  Tb1  1  0.354434  0.133269  0.173636  1
  Tb  Tb2  1  0.645581  0.867895  0.826672  1
  Sm  Sm3  1  0.126252  0.047100  0.756430  1
  Sm  Sm4  1  0.874116  0.953139  0.243877  1
  Ho  Ho5  1  0.972285  0.292057  0.091495  1
  Ni  Ni6  1  0.000099  0.999494  0.999920  1
  Br  Br7  1  0.553101  0.179334  0.917908  1
  Br  Br8  1  0.448434  0.822066  0.083161  1
  Br  Br9  1  0.349608  0.453285  0.268872  1
  Br  Br10  1  0.646287  0.546897  0.730101  1
  Br  Br11  1  0.256821  0.083655  0.452855  1
  Br  Br12  1  0.743535  0.916567  0.547034  1
  Br  Br13  1  0.783490  0.260305  0.341065  1
  Br  Br14  1  0.218367  0.741433  0.657290  1
  Br  Br15  1  0.083135  0.372815  0.831649  1
  Br  Br16  1  0.916583  0.625046  0.170092  1
