# generated using pymatgen
data_Ho4Hf3ZnPt4
_symmetry_space_group_name_H-M   'P 1'
_cell_length_a   4.55026700
_cell_length_b   7.01605351
_cell_length_c   8.21244927
_cell_angle_alpha   86.80695529
_cell_angle_beta   90.00000000
_cell_angle_gamma   90.00000000
_symmetry_Int_Tables_number   1
_chemical_formula_structural   Ho4Hf3ZnPt4
_chemical_formula_sum   'Ho4 Hf3 Zn1 Pt4'
_cell_volume   261.77473086
_cell_formula_units_Z   1
loop_
 _symmetry_equiv_pos_site_id
 _symmetry_equiv_pos_as_xyz
  1  'x, y, z'
loop_
 _atom_site_type_symbol
 _atom_site_label
 _atom_site_symmetry_multiplicity
 _atom_site_fract_x
 _atom_site_fract_y
 _atom_site_fract_z
 _atom_site_occupancy
  Ho  Ho0  1  0.250000  0.510086  0.163689  1
  Ho  Ho1  1  0.750000  0.455909  0.831910  1
  Ho  Ho2  1  0.750000  0.984346  0.684725  1
  Ho  Ho3  1  0.250000  0.032365  0.308474  1
  Hf  Hf4  1  0.250000  0.647282  0.574467  1
  Hf  Hf5  1  0.750000  0.366482  0.430967  1
  Hf  Hf6  1  0.750000  0.857356  0.062484  1
  Zn  Zn7  1  0.250000  0.142021  0.930062  1
  Pt  Pt8  1  0.250000  0.761133  0.888650  1
  Pt  Pt9  1  0.750000  0.232231  0.127725  1
  Pt  Pt10  1  0.750000  0.741887  0.395978  1
  Pt  Pt11  1  0.250000  0.268901  0.600868  1
