# generated using pymatgen
data_Hf4SiGe2MoN
_symmetry_space_group_name_H-M   'P 1'
_cell_length_a   7.80343085
_cell_length_b   7.80343126
_cell_length_c   5.46422709
_cell_angle_alpha   89.98956571
_cell_angle_beta   89.98956969
_cell_angle_gamma   120.15144724
_symmetry_Int_Tables_number   1
_chemical_formula_structural   Hf4SiGe2MoN
_chemical_formula_sum   'Hf8 Si2 Ge4 Mo2 N2'
_cell_volume   287.71714591
_cell_formula_units_Z   2
loop_
 _symmetry_equiv_pos_site_id
 _symmetry_equiv_pos_as_xyz
  1  'x, y, z'
loop_
 _atom_site_type_symbol
 _atom_site_label
 _atom_site_symmetry_multiplicity
 _atom_site_fract_x
 _atom_site_fract_y
 _atom_site_fract_z
 _atom_site_occupancy
  Hf  Hf0  1  0.234742  0.002909  0.247199  1
  Hf  Hf1  1  0.765258  0.997091  0.752801  1
  Hf  Hf2  1  0.002909  0.234742  0.247199  1
  Hf  Hf3  1  0.997091  0.765258  0.752801  1
  Hf  Hf4  1  0.764463  0.764463  0.250454  1
  Hf  Hf5  1  0.235537  0.235537  0.749546  1
  Hf  Hf6  1  0.662634  0.337366  0.500000  1
  Hf  Hf7  1  0.337366  0.662634  0.500000  1
  Si  Si8  1  0.408860  0.408860  0.223381  1
  Si  Si9  1  0.591140  0.591140  0.776619  1
  Ge  Ge10  1  0.593899  0.001684  0.236876  1
  Ge  Ge11  1  0.406101  0.998316  0.763124  1
  Ge  Ge12  1  0.001684  0.593899  0.236876  1
  Ge  Ge13  1  0.998316  0.406101  0.763124  1
  Mo  Mo14  1  0.336821  0.663179  0.000000  1
  Mo  Mo15  1  0.663179  0.336821  0.000000  1
  N  N16  1  0.000000  0.000000  0.000000  1
  N  N17  1  0.000000  0.000000  0.500000  1
