# generated using pymatgen
data_Tb3Dy4Er3(CoSb2)2
_symmetry_space_group_name_H-M   'P 1'
_cell_length_a   7.89586100
_cell_length_b   8.76306641
_cell_length_c   12.23244244
_cell_angle_alpha   89.94092830
_cell_angle_beta   90.00000000
_cell_angle_gamma   90.00000000
_symmetry_Int_Tables_number   1
_chemical_formula_structural   Tb3Dy4Er3(CoSb2)2
_chemical_formula_sum   'Tb6 Dy8 Er6 Co4 Sb8'
_cell_volume   846.38614837
_cell_formula_units_Z   2
loop_
 _symmetry_equiv_pos_site_id
 _symmetry_equiv_pos_as_xyz
  1  'x, y, z'
loop_
 _atom_site_type_symbol
 _atom_site_label
 _atom_site_symmetry_multiplicity
 _atom_site_fract_x
 _atom_site_fract_y
 _atom_site_fract_z
 _atom_site_occupancy
  Tb  Tb0  1  0.624056  0.749706  0.308024  1
  Tb  Tb1  1  0.124056  0.250294  0.191976  1
  Tb  Tb2  1  0.377259  0.250814  0.692228  1
  Tb  Tb3  1  0.877259  0.749186  0.807772  1
  Tb  Tb4  1  0.820945  0.965134  0.064962  1
  Tb  Tb5  1  0.320945  0.034866  0.435038  1
  Dy  Dy6  1  0.154964  0.749540  0.203087  1
  Dy  Dy7  1  0.654964  0.250460  0.296913  1
  Dy  Dy8  1  0.845186  0.250269  0.796667  1
  Dy  Dy9  1  0.345186  0.749731  0.703333  1
  Dy  Dy10  1  0.451740  0.749453  0.997659  1
  Dy  Dy11  1  0.951740  0.250547  0.502341  1
  Dy  Dy12  1  0.545252  0.250789  0.002017  1
  Dy  Dy13  1  0.045252  0.749211  0.497983  1
  Er  Er14  1  0.176186  0.463587  0.933960  1
  Er  Er15  1  0.676186  0.536413  0.566040  1
  Er  Er16  1  0.176634  0.036018  0.934061  1
  Er  Er17  1  0.676634  0.963982  0.565939  1
  Er  Er18  1  0.824054  0.535184  0.065271  1
  Er  Er19  1  0.324054  0.464816  0.434729  1
  Co  Co20  1  0.436787  0.749290  0.492017  1
  Co  Co21  1  0.936787  0.250710  0.007983  1
  Co  Co22  1  0.566836  0.251186  0.508927  1
  Co  Co23  1  0.066836  0.748814  0.991073  1
  Sb  Sb24  1  0.929466  0.992119  0.326879  1
  Sb  Sb25  1  0.429466  0.007881  0.173121  1
  Sb  Sb26  1  0.069664  0.492184  0.672998  1
  Sb  Sb27  1  0.569664  0.507816  0.827002  1
  Sb  Sb28  1  0.069923  0.007724  0.673054  1
  Sb  Sb29  1  0.569923  0.992276  0.826946  1
  Sb  Sb30  1  0.931046  0.507542  0.326576  1
  Sb  Sb31  1  0.431046  0.492458  0.173424  1
