# generated using pymatgen
data_Yb6ReRhO12
_symmetry_space_group_name_H-M   'P 1'
_cell_length_a   5.82105214
_cell_length_b   5.45361821
_cell_length_c   9.59774958
_cell_angle_alpha   55.38401560
_cell_angle_beta   88.86044070
_cell_angle_gamma   89.92968772
_symmetry_Int_Tables_number   1
_chemical_formula_structural   Yb6ReRhO12
_chemical_formula_sum   'Yb6 Re1 Rh1 O12'
_cell_volume   250.68328932
_cell_formula_units_Z   1
loop_
 _symmetry_equiv_pos_site_id
 _symmetry_equiv_pos_as_xyz
  1  'x, y, z'
loop_
 _atom_site_type_symbol
 _atom_site_label
 _atom_site_symmetry_multiplicity
 _atom_site_fract_x
 _atom_site_fract_y
 _atom_site_fract_z
 _atom_site_occupancy
  Yb  Yb0  1  0.575093  0.240462  0.236277  1
  Yb  Yb1  1  0.062728  0.791961  0.225086  1
  Yb  Yb2  1  0.500000  0.000000  0.000000  1
  Yb  Yb3  1  0.000000  0.000000  0.500000  1
  Yb  Yb4  1  0.937272  0.208039  0.774914  1
  Yb  Yb5  1  0.424907  0.759538  0.763723  1
  Re  Re6  1  0.500000  0.500000  0.500000  1
  Rh  Rh7  1  0.000000  0.500000  0.000000  1
  O  O8  1  0.549654  0.395811  0.723137  1
  O  O9  1  0.054777  0.613645  0.765632  1
  O  O10  1  0.450346  0.604189  0.276863  1
  O  O11  1  0.945223  0.386355  0.234368  1
  O  O12  1  0.776036  0.738039  0.424239  1
  O  O13  1  0.285326  0.259562  0.066887  1
  O  O14  1  0.223964  0.261961  0.575761  1
  O  O15  1  0.714674  0.740438  0.933113  1
  O  O16  1  0.184355  0.848764  0.948122  1
  O  O17  1  0.668161  0.159526  0.554436  1
  O  O18  1  0.815645  0.151236  0.051878  1
  O  O19  1  0.331839  0.840474  0.445564  1
