# generated using pymatgen
data_YLuSb5
_symmetry_space_group_name_H-M   'P 1'
_cell_length_a   4.21489200
_cell_length_b   13.19911681
_cell_length_c   14.52712197
_cell_angle_alpha   78.53071841
_cell_angle_beta   90.00000000
_cell_angle_gamma   90.00000000
_symmetry_Int_Tables_number   1
_chemical_formula_structural   YLuSb5
_chemical_formula_sum   'Y4 Lu4 Sb20'
_cell_volume   792.04693959
_cell_formula_units_Z   4
loop_
 _symmetry_equiv_pos_site_id
 _symmetry_equiv_pos_as_xyz
  1  'x, y, z'
loop_
 _atom_site_type_symbol
 _atom_site_label
 _atom_site_symmetry_multiplicity
 _atom_site_fract_x
 _atom_site_fract_y
 _atom_site_fract_z
 _atom_site_occupancy
  Y  Y0  1  0.250000  0.670192  0.575563  1
  Y  Y1  1  0.750000  0.329808  0.424437  1
  Y  Y2  1  0.250000  0.953045  0.356486  1
  Y  Y3  1  0.750000  0.046955  0.643514  1
  Lu  Lu4  1  0.250000  0.396735  0.771585  1
  Lu  Lu5  1  0.750000  0.603265  0.228415  1
  Lu  Lu6  1  0.250000  0.660796  0.857045  1
  Lu  Lu7  1  0.750000  0.339204  0.142955  1
  Sb  Sb8  1  0.250000  0.147040  0.780594  1
  Sb  Sb9  1  0.750000  0.852960  0.219406  1
  Sb  Sb10  1  0.250000  0.141590  0.481132  1
  Sb  Sb11  1  0.750000  0.858410  0.518868  1
  Sb  Sb12  1  0.250000  0.155605  0.165534  1
  Sb  Sb13  1  0.750000  0.844395  0.834466  1
  Sb  Sb14  1  0.250000  0.421306  0.975693  1
  Sb  Sb15  1  0.750000  0.578694  0.024307  1
  Sb  Sb16  1  0.750000  0.029629  0.912187  1
  Sb  Sb17  1  0.250000  0.970371  0.087813  1
  Sb  Sb18  1  0.750000  0.140547  0.317970  1
  Sb  Sb19  1  0.250000  0.859453  0.682030  1
  Sb  Sb20  1  0.750000  0.280460  0.936296  1
  Sb  Sb21  1  0.250000  0.719540  0.063704  1
  Sb  Sb22  1  0.750000  0.286800  0.655225  1
  Sb  Sb23  1  0.250000  0.713200  0.344775  1
  Sb  Sb24  1  0.750000  0.575948  0.737102  1
  Sb  Sb25  1  0.250000  0.424052  0.262898  1
  Sb  Sb26  1  0.750000  0.571103  0.445694  1
  Sb  Sb27  1  0.250000  0.428897  0.554306  1
