# generated using pymatgen
data_GaBi(SeO3)3
_symmetry_space_group_name_H-M   'P 1'
_cell_length_a   7.74751800
_cell_length_b   8.88265200
_cell_length_c   12.93207900
_cell_angle_alpha   90.00000000
_cell_angle_beta   90.00000000
_cell_angle_gamma   90.00000000
_symmetry_Int_Tables_number   1
_chemical_formula_structural   GaBi(SeO3)3
_chemical_formula_sum   'Ga4 Bi4 Se12 O36'
_cell_volume   889.96635959
_cell_formula_units_Z   4
loop_
 _symmetry_equiv_pos_site_id
 _symmetry_equiv_pos_as_xyz
  1  'x, y, z'
loop_
 _atom_site_type_symbol
 _atom_site_label
 _atom_site_symmetry_multiplicity
 _atom_site_fract_x
 _atom_site_fract_y
 _atom_site_fract_z
 _atom_site_occupancy
  Ga  Ga0  1  0.750385  0.277064  0.328314  1
  Ga  Ga1  1  0.749615  0.722936  0.828314  1
  Ga  Ga2  1  0.250385  0.222936  0.671686  1
  Ga  Ga3  1  0.249615  0.777064  0.171686  1
  Bi  Bi4  1  0.776468  0.714166  0.529428  1
  Bi  Bi5  1  0.723532  0.285834  0.029428  1
  Bi  Bi6  1  0.276468  0.785834  0.470572  1
  Bi  Bi7  1  0.223532  0.214166  0.970572  1
  Se  Se8  1  0.436779  0.550437  0.676676  1
  Se  Se9  1  0.063221  0.449563  0.176676  1
  Se  Se10  1  0.936779  0.949563  0.323324  1
  Se  Se11  1  0.563221  0.050437  0.823324  1
  Se  Se12  1  0.574475  0.597869  0.276124  1
  Se  Se13  1  0.925525  0.402131  0.776124  1
  Se  Se14  1  0.074475  0.902131  0.723876  1
  Se  Se15  1  0.425525  0.097869  0.223876  1
  Se  Se16  1  0.583957  0.097512  0.540898  1
  Se  Se17  1  0.916043  0.902488  0.040898  1
  Se  Se18  1  0.083957  0.402488  0.459102  1
  Se  Se19  1  0.416043  0.597512  0.959102  1
  O  O20  1  0.458291  0.357777  0.671512  1
  O  O21  1  0.041709  0.642223  0.171512  1
  O  O22  1  0.958291  0.142223  0.328488  1
  O  O23  1  0.541709  0.857777  0.828488  1
  O  O24  1  0.649165  0.596696  0.710043  1
  O  O25  1  0.850835  0.403304  0.210043  1
  O  O26  1  0.149165  0.903304  0.289957  1
  O  O27  1  0.350835  0.096696  0.789957  1
  O  O28  1  0.459000  0.603150  0.545726  1
  O  O29  1  0.041000  0.396850  0.045726  1
  O  O30  1  0.959000  0.896850  0.454274  1
  O  O31  1  0.541000  0.103150  0.954274  1
  O  O32  1  0.682176  0.708530  0.365607  1
  O  O33  1  0.817824  0.291470  0.865607  1
  O  O34  1  0.182176  0.791470  0.634393  1
  O  O35  1  0.317824  0.208530  0.134393  1
  O  O36  1  0.361026  0.662384  0.297039  1
  O  O37  1  0.138974  0.337616  0.797039  1
  O  O38  1  0.861026  0.837616  0.702961  1
  O  O39  1  0.638974  0.162384  0.202961  1
  O  O40  1  0.556901  0.422671  0.333479  1
  O  O41  1  0.943099  0.577329  0.833479  1
  O  O42  1  0.056901  0.077329  0.666521  1
  O  O43  1  0.443099  0.922671  0.166521  1
  O  O44  1  0.576431  0.899208  0.538514  1
  O  O45  1  0.923569  0.100792  0.038514  1
  O  O46  1  0.076431  0.600792  0.461486  1
  O  O47  1  0.423569  0.399208  0.961486  1
  O  O48  1  0.361912  0.115314  0.552423  1
  O  O49  1  0.138088  0.884686  0.052423  1
  O  O50  1  0.861912  0.384686  0.447577  1
  O  O51  1  0.638088  0.615314  0.947577  1
  O  O52  1  0.614368  0.129334  0.411305  1
  O  O53  1  0.885632  0.870666  0.911305  1
  O  O54  1  0.114368  0.370666  0.588695  1
  O  O55  1  0.385632  0.629334  0.088695  1
