# generated using pymatgen
data_Ba3TbRh2O9
_symmetry_space_group_name_H-M   'P 1'
_cell_length_a   5.97242853
_cell_length_b   5.97242775
_cell_length_c   14.84308000
_cell_angle_alpha   88.72506866
_cell_angle_beta   88.72506883
_cell_angle_gamma   119.63474080
_symmetry_Int_Tables_number   1
_chemical_formula_structural   Ba3TbRh2O9
_chemical_formula_sum   'Ba6 Tb2 Rh4 O18'
_cell_volume   459.74555101
_cell_formula_units_Z   2
loop_
 _symmetry_equiv_pos_site_id
 _symmetry_equiv_pos_as_xyz
  1  'x, y, z'
loop_
 _atom_site_type_symbol
 _atom_site_label
 _atom_site_symmetry_multiplicity
 _atom_site_fract_x
 _atom_site_fract_y
 _atom_site_fract_z
 _atom_site_occupancy
  Ba  Ba0  1  0.006232  0.993768  0.250000  1
  Ba  Ba1  1  0.338333  0.671494  0.908728  1
  Ba  Ba2  1  0.328506  0.661667  0.591272  1
  Ba  Ba3  1  0.671494  0.338333  0.408728  1
  Ba  Ba4  1  0.661667  0.328506  0.091272  1
  Ba  Ba5  1  0.993768  0.006232  0.750000  1
  Tb  Tb6  1  0.000000  0.000000  0.000000  1
  Tb  Tb7  1  0.000000  0.000000  0.500000  1
  Rh  Rh8  1  0.320437  0.650323  0.160721  1
  Rh  Rh9  1  0.650323  0.320437  0.660721  1
  Rh  Rh10  1  0.349677  0.679563  0.339279  1
  Rh  Rh11  1  0.679563  0.349677  0.839279  1
  O  O12  1  0.963242  0.485502  0.739922  1
  O  O13  1  0.147354  0.795617  0.087015  1
  O  O14  1  0.795617  0.147354  0.587015  1
  O  O15  1  0.850684  0.675916  0.904706  1
  O  O16  1  0.036758  0.514498  0.260078  1
  O  O17  1  0.149316  0.324084  0.095294  1
  O  O18  1  0.485502  0.963242  0.239922  1
  O  O19  1  0.202497  0.378988  0.424443  1
  O  O20  1  0.513349  0.486651  0.750000  1
  O  O21  1  0.621012  0.797503  0.075557  1
  O  O22  1  0.675916  0.850684  0.404706  1
  O  O23  1  0.852646  0.204383  0.912985  1
  O  O24  1  0.514498  0.036758  0.760078  1
  O  O25  1  0.378988  0.202497  0.924443  1
  O  O26  1  0.797503  0.621012  0.575557  1
  O  O27  1  0.324084  0.149316  0.595294  1
  O  O28  1  0.204383  0.852646  0.412985  1
  O  O29  1  0.486651  0.513349  0.250000  1
