# generated using pymatgen
data_Tm2Al8Fe9
_symmetry_space_group_name_H-M   'P 1'
_cell_length_a   6.51901017
_cell_length_b   6.51866545
_cell_length_c   6.52107313
_cell_angle_alpha   83.74560016
_cell_angle_beta   96.25547680
_cell_angle_gamma   96.29196820
_symmetry_Int_Tables_number   1
_chemical_formula_structural   Tm2Al8Fe9
_chemical_formula_sum   'Tm2 Al8 Fe9'
_cell_volume   272.48266133
_cell_formula_units_Z   1
loop_
 _symmetry_equiv_pos_site_id
 _symmetry_equiv_pos_as_xyz
  1  'x, y, z'
loop_
 _atom_site_type_symbol
 _atom_site_label
 _atom_site_symmetry_multiplicity
 _atom_site_fract_x
 _atom_site_fract_y
 _atom_site_fract_z
 _atom_site_occupancy
  Tm  Tm0  1  0.635022  0.364985  0.364965  1
  Tm  Tm1  1  0.364975  0.635022  0.635034  1
  Al  Al2  1  0.317730  0.317784  0.000010  1
  Al  Al3  1  0.682258  0.682232  0.999984  1
  Al  Al4  1  0.875996  0.124021  0.124058  1
  Al  Al5  1  0.317638  0.999969  0.317735  1
  Al  Al6  1  0.000050  0.682326  0.317729  1
  Al  Al7  1  0.682358  0.000022  0.682273  1
  Al  Al8  1  0.999972  0.317678  0.682271  1
  Al  Al9  1  0.123988  0.875976  0.875945  1
  Fe  Fe10  1  0.500003  0.000004  0.000002  1
  Fe  Fe11  1  0.999996  0.499995  0.000009  1
  Fe  Fe12  1  0.336966  0.663044  0.164374  1
  Fe  Fe13  1  0.164405  0.336979  0.336961  1
  Fe  Fe14  1  0.663010  0.835583  0.336960  1
  Fe  Fe15  1  0.000000  0.000003  0.499997  1
  Fe  Fe16  1  0.336986  0.164405  0.663046  1
  Fe  Fe17  1  0.835610  0.663020  0.663039  1
  Fe  Fe18  1  0.663038  0.336950  0.835609  1
