# generated using pymatgen
data_GdEr5MoO12
_symmetry_space_group_name_H-M   'P 1'
_cell_length_a   6.44758134
_cell_length_b   6.44322759
_cell_length_c   6.44011682
_cell_angle_alpha   98.71666274
_cell_angle_beta   98.67081862
_cell_angle_gamma   98.44533640
_symmetry_Int_Tables_number   1
_chemical_formula_structural   GdEr5MoO12
_chemical_formula_sum   'Gd1 Er5 Mo1 O12'
_cell_volume   257.45739983
_cell_formula_units_Z   1
loop_
 _symmetry_equiv_pos_site_id
 _symmetry_equiv_pos_as_xyz
  1  'x, y, z'
loop_
 _atom_site_type_symbol
 _atom_site_label
 _atom_site_symmetry_multiplicity
 _atom_site_fract_x
 _atom_site_fract_y
 _atom_site_fract_z
 _atom_site_occupancy
  Gd  Gd0  1  0.143471  0.611661  0.313932  1
  Er  Er1  1  0.854622  0.386822  0.683970  1
  Er  Er2  1  0.611347  0.315095  0.143927  1
  Er  Er3  1  0.318076  0.144972  0.613166  1
  Er  Er4  1  0.684086  0.856586  0.388980  1
  Er  Er5  1  0.389694  0.682899  0.855055  1
  Mo  Mo6  1  0.998907  0.999079  0.998099  1
  O  O7  1  0.923822  0.033769  0.700392  1
  O  O8  1  0.959856  0.296566  0.070846  1
  O  O9  1  0.590095  0.176679  0.431250  1
  O  O10  1  0.818242  0.566434  0.412252  1
  O  O11  1  0.297952  0.076571  0.965774  1
  O  O12  1  0.568145  0.408068  0.822564  1
  O  O13  1  0.437424  0.592373  0.175534  1
  O  O14  1  0.702290  0.923052  0.034537  1
  O  O15  1  0.177065  0.430981  0.596984  1
  O  O16  1  0.414400  0.824965  0.571636  1
  O  O17  1  0.034564  0.702030  0.922483  1
  O  O18  1  0.075942  0.971396  0.298619  1
