# generated using pymatgen
data_Pa8Pd7PtPb4
_symmetry_space_group_name_H-M   'P 1'
_cell_length_a   7.81401008
_cell_length_b   7.81389324
_cell_length_c   7.43961067
_cell_angle_alpha   90.01049225
_cell_angle_beta   90.00477048
_cell_angle_gamma   90.18037435
_symmetry_Int_Tables_number   1
_chemical_formula_structural   Pa8Pd7PtPb4
_chemical_formula_sum   'Pa8 Pd7 Pt1 Pb4'
_cell_volume   454.24430161
_cell_formula_units_Z   1
loop_
 _symmetry_equiv_pos_site_id
 _symmetry_equiv_pos_as_xyz
  1  'x, y, z'
loop_
 _atom_site_type_symbol
 _atom_site_label
 _atom_site_symmetry_multiplicity
 _atom_site_fract_x
 _atom_site_fract_y
 _atom_site_fract_z
 _atom_site_occupancy
  Pa  Pa0  1  0.183434  0.813768  0.499246  1
  Pa  Pa1  1  0.686440  0.686404  0.001978  1
  Pa  Pa2  1  0.363179  0.363139  0.501016  1
  Pa  Pa3  1  0.813709  0.183597  0.499282  1
  Pa  Pa4  1  0.639969  0.640021  0.498451  1
  Pa  Pa5  1  0.314474  0.314353  0.998765  1
  Pa  Pa6  1  0.860760  0.138106  0.000834  1
  Pa  Pa7  1  0.137991  0.860746  0.000862  1
  Pd  Pd8  1  0.866979  0.867064  0.705970  1
  Pd  Pd9  1  0.132833  0.132854  0.704873  1
  Pd  Pd10  1  0.633066  0.367395  0.795100  1
  Pd  Pd11  1  0.632643  0.367069  0.204976  1
  Pd  Pd12  1  0.367023  0.632632  0.204925  1
  Pd  Pd13  1  0.135178  0.135191  0.296467  1
  Pd  Pd14  1  0.367353  0.633054  0.795161  1
  Pt  Pt15  1  0.868650  0.868655  0.291075  1
  Pb  Pb16  1  0.499238  0.999600  0.750392  1
  Pb  Pb17  1  0.496156  0.001372  0.250061  1
  Pb  Pb18  1  0.999620  0.499053  0.750511  1
  Pb  Pb19  1  0.001304  0.495928  0.250058  1
