# generated using pymatgen
data_Sm3Er(Sc3Ga4)2
_symmetry_space_group_name_H-M   'P 1'
_cell_length_a   7.33358576
_cell_length_b   7.62039502
_cell_length_c   14.52744752
_cell_angle_alpha   89.92128393
_cell_angle_beta   90.04430860
_cell_angle_gamma   90.02771530
_symmetry_Int_Tables_number   1
_chemical_formula_structural   Sm3Er(Sc3Ga4)2
_chemical_formula_sum   'Sm6 Er2 Sc12 Ga16'
_cell_volume   811.86269194
_cell_formula_units_Z   2
loop_
 _symmetry_equiv_pos_site_id
 _symmetry_equiv_pos_as_xyz
  1  'x, y, z'
loop_
 _atom_site_type_symbol
 _atom_site_label
 _atom_site_symmetry_multiplicity
 _atom_site_fract_x
 _atom_site_fract_y
 _atom_site_fract_z
 _atom_site_occupancy
  Sm  Sm0  1  0.010769  0.179456  0.094346  1
  Sm  Sm1  1  0.989231  0.820544  0.905654  1
  Sm  Sm2  1  0.489046  0.679521  0.905932  1
  Sm  Sm3  1  0.989186  0.820112  0.594209  1
  Sm  Sm4  1  0.510954  0.320479  0.094068  1
  Sm  Sm5  1  0.010814  0.179888  0.405791  1
  Er  Er6  1  0.510705  0.319681  0.405700  1
  Er  Er7  1  0.489295  0.680319  0.594300  1
  Sc  Sc8  1  0.162672  0.502257  0.749623  1
  Sc  Sc9  1  0.837328  0.497743  0.250377  1
  Sc  Sc10  1  0.338492  0.002248  0.250404  1
  Sc  Sc11  1  0.661508  0.997752  0.749596  1
  Sc  Sc12  1  0.330840  0.172691  0.624610  1
  Sc  Sc13  1  0.669160  0.827309  0.375390  1
  Sc  Sc14  1  0.171052  0.672223  0.375303  1
  Sc  Sc15  1  0.669757  0.827684  0.125299  1
  Sc  Sc16  1  0.828948  0.327777  0.624697  1
  Sc  Sc17  1  0.330243  0.172316  0.874701  1
  Sc  Sc18  1  0.830114  0.327393  0.874831  1
  Sc  Sc19  1  0.169886  0.672607  0.125169  1
  Ga  Ga20  1  0.030982  0.117584  0.749962  1
  Ga  Ga21  1  0.969018  0.882416  0.250038  1
  Ga  Ga22  1  0.469339  0.616782  0.250544  1
  Ga  Ga23  1  0.530661  0.383218  0.749456  1
  Ga  Ga24  1  0.285192  0.872239  0.749333  1
  Ga  Ga25  1  0.714808  0.127761  0.250667  1
  Ga  Ga26  1  0.217002  0.372947  0.251020  1
  Ga  Ga27  1  0.782998  0.627053  0.748980  1
  Ga  Ga28  1  0.164772  0.465576  0.540668  1
  Ga  Ga29  1  0.835228  0.534424  0.459332  1
  Ga  Ga30  1  0.340016  0.965059  0.459711  1
  Ga  Ga31  1  0.838626  0.535561  0.040414  1
  Ga  Ga32  1  0.659984  0.034941  0.540289  1
  Ga  Ga33  1  0.161374  0.464439  0.959586  1
  Ga  Ga34  1  0.661246  0.035967  0.959526  1
  Ga  Ga35  1  0.338754  0.964033  0.040474  1
