# generated using pymatgen
data_Tb3HoAl12Pd
_symmetry_space_group_name_H-M   'P 1'
_cell_length_a   7.50072395
_cell_length_b   7.50897617
_cell_length_c   7.50072457
_cell_angle_alpha   109.49350948
_cell_angle_beta   109.44892522
_cell_angle_gamma   109.49351358
_symmetry_Int_Tables_number   1
_chemical_formula_structural   Tb3HoAl12Pd
_chemical_formula_sum   'Tb3 Ho1 Al12 Pd1'
_cell_volume   325.12147947
_cell_formula_units_Z   1
loop_
 _symmetry_equiv_pos_site_id
 _symmetry_equiv_pos_as_xyz
  1  'x, y, z'
loop_
 _atom_site_type_symbol
 _atom_site_label
 _atom_site_symmetry_multiplicity
 _atom_site_fract_x
 _atom_site_fract_y
 _atom_site_fract_z
 _atom_site_occupancy
  Tb  Tb0  1  0.000000  0.000000  0.500000  1
  Tb  Tb1  1  0.500000  0.000000  0.000000  1
  Tb  Tb2  1  0.500000  0.500000  0.500000  1
  Ho  Ho3  1  0.000000  0.500000  0.000000  1
  Al  Al4  1  0.750126  0.250126  0.500252  1
  Al  Al5  1  0.750126  0.500000  0.249874  1
  Al  Al6  1  0.500252  0.250126  0.750126  1
  Al  Al7  1  0.249874  0.500000  0.750126  1
  Al  Al8  1  0.249874  0.749874  0.499748  1
  Al  Al9  1  0.499748  0.749874  0.249874  1
  Al  Al10  1  0.706319  0.706074  0.000000  1
  Al  Al11  1  0.293681  0.999754  0.293681  1
  Al  Al12  1  0.000000  0.293926  0.293681  1
  Al  Al13  1  0.293681  0.293926  0.000000  1
  Al  Al14  1  0.706319  0.000246  0.706319  1
  Al  Al15  1  0.000000  0.706074  0.706319  1
  Pd  Pd16  1  0.000000  0.000000  0.000000  1
