# generated using pymatgen
data_V3GaRuSe8
_symmetry_space_group_name_H-M   'P 1'
_cell_length_a   7.21249174
_cell_length_b   7.21249192
_cell_length_c   7.17677256
_cell_angle_alpha   59.83521968
_cell_angle_beta   59.83522382
_cell_angle_gamma   60.00000004
_symmetry_Int_Tables_number   1
_chemical_formula_structural   V3GaRuSe8
_chemical_formula_sum   'V3 Ga1 Ru1 Se8'
_cell_volume   263.32899916
_cell_formula_units_Z   1
loop_
 _symmetry_equiv_pos_site_id
 _symmetry_equiv_pos_as_xyz
  1  'x, y, z'
loop_
 _atom_site_type_symbol
 _atom_site_label
 _atom_site_symmetry_multiplicity
 _atom_site_fract_x
 _atom_site_fract_y
 _atom_site_fract_z
 _atom_site_occupancy
  V  V0  1  0.602636  0.602636  0.597422  1
  V  V1  1  0.197306  0.602636  0.597422  1
  V  V2  1  0.602636  0.197306  0.597422  1
  Ga  Ga3  1  0.998909  0.998909  0.003273  1
  Ru  Ru4  1  0.606098  0.606098  0.181707  1
  Se  Se5  1  0.859962  0.859962  0.863819  1
  Se  Se6  1  0.416256  0.859962  0.863819  1
  Se  Se7  1  0.859962  0.416256  0.863819  1
  Se  Se8  1  0.862455  0.862455  0.412634  1
  Se  Se9  1  0.364770  0.364770  0.374131  1
  Se  Se10  1  0.896330  0.364770  0.374131  1
  Se  Se11  1  0.364770  0.896330  0.374131  1
  Se  Se12  1  0.367911  0.367911  0.896268  1
