# generated using pymatgen
data_TbEr3Al18(Pd2Rh)2
_symmetry_space_group_name_H-M   'P 1'
_cell_length_a   7.60428102
_cell_length_b   7.60478995
_cell_length_c   9.44437900
_cell_angle_alpha   90.00000000
_cell_angle_beta   90.00000000
_cell_angle_gamma   119.56774633
_symmetry_Int_Tables_number   1
_chemical_formula_structural   TbEr3Al18(Pd2Rh)2
_chemical_formula_sum   'Tb1 Er3 Al18 Pd4 Rh2'
_cell_volume   475.03393336
_cell_formula_units_Z   1
loop_
 _symmetry_equiv_pos_site_id
 _symmetry_equiv_pos_as_xyz
  1  'x, y, z'
loop_
 _atom_site_type_symbol
 _atom_site_label
 _atom_site_symmetry_multiplicity
 _atom_site_fract_x
 _atom_site_fract_y
 _atom_site_fract_z
 _atom_site_occupancy
  Tb  Tb0  1  0.994240  0.668357  0.750000  1
  Er  Er1  1  0.005676  0.331147  0.250000  1
  Er  Er2  1  0.668654  0.994352  0.750000  1
  Er  Er3  1  0.331207  0.005771  0.250000  1
  Al  Al4  1  0.126151  0.126386  0.750000  1
  Al  Al5  1  0.874329  0.874356  0.250000  1
  Al  Al6  1  0.999667  0.330674  0.576153  1
  Al  Al7  1  0.000322  0.668879  0.422982  1
  Al  Al8  1  0.000322  0.668879  0.077018  1
  Al  Al9  1  0.331603  0.000164  0.923866  1
  Al  Al10  1  0.999667  0.330674  0.923847  1
  Al  Al11  1  0.668877  0.000339  0.076672  1
  Al  Al12  1  0.668877  0.000339  0.423328  1
  Al  Al13  1  0.331603  0.000164  0.576134  1
  Al  Al14  1  0.329817  0.329802  0.056007  1
  Al  Al15  1  0.669792  0.670205  0.944463  1
  Al  Al16  1  0.669792  0.670205  0.555537  1
  Al  Al17  1  0.329817  0.329802  0.443993  1
  Al  Al18  1  0.340508  0.547403  0.750000  1
  Al  Al19  1  0.659651  0.452188  0.250000  1
  Al  Al20  1  0.547037  0.339956  0.750000  1
  Al  Al21  1  0.452233  0.659710  0.250000  1
  Pd  Pd22  1  0.672506  0.327183  0.499973  1
  Pd  Pd23  1  0.327559  0.672682  0.499984  1
  Pd  Pd24  1  0.327559  0.672682  0.000016  1
  Pd  Pd25  1  0.672506  0.327183  0.000027  1
  Rh  Rh26  1  0.000013  0.000261  0.500030  1
  Rh  Rh27  1  0.000013  0.000261  0.999970  1
