# generated using pymatgen
data_La2Ga5IrRh2
_symmetry_space_group_name_H-M   'P 1'
_cell_length_a   8.73715256
_cell_length_b   8.73827880
_cell_length_c   8.73749722
_cell_angle_alpha   140.91111582
_cell_angle_beta   107.80076604
_cell_angle_gamma   85.29962102
_symmetry_Int_Tables_number   1
_chemical_formula_structural   La2Ga5IrRh2
_chemical_formula_sum   'La4 Ga10 Ir2 Rh4'
_cell_volume   386.84047263
_cell_formula_units_Z   2
loop_
 _symmetry_equiv_pos_site_id
 _symmetry_equiv_pos_as_xyz
  1  'x, y, z'
loop_
 _atom_site_type_symbol
 _atom_site_label
 _atom_site_symmetry_multiplicity
 _atom_site_fract_x
 _atom_site_fract_y
 _atom_site_fract_z
 _atom_site_occupancy
  La  La0  1  0.363597  0.135658  0.227842  1
  La  La1  1  0.636563  0.864263  0.772230  1
  La  La2  1  0.091828  0.364228  0.727686  1
  La  La3  1  0.907796  0.636065  0.271834  1
  Ga  Ga4  1  0.000097  0.249818  0.249849  1
  Ga  Ga5  1  0.000092  0.750259  0.750298  1
  Ga  Ga6  1  0.709405  0.959802  0.250576  1
  Ga  Ga7  1  0.290696  0.540562  0.249959  1
  Ga  Ga8  1  0.290427  0.040439  0.750091  1
  Ga  Ga9  1  0.709655  0.459099  0.749617  1
  Ga  Ga10  1  0.572394  0.406642  0.165815  1
  Ga  Ga11  1  0.240607  0.906448  0.334102  1
  Ga  Ga12  1  0.759293  0.093407  0.665892  1
  Ga  Ga13  1  0.427509  0.593393  0.834144  1
  Ir  Ir14  1  0.952304  0.854592  0.098274  1
  Ir  Ir15  1  0.499975  0.750081  0.249936  1
  Rh  Rh16  1  0.756974  0.354448  0.402051  1
  Rh  Rh17  1  0.242511  0.645105  0.596984  1
  Rh  Rh18  1  0.048329  0.145730  0.903019  1
  Rh  Rh19  1  0.499949  0.249962  0.749801  1
