# generated using pymatgen
data_Ce3Ho(POs)8
_symmetry_space_group_name_H-M   'P 1'
_cell_length_a   4.17069500
_cell_length_b   7.54478600
_cell_length_c   10.46974100
_cell_angle_alpha   90.00181499
_cell_angle_beta   90.00000000
_cell_angle_gamma   90.00000000
_symmetry_Int_Tables_number   1
_chemical_formula_structural   Ce3Ho(POs)8
_chemical_formula_sum   'Ce3 Ho1 P8 Os8'
_cell_volume   329.45135310
_cell_formula_units_Z   1
loop_
 _symmetry_equiv_pos_site_id
 _symmetry_equiv_pos_as_xyz
  1  'x, y, z'
loop_
 _atom_site_type_symbol
 _atom_site_label
 _atom_site_symmetry_multiplicity
 _atom_site_fract_x
 _atom_site_fract_y
 _atom_site_fract_z
 _atom_site_occupancy
  Ce  Ce0  1  0.250000  0.267868  0.669575  1
  Ce  Ce1  1  0.750000  0.732284  0.329520  1
  Ce  Ce2  1  0.250000  0.769302  0.829776  1
  Ho  Ho3  1  0.750000  0.229868  0.168699  1
  P  P4  1  0.250000  0.094320  0.968152  1
  P  P5  1  0.750000  0.907999  0.034862  1
  P  P6  1  0.250000  0.593311  0.532242  1
  P  P7  1  0.750000  0.406526  0.466428  1
  P  P8  1  0.250000  0.525110  0.163578  1
  P  P9  1  0.750000  0.468232  0.837784  1
  P  P10  1  0.250000  0.033947  0.336579  1
  P  P11  1  0.750000  0.969759  0.661273  1
  Os  Os12  1  0.750000  0.108605  0.450560  1
  Os  Os13  1  0.250000  0.890780  0.549850  1
  Os  Os14  1  0.750000  0.609042  0.047162  1
  Os  Os15  1  0.250000  0.392313  0.953590  1
  Os  Os16  1  0.250000  0.871770  0.133155  1
  Os  Os17  1  0.750000  0.130420  0.867544  1
  Os  Os18  1  0.250000  0.369321  0.365815  1
  Os  Os19  1  0.750000  0.629221  0.633858  1
