# generated using pymatgen
data_TmLu9AlSb5
_symmetry_space_group_name_H-M   'P 1'
_cell_length_a   8.74068284
_cell_length_b   8.74645358
_cell_length_c   6.24827300
_cell_angle_alpha   90.00000000
_cell_angle_beta   90.00000000
_cell_angle_gamma   119.92813452
_symmetry_Int_Tables_number   1
_chemical_formula_structural   TmLu9AlSb5
_chemical_formula_sum   'Tm1 Lu9 Al1 Sb5'
_cell_volume   413.98254592
_cell_formula_units_Z   1
loop_
 _symmetry_equiv_pos_site_id
 _symmetry_equiv_pos_as_xyz
  1  'x, y, z'
loop_
 _atom_site_type_symbol
 _atom_site_label
 _atom_site_symmetry_multiplicity
 _atom_site_fract_x
 _atom_site_fract_y
 _atom_site_fract_z
 _atom_site_occupancy
  Tm  Tm0  1  0.000936  0.758058  0.750000  1
  Lu  Lu1  1  0.338919  0.673925  0.002258  1
  Lu  Lu2  1  0.665154  0.326179  0.497756  1
  Lu  Lu3  1  0.665154  0.326179  0.002244  1
  Lu  Lu4  1  0.338919  0.673925  0.497742  1
  Lu  Lu5  1  0.246458  0.000140  0.250000  1
  Lu  Lu6  1  0.759690  0.000021  0.750000  1
  Lu  Lu7  1  0.989756  0.233809  0.250000  1
  Lu  Lu8  1  0.755549  0.765980  0.250000  1
  Lu  Lu9  1  0.242817  0.241914  0.750000  1
  Al  Al10  1  0.602361  0.999996  0.250000  1
  Sb  Sb11  1  0.394938  0.000404  0.750000  1
  Sb  Sb12  1  0.997791  0.608419  0.250000  1
  Sb  Sb13  1  0.389464  0.391574  0.250000  1
  Sb  Sb14  1  0.608482  0.605416  0.750000  1
  Sb  Sb15  1  0.003612  0.394061  0.750000  1
