# generated using pymatgen
data_Eu4DyHoTa2O12
_symmetry_space_group_name_H-M   'P 1'
_cell_length_a   5.77150687
_cell_length_b   5.93611403
_cell_length_c   8.24814701
_cell_angle_alpha   89.99416248
_cell_angle_beta   89.77189874
_cell_angle_gamma   90.00905722
_symmetry_Int_Tables_number   1
_chemical_formula_structural   Eu4DyHoTa2O12
_chemical_formula_sum   'Eu4 Dy1 Ho1 Ta2 O12'
_cell_volume   282.58193523
_cell_formula_units_Z   1
loop_
 _symmetry_equiv_pos_site_id
 _symmetry_equiv_pos_as_xyz
  1  'x, y, z'
loop_
 _atom_site_type_symbol
 _atom_site_label
 _atom_site_symmetry_multiplicity
 _atom_site_fract_x
 _atom_site_fract_y
 _atom_site_fract_z
 _atom_site_occupancy
  Eu  Eu0  1  0.513910  0.450486  0.249536  1
  Eu  Eu1  1  0.986122  0.950286  0.251136  1
  Eu  Eu2  1  0.013915  0.049713  0.748855  1
  Eu  Eu3  1  0.486076  0.549503  0.750457  1
  Dy  Dy4  1  0.500001  0.999999  0.999997  1
  Ho  Ho5  1  0.999987  0.500004  0.500007  1
  Ta  Ta6  1  0.999994  0.499999  0.999988  1
  Ta  Ta7  1  0.500006  0.999998  0.500015  1
  O  O8  1  0.719718  0.692887  0.048587  1
  O  O9  1  0.811227  0.221213  0.054414  1
  O  O10  1  0.096180  0.532020  0.235238  1
  O  O11  1  0.403341  0.032181  0.265513  1
  O  O12  1  0.689825  0.721112  0.445901  1
  O  O13  1  0.780378  0.193860  0.451724  1
  O  O14  1  0.219622  0.806136  0.548274  1
  O  O15  1  0.310174  0.278891  0.554097  1
  O  O16  1  0.596652  0.967828  0.734487  1
  O  O17  1  0.903819  0.467986  0.764768  1
  O  O18  1  0.188773  0.778787  0.945593  1
  O  O19  1  0.280282  0.307115  0.951413  1
