# generated using pymatgen
data_CaTe(PbO3)2
_symmetry_space_group_name_H-M   'P 1'
_cell_length_a   5.99548200
_cell_length_b   5.88781506
_cell_length_c   10.24163705
_cell_angle_alpha   55.03831084
_cell_angle_beta   90.00000000
_cell_angle_gamma   90.00000000
_symmetry_Int_Tables_number   1
_chemical_formula_structural   CaTe(PbO3)2
_chemical_formula_sum   'Ca2 Te2 Pb4 O12'
_cell_volume   296.28888062
_cell_formula_units_Z   2
loop_
 _symmetry_equiv_pos_site_id
 _symmetry_equiv_pos_as_xyz
  1  'x, y, z'
loop_
 _atom_site_type_symbol
 _atom_site_label
 _atom_site_symmetry_multiplicity
 _atom_site_fract_x
 _atom_site_fract_y
 _atom_site_fract_z
 _atom_site_occupancy
  Ca  Ca0  1  0.000000  0.000000  0.500000  1
  Ca  Ca1  1  0.500000  0.000000  0.000000  1
  Te  Te2  1  0.000000  0.500000  0.000000  1
  Te  Te3  1  0.500000  0.500000  0.500000  1
  Pb  Pb4  1  0.536440  0.742720  0.748774  1
  Pb  Pb5  1  0.036440  0.257280  0.751226  1
  Pb  Pb6  1  0.963560  0.742720  0.248774  1
  Pb  Pb7  1  0.463560  0.257280  0.251226  1
  O  O8  1  0.525384  0.805888  0.273359  1
  O  O9  1  0.025384  0.194112  0.226641  1
  O  O10  1  0.474616  0.194112  0.726641  1
  O  O11  1  0.974616  0.805888  0.773359  1
  O  O12  1  0.764194  0.641454  0.545156  1
  O  O13  1  0.264194  0.358546  0.954844  1
  O  O14  1  0.235806  0.358546  0.454844  1
  O  O15  1  0.735806  0.641454  0.045156  1
  O  O16  1  0.191056  0.727349  0.037969  1
  O  O17  1  0.691056  0.272651  0.462031  1
  O  O18  1  0.808944  0.272651  0.962031  1
  O  O19  1  0.308944  0.727349  0.537969  1
