# generated using pymatgen
data_Y13Ho7(Ag3Ru)2
_symmetry_space_group_name_H-M   'P 1'
_cell_length_a   9.52067363
_cell_length_b   9.51441107
_cell_length_c   9.64454000
_cell_angle_alpha   89.99999812
_cell_angle_beta   89.90974200
_cell_angle_gamma   119.97823686
_symmetry_Int_Tables_number   1
_chemical_formula_structural   Y13Ho7(Ag3Ru)2
_chemical_formula_sum   'Y13 Ho7 Ag6 Ru2'
_cell_volume   756.75660487
_cell_formula_units_Z   1
loop_
 _symmetry_equiv_pos_site_id
 _symmetry_equiv_pos_as_xyz
  1  'x, y, z'
loop_
 _atom_site_type_symbol
 _atom_site_label
 _atom_site_symmetry_multiplicity
 _atom_site_fract_x
 _atom_site_fract_y
 _atom_site_fract_z
 _atom_site_occupancy
  Y  Y0  1  0.417046  0.208523  0.558342  1
  Y  Y1  1  0.791522  0.208306  0.940758  1
  Y  Y2  1  0.791522  0.583216  0.940758  1
  Y  Y3  1  0.416981  0.208491  0.941194  1
  Y  Y4  1  0.208353  0.791541  0.059144  1
  Y  Y5  1  0.208353  0.416812  0.059144  1
  Y  Y6  1  0.583147  0.791574  0.059123  1
  Y  Y7  1  0.541026  0.459293  0.250932  1
  Y  Y8  1  0.541026  0.081732  0.250932  1
  Y  Y9  1  0.917675  0.458837  0.251338  1
  Y  Y10  1  0.458893  0.541403  0.748950  1
  Y  Y11  1  0.458893  0.917491  0.748950  1
  Y  Y12  1  0.081949  0.540975  0.748722  1
  Ho  Ho13  1  0.999412  0.999706  0.499839  1
  Ho  Ho14  1  0.000034  0.000017  0.999808  1
  Ho  Ho15  1  0.208721  0.790646  0.440918  1
  Ho  Ho16  1  0.208721  0.418075  0.440918  1
  Ho  Ho17  1  0.581906  0.790953  0.441001  1
  Ho  Ho18  1  0.791263  0.209064  0.559132  1
  Ho  Ho19  1  0.791263  0.582199  0.559132  1
  Ag  Ag20  1  0.884198  0.115906  0.250322  1
  Ag  Ag21  1  0.884198  0.768294  0.250322  1
  Ag  Ag22  1  0.231717  0.115859  0.250105  1
  Ag  Ag23  1  0.115803  0.884028  0.749733  1
  Ag  Ag24  1  0.115803  0.231774  0.749733  1
  Ag  Ag25  1  0.768373  0.884185  0.749768  1
  Ru  Ru26  1  0.333645  0.666823  0.253324  1
  Ru  Ru27  1  0.668557  0.334278  0.747660  1
