# generated using pymatgen
data_Y12Ho4CdIn3Ir4
_symmetry_space_group_name_H-M   'P 1'
_cell_length_a   9.66706252
_cell_length_b   9.67932277
_cell_length_c   9.67932300
_cell_angle_alpha   60.00000263
_cell_angle_beta   59.95804039
_cell_angle_gamma   59.95803875
_symmetry_Int_Tables_number   1
_chemical_formula_structural   Y12Ho4CdIn3Ir4
_chemical_formula_sum   'Y12 Ho4 Cd1 In3 Ir4'
_cell_volume   640.02031333
_cell_formula_units_Z   1
loop_
 _symmetry_equiv_pos_site_id
 _symmetry_equiv_pos_as_xyz
  1  'x, y, z'
loop_
 _atom_site_type_symbol
 _atom_site_label
 _atom_site_symmetry_multiplicity
 _atom_site_fract_x
 _atom_site_fract_y
 _atom_site_fract_z
 _atom_site_occupancy
  Y  Y0  1  0.808644  0.191109  0.191109  1
  Y  Y1  1  0.190261  0.809913  0.809913  1
  Y  Y2  1  0.190261  0.809913  0.189914  1
  Y  Y3  1  0.808644  0.191109  0.809139  1
  Y  Y4  1  0.190261  0.189914  0.809913  1
  Y  Y5  1  0.808644  0.809139  0.191109  1
  Y  Y6  1  0.939643  0.561577  0.561577  1
  Y  Y7  1  0.561567  0.938996  0.938996  1
  Y  Y8  1  0.561567  0.938996  0.560441  1
  Y  Y9  1  0.939643  0.561577  0.937203  1
  Y  Y10  1  0.561567  0.560441  0.938996  1
  Y  Y11  1  0.939643  0.937203  0.561577  1
  Ho  Ho12  1  0.349154  0.349345  0.349345  1
  Ho  Ho13  1  0.349154  0.349345  0.952156  1
  Ho  Ho14  1  0.349154  0.952156  0.349345  1
  Ho  Ho15  1  0.952254  0.349249  0.349249  1
  Cd  Cd16  1  0.253204  0.582266  0.582266  1
  In  In17  1  0.582677  0.583423  0.583423  1
  In  In18  1  0.582677  0.583423  0.250479  1
  In  In19  1  0.582677  0.250479  0.583423  1
  Ir  Ir20  1  0.142382  0.142282  0.142282  1
  Ir  Ir21  1  0.142382  0.142282  0.573055  1
  Ir  Ir22  1  0.142382  0.573055  0.142282  1
  Ir  Ir23  1  0.571563  0.142813  0.142813  1
