# generated using pymatgen
data_Yb4Pr16Si15Hg
_symmetry_space_group_name_H-M   'P 1'
_cell_length_a   7.97452529
_cell_length_b   7.94290657
_cell_length_c   15.15717685
_cell_angle_alpha   89.92462141
_cell_angle_beta   89.65232210
_cell_angle_gamma   89.95322377
_symmetry_Int_Tables_number   1
_chemical_formula_structural   Yb4Pr16Si15Hg
_chemical_formula_sum   'Yb4 Pr16 Si15 Hg1'
_cell_volume   960.05054452
_cell_formula_units_Z   1
loop_
 _symmetry_equiv_pos_site_id
 _symmetry_equiv_pos_as_xyz
  1  'x, y, z'
loop_
 _atom_site_type_symbol
 _atom_site_label
 _atom_site_symmetry_multiplicity
 _atom_site_fract_x
 _atom_site_fract_y
 _atom_site_fract_z
 _atom_site_occupancy
  Yb  Yb0  1  0.309233  0.308375  0.000178  1
  Yb  Yb1  1  0.193080  0.809016  0.250113  1
  Yb  Yb2  1  0.804383  0.190388  0.750724  1
  Yb  Yb3  1  0.687993  0.691709  0.498239  1
  Pr  Pr4  1  0.376588  0.010541  0.448218  1
  Pr  Pr5  1  0.494811  0.873771  0.699752  1
  Pr  Pr6  1  0.508251  0.122482  0.198258  1
  Pr  Pr7  1  0.879381  0.491402  0.300495  1
  Pr  Pr8  1  0.118835  0.515682  0.803499  1
  Pr  Pr9  1  0.625148  0.991244  0.951032  1
  Pr  Pr10  1  0.998617  0.382317  0.546679  1
  Pr  Pr11  1  0.991448  0.622454  0.052842  1
  Pr  Pr12  1  0.129030  0.985180  0.878167  1
  Pr  Pr13  1  0.516278  0.626447  0.126033  1
  Pr  Pr14  1  0.488254  0.377220  0.626348  1
  Pr  Pr15  1  0.626740  0.514913  0.876701  1
  Pr  Pr16  1  0.376078  0.485725  0.373149  1
  Pr  Pr17  1  0.875185  0.014962  0.375122  1
  Pr  Pr18  1  0.986945  0.125345  0.125172  1
  Pr  Pr19  1  0.007956  0.864122  0.621062  1
  Si  Si20  1  0.332693  0.699367  0.950803  1
  Si  Si21  1  0.663062  0.297216  0.448848  1
  Si  Si22  1  0.703473  0.333384  0.052155  1
  Si  Si23  1  0.301316  0.667645  0.547800  1
  Si  Si24  1  0.801549  0.832923  0.200497  1
  Si  Si25  1  0.167356  0.201839  0.300218  1
  Si  Si26  1  0.833107  0.801251  0.800953  1
  Si  Si27  1  0.288612  0.919388  0.060389  1
  Si  Si28  1  0.581242  0.787628  0.309229  1
  Si  Si29  1  0.432761  0.208155  0.814933  1
  Si  Si30  1  0.785472  0.580765  0.691712  1
  Si  Si31  1  0.212886  0.420106  0.190599  1
  Si  Si32  1  0.709140  0.080017  0.558590  1
  Si  Si33  1  0.921054  0.288954  0.941243  1
  Si  Si34  1  0.082698  0.712254  0.438651  1
  Hg  Hg35  1  0.189342  0.165812  0.691598  1
