# generated using pymatgen
data_K2P2PbO8
_symmetry_space_group_name_H-M   'P 1'
_cell_length_a   5.14715500
_cell_length_b   5.14715526
_cell_length_c   9.41430100
_cell_angle_alpha   90.00000000
_cell_angle_beta   90.00000000
_cell_angle_gamma   120.00000475
_symmetry_Int_Tables_number   1
_chemical_formula_structural   K2P2PbO8
_chemical_formula_sum   'K2 P2 Pb1 O8'
_cell_volume   215.99972887
_cell_formula_units_Z   1
loop_
 _symmetry_equiv_pos_site_id
 _symmetry_equiv_pos_as_xyz
  1  'x, y, z'
loop_
 _atom_site_type_symbol
 _atom_site_label
 _atom_site_symmetry_multiplicity
 _atom_site_fract_x
 _atom_site_fract_y
 _atom_site_fract_z
 _atom_site_occupancy
  K  K0  1  0.666667  0.333333  0.358164  1
  K  K1  1  0.333333  0.666666  0.641837  1
  P  P2  1  0.333333  0.666666  0.193661  1
  P  P3  1  0.666667  0.333333  0.806339  1
  Pb  Pb4  1  0.000000  0.000000  0.000000  1
  O  O5  1  0.310644  0.367818  0.140079  1
  O  O6  1  0.057176  0.689357  0.140079  1
  O  O7  1  0.632180  0.942824  0.140079  1
  O  O8  1  0.333333  0.666666  0.356400  1
  O  O9  1  0.666667  0.333333  0.643601  1
  O  O10  1  0.367817  0.057174  0.859922  1
  O  O11  1  0.942825  0.310644  0.859922  1
  O  O12  1  0.689357  0.632182  0.859922  1
