# generated using pymatgen
data_YbPr7(InSi2)4
_symmetry_space_group_name_H-M   'P 1'
_cell_length_a   4.38131900
_cell_length_b   7.58382043
_cell_length_c   14.75989600
_cell_angle_alpha   90.21101169
_cell_angle_beta   90.00000000
_cell_angle_gamma   90.00000000
_symmetry_Int_Tables_number   1
_chemical_formula_structural   YbPr7(InSi2)4
_chemical_formula_sum   'Yb1 Pr7 In4 Si8'
_cell_volume   490.42575388
_cell_formula_units_Z   1
loop_
 _symmetry_equiv_pos_site_id
 _symmetry_equiv_pos_as_xyz
  1  'x, y, z'
loop_
 _atom_site_type_symbol
 _atom_site_label
 _atom_site_symmetry_multiplicity
 _atom_site_fract_x
 _atom_site_fract_y
 _atom_site_fract_z
 _atom_site_occupancy
  Yb  Yb0  1  0.500000  0.886476  0.782854  1
  Pr  Pr1  1  0.500000  0.752390  0.034474  1
  Pr  Pr2  1  0.500000  0.245749  0.964492  1
  Pr  Pr3  1  0.500000  0.252933  0.464044  1
  Pr  Pr4  1  0.500000  0.747938  0.536808  1
  Pr  Pr5  1  0.500000  0.613632  0.282881  1
  Pr  Pr6  1  0.500000  0.387467  0.716449  1
  Pr  Pr7  1  0.500000  0.113176  0.217091  1
  In  In8  1  0.000000  0.937222  0.377439  1
  In  In9  1  0.000000  0.060937  0.623937  1
  In  In10  1  0.000000  0.438121  0.122325  1
  In  In11  1  0.000000  0.563320  0.876276  1
  Si  Si12  1  0.000000  0.554474  0.424283  1
  Si  Si13  1  0.000000  0.445823  0.576176  1
  Si  Si14  1  0.000000  0.053721  0.075488  1
  Si  Si15  1  0.000000  0.945593  0.923565  1
  Si  Si16  1  0.000000  0.820939  0.184695  1
  Si  Si17  1  0.000000  0.178896  0.815383  1
  Si  Si18  1  0.000000  0.319515  0.315332  1
  Si  Si19  1  0.000000  0.681673  0.686009  1
