# generated using pymatgen
data_Dy11Tl8InCoNi3
_symmetry_space_group_name_H-M   'P 1'
_cell_length_a   3.68914300
_cell_length_b   13.01776564
_cell_length_c   12.99263677
_cell_angle_alpha   110.67761145
_cell_angle_beta   90.00000000
_cell_angle_gamma   90.00000000
_symmetry_Int_Tables_number   1
_chemical_formula_structural   Dy11Tl8InCoNi3
_chemical_formula_sum   'Dy11 Tl8 In1 Co1 Ni3'
_cell_volume   583.76913740
_cell_formula_units_Z   1
loop_
 _symmetry_equiv_pos_site_id
 _symmetry_equiv_pos_as_xyz
  1  'x, y, z'
loop_
 _atom_site_type_symbol
 _atom_site_label
 _atom_site_symmetry_multiplicity
 _atom_site_fract_x
 _atom_site_fract_y
 _atom_site_fract_z
 _atom_site_occupancy
  Dy  Dy0  1  0.000000  0.913023  0.577844  1
  Dy  Dy1  1  0.000000  0.084358  0.421376  1
  Dy  Dy2  1  0.000000  0.577533  0.913036  1
  Dy  Dy3  1  0.000000  0.422283  0.085538  1
  Dy  Dy4  1  0.000000  0.159046  0.840138  1
  Dy  Dy5  1  0.000000  0.840404  0.161192  1
  Dy  Dy6  1  0.000000  0.374823  0.626055  1
  Dy  Dy7  1  0.000000  0.630307  0.379312  1
  Dy  Dy8  1  0.000000  0.687938  0.683336  1
  Dy  Dy9  1  0.000000  0.313830  0.313309  1
  Dy  Dy10  1  0.000000  0.999576  0.999529  1
  Tl  Tl11  1  0.500000  0.153334  0.631069  1
  Tl  Tl12  1  0.500000  0.843147  0.369084  1
  Tl  Tl13  1  0.500000  0.630266  0.154370  1
  Tl  Tl14  1  0.500000  0.368258  0.845236  1
  Tl  Tl15  1  0.500000  0.924978  0.779442  1
  Tl  Tl16  1  0.500000  0.072899  0.219236  1
  Tl  Tl17  1  0.500000  0.781104  0.928391  1
  Tl  Tl18  1  0.500000  0.219380  0.072410  1
  In  In19  1  0.500000  0.500301  0.499316  1
  Co  Co20  1  0.500000  0.751088  0.549353  1
  Ni  Ni21  1  0.500000  0.249871  0.450944  1
  Ni  Ni22  1  0.500000  0.548570  0.746146  1
  Ni  Ni23  1  0.500000  0.453684  0.254340  1
