# generated using pymatgen
data_Ti3VI12
_symmetry_space_group_name_H-M   'P 1'
_cell_length_a   6.58616105
_cell_length_b   7.70664506
_cell_length_c   13.57188400
_cell_angle_alpha   90.00000000
_cell_angle_beta   90.00000000
_cell_angle_gamma   90.01370953
_symmetry_Int_Tables_number   1
_chemical_formula_structural   Ti3VI12
_chemical_formula_sum   'Ti3 V1 I12'
_cell_volume   688.87088504
_cell_formula_units_Z   1
loop_
 _symmetry_equiv_pos_site_id
 _symmetry_equiv_pos_as_xyz
  1  'x, y, z'
loop_
 _atom_site_type_symbol
 _atom_site_label
 _atom_site_symmetry_multiplicity
 _atom_site_fract_x
 _atom_site_fract_y
 _atom_site_fract_z
 _atom_site_occupancy
  Ti  Ti0  1  0.752416  0.249278  0.500000  1
  Ti  Ti1  1  0.776998  0.750365  0.000000  1
  Ti  Ti2  1  0.222771  0.750394  0.000000  1
  V  V3  1  0.247948  0.249507  0.500000  1
  I  I4  1  0.500818  0.393662  0.357575  1
  I  I5  1  0.999757  0.600961  0.850815  1
  I  I6  1  0.999757  0.600961  0.149185  1
  I  I7  1  0.500818  0.393662  0.642425  1
  I  I8  1  0.500044  0.892696  0.858963  1
  I  I9  1  0.999365  0.104468  0.356475  1
  I  I10  1  0.999365  0.104468  0.643525  1
  I  I11  1  0.500044  0.892696  0.141037  1
  I  I12  1  0.500685  0.960509  0.500000  1
  I  I13  1  0.999945  0.051828  0.000000  1
  I  I14  1  0.499888  0.463833  0.000000  1
  I  I15  1  0.999380  0.540712  0.500000  1
