# generated using pymatgen
data_Yb4Pr16Si15Pb
_symmetry_space_group_name_H-M   'P 1'
_cell_length_a   7.97452482
_cell_length_b   7.94290647
_cell_length_c   15.15717700
_cell_angle_alpha   89.92461940
_cell_angle_beta   89.65232288
_cell_angle_gamma   89.95322585
_symmetry_Int_Tables_number   1
_chemical_formula_structural   Yb4Pr16Si15Pb
_chemical_formula_sum   'Yb4 Pr16 Si15 Pb1'
_cell_volume   960.05048462
_cell_formula_units_Z   1
loop_
 _symmetry_equiv_pos_site_id
 _symmetry_equiv_pos_as_xyz
  1  'x, y, z'
loop_
 _atom_site_type_symbol
 _atom_site_label
 _atom_site_symmetry_multiplicity
 _atom_site_fract_x
 _atom_site_fract_y
 _atom_site_fract_z
 _atom_site_occupancy
  Yb  Yb0  1  0.309093  0.307987  0.000667  1
  Yb  Yb1  1  0.193114  0.808939  0.249922  1
  Yb  Yb2  1  0.800340  0.191253  0.751788  1
  Yb  Yb3  1  0.686007  0.693735  0.497177  1
  Pr  Pr4  1  0.375049  0.010729  0.448884  1
  Pr  Pr5  1  0.497014  0.870408  0.699966  1
  Pr  Pr6  1  0.509185  0.122274  0.198832  1
  Pr  Pr7  1  0.878140  0.491335  0.299934  1
  Pr  Pr8  1  0.119846  0.516971  0.805070  1
  Pr  Pr9  1  0.624504  0.989572  0.950936  1
  Pr  Pr10  1  0.999700  0.385256  0.544189  1
  Pr  Pr11  1  0.992021  0.621939  0.052749  1
  Pr  Pr12  1  0.125078  0.984169  0.879556  1
  Pr  Pr13  1  0.516222  0.625061  0.126191  1
  Pr  Pr14  1  0.496283  0.383361  0.625251  1
  Pr  Pr15  1  0.627492  0.515344  0.877255  1
  Pr  Pr16  1  0.376657  0.486101  0.372928  1
  Pr  Pr17  1  0.874176  0.014408  0.374858  1
  Pr  Pr18  1  0.986454  0.125407  0.125447  1
  Pr  Pr19  1  0.001712  0.859587  0.620097  1
  Si  Si20  1  0.333491  0.700446  0.951241  1
  Si  Si21  1  0.664313  0.297578  0.448137  1
  Si  Si22  1  0.703364  0.333063  0.052202  1
  Si  Si23  1  0.298912  0.667122  0.549453  1
  Si  Si24  1  0.800137  0.833136  0.199416  1
  Si  Si25  1  0.167135  0.201766  0.301316  1
  Si  Si26  1  0.835168  0.799471  0.801652  1
  Si  Si27  1  0.289399  0.919588  0.060900  1
  Si  Si28  1  0.581131  0.788799  0.309017  1
  Si  Si29  1  0.432241  0.210006  0.815107  1
  Si  Si30  1  0.787129  0.579390  0.692418  1
  Si  Si31  1  0.212995  0.419092  0.190718  1
  Si  Si32  1  0.709146  0.080927  0.559446  1
  Si  Si33  1  0.921804  0.288616  0.941301  1
  Si  Si34  1  0.082637  0.712782  0.437916  1
  Pb  Pb35  1  0.192905  0.164379  0.688064  1
