# generated using pymatgen
data_DyYTi2Cr2O10
_symmetry_space_group_name_H-M   'P 1'
_cell_length_a   5.85600600
_cell_length_b   7.46787001
_cell_length_c   8.60750101
_cell_angle_alpha   89.99518125
_cell_angle_beta   90.00000000
_cell_angle_gamma   90.00000000
_symmetry_Int_Tables_number   1
_chemical_formula_structural   DyYTi2Cr2O10
_chemical_formula_sum   'Dy2 Y2 Ti4 Cr4 O20'
_cell_volume   376.42229939
_cell_formula_units_Z   2
loop_
 _symmetry_equiv_pos_site_id
 _symmetry_equiv_pos_as_xyz
  1  'x, y, z'
loop_
 _atom_site_type_symbol
 _atom_site_label
 _atom_site_symmetry_multiplicity
 _atom_site_fract_x
 _atom_site_fract_y
 _atom_site_fract_z
 _atom_site_occupancy
  Dy  Dy0  1  0.500000  0.358854  0.329791  1
  Dy  Dy1  1  0.500000  0.641146  0.670209  1
  Y  Y2  1  0.500000  0.141148  0.829760  1
  Y  Y3  1  0.500000  0.858852  0.170240  1
  Ti  Ti4  1  0.000000  0.118152  0.146479  1
  Ti  Ti5  1  0.000000  0.881848  0.853521  1
  Ti  Ti6  1  0.000000  0.381941  0.646416  1
  Ti  Ti7  1  0.000000  0.618059  0.353584  1
  Cr  Cr8  1  0.254149  0.000000  0.500000  1
  Cr  Cr9  1  0.745851  0.000000  0.500000  1
  Cr  Cr10  1  0.745846  0.500000  0.000000  1
  Cr  Cr11  1  0.254154  0.500000  0.000000  1
  O  O12  1  0.253011  0.110678  0.287728  1
  O  O13  1  0.746989  0.889322  0.712272  1
  O  O14  1  0.253011  0.889322  0.712272  1
  O  O15  1  0.747160  0.389800  0.787638  1
  O  O16  1  0.746989  0.110678  0.287728  1
  O  O17  1  0.252840  0.610200  0.212362  1
  O  O18  1  0.747160  0.610200  0.212362  1
  O  O19  1  0.252840  0.389800  0.787638  1
  O  O20  1  0.000000  0.342756  0.077908  1
  O  O21  1  0.000000  0.657244  0.922092  1
  O  O22  1  0.000000  0.157216  0.577900  1
  O  O23  1  0.000000  0.842784  0.422100  1
  O  O24  1  0.500000  0.332710  0.060043  1
  O  O25  1  0.500000  0.667290  0.939957  1
  O  O26  1  0.500000  0.167437  0.559549  1
  O  O27  1  0.500000  0.832563  0.440451  1
  O  O28  1  0.220229  0.000000  0.000000  1
  O  O29  1  0.779771  0.000000  0.000000  1
  O  O30  1  0.779349  0.500000  0.500000  1
  O  O31  1  0.220651  0.500000  0.500000  1
