# generated using pymatgen
data_Er2LuTa3(B2Ru5)2
_symmetry_space_group_name_H-M   'P 1'
_cell_length_a   9.56587370
_cell_length_b   9.56587326
_cell_length_c   3.11303000
_cell_angle_alpha   90.00000000
_cell_angle_beta   90.00000000
_cell_angle_gamma   90.40470715
_symmetry_Int_Tables_number   1
_chemical_formula_structural   Er2LuTa3(B2Ru5)2
_chemical_formula_sum   'Er2 Lu1 Ta3 B4 Ru10'
_cell_volume   284.85361616
_cell_formula_units_Z   1
loop_
 _symmetry_equiv_pos_site_id
 _symmetry_equiv_pos_as_xyz
  1  'x, y, z'
loop_
 _atom_site_type_symbol
 _atom_site_label
 _atom_site_symmetry_multiplicity
 _atom_site_fract_x
 _atom_site_fract_y
 _atom_site_fract_z
 _atom_site_occupancy
  Er  Er0  1  0.824140  0.675195  0.000000  1
  Er  Er1  1  0.175195  0.324140  0.000000  1
  Lu  Lu2  1  0.325623  0.825623  0.000000  1
  Ta  Ta3  1  0.675365  0.175365  0.000000  1
  Ta  Ta4  1  0.497923  0.503334  0.000000  1
  Ta  Ta5  1  0.003334  0.997923  0.000000  1
  B  B6  1  0.622792  0.880883  0.000000  1
  B  B7  1  0.380883  0.122792  0.000000  1
  B  B8  1  0.119832  0.619832  0.000000  1
  B  B9  1  0.876173  0.376173  0.000000  1
  Ru  Ru10  1  0.570492  0.722003  0.500000  1
  Ru  Ru11  1  0.440031  0.280524  0.500000  1
  Ru  Ru12  1  0.070680  0.780965  0.500000  1
  Ru  Ru13  1  0.916376  0.213130  0.500000  1
  Ru  Ru14  1  0.280965  0.570680  0.500000  1
  Ru  Ru15  1  0.713130  0.416376  0.500000  1
  Ru  Ru16  1  0.222003  0.070492  0.500000  1
  Ru  Ru17  1  0.780524  0.940031  0.500000  1
  Ru  Ru18  1  0.508313  0.008313  0.500000  1
  Ru  Ru19  1  0.996224  0.496224  0.500000  1
