# generated using pymatgen
data_Ta5Ti7B12(Os2Ru)4
_symmetry_space_group_name_H-M   'P 1'
_cell_length_a   3.09185100
_cell_length_b   8.97200106
_cell_length_c   15.46905911
_cell_angle_alpha   89.98649990
_cell_angle_beta   90.00000000
_cell_angle_gamma   90.00000000
_symmetry_Int_Tables_number   1
_chemical_formula_structural   Ta5Ti7B12(Os2Ru)4
_chemical_formula_sum   'Ta5 Ti7 B12 Os8 Ru4'
_cell_volume   429.11308700
_cell_formula_units_Z   1
loop_
 _symmetry_equiv_pos_site_id
 _symmetry_equiv_pos_as_xyz
  1  'x, y, z'
loop_
 _atom_site_type_symbol
 _atom_site_label
 _atom_site_symmetry_multiplicity
 _atom_site_fract_x
 _atom_site_fract_y
 _atom_site_fract_z
 _atom_site_occupancy
  Ta  Ta0  1  0.000000  0.982986  0.093151  1
  Ta  Ta1  1  0.000000  0.685469  0.205844  1
  Ta  Ta2  1  0.000000  0.314759  0.794564  1
  Ta  Ta3  1  0.000000  0.186618  0.296658  1
  Ta  Ta4  1  0.000000  0.814693  0.704297  1
  Ti  Ti5  1  0.000000  0.799705  0.495400  1
  Ti  Ti6  1  0.000000  0.200163  0.505740  1
  Ti  Ti7  1  0.000000  0.300929  0.005017  1
  Ti  Ti8  1  0.000000  0.698026  0.993475  1
  Ti  Ti9  1  0.000000  0.515261  0.594704  1
  Ti  Ti10  1  0.000000  0.484518  0.406122  1
  Ti  Ti11  1  0.000000  0.015697  0.904240  1
  B  B12  1  0.500000  0.603202  0.495694  1
  B  B13  1  0.500000  0.396744  0.504730  1
  B  B14  1  0.500000  0.105211  0.002101  1
  B  B15  1  0.500000  0.894167  0.993211  1
  B  B16  1  0.000000  0.610093  0.833882  1
  B  B17  1  0.000000  0.393348  0.166359  1
  B  B18  1  0.000000  0.110568  0.665152  1
  B  B19  1  0.000000  0.888691  0.337447  1
  B  B20  1  0.500000  0.712909  0.598165  1
  B  B21  1  0.500000  0.287224  0.402663  1
  B  B22  1  0.500000  0.213265  0.901358  1
  B  B23  1  0.500000  0.782481  0.097139  1
  Os  Os24  1  0.500000  0.716879  0.359347  1
  Os  Os25  1  0.500000  0.283110  0.641086  1
  Os  Os26  1  0.500000  0.219324  0.141995  1
  Os  Os27  1  0.500000  0.782712  0.858275  1
  Os  Os28  1  0.500000  0.520638  0.093965  1
  Os  Os29  1  0.500000  0.479116  0.905703  1
  Os  Os30  1  0.500000  0.020860  0.406802  1
  Os  Os31  1  0.500000  0.979469  0.593841  1
  Ru  Ru32  1  0.500000  0.565914  0.731039  1
  Ru  Ru33  1  0.500000  0.434843  0.269043  1
  Ru  Ru34  1  0.500000  0.066141  0.768290  1
  Ru  Ru35  1  0.500000  0.934265  0.233500  1
