# generated using pymatgen
data_Y5PdPt8
_symmetry_space_group_name_H-M   'P 1'
_cell_length_a   9.81653200
_cell_length_b   9.81653200
_cell_length_c   5.78468800
_cell_angle_alpha   90.00000000
_cell_angle_beta   90.00000000
_cell_angle_gamma   90.00000000
_symmetry_Int_Tables_number   1
_chemical_formula_structural   Y5PdPt8
_chemical_formula_sum   'Y10 Pd2 Pt16'
_cell_volume   557.43741277
_cell_formula_units_Z   2
loop_
 _symmetry_equiv_pos_site_id
 _symmetry_equiv_pos_as_xyz
  1  'x, y, z'
loop_
 _atom_site_type_symbol
 _atom_site_label
 _atom_site_symmetry_multiplicity
 _atom_site_fract_x
 _atom_site_fract_y
 _atom_site_fract_z
 _atom_site_occupancy
  Y  Y0  1  0.453117  0.811388  0.000000  1
  Y  Y1  1  0.546883  0.188612  0.000000  1
  Y  Y2  1  0.188612  0.546883  0.000000  1
  Y  Y3  1  0.811388  0.453117  0.000000  1
  Y  Y4  1  0.500000  0.500000  0.500000  1
  Y  Y5  1  0.311388  0.046883  0.500000  1
  Y  Y6  1  0.688612  0.953117  0.500000  1
  Y  Y7  1  0.953117  0.688612  0.500000  1
  Y  Y8  1  0.046883  0.311388  0.500000  1
  Y  Y9  1  0.000000  0.000000  0.000000  1
  Pd  Pd10  1  0.000000  0.000000  0.500000  1
  Pd  Pd11  1  0.500000  0.500000  0.000000  1
  Pt  Pt12  1  0.191642  0.808358  0.250847  1
  Pt  Pt13  1  0.808358  0.191642  0.749153  1
  Pt  Pt14  1  0.808358  0.191642  0.250847  1
  Pt  Pt15  1  0.191642  0.808358  0.749153  1
  Pt  Pt16  1  0.440000  0.780269  0.500000  1
  Pt  Pt17  1  0.560000  0.219731  0.500000  1
  Pt  Pt18  1  0.219731  0.560000  0.500000  1
  Pt  Pt19  1  0.780269  0.440000  0.500000  1
  Pt  Pt20  1  0.308358  0.308358  0.249153  1
  Pt  Pt21  1  0.691642  0.691642  0.750847  1
  Pt  Pt22  1  0.691642  0.691642  0.249153  1
  Pt  Pt23  1  0.308358  0.308358  0.750847  1
  Pt  Pt24  1  0.280269  0.060000  0.000000  1
  Pt  Pt25  1  0.719731  0.940000  0.000000  1
  Pt  Pt26  1  0.940000  0.719731  0.000000  1
  Pt  Pt27  1  0.060000  0.280269  0.000000  1
