# generated using pymatgen
data_Er3Lu3Ir2
_symmetry_space_group_name_H-M   'P 1'
_cell_length_a   6.32070232
_cell_length_b   7.15854000
_cell_length_c   9.01345880
_cell_angle_alpha   90.00000000
_cell_angle_beta   90.40729050
_cell_angle_gamma   90.00000000
_symmetry_Int_Tables_number   1
_chemical_formula_structural   Er3Lu3Ir2
_chemical_formula_sum   'Er6 Lu6 Ir4'
_cell_volume   407.82166970
_cell_formula_units_Z   2
loop_
 _symmetry_equiv_pos_site_id
 _symmetry_equiv_pos_as_xyz
  1  'x, y, z'
loop_
 _atom_site_type_symbol
 _atom_site_label
 _atom_site_symmetry_multiplicity
 _atom_site_fract_x
 _atom_site_fract_y
 _atom_site_fract_z
 _atom_site_occupancy
  Er  Er0  1  0.325969  0.678648  0.061090  1
  Er  Er1  1  0.174031  0.178648  0.438910  1
  Er  Er2  1  0.875203  0.531958  0.250456  1
  Er  Er3  1  0.624797  0.031958  0.249544  1
  Er  Er4  1  0.123054  0.468117  0.749492  1
  Er  Er5  1  0.376946  0.968117  0.750508  1
  Lu  Lu6  1  0.673412  0.322218  0.561846  1
  Lu  Lu7  1  0.826588  0.822218  0.938154  1
  Lu  Lu8  1  0.673338  0.322110  0.937783  1
  Lu  Lu9  1  0.826662  0.822110  0.562217  1
  Lu  Lu10  1  0.327363  0.677537  0.439038  1
  Lu  Lu11  1  0.172637  0.177537  0.060962  1
  Ir  Ir12  1  0.042674  0.885020  0.249951  1
  Ir  Ir13  1  0.457326  0.385020  0.250049  1
  Ir  Ir14  1  0.955914  0.114391  0.752178  1
  Ir  Ir15  1  0.544086  0.614391  0.747822  1
