# generated using pymatgen
data_Tb10In8Pd3Pt
_symmetry_space_group_name_H-M   'P 1'
_cell_length_a   3.63971300
_cell_length_b   8.20691161
_cell_length_c   18.42102100
_cell_angle_alpha   90.06710086
_cell_angle_beta   90.00000000
_cell_angle_gamma   90.00000000
_symmetry_Int_Tables_number   1
_chemical_formula_structural   Tb10In8Pd3Pt
_chemical_formula_sum   'Tb10 In8 Pd3 Pt1'
_cell_volume   550.25030990
_cell_formula_units_Z   1
loop_
 _symmetry_equiv_pos_site_id
 _symmetry_equiv_pos_as_xyz
  1  'x, y, z'
loop_
 _atom_site_type_symbol
 _atom_site_label
 _atom_site_symmetry_multiplicity
 _atom_site_fract_x
 _atom_site_fract_y
 _atom_site_fract_z
 _atom_site_occupancy
  Tb  Tb0  1  0.500000  0.236999  0.779625  1
  Tb  Tb1  1  0.500000  0.759252  0.219298  1
  Tb  Tb2  1  0.500000  0.258722  0.280732  1
  Tb  Tb3  1  0.500000  0.745493  0.719196  1
  Tb  Tb4  1  0.500000  0.117455  0.584129  1
  Tb  Tb5  1  0.500000  0.881947  0.416955  1
  Tb  Tb6  1  0.500000  0.381538  0.082969  1
  Tb  Tb7  1  0.500000  0.618151  0.916583  1
  Tb  Tb8  1  0.500000  0.000419  0.999869  1
  Tb  Tb9  1  0.500000  0.499676  0.500253  1
  In  In10  1  0.000000  0.078731  0.150321  1
  In  In11  1  0.000000  0.920188  0.850517  1
  In  In12  1  0.000000  0.423245  0.650482  1
  In  In13  1  0.000000  0.578826  0.349706  1
  In  In14  1  0.000000  0.208313  0.431793  1
  In  In15  1  0.000000  0.791173  0.567469  1
  In  In16  1  0.000000  0.292026  0.931688  1
  In  In17  1  0.000000  0.708426  0.068221  1
  Pd  Pd18  1  0.000000  0.975503  0.304124  1
  Pd  Pd19  1  0.000000  0.475402  0.195932  1
  Pd  Pd20  1  0.000000  0.524252  0.804100  1
  Pt  Pt21  1  0.000000  0.024265  0.696037  1
