# generated using pymatgen
data_Be6Nb5MoRu6
_symmetry_space_group_name_H-M   'P 1'
_cell_length_a   7.31064617
_cell_length_b   7.31046453
_cell_length_c   7.31064700
_cell_angle_alpha   126.46856418
_cell_angle_beta   128.64446931
_cell_angle_gamma   77.35801009
_symmetry_Int_Tables_number   1
_chemical_formula_structural   Be6Nb5MoRu6
_chemical_formula_sum   'Be6 Nb5 Mo1 Ru6'
_cell_volume   238.07843187
_cell_formula_units_Z   1
loop_
 _symmetry_equiv_pos_site_id
 _symmetry_equiv_pos_as_xyz
  1  'x, y, z'
loop_
 _atom_site_type_symbol
 _atom_site_label
 _atom_site_symmetry_multiplicity
 _atom_site_fract_x
 _atom_site_fract_y
 _atom_site_fract_z
 _atom_site_occupancy
  Be  Be0  1  0.749976  0.503172  0.253197  1
  Be  Be1  1  0.250011  0.499218  0.749205  1
  Be  Be2  1  0.657223  0.169195  0.497237  1
  Be  Be3  1  0.328024  0.840029  0.497222  1
  Be  Be4  1  0.171957  0.169195  0.011973  1
  Be  Be5  1  0.842807  0.840029  0.012005  1
  Nb  Nb6  1  0.952002  0.913329  0.461329  1
  Nb  Nb7  1  0.044980  0.498598  0.953619  1
  Nb  Nb8  1  0.547970  0.509358  0.461387  1
  Nb  Nb9  1  0.455052  0.908707  0.953655  1
  Nb  Nb10  1  0.749978  0.095759  0.845781  1
  Mo  Mo11  1  0.250026  0.095839  0.345813  1
  Ru  Ru12  1  0.497069  0.756205  0.253269  1
  Ru  Ru13  1  0.002936  0.756205  0.759136  1
  Ru  Ru14  1  0.874083  0.249329  0.376259  1
  Ru  Ru15  1  0.126918  0.502150  0.376236  1
  Ru  Ru16  1  0.373069  0.249329  0.875246  1
  Ru  Ru17  1  0.625916  0.502150  0.875233  1
