# generated using pymatgen
data_Nb3Ga2RhC
_symmetry_space_group_name_H-M   'P 1'
_cell_length_a   8.31014639
_cell_length_b   8.31014712
_cell_length_c   8.31014600
_cell_angle_alpha   60.00000447
_cell_angle_beta   60.00000157
_cell_angle_gamma   60.00000165
_symmetry_Int_Tables_number   1
_chemical_formula_structural   Nb3Ga2RhC
_chemical_formula_sum   'Nb12 Ga8 Rh4 C4'
_cell_volume   405.79908967
_cell_formula_units_Z   4
loop_
 _symmetry_equiv_pos_site_id
 _symmetry_equiv_pos_as_xyz
  1  'x, y, z'
loop_
 _atom_site_type_symbol
 _atom_site_label
 _atom_site_symmetry_multiplicity
 _atom_site_fract_x
 _atom_site_fract_y
 _atom_site_fract_z
 _atom_site_occupancy
  Nb  Nb0  1  0.563098  0.936902  0.563098  1
  Nb  Nb1  1  0.313098  0.686902  0.686902  1
  Nb  Nb2  1  0.686902  0.313098  0.313098  1
  Nb  Nb3  1  0.313098  0.686902  0.313098  1
  Nb  Nb4  1  0.686902  0.686902  0.313098  1
  Nb  Nb5  1  0.313098  0.313098  0.686902  1
  Nb  Nb6  1  0.563098  0.563098  0.936902  1
  Nb  Nb7  1  0.936902  0.563098  0.563098  1
  Nb  Nb8  1  0.563098  0.936902  0.936902  1
  Nb  Nb9  1  0.936902  0.936902  0.563098  1
  Nb  Nb10  1  0.686902  0.313098  0.686902  1
  Nb  Nb11  1  0.936902  0.563098  0.936902  1
  Ga  Ga12  1  0.914846  0.914846  0.914846  1
  Ga  Ga13  1  0.994537  0.335154  0.335154  1
  Ga  Ga14  1  0.335154  0.994537  0.335154  1
  Ga  Ga15  1  0.335154  0.335154  0.994537  1
  Ga  Ga16  1  0.914846  0.255463  0.914846  1
  Ga  Ga17  1  0.914846  0.914846  0.255463  1
  Ga  Ga18  1  0.255463  0.914846  0.914846  1
  Ga  Ga19  1  0.335154  0.335154  0.335154  1
  Rh  Rh20  1  0.125000  0.125000  0.125000  1
  Rh  Rh21  1  0.625000  0.125000  0.125000  1
  Rh  Rh22  1  0.125000  0.625000  0.125000  1
  Rh  Rh23  1  0.125000  0.125000  0.625000  1
  C  C24  1  0.625000  0.625000  0.625000  1
  C  C25  1  0.125000  0.625000  0.625000  1
  C  C26  1  0.625000  0.125000  0.625000  1
  C  C27  1  0.625000  0.625000  0.125000  1
