# generated using pymatgen
data_Sr3Yb5(SiO4)4
_symmetry_space_group_name_H-M   'P 1'
_cell_length_a   5.09064239
_cell_length_b   6.93738900
_cell_length_c   11.66915601
_cell_angle_alpha   90.00000000
_cell_angle_beta   90.28242919
_cell_angle_gamma   90.00000000
_symmetry_Int_Tables_number   1
_chemical_formula_structural   Sr3Yb5(SiO4)4
_chemical_formula_sum   'Sr3 Yb5 Si4 O16'
_cell_volume   412.10018289
_cell_formula_units_Z   1
loop_
 _symmetry_equiv_pos_site_id
 _symmetry_equiv_pos_as_xyz
  1  'x, y, z'
loop_
 _atom_site_type_symbol
 _atom_site_label
 _atom_site_symmetry_multiplicity
 _atom_site_fract_x
 _atom_site_fract_y
 _atom_site_fract_z
 _atom_site_occupancy
  Sr  Sr0  1  0.482979  0.750000  0.778887  1
  Sr  Sr1  1  0.977826  0.250000  0.716891  1
  Sr  Sr2  1  0.523566  0.250000  0.220582  1
  Yb  Yb3  1  0.011028  0.750000  0.279686  1
  Yb  Yb4  1  0.497653  0.502281  0.493761  1
  Yb  Yb5  1  0.002801  0.501158  0.004954  1
  Yb  Yb6  1  0.497653  0.997719  0.493761  1
  Yb  Yb7  1  0.002801  0.998842  0.004954  1
  Si  Si8  1  0.921358  0.750000  0.581303  1
  Si  Si9  1  0.419535  0.250000  0.913685  1
  Si  Si10  1  0.074743  0.250000  0.408585  1
  Si  Si11  1  0.584203  0.750000  0.096071  1
  O  O12  1  0.192361  0.444796  0.342861  1
  O  O13  1  0.721335  0.562156  0.161077  1
  O  O14  1  0.792819  0.940286  0.646738  1
  O  O15  1  0.292497  0.058181  0.848813  1
  O  O16  1  0.792819  0.559714  0.646738  1
  O  O17  1  0.292497  0.441819  0.848813  1
  O  O18  1  0.192361  0.055204  0.342861  1
  O  O19  1  0.721335  0.937844  0.161077  1
  O  O20  1  0.786206  0.750000  0.450283  1
  O  O21  1  0.278720  0.250000  0.042539  1
  O  O22  1  0.224094  0.250000  0.536509  1
  O  O23  1  0.716896  0.750000  0.965022  1
  O  O24  1  0.261131  0.750000  0.094028  1
  O  O25  1  0.753322  0.250000  0.419362  1
  O  O26  1  0.741889  0.250000  0.922611  1
  O  O27  1  0.243570  0.750000  0.577548  1
