# generated using pymatgen
data_Li8La4Er3TmSn8
_symmetry_space_group_name_H-M   'P 1'
_cell_length_a   9.47599800
_cell_length_b   9.47599751
_cell_length_c   7.64145400
_cell_angle_alpha   90.00000000
_cell_angle_beta   90.00000000
_cell_angle_gamma   119.99999475
_symmetry_Int_Tables_number   1
_chemical_formula_structural   Li8La4Er3TmSn8
_chemical_formula_sum   'Li8 La4 Er3 Tm1 Sn8'
_cell_volume   594.23271228
_cell_formula_units_Z   1
loop_
 _symmetry_equiv_pos_site_id
 _symmetry_equiv_pos_as_xyz
  1  'x, y, z'
loop_
 _atom_site_type_symbol
 _atom_site_label
 _atom_site_symmetry_multiplicity
 _atom_site_fract_x
 _atom_site_fract_y
 _atom_site_fract_z
 _atom_site_occupancy
  Li  Li0  1  0.165865  0.331731  0.256226  1
  Li  Li1  1  0.165865  0.834135  0.256226  1
  Li  Li2  1  0.668269  0.834135  0.256226  1
  Li  Li3  1  0.666667  0.333333  0.341704  1
  Li  Li4  1  0.832539  0.665078  0.683200  1
  Li  Li5  1  0.334922  0.167461  0.683200  1
  Li  Li6  1  0.832539  0.167461  0.683200  1
  Li  Li7  1  0.333333  0.666667  0.797138  1
  La  La8  1  0.000000  0.000000  0.999327  1
  La  La9  1  0.509609  0.019219  0.003968  1
  La  La10  1  0.509609  0.490391  0.003968  1
  La  La11  1  0.980781  0.490391  0.003968  1
  Er  Er12  1  0.487970  0.975939  0.504793  1
  Er  Er13  1  0.024061  0.512030  0.504793  1
  Er  Er14  1  0.487970  0.512030  0.504793  1
  Tm  Tm15  1  0.000000  0.000000  0.500778  1
  Sn  Sn16  1  0.333333  0.666667  0.241602  1
  Sn  Sn17  1  0.832959  0.665919  0.284867  1
  Sn  Sn18  1  0.334081  0.167041  0.284867  1
  Sn  Sn19  1  0.832959  0.167041  0.284867  1
  Sn  Sn20  1  0.666667  0.333333  0.725470  1
  Sn  Sn21  1  0.165774  0.331547  0.750932  1
  Sn  Sn22  1  0.165774  0.834226  0.750932  1
  Sn  Sn23  1  0.668453  0.834226  0.750932  1
