# generated using pymatgen
data_Tb8Ti9Nb(Si8Mo)2
_symmetry_space_group_name_H-M   'P 1'
_cell_length_a   7.04538529
_cell_length_b   7.04538509
_cell_length_c   12.95881808
_cell_angle_alpha   89.99542272
_cell_angle_beta   90.00457849
_cell_angle_gamma   89.98771344
_symmetry_Int_Tables_number   1
_chemical_formula_structural   Tb8Ti9Nb(Si8Mo)2
_chemical_formula_sum   'Tb8 Ti9 Nb1 Si16 Mo2'
_cell_volume   643.24269823
_cell_formula_units_Z   1
loop_
 _symmetry_equiv_pos_site_id
 _symmetry_equiv_pos_as_xyz
  1  'x, y, z'
loop_
 _atom_site_type_symbol
 _atom_site_label
 _atom_site_symmetry_multiplicity
 _atom_site_fract_x
 _atom_site_fract_y
 _atom_site_fract_z
 _atom_site_occupancy
  Tb  Tb0  1  0.339444  0.002137  0.466396  1
  Tb  Tb1  1  0.498320  0.840474  0.717254  1
  Tb  Tb2  1  0.501419  0.158918  0.217175  1
  Tb  Tb3  1  0.840474  0.498320  0.282746  1
  Tb  Tb4  1  0.158918  0.501419  0.782825  1
  Tb  Tb5  1  0.660320  0.998443  0.966411  1
  Tb  Tb6  1  0.002137  0.339444  0.533604  1
  Tb  Tb7  1  0.998443  0.660320  0.033589  1
  Ti  Ti8  1  0.672832  0.672832  0.500000  1
  Ti  Ti9  1  0.153169  0.009531  0.876150  1
  Ti  Ti10  1  0.490610  0.652903  0.126074  1
  Ti  Ti11  1  0.509299  0.346266  0.626594  1
  Ti  Ti12  1  0.652903  0.490610  0.873926  1
  Ti  Ti13  1  0.346266  0.509299  0.373406  1
  Ti  Ti14  1  0.847862  0.991297  0.375569  1
  Ti  Ti15  1  0.009531  0.153169  0.123850  1
  Ti  Ti16  1  0.991297  0.847862  0.624431  1
  Nb  Nb17  1  0.326743  0.326743  0.000000  1
  Si  Si18  1  0.201255  0.128719  0.685122  1
  Si  Si19  1  0.370631  0.703138  0.934871  1
  Si  Si20  1  0.629156  0.298023  0.435174  1
  Si  Si21  1  0.703138  0.370631  0.065129  1
  Si  Si22  1  0.298023  0.629156  0.564826  1
  Si  Si23  1  0.798950  0.871178  0.185503  1
  Si  Si24  1  0.128719  0.201255  0.314878  1
  Si  Si25  1  0.871178  0.798950  0.814497  1
  Si  Si26  1  0.290964  0.951601  0.065585  1
  Si  Si27  1  0.546275  0.790750  0.314799  1
  Si  Si28  1  0.454416  0.208409  0.813470  1
  Si  Si29  1  0.790750  0.546275  0.685201  1
  Si  Si30  1  0.208409  0.454416  0.186530  1
  Si  Si31  1  0.709004  0.047445  0.565579  1
  Si  Si32  1  0.951601  0.290964  0.934415  1
  Si  Si33  1  0.047445  0.709004  0.434421  1
  Mo  Mo34  1  0.173589  0.826508  0.250147  1
  Mo  Mo35  1  0.826508  0.173589  0.749853  1
