# generated using pymatgen
data_Sr2NdDy(NiP)4
_symmetry_space_group_name_H-M   'P 1'
_cell_length_a   3.93465800
_cell_length_b   3.93465819
_cell_length_c   16.92140400
_cell_angle_alpha   90.00000000
_cell_angle_beta   90.00000000
_cell_angle_gamma   119.99999842
_symmetry_Int_Tables_number   1
_chemical_formula_structural   Sr2NdDy(NiP)4
_chemical_formula_sum   'Sr2 Nd1 Dy1 Ni4 P4'
_cell_volume   226.87206956
_cell_formula_units_Z   1
loop_
 _symmetry_equiv_pos_site_id
 _symmetry_equiv_pos_as_xyz
  1  'x, y, z'
loop_
 _atom_site_type_symbol
 _atom_site_label
 _atom_site_symmetry_multiplicity
 _atom_site_fract_x
 _atom_site_fract_y
 _atom_site_fract_z
 _atom_site_occupancy
  Sr  Sr0  1  0.000000  0.000000  0.245346  1
  Sr  Sr1  1  0.000000  0.000000  0.754654  1
  Nd  Nd2  1  0.000000  0.000000  0.500000  1
  Dy  Dy3  1  0.000000  0.000000  0.000000  1
  Ni  Ni4  1  0.333333  0.666667  0.379734  1
  Ni  Ni5  1  0.666667  0.333333  0.620266  1
  Ni  Ni6  1  0.666667  0.333333  0.887842  1
  Ni  Ni7  1  0.333333  0.666667  0.112158  1
  P  P8  1  0.333333  0.666667  0.887993  1
  P  P9  1  0.666667  0.333333  0.112007  1
  P  P10  1  0.666667  0.333333  0.378782  1
  P  P11  1  0.333333  0.666667  0.621218  1
