# generated using pymatgen
data_Pr2Ga2IrPd
_symmetry_space_group_name_H-M   'P 1'
_cell_length_a   4.52684300
_cell_length_b   7.17678700
_cell_length_c   7.83852400
_cell_angle_alpha   90.00000000
_cell_angle_beta   90.00000000
_cell_angle_gamma   90.00000000
_symmetry_Int_Tables_number   1
_chemical_formula_structural   Pr2Ga2IrPd
_chemical_formula_sum   'Pr4 Ga4 Ir2 Pd2'
_cell_volume   254.65944130
_cell_formula_units_Z   2
loop_
 _symmetry_equiv_pos_site_id
 _symmetry_equiv_pos_as_xyz
  1  'x, y, z'
loop_
 _atom_site_type_symbol
 _atom_site_label
 _atom_site_symmetry_multiplicity
 _atom_site_fract_x
 _atom_site_fract_y
 _atom_site_fract_z
 _atom_site_occupancy
  Pr  Pr0  1  0.250000  0.031463  0.686443  1
  Pr  Pr1  1  0.250000  0.531463  0.813557  1
  Pr  Pr2  1  0.750000  0.977797  0.306654  1
  Pr  Pr3  1  0.750000  0.477797  0.193346  1
  Ga  Ga4  1  0.250000  0.156855  0.075083  1
  Ga  Ga5  1  0.250000  0.656855  0.424917  1
  Ga  Ga6  1  0.750000  0.837050  0.932408  1
  Ga  Ga7  1  0.750000  0.337050  0.567592  1
  Ir  Ir8  1  0.250000  0.282163  0.393112  1
  Ir  Ir9  1  0.250000  0.782163  0.106888  1
  Pd  Pd10  1  0.750000  0.714672  0.607033  1
  Pd  Pd11  1  0.750000  0.214672  0.892967  1
