# generated using pymatgen
data_La3Pr5(Si3Ni)4
_symmetry_space_group_name_H-M   'P 1'
_cell_length_a   8.20458600
_cell_length_b   8.20455323
_cell_length_c   8.60299800
_cell_angle_alpha   90.00000000
_cell_angle_beta   90.00000000
_cell_angle_gamma   119.99982571
_symmetry_Int_Tables_number   1
_chemical_formula_structural   La3Pr5(Si3Ni)4
_chemical_formula_sum   'La3 Pr5 Si12 Ni4'
_cell_volume   501.52527511
_cell_formula_units_Z   1
loop_
 _symmetry_equiv_pos_site_id
 _symmetry_equiv_pos_as_xyz
  1  'x, y, z'
loop_
 _atom_site_type_symbol
 _atom_site_label
 _atom_site_symmetry_multiplicity
 _atom_site_fract_x
 _atom_site_fract_y
 _atom_site_fract_z
 _atom_site_occupancy
  La  La0  1  0.499869  0.500120  0.250000  1
  La  La1  1  0.000251  0.500121  0.250000  1
  La  La2  1  0.499872  0.999744  0.250000  1
  Pr  Pr3  1  0.999999  0.000002  0.750000  1
  Pr  Pr4  1  0.999999  0.000001  0.250000  1
  Pr  Pr5  1  0.499805  0.500194  0.750000  1
  Pr  Pr6  1  0.499810  0.999605  0.750000  1
  Pr  Pr7  1  0.000406  0.500205  0.750000  1
  Si  Si8  1  0.829204  0.170262  0.998216  1
  Si  Si9  1  0.829437  0.658733  0.998239  1
  Si  Si10  1  0.341091  0.170213  0.998215  1
  Si  Si11  1  0.829204  0.170262  0.501784  1
  Si  Si12  1  0.829437  0.658733  0.501761  1
  Si  Si13  1  0.341091  0.170213  0.501785  1
  Si  Si14  1  0.170871  0.829651  0.501698  1
  Si  Si15  1  0.658730  0.829695  0.501701  1
  Si  Si16  1  0.170655  0.341451  0.501677  1
  Si  Si17  1  0.170871  0.829651  0.998302  1
  Si  Si18  1  0.658730  0.829695  0.998299  1
  Si  Si19  1  0.170655  0.341451  0.998323  1
  Ni  Ni20  1  0.666701  0.333473  0.999680  1
  Ni  Ni21  1  0.666701  0.333473  0.500320  1
  Ni  Ni22  1  0.333304  0.666527  0.499861  1
  Ni  Ni23  1  0.333304  0.666527  0.000139  1
