# generated using pymatgen
data_La10Nd6Cd4Os3Pd
_symmetry_space_group_name_H-M   'P 1'
_cell_length_a   10.02590220
_cell_length_b   10.13932311
_cell_length_c   10.13932400
_cell_angle_alpha   60.00000362
_cell_angle_beta   59.62506871
_cell_angle_gamma   59.62506666
_symmetry_Int_Tables_number   1
_chemical_formula_structural   La10Nd6Cd4Os3Pd
_chemical_formula_sum   'La10 Nd6 Cd4 Os3 Pd1'
_cell_volume   724.67263735
_cell_formula_units_Z   1
loop_
 _symmetry_equiv_pos_site_id
 _symmetry_equiv_pos_as_xyz
  1  'x, y, z'
loop_
 _atom_site_type_symbol
 _atom_site_label
 _atom_site_symmetry_multiplicity
 _atom_site_fract_x
 _atom_site_fract_y
 _atom_site_fract_z
 _atom_site_occupancy
  La  La0  1  0.343043  0.351027  0.351027  1
  La  La1  1  0.343043  0.351027  0.954904  1
  La  La2  1  0.343043  0.954904  0.351027  1
  La  La3  1  0.964891  0.345036  0.345036  1
  La  La4  1  0.816747  0.191380  0.191380  1
  La  La5  1  0.188260  0.811040  0.811040  1
  La  La6  1  0.188260  0.811040  0.189661  1
  La  La7  1  0.816747  0.191380  0.800492  1
  La  La8  1  0.188260  0.189661  0.811040  1
  La  La9  1  0.816747  0.800492  0.191380  1
  Nd  Nd10  1  0.935479  0.563656  0.563656  1
  Nd  Nd11  1  0.558543  0.936990  0.936990  1
  Nd  Nd12  1  0.558543  0.936990  0.567478  1
  Nd  Nd13  1  0.935479  0.563656  0.937209  1
  Nd  Nd14  1  0.558543  0.567478  0.936990  1
  Nd  Nd15  1  0.935479  0.937209  0.563656  1
  Cd  Cd16  1  0.580711  0.580389  0.580389  1
  Cd  Cd17  1  0.580711  0.580389  0.258512  1
  Cd  Cd18  1  0.580711  0.258512  0.580389  1
  Cd  Cd19  1  0.258116  0.580629  0.580629  1
  Os  Os20  1  0.143414  0.136946  0.136946  1
  Os  Os21  1  0.143414  0.136946  0.582695  1
  Os  Os22  1  0.143414  0.582695  0.136946  1
  Pd  Pd23  1  0.578404  0.140532  0.140532  1
