# generated using pymatgen
data_Np2B6Ir
_symmetry_space_group_name_H-M   'P 1'
_cell_length_a   3.52487200
_cell_length_b   9.43566700
_cell_length_c   11.41781900
_cell_angle_alpha   90.00000000
_cell_angle_beta   90.00000000
_cell_angle_gamma   90.00000000
_symmetry_Int_Tables_number   1
_chemical_formula_structural   Np2B6Ir
_chemical_formula_sum   'Np8 B24 Ir4'
_cell_volume   379.75116123
_cell_formula_units_Z   4
loop_
 _symmetry_equiv_pos_site_id
 _symmetry_equiv_pos_as_xyz
  1  'x, y, z'
loop_
 _atom_site_type_symbol
 _atom_site_label
 _atom_site_symmetry_multiplicity
 _atom_site_fract_x
 _atom_site_fract_y
 _atom_site_fract_z
 _atom_site_occupancy
  Np  Np0  1  0.000000  0.338759  0.406433  1
  Np  Np1  1  0.000000  0.661241  0.593567  1
  Np  Np2  1  0.000000  0.838759  0.093567  1
  Np  Np3  1  0.000000  0.161241  0.906433  1
  Np  Np4  1  0.000000  0.959913  0.402280  1
  Np  Np5  1  0.000000  0.040087  0.597720  1
  Np  Np6  1  0.000000  0.459913  0.097720  1
  Np  Np7  1  0.000000  0.540087  0.902280  1
  B  B8  1  0.500000  0.550538  0.433292  1
  B  B9  1  0.500000  0.449462  0.566708  1
  B  B10  1  0.500000  0.050538  0.066708  1
  B  B11  1  0.500000  0.949462  0.933292  1
  B  B12  1  0.500000  0.743591  0.424008  1
  B  B13  1  0.500000  0.256409  0.575992  1
  B  B14  1  0.500000  0.243591  0.075992  1
  B  B15  1  0.500000  0.756409  0.924008  1
  B  B16  1  0.500000  0.809318  0.273556  1
  B  B17  1  0.500000  0.190682  0.726444  1
  B  B18  1  0.500000  0.309318  0.226444  1
  B  B19  1  0.500000  0.690682  0.773556  1
  B  B20  1  0.500000  0.647482  0.188205  1
  B  B21  1  0.500000  0.352518  0.811795  1
  B  B22  1  0.500000  0.147482  0.311795  1
  B  B23  1  0.500000  0.852518  0.688205  1
  B  B24  1  0.500000  0.986871  0.221177  1
  B  B25  1  0.500000  0.013129  0.778823  1
  B  B26  1  0.500000  0.486871  0.278823  1
  B  B27  1  0.500000  0.513129  0.721177  1
  B  B28  1  0.500000  0.646067  0.040578  1
  B  B29  1  0.500000  0.353933  0.959422  1
  B  B30  1  0.500000  0.146067  0.459422  1
  B  B31  1  0.500000  0.853933  0.540578  1
  Ir  Ir32  1  0.000000  0.647929  0.320055  1
  Ir  Ir33  1  0.000000  0.352071  0.679945  1
  Ir  Ir34  1  0.000000  0.147929  0.179945  1
  Ir  Ir35  1  0.000000  0.852071  0.820055  1
