# generated using pymatgen
data_YbY3(ZnRh)4
_symmetry_space_group_name_H-M   'P 1'
_cell_length_a   4.10711000
_cell_length_b   6.97216227
_cell_length_c   8.01750193
_cell_angle_alpha   89.66975872
_cell_angle_beta   90.00000000
_cell_angle_gamma   90.00000000
_symmetry_Int_Tables_number   1
_chemical_formula_structural   YbY3(ZnRh)4
_chemical_formula_sum   'Yb1 Y3 Zn4 Rh4'
_cell_volume   229.58086097
_cell_formula_units_Z   1
loop_
 _symmetry_equiv_pos_site_id
 _symmetry_equiv_pos_as_xyz
  1  'x, y, z'
loop_
 _atom_site_type_symbol
 _atom_site_label
 _atom_site_symmetry_multiplicity
 _atom_site_fract_x
 _atom_site_fract_y
 _atom_site_fract_z
 _atom_site_occupancy
  Yb  Yb0  1  0.250000  0.029140  0.314788  1
  Y  Y1  1  0.250000  0.529146  0.186564  1
  Y  Y2  1  0.750000  0.468010  0.815704  1
  Y  Y3  1  0.750000  0.969725  0.681908  1
  Zn  Zn4  1  0.250000  0.643595  0.564877  1
  Zn  Zn5  1  0.750000  0.355083  0.433293  1
  Zn  Zn6  1  0.750000  0.858831  0.068005  1
  Zn  Zn7  1  0.250000  0.144206  0.935066  1
  Rh  Rh8  1  0.250000  0.765358  0.878658  1
  Rh  Rh9  1  0.750000  0.237999  0.120787  1
  Rh  Rh10  1  0.750000  0.734799  0.378327  1
  Rh  Rh11  1  0.250000  0.264109  0.622024  1
