# generated using pymatgen
data_Lu12ZnCo4Os
_symmetry_space_group_name_H-M   'P 1'
_cell_length_a   8.06560220
_cell_length_b   8.06560310
_cell_length_c   8.06560223
_cell_angle_alpha   111.50497730
_cell_angle_beta   110.69048680
_cell_angle_gamma   106.26607977
_symmetry_Int_Tables_number   1
_chemical_formula_structural   Lu12ZnCo4Os
_chemical_formula_sum   'Lu12 Zn1 Co4 Os1'
_cell_volume   402.95083512
_cell_formula_units_Z   1
loop_
 _symmetry_equiv_pos_site_id
 _symmetry_equiv_pos_as_xyz
  1  'x, y, z'
loop_
 _atom_site_type_symbol
 _atom_site_label
 _atom_site_symmetry_multiplicity
 _atom_site_fract_x
 _atom_site_fract_y
 _atom_site_fract_z
 _atom_site_occupancy
  Lu  Lu0  1  0.421152  0.227850  0.193302  1
  Lu  Lu1  1  0.578848  0.772150  0.806698  1
  Lu  Lu2  1  0.034548  0.227850  0.806698  1
  Lu  Lu3  1  0.965452  0.772150  0.193302  1
  Lu  Lu4  1  0.181279  0.275870  0.457149  1
  Lu  Lu5  1  0.818721  0.724130  0.542851  1
  Lu  Lu6  1  0.181279  0.724130  0.905410  1
  Lu  Lu7  1  0.818721  0.275870  0.094590  1
  Lu  Lu8  1  0.316231  0.621519  0.305287  1
  Lu  Lu9  1  0.683769  0.378481  0.694713  1
  Lu  Lu10  1  0.316231  0.010942  0.694713  1
  Lu  Lu11  1  0.683769  0.989058  0.305287  1
  Zn  Zn12  1  0.500000  0.500000  0.000000  1
  Co  Co13  1  0.370607  0.000000  0.370607  1
  Co  Co14  1  0.629393  0.000000  0.629393  1
  Co  Co15  1  0.113846  0.613846  0.500000  1
  Co  Co16  1  0.886154  0.386154  0.500000  1
  Os  Os17  1  0.000000  0.000000  0.000000  1
