# generated using pymatgen
data_DyY3Al10(Ga4Ir3)2
_symmetry_space_group_name_H-M   'P 1'
_cell_length_a   7.53937480
_cell_length_b   7.53825970
_cell_length_c   9.56980222
_cell_angle_alpha   90.09390254
_cell_angle_beta   89.85457929
_cell_angle_gamma   119.66283277
_symmetry_Int_Tables_number   1
_chemical_formula_structural   DyY3Al10(Ga4Ir3)2
_chemical_formula_sum   'Dy1 Y3 Al10 Ga8 Ir6'
_cell_volume   472.61130139
_cell_formula_units_Z   1
loop_
 _symmetry_equiv_pos_site_id
 _symmetry_equiv_pos_as_xyz
  1  'x, y, z'
loop_
 _atom_site_type_symbol
 _atom_site_label
 _atom_site_symmetry_multiplicity
 _atom_site_fract_x
 _atom_site_fract_y
 _atom_site_fract_z
 _atom_site_occupancy
  Dy  Dy0  1  0.327522  0.001400  0.250881  1
  Y  Y1  1  0.996333  0.666951  0.745808  1
  Y  Y2  1  0.003656  0.333040  0.254186  1
  Y  Y3  1  0.672400  0.998526  0.749162  1
  Al  Al4  1  0.997730  0.665357  0.070732  1
  Al  Al5  1  0.334459  0.000787  0.927872  1
  Al  Al6  1  0.002327  0.334695  0.929344  1
  Al  Al7  1  0.665479  0.999231  0.072292  1
  Al  Al8  1  0.664078  0.996953  0.426746  1
  Al  Al9  1  0.335863  0.003059  0.573095  1
  Al  Al10  1  0.333511  0.333437  0.055317  1
  Al  Al11  1  0.666489  0.666503  0.944772  1
  Al  Al12  1  0.666792  0.666128  0.553924  1
  Al  Al13  1  0.333206  0.333815  0.445988  1
  Ga  Ga14  1  0.130091  0.126490  0.750661  1
  Ga  Ga15  1  0.870048  0.873492  0.249341  1
  Ga  Ga16  1  0.999890  0.333591  0.579728  1
  Ga  Ga17  1  0.000233  0.666524  0.420148  1
  Ga  Ga18  1  0.341231  0.548766  0.750896  1
  Ga  Ga19  1  0.658564  0.451047  0.249106  1
  Ga  Ga20  1  0.546202  0.339743  0.750093  1
  Ga  Ga21  1  0.453826  0.660399  0.249912  1
  Ir  Ir22  1  0.666981  0.325876  0.499234  1
  Ir  Ir23  1  0.332959  0.674135  0.500655  1
  Ir  Ir24  1  0.328232  0.671788  0.000820  1
  Ir  Ir25  1  0.671710  0.328237  0.999286  1
  Ir  Ir26  1  0.000096  0.000016  0.499935  1
  Ir  Ir27  1  0.000094  0.000012  0.000067  1
