# generated using pymatgen
data_InGaFeF6
_symmetry_space_group_name_H-M   'P 1'
_cell_length_a   7.49407900
_cell_length_b   7.22325300
_cell_length_c   10.23828100
_cell_angle_alpha   90.00000000
_cell_angle_beta   90.00000000
_cell_angle_gamma   90.00000000
_symmetry_Int_Tables_number   1
_chemical_formula_structural   InGaFeF6
_chemical_formula_sum   'In4 Ga4 Fe4 F24'
_cell_volume   554.21482479
_cell_formula_units_Z   4
loop_
 _symmetry_equiv_pos_site_id
 _symmetry_equiv_pos_as_xyz
  1  'x, y, z'
loop_
 _atom_site_type_symbol
 _atom_site_label
 _atom_site_symmetry_multiplicity
 _atom_site_fract_x
 _atom_site_fract_y
 _atom_site_fract_z
 _atom_site_occupancy
  In  In0  1  0.250000  0.501330  0.100767  1
  In  In1  1  0.750000  0.498670  0.899233  1
  In  In2  1  0.750000  0.998670  0.600767  1
  In  In3  1  0.250000  0.001330  0.399233  1
  Ga  Ga4  1  0.000000  0.500000  0.500000  1
  Ga  Ga5  1  0.000000  0.000000  0.000000  1
  Ga  Ga6  1  0.500000  0.500000  0.500000  1
  Ga  Ga7  1  0.500000  0.000000  0.000000  1
  Fe  Fe8  1  0.250000  0.719966  0.759683  1
  Fe  Fe9  1  0.750000  0.280034  0.240317  1
  Fe  Fe10  1  0.750000  0.780034  0.259683  1
  Fe  Fe11  1  0.250000  0.219966  0.740317  1
  F  F12  1  0.057945  0.778621  0.907095  1
  F  F13  1  0.942055  0.221379  0.092905  1
  F  F14  1  0.942055  0.721379  0.407095  1
  F  F15  1  0.557945  0.221379  0.092905  1
  F  F16  1  0.057945  0.278621  0.592905  1
  F  F17  1  0.442055  0.778621  0.907095  1
  F  F18  1  0.442055  0.278621  0.592905  1
  F  F19  1  0.557945  0.721379  0.407095  1
  F  F20  1  0.250000  0.049928  0.041581  1
  F  F21  1  0.750000  0.950072  0.958419  1
  F  F22  1  0.750000  0.450072  0.541581  1
  F  F23  1  0.250000  0.549928  0.458419  1
  F  F24  1  0.479745  0.643210  0.654765  1
  F  F25  1  0.520255  0.356790  0.345235  1
  F  F26  1  0.520255  0.856790  0.154765  1
  F  F27  1  0.979745  0.356790  0.345235  1
  F  F28  1  0.479745  0.143210  0.845235  1
  F  F29  1  0.020255  0.643210  0.654765  1
  F  F30  1  0.020255  0.143210  0.845235  1
  F  F31  1  0.979745  0.856790  0.154765  1
  F  F32  1  0.250000  0.957930  0.648997  1
  F  F33  1  0.750000  0.042070  0.351003  1
  F  F34  1  0.750000  0.542070  0.148997  1
  F  F35  1  0.250000  0.457930  0.851003  1
