# generated using pymatgen
data_Er5Cu2Te
_symmetry_space_group_name_H-M   'P 1'
_cell_length_a   8.44845778
_cell_length_b   8.44845910
_cell_length_c   8.44845873
_cell_angle_alpha   124.52926840
_cell_angle_beta   124.52927390
_cell_angle_gamma   82.31918379
_symmetry_Int_Tables_number   1
_chemical_formula_structural   Er5Cu2Te
_chemical_formula_sum   'Er10 Cu4 Te2'
_cell_volume   393.32264484
_cell_formula_units_Z   2
loop_
 _symmetry_equiv_pos_site_id
 _symmetry_equiv_pos_as_xyz
  1  'x, y, z'
loop_
 _atom_site_type_symbol
 _atom_site_label
 _atom_site_symmetry_multiplicity
 _atom_site_fract_x
 _atom_site_fract_y
 _atom_site_fract_z
 _atom_site_occupancy
  Er  Er0  1  0.000000  0.000000  0.000000  1
  Er  Er1  1  0.500000  0.500000  0.000000  1
  Er  Er2  1  0.793308  0.293308  0.806853  1
  Er  Er3  1  0.206692  0.706692  0.193147  1
  Er  Er4  1  0.486455  0.986455  0.193147  1
  Er  Er5  1  0.293308  0.486455  0.500000  1
  Er  Er6  1  0.013545  0.206692  0.500000  1
  Er  Er7  1  0.513545  0.013545  0.806853  1
  Er  Er8  1  0.706692  0.513545  0.500000  1
  Er  Er9  1  0.986455  0.793308  0.500000  1
  Cu  Cu10  1  0.133311  0.633311  0.766622  1
  Cu  Cu11  1  0.866689  0.366689  0.233378  1
  Cu  Cu12  1  0.633311  0.866689  0.500000  1
  Cu  Cu13  1  0.366689  0.133311  0.500000  1
  Te  Te14  1  0.250000  0.250000  0.000000  1
  Te  Te15  1  0.750000  0.750000  0.000000  1
