# generated using pymatgen
data_Tc2PCl13
_symmetry_space_group_name_H-M   'P 1'
_cell_length_a   11.07093500
_cell_length_b   9.14096294
_cell_length_c   9.70233787
_cell_angle_alpha   81.24805418
_cell_angle_beta   90.00000000
_cell_angle_gamma   90.00000000
_symmetry_Int_Tables_number   1
_chemical_formula_structural   Tc2PCl13
_chemical_formula_sum   'Tc4 P2 Cl26'
_cell_volume   970.43443157
_cell_formula_units_Z   2
loop_
 _symmetry_equiv_pos_site_id
 _symmetry_equiv_pos_as_xyz
  1  'x, y, z'
loop_
 _atom_site_type_symbol
 _atom_site_label
 _atom_site_symmetry_multiplicity
 _atom_site_fract_x
 _atom_site_fract_y
 _atom_site_fract_z
 _atom_site_occupancy
  Tc  Tc0  1  0.250000  0.830197  0.093089  1
  Tc  Tc1  1  0.750000  0.169803  0.906911  1
  Tc  Tc2  1  0.250000  0.679387  0.865021  1
  Tc  Tc3  1  0.750000  0.320613  0.134979  1
  P  P4  1  0.250000  0.262072  0.509205  1
  P  P5  1  0.750000  0.737928  0.490795  1
  Cl  Cl6  1  0.605986  0.808054  0.578716  1
  Cl  Cl7  1  0.105986  0.191946  0.421284  1
  Cl  Cl8  1  0.750000  0.437732  0.894273  1
  Cl  Cl9  1  0.250000  0.562268  0.105727  1
  Cl  Cl10  1  0.906368  0.150822  0.083080  1
  Cl  Cl11  1  0.406368  0.849178  0.916920  1
  Cl  Cl12  1  0.093632  0.849178  0.916920  1
  Cl  Cl13  1  0.593632  0.150822  0.083080  1
  Cl  Cl14  1  0.750000  0.202136  0.366020  1
  Cl  Cl15  1  0.250000  0.797864  0.633980  1
  Cl  Cl16  1  0.899875  0.480373  0.182619  1
  Cl  Cl17  1  0.399875  0.519627  0.817381  1
  Cl  Cl18  1  0.100125  0.519627  0.817381  1
  Cl  Cl19  1  0.600125  0.480373  0.182619  1
  Cl  Cl20  1  0.750000  0.913957  0.927867  1
  Cl  Cl21  1  0.250000  0.086043  0.072133  1
  Cl  Cl22  1  0.898613  0.190461  0.737016  1
  Cl  Cl23  1  0.398613  0.809539  0.262984  1
  Cl  Cl24  1  0.101387  0.809539  0.262984  1
  Cl  Cl25  1  0.601387  0.190461  0.737016  1
  Cl  Cl26  1  0.750000  0.812152  0.291426  1
  Cl  Cl27  1  0.250000  0.187848  0.708574  1
  Cl  Cl28  1  0.750000  0.521603  0.519630  1
  Cl  Cl29  1  0.250000  0.478397  0.480370  1
  Cl  Cl30  1  0.894014  0.808054  0.578716  1
  Cl  Cl31  1  0.394014  0.191946  0.421284  1
