# generated using pymatgen
data_V2SbRhO8
_symmetry_space_group_name_H-M   'P 1'
_cell_length_a   5.54608375
_cell_length_b   5.54584392
_cell_length_c   9.72198673
_cell_angle_alpha   79.86134568
_cell_angle_beta   79.69218517
_cell_angle_gamma   112.19322156
_symmetry_Int_Tables_number   1
_chemical_formula_structural   V2SbRhO8
_chemical_formula_sum   'V4 Sb2 Rh2 O16'
_cell_volume   262.48261103
_cell_formula_units_Z   2
loop_
 _symmetry_equiv_pos_site_id
 _symmetry_equiv_pos_as_xyz
  1  'x, y, z'
loop_
 _atom_site_type_symbol
 _atom_site_label
 _atom_site_symmetry_multiplicity
 _atom_site_fract_x
 _atom_site_fract_y
 _atom_site_fract_z
 _atom_site_occupancy
  V  V0  1  0.499997  0.500002  0.000008  1
  V  V1  1  0.243204  0.243214  0.499988  1
  V  V2  1  0.756791  0.756785  0.500010  1
  V  V3  1  0.000002  0.999997  0.000004  1
  Sb  Sb4  1  0.127038  0.624387  0.748649  1
  Sb  Sb5  1  0.872963  0.375618  0.251353  1
  Rh  Rh6  1  0.623406  0.125635  0.750991  1
  Rh  Rh7  1  0.376637  0.874367  0.248968  1
  O  O8  1  0.389955  0.203494  0.906548  1
  O  O9  1  0.141783  0.952742  0.405459  1
  O  O10  1  0.895109  0.701562  0.903310  1
  O  O11  1  0.643120  0.452055  0.404804  1
  O  O12  1  0.858203  0.047247  0.594549  1
  O  O13  1  0.610043  0.796511  0.093455  1
  O  O14  1  0.356881  0.547955  0.595201  1
  O  O15  1  0.104893  0.298436  0.096687  1
  O  O16  1  0.826843  0.528162  0.649560  1
  O  O17  1  0.577183  0.277601  0.149519  1
  O  O18  1  0.322288  0.023633  0.649564  1
  O  O19  1  0.072842  0.773264  0.149509  1
  O  O20  1  0.927165  0.226736  0.850491  1
  O  O21  1  0.677693  0.976367  0.350443  1
  O  O22  1  0.422799  0.722393  0.850488  1
  O  O23  1  0.173164  0.471835  0.350442  1
