# generated using pymatgen
data_BaSb12OsRu2Pt
_symmetry_space_group_name_H-M   'P 1'
_cell_length_a   8.19891644
_cell_length_b   8.19812332
_cell_length_c   8.19726413
_cell_angle_alpha   109.47347899
_cell_angle_beta   109.48906693
_cell_angle_gamma   109.49500773
_symmetry_Int_Tables_number   1
_chemical_formula_structural   BaSb12OsRu2Pt
_chemical_formula_sum   'Ba1 Sb12 Os1 Ru2 Pt1'
_cell_volume   423.91858815
_cell_formula_units_Z   1
loop_
 _symmetry_equiv_pos_site_id
 _symmetry_equiv_pos_as_xyz
  1  'x, y, z'
loop_
 _atom_site_type_symbol
 _atom_site_label
 _atom_site_symmetry_multiplicity
 _atom_site_fract_x
 _atom_site_fract_y
 _atom_site_fract_z
 _atom_site_occupancy
  Ba  Ba0  1  0.000000  0.000000  0.000000  1
  Sb  Sb1  1  0.151096  0.811222  0.650411  1
  Sb  Sb2  1  0.158868  0.499857  0.340552  1
  Sb  Sb3  1  0.499390  0.650775  0.840340  1
  Sb  Sb4  1  0.340034  0.839281  0.188911  1
  Sb  Sb5  1  0.818710  0.659003  0.158983  1
  Sb  Sb6  1  0.660190  0.841862  0.500309  1
  Sb  Sb7  1  0.181290  0.340997  0.841017  1
  Sb  Sb8  1  0.659966  0.160719  0.811089  1
  Sb  Sb9  1  0.339810  0.158138  0.499691  1
  Sb  Sb10  1  0.500610  0.349225  0.159660  1
  Sb  Sb11  1  0.841132  0.500143  0.659448  1
  Sb  Sb12  1  0.848904  0.188778  0.349589  1
  Os  Os13  1  0.500000  0.500000  0.500000  1
  Ru  Ru14  1  0.000000  0.000000  0.500000  1
  Ru  Ru15  1  0.000000  0.500000  0.000000  1
  Pt  Pt16  1  0.500000  0.000000  0.000000  1
