# generated using pymatgen
data_Sc7Ga16Rh7
_symmetry_space_group_name_H-M   'P 1'
_cell_length_a   8.86679560
_cell_length_b   8.86398924
_cell_length_c   8.86665813
_cell_angle_alpha   119.99246423
_cell_angle_beta   120.02219065
_cell_angle_gamma   89.99465615
_symmetry_Int_Tables_number   1
_chemical_formula_structural   Sc7Ga16Rh7
_chemical_formula_sum   'Sc7 Ga16 Rh7'
_cell_volume   492.67995346
_cell_formula_units_Z   1
loop_
 _symmetry_equiv_pos_site_id
 _symmetry_equiv_pos_as_xyz
  1  'x, y, z'
loop_
 _atom_site_type_symbol
 _atom_site_label
 _atom_site_symmetry_multiplicity
 _atom_site_fract_x
 _atom_site_fract_y
 _atom_site_fract_z
 _atom_site_occupancy
  Sc  Sc0  1  0.799794  0.285171  0.070280  1
  Sc  Sc1  1  0.214886  0.285188  0.485393  1
  Sc  Sc2  1  0.214730  0.700158  0.485438  1
  Sc  Sc3  1  0.228871  0.728524  0.956999  1
  Sc  Sc4  1  0.771533  0.728548  0.499669  1
  Sc  Sc5  1  0.771352  0.270976  0.499653  1
  Sc  Sc6  1  0.377370  0.122644  0.745289  1
  Ga  Ga7  1  0.375172  0.624502  0.249337  1
  Ga  Ga8  1  0.994277  0.505316  0.511017  1
  Ga  Ga9  1  0.156453  0.343601  0.187147  1
  Ga  Ga10  1  0.150873  0.951872  0.801006  1
  Ga  Ga11  1  0.150821  0.349176  0.800831  1
  Ga  Ga12  1  0.548326  0.349190  0.198389  1
  Ga  Ga13  1  0.848308  0.651639  0.803321  1
  Ga  Ga14  1  0.846355  0.041572  0.195222  1
  Ga  Ga15  1  0.846291  0.653727  0.195040  1
  Ga  Ga16  1  0.458685  0.653720  0.807424  1
  Ga  Ga17  1  0.375103  0.124840  0.249229  1
  Ga  Ga18  1  0.875598  0.124831  0.749728  1
  Ga  Ga19  1  0.626740  0.873199  0.246459  1
  Ga  Ga20  1  0.619641  0.370244  0.750596  1
  Ga  Ga21  1  0.619628  0.880345  0.750506  1
  Ga  Ga22  1  0.129839  0.880350  0.260719  1
  Rh  Rh23  1  0.997186  0.000547  0.501142  1
  Rh  Rh24  1  0.499408  0.000547  0.003361  1
  Rh  Rh25  1  0.499419  0.502822  0.003407  1
  Rh  Rh26  1  0.502529  0.501003  0.502017  1
  Rh  Rh27  1  0.998988  0.501003  0.998476  1
  Rh  Rh28  1  0.998959  0.997461  0.998496  1
  Rh  Rh29  1  0.502864  0.997279  0.494412  1
