# generated using pymatgen
data_Hf3Be2Ir2Rh3
_symmetry_space_group_name_H-M   'P 1'
_cell_length_a   9.41285342
_cell_length_b   9.41833942
_cell_length_c   3.34511100
_cell_angle_alpha   90.00000000
_cell_angle_beta   90.00000000
_cell_angle_gamma   90.03406495
_symmetry_Int_Tables_number   1
_chemical_formula_structural   Hf3Be2Ir2Rh3
_chemical_formula_sum   'Hf6 Be4 Ir4 Rh6'
_cell_volume   296.55557283
_cell_formula_units_Z   2
loop_
 _symmetry_equiv_pos_site_id
 _symmetry_equiv_pos_as_xyz
  1  'x, y, z'
loop_
 _atom_site_type_symbol
 _atom_site_label
 _atom_site_symmetry_multiplicity
 _atom_site_fract_x
 _atom_site_fract_y
 _atom_site_fract_z
 _atom_site_occupancy
  Hf  Hf0  1  0.173936  0.673354  0.000000  1
  Hf  Hf1  1  0.324516  0.173303  0.000000  1
  Hf  Hf2  1  0.828061  0.323693  0.000000  1
  Hf  Hf3  1  0.500520  0.499962  0.000000  1
  Hf  Hf4  1  0.674526  0.827924  0.000000  1
  Hf  Hf5  1  0.001420  0.997066  0.000000  1
  Be  Be6  1  0.379789  0.879271  0.000000  1
  Be  Be7  1  0.121565  0.380910  0.000000  1
  Be  Be8  1  0.878753  0.620262  0.000000  1
  Be  Be9  1  0.618942  0.122104  0.000000  1
  Ir  Ir10  1  0.073571  0.215660  0.500000  1
  Ir  Ir11  1  0.999636  0.500656  0.500000  1
  Ir  Ir12  1  0.499834  0.999715  0.500000  1
  Ir  Ir13  1  0.784513  0.073720  0.500000  1
  Rh  Rh14  1  0.215710  0.926354  0.500000  1
  Rh  Rh15  1  0.926169  0.784494  0.500000  1
  Rh  Rh16  1  0.427119  0.714868  0.500000  1
  Rh  Rh17  1  0.571757  0.285595  0.500000  1
  Rh  Rh18  1  0.714432  0.572890  0.500000  1
  Rh  Rh19  1  0.285230  0.428199  0.500000  1
