# generated using pymatgen
data_Sm3Tm17Pt16
_symmetry_space_group_name_H-M   'P 1'
_cell_length_a   7.44667756
_cell_length_b   7.51758105
_cell_length_c   14.66410357
_cell_angle_alpha   90.01278453
_cell_angle_beta   89.95318900
_cell_angle_gamma   89.92587373
_symmetry_Int_Tables_number   1
_chemical_formula_structural   Sm3Tm17Pt16
_chemical_formula_sum   'Sm3 Tm17 Pt16'
_cell_volume   820.91023160
_cell_formula_units_Z   1
loop_
 _symmetry_equiv_pos_site_id
 _symmetry_equiv_pos_as_xyz
  1  'x, y, z'
loop_
 _atom_site_type_symbol
 _atom_site_label
 _atom_site_symmetry_multiplicity
 _atom_site_fract_x
 _atom_site_fract_y
 _atom_site_fract_z
 _atom_site_occupancy
  Sm  Sm0  1  0.499743  0.322850  0.907550  1
  Sm  Sm1  1  0.499740  0.677355  0.408146  1
  Sm  Sm2  1  0.999980  0.822891  0.091746  1
  Tm  Tm3  1  0.680681  0.990353  0.250493  1
  Tm  Tm4  1  0.180812  0.509867  0.250184  1
  Tm  Tm5  1  0.819170  0.489992  0.748892  1
  Tm  Tm6  1  0.318992  0.009700  0.749170  1
  Tm  Tm7  1  0.658463  0.834362  0.622581  1
  Tm  Tm8  1  0.156065  0.666883  0.876022  1
  Tm  Tm9  1  0.845500  0.332145  0.377718  1
  Tm  Tm10  1  0.343925  0.166981  0.123215  1
  Tm  Tm11  1  0.343951  0.167419  0.378359  1
  Tm  Tm12  1  0.844303  0.332067  0.122179  1
  Tm  Tm13  1  0.155316  0.668216  0.621720  1
  Tm  Tm14  1  0.655769  0.832064  0.877391  1
  Tm  Tm15  1  0.997902  0.821715  0.406730  1
  Tm  Tm16  1  0.497208  0.680494  0.094300  1
  Tm  Tm17  1  0.502868  0.318053  0.593935  1
  Tm  Tm18  1  0.002389  0.181194  0.905737  1
  Tm  Tm19  1  0.001777  0.179476  0.592533  1
  Pt  Pt20  1  0.817526  0.642332  0.251682  1
  Pt  Pt21  1  0.317401  0.857513  0.249230  1
  Pt  Pt22  1  0.684508  0.142449  0.747572  1
  Pt  Pt23  1  0.179795  0.355405  0.748506  1
  Pt  Pt24  1  0.546667  0.383364  0.249081  1
  Pt  Pt25  1  0.046256  0.116429  0.251323  1
  Pt  Pt26  1  0.954352  0.885795  0.750021  1
  Pt  Pt27  1  0.452635  0.615570  0.748263  1
  Pt  Pt28  1  0.816448  0.529402  0.543965  1
  Pt  Pt29  1  0.314900  0.964696  0.958061  1
  Pt  Pt30  1  0.685739  0.036873  0.459982  1
  Pt  Pt31  1  0.185237  0.465492  0.041751  1
  Pt  Pt32  1  0.179022  0.463656  0.459283  1
  Pt  Pt33  1  0.679040  0.033582  0.041858  1
  Pt  Pt34  1  0.314615  0.970247  0.543110  1
  Pt  Pt35  1  0.821307  0.533119  0.957711  1
