# generated using pymatgen
data_Dy4LuV3(P3Ir4)4
_symmetry_space_group_name_H-M   'P 1'
_cell_length_a   12.68475500
_cell_length_b   12.68475605
_cell_length_c   3.95599800
_cell_angle_alpha   90.00000000
_cell_angle_beta   90.00000000
_cell_angle_gamma   119.99999986
_symmetry_Int_Tables_number   1
_chemical_formula_structural   Dy4LuV3(P3Ir4)4
_chemical_formula_sum   'Dy4 Lu1 V3 P12 Ir16'
_cell_volume   551.25291459
_cell_formula_units_Z   1
loop_
 _symmetry_equiv_pos_site_id
 _symmetry_equiv_pos_as_xyz
  1  'x, y, z'
loop_
 _atom_site_type_symbol
 _atom_site_label
 _atom_site_symmetry_multiplicity
 _atom_site_fract_x
 _atom_site_fract_y
 _atom_site_fract_z
 _atom_site_occupancy
  Dy  Dy0  1  0.666667  0.333333  0.500000  1
  Dy  Dy1  1  0.999960  0.811369  0.000000  1
  Dy  Dy2  1  0.188631  0.188591  0.000000  1
  Dy  Dy3  1  0.811409  0.000040  0.000000  1
  Lu  Lu4  1  0.333333  0.666667  0.500000  1
  V  V5  1  0.000066  0.451020  0.500000  1
  V  V6  1  0.548980  0.549046  0.500000  1
  V  V7  1  0.450954  0.999934  0.500000  1
  P  P8  1  0.999817  0.635497  0.500000  1
  P  P9  1  0.364503  0.364320  0.500000  1
  P  P10  1  0.635680  0.000183  0.500000  1
  P  P11  1  0.516086  0.683892  0.000000  1
  P  P12  1  0.316108  0.832194  0.000000  1
  P  P13  1  0.167806  0.483914  0.000000  1
  P  P14  1  0.483158  0.166820  0.000000  1
  P  P15  1  0.683661  0.516842  0.000000  1
  P  P16  1  0.833180  0.316339  0.000000  1
  P  P17  1  0.000146  0.177379  0.500000  1
  P  P18  1  0.822621  0.822768  0.500000  1
  P  P19  1  0.177232  0.999854  0.500000  1
  Ir  Ir20  1  0.507844  0.865655  0.000000  1
  Ir  Ir21  1  0.134345  0.642190  0.000000  1
  Ir  Ir22  1  0.357810  0.492156  0.000000  1
  Ir  Ir23  1  0.490379  0.358102  0.000000  1
  Ir  Ir24  1  0.867723  0.509621  0.000000  1
  Ir  Ir25  1  0.641898  0.132277  0.000000  1
  Ir  Ir26  1  0.000282  0.285454  0.000000  1
  Ir  Ir27  1  0.714546  0.714828  0.000000  1
  Ir  Ir28  1  0.285172  0.999718  0.000000  1
  Ir  Ir29  1  0.624720  0.803778  0.500000  1
  Ir  Ir30  1  0.196222  0.820942  0.500000  1
  Ir  Ir31  1  0.179058  0.375280  0.500000  1
  Ir  Ir32  1  0.374698  0.178578  0.500000  1
  Ir  Ir33  1  0.803881  0.625302  0.500000  1
  Ir  Ir34  1  0.821422  0.196119  0.500000  1
  Ir  Ir35  1  0.000000  0.000000  0.500000  1
