# generated using pymatgen
data_Y3TmMn4(Co4P3)4
_symmetry_space_group_name_H-M   'P 1'
_cell_length_a   3.64926500
_cell_length_b   10.32078856
_cell_length_c   11.81442464
_cell_angle_alpha   90.03778806
_cell_angle_beta   90.00000000
_cell_angle_gamma   90.00000000
_symmetry_Int_Tables_number   1
_chemical_formula_structural   Y3TmMn4(Co4P3)4
_chemical_formula_sum   'Y3 Tm1 Mn4 Co16 P12'
_cell_volume   444.97003388
_cell_formula_units_Z   1
loop_
 _symmetry_equiv_pos_site_id
 _symmetry_equiv_pos_as_xyz
  1  'x, y, z'
loop_
 _atom_site_type_symbol
 _atom_site_label
 _atom_site_symmetry_multiplicity
 _atom_site_fract_x
 _atom_site_fract_y
 _atom_site_fract_z
 _atom_site_occupancy
  Y  Y0  1  0.750000  0.081826  0.795740  1
  Y  Y1  1  0.750000  0.417714  0.295899  1
  Y  Y2  1  0.250000  0.582139  0.704123  1
  Tm  Tm3  1  0.250000  0.918108  0.204070  1
  Mn  Mn4  1  0.250000  0.790435  0.488684  1
  Mn  Mn5  1  0.750000  0.210147  0.511155  1
  Mn  Mn6  1  0.750000  0.291414  0.011247  1
  Mn  Mn7  1  0.250000  0.709372  0.989260  1
  Co  Co8  1  0.250000  0.093042  0.988609  1
  Co  Co9  1  0.750000  0.906194  0.013739  1
  Co  Co10  1  0.750000  0.593636  0.511621  1
  Co  Co11  1  0.250000  0.406223  0.488090  1
  Co  Co12  1  0.250000  0.278738  0.676132  1
  Co  Co13  1  0.750000  0.722002  0.323165  1
  Co  Co14  1  0.750000  0.779240  0.823680  1
  Co  Co15  1  0.250000  0.220778  0.176962  1
  Co  Co16  1  0.250000  0.617780  0.199017  1
  Co  Co17  1  0.750000  0.382992  0.801125  1
  Co  Co18  1  0.750000  0.115434  0.300324  1
  Co  Co19  1  0.250000  0.883401  0.698815  1
  Co  Co20  1  0.250000  0.033613  0.431431  1
  Co  Co21  1  0.750000  0.965787  0.566621  1
  Co  Co22  1  0.750000  0.535239  0.067816  1
  Co  Co23  1  0.250000  0.465606  0.932823  1
  P  P24  1  0.250000  0.080981  0.611651  1
  P  P25  1  0.750000  0.919284  0.386122  1
  P  P26  1  0.750000  0.580997  0.887463  1
  P  P27  1  0.250000  0.419713  0.113165  1
  P  P28  1  0.250000  0.229948  0.368448  1
  P  P29  1  0.750000  0.770050  0.632079  1
  P  P30  1  0.750000  0.731733  0.132850  1
  P  P31  1  0.250000  0.269646  0.867384  1
  P  P32  1  0.250000  0.899514  0.891643  1
  P  P33  1  0.750000  0.098188  0.109651  1
  P  P34  1  0.750000  0.398594  0.608016  1
  P  P35  1  0.250000  0.600494  0.391379  1
