# generated using pymatgen
data_Lu8TcB24MoOs2
_symmetry_space_group_name_H-M   'P 1'
_cell_length_a   3.59784100
_cell_length_b   9.07133191
_cell_length_c   11.43859119
_cell_angle_alpha   89.87570594
_cell_angle_beta   90.00000000
_cell_angle_gamma   90.00000000
_symmetry_Int_Tables_number   1
_chemical_formula_structural   Lu8TcB24MoOs2
_chemical_formula_sum   'Lu8 Tc1 B24 Mo1 Os2'
_cell_volume   373.32282272
_cell_formula_units_Z   1
loop_
 _symmetry_equiv_pos_site_id
 _symmetry_equiv_pos_as_xyz
  1  'x, y, z'
loop_
 _atom_site_type_symbol
 _atom_site_label
 _atom_site_symmetry_multiplicity
 _atom_site_fract_x
 _atom_site_fract_y
 _atom_site_fract_z
 _atom_site_occupancy
  Lu  Lu0  1  0.000000  0.323904  0.413942  1
  Lu  Lu1  1  0.000000  0.678044  0.584174  1
  Lu  Lu2  1  0.000000  0.819963  0.087786  1
  Lu  Lu3  1  0.000000  0.178957  0.913537  1
  Lu  Lu4  1  0.000000  0.941628  0.371174  1
  Lu  Lu5  1  0.000000  0.055417  0.627827  1
  Lu  Lu6  1  0.000000  0.443803  0.129719  1
  Lu  Lu7  1  0.000000  0.557412  0.872332  1
  Tc  Tc8  1  0.000000  0.639009  0.319300  1
  B  B9  1  0.500000  0.553211  0.432566  1
  B  B10  1  0.500000  0.449475  0.564160  1
  B  B11  1  0.500000  0.053270  0.066282  1
  B  B12  1  0.500000  0.946698  0.934035  1
  B  B13  1  0.500000  0.749306  0.419387  1
  B  B14  1  0.500000  0.248245  0.577598  1
  B  B15  1  0.500000  0.249834  0.080695  1
  B  B16  1  0.500000  0.750487  0.919881  1
  B  B17  1  0.500000  0.792767  0.264767  1
  B  B18  1  0.500000  0.204270  0.736409  1
  B  B19  1  0.500000  0.291670  0.234731  1
  B  B20  1  0.500000  0.708869  0.765867  1
  B  B21  1  0.500000  0.631204  0.184077  1
  B  B22  1  0.500000  0.368961  0.818305  1
  B  B23  1  0.500000  0.130094  0.314709  1
  B  B24  1  0.500000  0.869611  0.685365  1
  B  B25  1  0.500000  0.981274  0.211870  1
  B  B26  1  0.500000  0.018020  0.788049  1
  B  B27  1  0.500000  0.481156  0.287269  1
  B  B28  1  0.500000  0.523149  0.712970  1
  B  B29  1  0.500000  0.602240  0.028621  1
  B  B30  1  0.500000  0.398235  0.973018  1
  B  B31  1  0.500000  0.101294  0.470455  1
  B  B32  1  0.500000  0.897031  0.528487  1
  Mo  Mo33  1  0.000000  0.361553  0.679854  1
  Os  Os34  1  0.000000  0.137575  0.178440  1
  Os  Os35  1  0.000000  0.862360  0.822337  1
