# generated using pymatgen
data_Sr20(CdAu3)3
_symmetry_space_group_name_H-M   'P 1'
_cell_length_a   8.55298700
_cell_length_b   8.55298700
_cell_length_c   15.62923000
_cell_angle_alpha   90.00000000
_cell_angle_beta   90.00000000
_cell_angle_gamma   90.00000000
_symmetry_Int_Tables_number   1
_chemical_formula_structural   Sr20(CdAu3)3
_chemical_formula_sum   'Sr20 Cd3 Au9'
_cell_volume   1143.33423064
_cell_formula_units_Z   1
loop_
 _symmetry_equiv_pos_site_id
 _symmetry_equiv_pos_as_xyz
  1  'x, y, z'
loop_
 _atom_site_type_symbol
 _atom_site_label
 _atom_site_symmetry_multiplicity
 _atom_site_fract_x
 _atom_site_fract_y
 _atom_site_fract_z
 _atom_site_occupancy
  Sr  Sr0  1  0.000000  0.000000  0.754539  1
  Sr  Sr1  1  0.500000  0.500000  0.249838  1
  Sr  Sr2  1  0.000000  0.000000  0.245461  1
  Sr  Sr3  1  0.500000  0.500000  0.750162  1
  Sr  Sr4  1  0.171693  0.657498  0.107813  1
  Sr  Sr5  1  0.663756  0.164563  0.611844  1
  Sr  Sr6  1  0.828307  0.342502  0.107813  1
  Sr  Sr7  1  0.336244  0.835437  0.611844  1
  Sr  Sr8  1  0.342502  0.171693  0.107813  1
  Sr  Sr9  1  0.835437  0.663756  0.611844  1
  Sr  Sr10  1  0.657498  0.828307  0.107813  1
  Sr  Sr11  1  0.164563  0.336244  0.611844  1
  Sr  Sr12  1  0.342502  0.828307  0.892187  1
  Sr  Sr13  1  0.835437  0.336244  0.388156  1
  Sr  Sr14  1  0.657498  0.171693  0.892187  1
  Sr  Sr15  1  0.164563  0.663756  0.388156  1
  Sr  Sr16  1  0.171693  0.342502  0.892187  1
  Sr  Sr17  1  0.663756  0.835437  0.388156  1
  Sr  Sr18  1  0.828307  0.657498  0.892187  1
  Sr  Sr19  1  0.336244  0.164563  0.388156  1
  Cd  Cd20  1  0.000000  0.000000  0.500000  1
  Cd  Cd21  1  0.000000  0.000000  0.000000  1
  Cd  Cd22  1  0.500000  0.500000  0.500000  1
  Au  Au23  1  0.630432  0.130402  0.248384  1
  Au  Au24  1  0.130402  0.630432  0.751616  1
  Au  Au25  1  0.869598  0.369568  0.751616  1
  Au  Au26  1  0.369568  0.869598  0.248384  1
  Au  Au27  1  0.369568  0.130402  0.751616  1
  Au  Au28  1  0.869598  0.630432  0.248384  1
  Au  Au29  1  0.130402  0.369568  0.248384  1
  Au  Au30  1  0.630432  0.869598  0.751616  1
  Au  Au31  1  0.500000  0.500000  0.000000  1
