# generated using pymatgen
data_Sc3As3IrRu2
_symmetry_space_group_name_H-M   'P 1'
_cell_length_a   6.66361507
_cell_length_b   6.65437273
_cell_length_c   3.87232400
_cell_angle_alpha   90.00000000
_cell_angle_beta   90.00000000
_cell_angle_gamma   119.95412014
_symmetry_Int_Tables_number   1
_chemical_formula_structural   Sc3As3IrRu2
_chemical_formula_sum   'Sc3 As3 Ir1 Ru2'
_cell_volume   148.77156796
_cell_formula_units_Z   1
loop_
 _symmetry_equiv_pos_site_id
 _symmetry_equiv_pos_as_xyz
  1  'x, y, z'
loop_
 _atom_site_type_symbol
 _atom_site_label
 _atom_site_symmetry_multiplicity
 _atom_site_fract_x
 _atom_site_fract_y
 _atom_site_fract_z
 _atom_site_occupancy
  Sc  Sc0  1  0.415406  0.414738  0.500000  1
  Sc  Sc1  1  0.584594  0.999332  0.500000  1
  Sc  Sc2  1  0.000000  0.581795  0.500000  1
  As  As3  1  0.664673  0.334550  0.000000  1
  As  As4  1  0.335327  0.669879  0.000000  1
  As  As5  1  0.000000  0.994374  0.500000  1
  Ir  Ir6  1  0.000000  0.246169  0.000000  1
  Ru  Ru7  1  0.243623  0.001392  0.000000  1
  Ru  Ru8  1  0.756377  0.757769  0.000000  1
