# generated using pymatgen
data_Gd12Ni4HgPd
_symmetry_space_group_name_H-M   'P 1'
_cell_length_a   8.56508376
_cell_length_b   8.56508391
_cell_length_c   8.56508200
_cell_angle_alpha   107.54861134
_cell_angle_beta   110.21129812
_cell_angle_gamma   110.67103817
_symmetry_Int_Tables_number   1
_chemical_formula_structural   Gd12Ni4HgPd
_chemical_formula_sum   'Gd12 Ni4 Hg1 Pd1'
_cell_volume   483.28154871
_cell_formula_units_Z   1
loop_
 _symmetry_equiv_pos_site_id
 _symmetry_equiv_pos_as_xyz
  1  'x, y, z'
loop_
 _atom_site_type_symbol
 _atom_site_label
 _atom_site_symmetry_multiplicity
 _atom_site_fract_x
 _atom_site_fract_y
 _atom_site_fract_z
 _atom_site_occupancy
  Gd  Gd0  1  0.694173  0.285744  0.979915  1
  Gd  Gd1  1  0.305827  0.714256  0.020085  1
  Gd  Gd2  1  0.694173  0.714256  0.408429  1
  Gd  Gd3  1  0.305827  0.285744  0.591571  1
  Gd  Gd4  1  0.806891  0.129008  0.322117  1
  Gd  Gd5  1  0.806891  0.484774  0.677883  1
  Gd  Gd6  1  0.193109  0.870992  0.677883  1
  Gd  Gd7  1  0.193109  0.515226  0.322117  1
  Gd  Gd8  1  0.614005  0.796687  0.817318  1
  Gd  Gd9  1  0.979370  0.796687  0.182682  1
  Gd  Gd10  1  0.020630  0.203313  0.817318  1
  Gd  Gd11  1  0.385995  0.203313  0.182682  1
  Ni  Ni12  1  0.868040  0.500000  0.368040  1
  Ni  Ni13  1  0.131960  0.500000  0.631960  1
  Ni  Ni14  1  0.000000  0.121760  0.121760  1
  Ni  Ni15  1  0.000000  0.878240  0.878240  1
  Hg  Hg16  1  0.500000  0.000000  0.500000  1
  Pd  Pd17  1  0.500000  0.500000  0.000000  1
