# generated using pymatgen
data_SmDyB6Ru
_symmetry_space_group_name_H-M   'P 1'
_cell_length_a   3.69957400
_cell_length_b   9.20176400
_cell_length_c   11.60469700
_cell_angle_alpha   90.00000000
_cell_angle_beta   90.00000000
_cell_angle_gamma   90.00000000
_symmetry_Int_Tables_number   1
_chemical_formula_structural   SmDyB6Ru
_chemical_formula_sum   'Sm4 Dy4 B24 Ru4'
_cell_volume   395.05413757
_cell_formula_units_Z   4
loop_
 _symmetry_equiv_pos_site_id
 _symmetry_equiv_pos_as_xyz
  1  'x, y, z'
loop_
 _atom_site_type_symbol
 _atom_site_label
 _atom_site_symmetry_multiplicity
 _atom_site_fract_x
 _atom_site_fract_y
 _atom_site_fract_z
 _atom_site_occupancy
  Sm  Sm0  1  0.000000  0.323418  0.414068  1
  Sm  Sm1  1  0.000000  0.676582  0.585932  1
  Sm  Sm2  1  0.000000  0.823418  0.085932  1
  Sm  Sm3  1  0.000000  0.176582  0.914068  1
  Dy  Dy4  1  0.000000  0.943972  0.371985  1
  Dy  Dy5  1  0.000000  0.056028  0.628015  1
  Dy  Dy6  1  0.000000  0.443972  0.128015  1
  Dy  Dy7  1  0.000000  0.556028  0.871985  1
  B  B8  1  0.500000  0.555353  0.431595  1
  B  B9  1  0.500000  0.444647  0.568405  1
  B  B10  1  0.500000  0.055353  0.068405  1
  B  B11  1  0.500000  0.944647  0.931595  1
  B  B12  1  0.500000  0.748632  0.418603  1
  B  B13  1  0.500000  0.251368  0.581397  1
  B  B14  1  0.500000  0.248632  0.081397  1
  B  B15  1  0.500000  0.751368  0.918603  1
  B  B16  1  0.500000  0.790707  0.266781  1
  B  B17  1  0.500000  0.209293  0.733219  1
  B  B18  1  0.500000  0.290707  0.233219  1
  B  B19  1  0.500000  0.709293  0.766781  1
  B  B20  1  0.500000  0.631893  0.185384  1
  B  B21  1  0.500000  0.368107  0.814616  1
  B  B22  1  0.500000  0.131893  0.314616  1
  B  B23  1  0.500000  0.868107  0.685384  1
  B  B24  1  0.500000  0.985455  0.213534  1
  B  B25  1  0.500000  0.014545  0.786466  1
  B  B26  1  0.500000  0.485455  0.286466  1
  B  B27  1  0.500000  0.514545  0.713534  1
  B  B28  1  0.500000  0.605696  0.029095  1
  B  B29  1  0.500000  0.394304  0.970905  1
  B  B30  1  0.500000  0.105696  0.470905  1
  B  B31  1  0.500000  0.894304  0.529095  1
  Ru  Ru32  1  0.000000  0.638843  0.320400  1
  Ru  Ru33  1  0.000000  0.361157  0.679600  1
  Ru  Ru34  1  0.000000  0.138843  0.179600  1
  Ru  Ru35  1  0.000000  0.861157  0.820400  1
