# generated using pymatgen
data_Ho5Pa(SnRh)6
_symmetry_space_group_name_H-M   'P 1'
_cell_length_a   7.61089882
_cell_length_b   7.52909676
_cell_length_c   7.70541200
_cell_angle_alpha   90.00000000
_cell_angle_beta   90.00000000
_cell_angle_gamma   120.27351403
_symmetry_Int_Tables_number   1
_chemical_formula_structural   Ho5Pa(SnRh)6
_chemical_formula_sum   'Ho5 Pa1 Sn6 Rh6'
_cell_volume   381.33068222
_cell_formula_units_Z   1
loop_
 _symmetry_equiv_pos_site_id
 _symmetry_equiv_pos_as_xyz
  1  'x, y, z'
loop_
 _atom_site_type_symbol
 _atom_site_label
 _atom_site_symmetry_multiplicity
 _atom_site_fract_x
 _atom_site_fract_y
 _atom_site_fract_z
 _atom_site_occupancy
  Ho  Ho0  1  0.400491  0.402959  0.750000  1
  Ho  Ho1  1  0.003758  0.600135  0.750000  1
  Ho  Ho2  1  0.595468  0.002278  0.250000  1
  Ho  Ho3  1  0.410438  0.407751  0.250000  1
  Ho  Ho4  1  0.001269  0.591820  0.250000  1
  Pa  Pa5  1  0.584069  0.997798  0.750000  1
  Sn  Sn6  1  0.252557  0.000823  0.004662  1
  Sn  Sn7  1  0.740140  0.731665  0.500259  1
  Sn  Sn8  1  0.006507  0.267269  0.499987  1
  Sn  Sn9  1  0.006507  0.267269  0.000013  1
  Sn  Sn10  1  0.740140  0.731665  0.999741  1
  Sn  Sn11  1  0.252557  0.000823  0.495338  1
  Rh  Rh12  1  0.663108  0.313001  0.979763  1
  Rh  Rh13  1  0.663108  0.313001  0.520237  1
  Rh  Rh14  1  0.349333  0.685782  0.987237  1
  Rh  Rh15  1  0.349333  0.685782  0.512763  1
  Rh  Rh16  1  0.987531  0.000190  0.750000  1
  Rh  Rh17  1  0.993682  0.999988  0.250000  1
