# generated using pymatgen
data_NdGdB5
_symmetry_space_group_name_H-M   'P 1'
_cell_length_a   7.20877148
_cell_length_b   7.22426802
_cell_length_c   7.24515131
_cell_angle_alpha   89.99265730
_cell_angle_beta   102.60744291
_cell_angle_gamma   89.99851750
_symmetry_Int_Tables_number   1
_chemical_formula_structural   NdGdB5
_chemical_formula_sum   'Nd4 Gd4 B20'
_cell_volume   368.21606005
_cell_formula_units_Z   4
loop_
 _symmetry_equiv_pos_site_id
 _symmetry_equiv_pos_as_xyz
  1  'x, y, z'
loop_
 _atom_site_type_symbol
 _atom_site_label
 _atom_site_symmetry_multiplicity
 _atom_site_fract_x
 _atom_site_fract_y
 _atom_site_fract_z
 _atom_site_occupancy
  Nd  Nd0  1  0.226528  0.189466  0.127057  1
  Nd  Nd1  1  0.773462  0.689454  0.372947  1
  Nd  Nd2  1  0.773471  0.810535  0.872941  1
  Nd  Nd3  1  0.226538  0.310545  0.627055  1
  Gd  Gd4  1  0.246315  0.815688  0.755495  1
  Gd  Gd5  1  0.753772  0.315669  0.744501  1
  Gd  Gd6  1  0.753687  0.184311  0.244505  1
  Gd  Gd7  1  0.246228  0.684330  0.255499  1
  B  B8  1  0.077119  0.988416  0.430515  1
  B  B9  1  0.922888  0.488370  0.069484  1
  B  B10  1  0.922881  0.011583  0.569486  1
  B  B11  1  0.077112  0.511630  0.930516  1
  B  B12  1  0.684231  0.004182  0.537870  1
  B  B13  1  0.315776  0.504210  0.962117  1
  B  B14  1  0.315768  0.995817  0.462130  1
  B  B15  1  0.684224  0.495791  0.037884  1
  B  B16  1  0.502357  0.672486  0.039884  1
  B  B17  1  0.497644  0.172486  0.460099  1
  B  B18  1  0.497643  0.327513  0.960116  1
  B  B19  1  0.502357  0.827513  0.539900  1
  B  B20  1  0.501258  0.090491  0.909805  1
  B  B21  1  0.498732  0.590491  0.590198  1
  B  B22  1  0.498741  0.909510  0.090196  1
  B  B23  1  0.501268  0.409508  0.409801  1
  B  B24  1  0.502738  0.038935  0.672830  1
  B  B25  1  0.497262  0.538950  0.827174  1
  B  B26  1  0.497262  0.961065  0.327170  1
  B  B27  1  0.502738  0.461051  0.172827  1
