# generated using pymatgen
data_Sm8Be3Si12Rh
_symmetry_space_group_name_H-M   'P 1'
_cell_length_a   8.00010700
_cell_length_b   8.00010647
_cell_length_c   8.36725600
_cell_angle_alpha   90.00000000
_cell_angle_beta   90.00000000
_cell_angle_gamma   120.00000631
_symmetry_Int_Tables_number   1
_chemical_formula_structural   Sm8Be3Si12Rh
_chemical_formula_sum   'Sm8 Be3 Si12 Rh1'
_cell_volume   463.77274615
_cell_formula_units_Z   1
loop_
 _symmetry_equiv_pos_site_id
 _symmetry_equiv_pos_as_xyz
  1  'x, y, z'
loop_
 _atom_site_type_symbol
 _atom_site_label
 _atom_site_symmetry_multiplicity
 _atom_site_fract_x
 _atom_site_fract_y
 _atom_site_fract_z
 _atom_site_occupancy
  Sm  Sm0  1  0.000000  0.000000  0.251386  1
  Sm  Sm1  1  0.000000  0.000000  0.748722  1
  Sm  Sm2  1  0.500557  0.499443  0.251589  1
  Sm  Sm3  1  0.500557  0.001115  0.251589  1
  Sm  Sm4  1  0.998885  0.499443  0.251589  1
  Sm  Sm5  1  0.500026  0.499974  0.748569  1
  Sm  Sm6  1  0.500026  0.000051  0.748569  1
  Sm  Sm7  1  0.999949  0.499974  0.748569  1
  Be  Be8  1  0.333333  0.666667  0.498071  1
  Be  Be9  1  0.666667  0.333333  0.501896  1
  Be  Be10  1  0.666667  0.333333  0.998646  1
  Si  Si11  1  0.172622  0.827378  0.500019  1
  Si  Si12  1  0.172622  0.345244  0.500019  1
  Si  Si13  1  0.654756  0.827378  0.500019  1
  Si  Si14  1  0.827908  0.172092  0.500142  1
  Si  Si15  1  0.827908  0.655817  0.500142  1
  Si  Si16  1  0.344183  0.172092  0.500142  1
  Si  Si17  1  0.830406  0.169594  0.999824  1
  Si  Si18  1  0.830406  0.660811  0.999824  1
  Si  Si19  1  0.339189  0.169594  0.999824  1
  Si  Si20  1  0.168986  0.831014  0.000060  1
  Si  Si21  1  0.168986  0.337972  0.000060  1
  Si  Si22  1  0.662028  0.831014  0.000060  1
  Rh  Rh23  1  0.333333  0.666667  0.000670  1
