# generated using pymatgen
data_Sc2Mn3Ni9P7
_symmetry_space_group_name_H-M   'P 1'
_cell_length_a   9.06127400
_cell_length_b   9.06127445
_cell_length_c   3.59008800
_cell_angle_alpha   90.00000000
_cell_angle_beta   90.00000000
_cell_angle_gamma   119.99999834
_symmetry_Int_Tables_number   1
_chemical_formula_structural   Sc2Mn3Ni9P7
_chemical_formula_sum   'Sc2 Mn3 Ni9 P7'
_cell_volume   255.27852449
_cell_formula_units_Z   1
loop_
 _symmetry_equiv_pos_site_id
 _symmetry_equiv_pos_as_xyz
  1  'x, y, z'
loop_
 _atom_site_type_symbol
 _atom_site_label
 _atom_site_symmetry_multiplicity
 _atom_site_fract_x
 _atom_site_fract_y
 _atom_site_fract_z
 _atom_site_occupancy
  Sc  Sc0  1  0.333333  0.666667  0.000000  1
  Sc  Sc1  1  0.666667  0.333333  0.500000  1
  Mn  Mn2  1  0.223032  0.126086  0.500000  1
  Mn  Mn3  1  0.873914  0.096946  0.500000  1
  Mn  Mn4  1  0.903054  0.776968  0.500000  1
  Ni  Ni5  1  0.121685  0.279596  0.000000  1
  Ni  Ni6  1  0.720404  0.842088  0.000000  1
  Ni  Ni7  1  0.157912  0.878315  0.000000  1
  Ni  Ni8  1  0.436461  0.374205  0.000000  1
  Ni  Ni9  1  0.625795  0.062257  0.000000  1
  Ni  Ni10  1  0.937743  0.563539  0.000000  1
  Ni  Ni11  1  0.053326  0.438454  0.500000  1
  Ni  Ni12  1  0.561546  0.614872  0.500000  1
  Ni  Ni13  1  0.385128  0.946674  0.500000  1
  P  P14  1  0.291195  0.411488  0.500000  1
  P  P15  1  0.588512  0.879707  0.500000  1
  P  P16  1  0.120293  0.708805  0.500000  1
  P  P17  1  0.412645  0.119894  0.000000  1
  P  P18  1  0.880106  0.292751  0.000000  1
  P  P19  1  0.707249  0.587355  0.000000  1
  P  P20  1  0.000000  0.000000  0.000000  1
