# generated using pymatgen
data_ErLu5Bi2W
_symmetry_space_group_name_H-M   'P 1'
_cell_length_a   8.12532354
_cell_length_b   8.12532502
_cell_length_c   4.36658900
_cell_angle_alpha   90.00000000
_cell_angle_beta   90.00000000
_cell_angle_gamma   120.00379470
_symmetry_Int_Tables_number   1
_chemical_formula_structural   ErLu5Bi2W
_chemical_formula_sum   'Er1 Lu5 Bi2 W1'
_cell_volume   249.65354960
_cell_formula_units_Z   1
loop_
 _symmetry_equiv_pos_site_id
 _symmetry_equiv_pos_as_xyz
  1  'x, y, z'
loop_
 _atom_site_type_symbol
 _atom_site_label
 _atom_site_symmetry_multiplicity
 _atom_site_fract_x
 _atom_site_fract_y
 _atom_site_fract_z
 _atom_site_occupancy
  Er  Er0  1  0.385071  0.385071  0.000000  1
  Lu  Lu1  1  0.234201  0.999337  0.500000  1
  Lu  Lu2  1  0.999337  0.234201  0.500000  1
  Lu  Lu3  1  0.763639  0.763639  0.500000  1
  Lu  Lu4  1  0.618755  0.000281  0.000000  1
  Lu  Lu5  1  0.000281  0.618755  0.000000  1
  Bi  Bi6  1  0.332551  0.667578  0.500000  1
  Bi  Bi7  1  0.667578  0.332551  0.500000  1
  W  W8  1  0.998584  0.998584  0.000000  1
