# generated using pymatgen
data_HoTm5Lu10(CdPt)4
_symmetry_space_group_name_H-M   'P 1'
_cell_length_a   9.51084174
_cell_length_b   9.51084284
_cell_length_c   9.51778200
_cell_angle_alpha   59.97585495
_cell_angle_beta   59.97585113
_cell_angle_gamma   59.92697816
_symmetry_Int_Tables_number   1
_chemical_formula_structural   HoTm5Lu10(CdPt)4
_chemical_formula_sum   'Ho1 Tm5 Lu10 Cd4 Pt4'
_cell_volume   608.21908101
_cell_formula_units_Z   1
loop_
 _symmetry_equiv_pos_site_id
 _symmetry_equiv_pos_as_xyz
  1  'x, y, z'
loop_
 _atom_site_type_symbol
 _atom_site_label
 _atom_site_symmetry_multiplicity
 _atom_site_fract_x
 _atom_site_fract_y
 _atom_site_fract_z
 _atom_site_occupancy
  Ho  Ho0  1  0.186046  0.186046  0.813954  1
  Tm  Tm1  1  0.185515  0.813860  0.814430  1
  Tm  Tm2  1  0.813860  0.185515  0.186195  1
  Tm  Tm3  1  0.813860  0.185515  0.814430  1
  Tm  Tm4  1  0.185515  0.813860  0.186195  1
  Tm  Tm5  1  0.814779  0.814779  0.185221  1
  Lu  Lu6  1  0.602261  0.602261  0.601084  1
  Lu  Lu7  1  0.602261  0.602261  0.194393  1
  Lu  Lu8  1  0.603947  0.191778  0.602137  1
  Lu  Lu9  1  0.191778  0.603947  0.602137  1
  Lu  Lu10  1  0.060610  0.439500  0.439234  1
  Lu  Lu11  1  0.439500  0.060610  0.060656  1
  Lu  Lu12  1  0.439500  0.060610  0.439234  1
  Lu  Lu13  1  0.060610  0.439500  0.060656  1
  Lu  Lu14  1  0.439589  0.439589  0.060411  1
  Lu  Lu15  1  0.060882  0.060882  0.439118  1
  Cd  Cd16  1  0.831635  0.831635  0.831603  1
  Cd  Cd17  1  0.831635  0.831635  0.505127  1
  Cd  Cd18  1  0.831625  0.505036  0.831669  1
  Cd  Cd19  1  0.505036  0.831625  0.831669  1
  Pt  Pt20  1  0.393036  0.393036  0.393529  1
  Pt  Pt21  1  0.393036  0.393036  0.820398  1
  Pt  Pt22  1  0.392559  0.820921  0.393259  1
  Pt  Pt23  1  0.820921  0.392559  0.393259  1
