# generated using pymatgen
data_Sc4Co16Si3Mo4P9
_symmetry_space_group_name_H-M   'P 1'
_cell_length_a   3.65843300
_cell_length_b   10.31128961
_cell_length_c   11.80535010
_cell_angle_alpha   89.90431361
_cell_angle_beta   90.00000000
_cell_angle_gamma   90.00000000
_symmetry_Int_Tables_number   1
_chemical_formula_structural   Sc4Co16Si3Mo4P9
_chemical_formula_sum   'Sc4 Co16 Si3 Mo4 P9'
_cell_volume   445.33451534
_cell_formula_units_Z   1
loop_
 _symmetry_equiv_pos_site_id
 _symmetry_equiv_pos_as_xyz
  1  'x, y, z'
loop_
 _atom_site_type_symbol
 _atom_site_label
 _atom_site_symmetry_multiplicity
 _atom_site_fract_x
 _atom_site_fract_y
 _atom_site_fract_z
 _atom_site_occupancy
  Sc  Sc0  1  0.250000  0.581074  0.703422  1
  Sc  Sc1  1  0.250000  0.917473  0.205629  1
  Sc  Sc2  1  0.750000  0.418549  0.296595  1
  Sc  Sc3  1  0.750000  0.081581  0.796553  1
  Co  Co4  1  0.250000  0.408664  0.485258  1
  Co  Co5  1  0.250000  0.091659  0.985319  1
  Co  Co6  1  0.750000  0.592529  0.514098  1
  Co  Co7  1  0.750000  0.908163  0.014913  1
  Co  Co8  1  0.250000  0.213614  0.177880  1
  Co  Co9  1  0.250000  0.284987  0.676754  1
  Co  Co10  1  0.750000  0.785877  0.822799  1
  Co  Co11  1  0.750000  0.722383  0.323407  1
  Co  Co12  1  0.250000  0.883853  0.701098  1
  Co  Co13  1  0.250000  0.617620  0.203251  1
  Co  Co14  1  0.750000  0.111292  0.298429  1
  Co  Co15  1  0.750000  0.383486  0.797966  1
  Co  Co16  1  0.250000  0.463406  0.931381  1
  Co  Co17  1  0.250000  0.033853  0.429534  1
  Co  Co18  1  0.750000  0.536505  0.069512  1
  Co  Co19  1  0.750000  0.962623  0.565744  1
  Si  Si20  1  0.250000  0.419585  0.119701  1
  Si  Si21  1  0.250000  0.080510  0.618459  1
  Si  Si22  1  0.750000  0.580260  0.880924  1
  Mo  Mo23  1  0.250000  0.709157  0.989793  1
  Mo  Mo24  1  0.250000  0.790041  0.489051  1
  Mo  Mo25  1  0.750000  0.290695  0.010619  1
  Mo  Mo26  1  0.750000  0.210277  0.510077  1
  P  P27  1  0.750000  0.920638  0.382223  1
  P  P28  1  0.250000  0.265053  0.862201  1
  P  P29  1  0.250000  0.234957  0.362560  1
  P  P30  1  0.750000  0.735337  0.137367  1
  P  P31  1  0.750000  0.764751  0.637892  1
  P  P32  1  0.250000  0.593094  0.388916  1
  P  P33  1  0.250000  0.907137  0.888527  1
  P  P34  1  0.750000  0.406995  0.611052  1
  P  P35  1  0.750000  0.092324  0.111096  1
