# generated using pymatgen
data_Y3BiO7
_symmetry_space_group_name_H-M   'P 1'
_cell_length_a   6.57684515
_cell_length_b   6.55729689
_cell_length_c   7.73821932
_cell_angle_alpha   106.89725305
_cell_angle_beta   89.72020247
_cell_angle_gamma   98.67692847
_symmetry_Int_Tables_number   1
_chemical_formula_structural   Y3BiO7
_chemical_formula_sum   'Y6 Bi2 O14'
_cell_volume   315.39081495
_cell_formula_units_Z   2
loop_
 _symmetry_equiv_pos_site_id
 _symmetry_equiv_pos_as_xyz
  1  'x, y, z'
loop_
 _atom_site_type_symbol
 _atom_site_label
 _atom_site_symmetry_multiplicity
 _atom_site_fract_x
 _atom_site_fract_y
 _atom_site_fract_z
 _atom_site_occupancy
  Y  Y0  1  0.461818  0.005570  0.251514  1
  Y  Y1  1  0.538182  0.994430  0.748486  1
  Y  Y2  1  0.272199  0.537160  0.882766  1
  Y  Y3  1  0.727801  0.462840  0.117234  1
  Y  Y4  1  0.733170  0.473664  0.611964  1
  Y  Y5  1  0.266830  0.526336  0.388036  1
  Bi  Bi6  1  0.000000  0.000000  0.500000  1
  Bi  Bi7  1  0.000000  0.000000  0.000000  1
  O  O8  1  0.445620  0.649445  0.166846  1
  O  O9  1  0.554380  0.350555  0.833154  1
  O  O10  1  0.301497  0.921728  0.951164  1
  O  O11  1  0.698503  0.078272  0.048836  1
  O  O12  1  0.298553  0.923694  0.512822  1
  O  O13  1  0.701447  0.076306  0.487178  1
  O  O14  1  0.544153  0.362900  0.344044  1
  O  O15  1  0.455847  0.637100  0.655956  1
  O  O16  1  0.925198  0.666825  0.960595  1
  O  O17  1  0.074802  0.333175  0.039405  1
  O  O18  1  0.069207  0.350597  0.620115  1
  O  O19  1  0.930793  0.649403  0.379885  1
  O  O20  1  0.875444  0.902266  0.724952  1
  O  O21  1  0.124556  0.097734  0.275048  1
