# generated using pymatgen
data_BaLi2BiSb
_symmetry_space_group_name_H-M   'P 1'
_cell_length_a   4.80710300
_cell_length_b   4.84166671
_cell_length_c   11.95883634
_cell_angle_alpha   89.72069702
_cell_angle_beta   90.00000000
_cell_angle_gamma   90.00000000
_symmetry_Int_Tables_number   1
_chemical_formula_structural   BaLi2BiSb
_chemical_formula_sum   'Ba2 Li4 Bi2 Sb2'
_cell_volume   278.33132087
_cell_formula_units_Z   2
loop_
 _symmetry_equiv_pos_site_id
 _symmetry_equiv_pos_as_xyz
  1  'x, y, z'
loop_
 _atom_site_type_symbol
 _atom_site_label
 _atom_site_symmetry_multiplicity
 _atom_site_fract_x
 _atom_site_fract_y
 _atom_site_fract_z
 _atom_site_occupancy
  Ba  Ba0  1  0.250000  0.746882  0.766465  1
  Ba  Ba1  1  0.750000  0.253118  0.233535  1
  Li  Li2  1  0.750000  0.743418  0.999766  1
  Li  Li3  1  0.750000  0.245874  0.645331  1
  Li  Li4  1  0.250000  0.754126  0.354669  1
  Li  Li5  1  0.250000  0.256582  0.000234  1
  Bi  Bi6  1  0.750000  0.748161  0.500157  1
  Bi  Bi7  1  0.250000  0.251839  0.499843  1
  Sb  Sb8  1  0.250000  0.755392  0.128955  1
  Sb  Sb9  1  0.750000  0.244608  0.871045  1
