# generated using pymatgen
data_VTc6RuO24
_symmetry_space_group_name_H-M   'P 1'
_cell_length_a   10.27164082
_cell_length_b   10.27151573
_cell_length_c   10.27149900
_cell_angle_alpha   49.14566264
_cell_angle_beta   49.14530734
_cell_angle_gamma   49.14526123
_symmetry_Int_Tables_number   1
_chemical_formula_structural   VTc6RuO24
_chemical_formula_sum   'V1 Tc6 Ru1 O24'
_cell_volume   569.44412547
_cell_formula_units_Z   1
loop_
 _symmetry_equiv_pos_site_id
 _symmetry_equiv_pos_as_xyz
  1  'x, y, z'
loop_
 _atom_site_type_symbol
 _atom_site_label
 _atom_site_symmetry_multiplicity
 _atom_site_fract_x
 _atom_site_fract_y
 _atom_site_fract_z
 _atom_site_occupancy
  V  V0  1  0.500000  0.500000  0.500000  1
  Tc  Tc1  1  0.592380  0.908466  0.249259  1
  Tc  Tc2  1  0.249302  0.592366  0.908470  1
  Tc  Tc3  1  0.908440  0.249271  0.592407  1
  Tc  Tc4  1  0.750698  0.407634  0.091530  1
  Tc  Tc5  1  0.091560  0.750729  0.407593  1
  Tc  Tc6  1  0.407620  0.091534  0.750741  1
  Ru  Ru7  1  0.000000  0.000000  0.000000  1
  O  O8  1  0.819294  0.882410  0.173404  1
  O  O9  1  0.173429  0.819370  0.882373  1
  O  O10  1  0.882425  0.173476  0.819222  1
  O  O11  1  0.675251  0.381336  0.317405  1
  O  O12  1  0.317408  0.675215  0.381365  1
  O  O13  1  0.381365  0.317364  0.675273  1
  O  O14  1  0.180706  0.117590  0.826596  1
  O  O15  1  0.826571  0.180630  0.117627  1
  O  O16  1  0.117575  0.826524  0.180778  1
  O  O17  1  0.324749  0.618664  0.682595  1
  O  O18  1  0.682592  0.324785  0.618635  1
  O  O19  1  0.618635  0.682636  0.324727  1
  O  O20  1  0.435536  0.980302  0.430309  1
  O  O21  1  0.430414  0.435450  0.980272  1
  O  O22  1  0.980299  0.430337  0.435502  1
  O  O23  1  0.929521  0.482421  0.934021  1
  O  O24  1  0.934025  0.929591  0.482301  1
  O  O25  1  0.482491  0.934019  0.929503  1
  O  O26  1  0.564464  0.019698  0.569691  1
  O  O27  1  0.569586  0.564550  0.019728  1
  O  O28  1  0.019701  0.569663  0.564498  1
  O  O29  1  0.070479  0.517579  0.065979  1
  O  O30  1  0.065975  0.070409  0.517699  1
  O  O31  1  0.517509  0.065981  0.070497  1
