# generated using pymatgen
data_Dy4Co17(P4Ru)3
_symmetry_space_group_name_H-M   'P 1'
_cell_length_a   3.68188100
_cell_length_b   10.36064607
_cell_length_c   11.76515124
_cell_angle_alpha   90.05239762
_cell_angle_beta   90.00000000
_cell_angle_gamma   90.00000000
_symmetry_Int_Tables_number   1
_chemical_formula_structural   Dy4Co17(P4Ru)3
_chemical_formula_sum   'Dy4 Co17 P12 Ru3'
_cell_volume   448.80110628
_cell_formula_units_Z   1
loop_
 _symmetry_equiv_pos_site_id
 _symmetry_equiv_pos_as_xyz
  1  'x, y, z'
loop_
 _atom_site_type_symbol
 _atom_site_label
 _atom_site_symmetry_multiplicity
 _atom_site_fract_x
 _atom_site_fract_y
 _atom_site_fract_z
 _atom_site_occupancy
  Dy  Dy0  1  0.250000  0.582750  0.702080  1
  Dy  Dy1  1  0.250000  0.914670  0.204073  1
  Dy  Dy2  1  0.750000  0.413587  0.295729  1
  Dy  Dy3  1  0.750000  0.085536  0.795920  1
  Co  Co4  1  0.750000  0.216963  0.508365  1
  Co  Co5  1  0.250000  0.406347  0.488208  1
  Co  Co6  1  0.250000  0.091523  0.989069  1
  Co  Co7  1  0.750000  0.591335  0.510019  1
  Co  Co8  1  0.750000  0.908877  0.010933  1
  Co  Co9  1  0.250000  0.220179  0.177178  1
  Co  Co10  1  0.250000  0.278313  0.676350  1
  Co  Co11  1  0.750000  0.779066  0.822739  1
  Co  Co12  1  0.750000  0.721893  0.323267  1
  Co  Co13  1  0.250000  0.886815  0.701227  1
  Co  Co14  1  0.250000  0.613423  0.202604  1
  Co  Co15  1  0.750000  0.116093  0.301145  1
  Co  Co16  1  0.750000  0.386127  0.797634  1
  Co  Co17  1  0.250000  0.465040  0.930934  1
  Co  Co18  1  0.250000  0.035493  0.431928  1
  Co  Co19  1  0.750000  0.535166  0.069545  1
  Co  Co20  1  0.750000  0.967339  0.568662  1
  P  P21  1  0.250000  0.419423  0.112383  1
  P  P22  1  0.250000  0.082256  0.611558  1
  P  P23  1  0.750000  0.579862  0.887465  1
  P  P24  1  0.750000  0.920975  0.387593  1
  P  P25  1  0.250000  0.271307  0.866599  1
  P  P26  1  0.250000  0.229570  0.370197  1
  P  P27  1  0.750000  0.729031  0.132964  1
  P  P28  1  0.750000  0.771664  0.632495  1
  P  P29  1  0.250000  0.595146  0.390649  1
  P  P30  1  0.250000  0.904185  0.889763  1
  P  P31  1  0.750000  0.397845  0.607228  1
  P  P32  1  0.750000  0.096824  0.111383  1
  Ru  Ru33  1  0.250000  0.716530  0.991756  1
  Ru  Ru34  1  0.250000  0.784873  0.491412  1
  Ru  Ru35  1  0.750000  0.283974  0.008947  1
