# generated using pymatgen
data_Pr3Nd3(Sn2Hg3)2
_symmetry_space_group_name_H-M   'P 1'
_cell_length_a   6.49313988
_cell_length_b   6.49314100
_cell_length_c   10.79950710
_cell_angle_alpha   89.99021329
_cell_angle_beta   89.99021859
_cell_angle_gamma   101.68749199
_symmetry_Int_Tables_number   1
_chemical_formula_structural   Pr3Nd3(Sn2Hg3)2
_chemical_formula_sum   'Pr3 Nd3 Sn4 Hg6'
_cell_volume   445.87657498
_cell_formula_units_Z   1
loop_
 _symmetry_equiv_pos_site_id
 _symmetry_equiv_pos_as_xyz
  1  'x, y, z'
loop_
 _atom_site_type_symbol
 _atom_site_label
 _atom_site_symmetry_multiplicity
 _atom_site_fract_x
 _atom_site_fract_y
 _atom_site_fract_z
 _atom_site_occupancy
  Pr  Pr0  1  0.200152  0.799848  0.000000  1
  Pr  Pr1  1  0.799882  0.200118  0.500000  1
  Pr  Pr2  1  0.799863  0.200137  0.000000  1
  Nd  Nd3  1  0.635608  0.635657  0.250055  1
  Nd  Nd4  1  0.364343  0.364392  0.749945  1
  Nd  Nd5  1  0.200098  0.799902  0.500000  1
  Sn  Sn6  1  0.317285  0.317364  0.046004  1
  Sn  Sn7  1  0.682636  0.682715  0.953996  1
  Sn  Sn8  1  0.316922  0.316987  0.454108  1
  Sn  Sn9  1  0.683013  0.683078  0.545892  1
  Hg  Hg10  1  0.018393  0.018014  0.250241  1
  Hg  Hg11  1  0.981986  0.981607  0.749759  1
  Hg  Hg12  1  0.506262  0.080169  0.250096  1
  Hg  Hg13  1  0.919831  0.493738  0.749904  1
  Hg  Hg14  1  0.493260  0.919535  0.749694  1
  Hg  Hg15  1  0.080465  0.506740  0.250306  1
