# generated using pymatgen
data_LiY9Cd3Re
_symmetry_space_group_name_H-M   'P 1'
_cell_length_a   9.43577800
_cell_length_b   9.43577847
_cell_length_c   9.93564800
_cell_angle_alpha   90.00000000
_cell_angle_beta   90.00000000
_cell_angle_gamma   119.99999834
_symmetry_Int_Tables_number   1
_chemical_formula_structural   LiY9Cd3Re
_chemical_formula_sum   'Li2 Y18 Cd6 Re2'
_cell_volume   766.09439814
_cell_formula_units_Z   2
loop_
 _symmetry_equiv_pos_site_id
 _symmetry_equiv_pos_as_xyz
  1  'x, y, z'
loop_
 _atom_site_type_symbol
 _atom_site_label
 _atom_site_symmetry_multiplicity
 _atom_site_fract_x
 _atom_site_fract_y
 _atom_site_fract_z
 _atom_site_occupancy
  Li  Li0  1  0.000000  0.000000  0.000000  1
  Li  Li1  1  0.000000  0.000000  0.500000  1
  Y  Y2  1  0.208542  0.791458  0.943328  1
  Y  Y3  1  0.208542  0.417085  0.943328  1
  Y  Y4  1  0.582915  0.791458  0.943328  1
  Y  Y5  1  0.791458  0.208542  0.056672  1
  Y  Y6  1  0.791458  0.582915  0.056672  1
  Y  Y7  1  0.417085  0.208542  0.056672  1
  Y  Y8  1  0.791458  0.208542  0.443328  1
  Y  Y9  1  0.791458  0.582915  0.443328  1
  Y  Y10  1  0.417085  0.208542  0.443328  1
  Y  Y11  1  0.208542  0.791458  0.556672  1
  Y  Y12  1  0.208542  0.417085  0.556672  1
  Y  Y13  1  0.582915  0.791458  0.556672  1
  Y  Y14  1  0.540258  0.459742  0.750000  1
  Y  Y15  1  0.540258  0.080514  0.750000  1
  Y  Y16  1  0.919486  0.459742  0.750000  1
  Y  Y17  1  0.459742  0.540258  0.250000  1
  Y  Y18  1  0.459742  0.919486  0.250000  1
  Y  Y19  1  0.080514  0.540258  0.250000  1
  Cd  Cd20  1  0.891955  0.108045  0.750000  1
  Cd  Cd21  1  0.891955  0.783910  0.750000  1
  Cd  Cd22  1  0.216090  0.108045  0.750000  1
  Cd  Cd23  1  0.108045  0.891955  0.250000  1
  Cd  Cd24  1  0.108045  0.216090  0.250000  1
  Cd  Cd25  1  0.783910  0.891955  0.250000  1
  Re  Re26  1  0.333333  0.666667  0.750000  1
  Re  Re27  1  0.666667  0.333333  0.250000  1
