# generated using pymatgen
data_AlSeI3Br4
_symmetry_space_group_name_H-M   'P 1'
_cell_length_a   7.37248180
_cell_length_b   7.84951615
_cell_length_c   14.27995911
_cell_angle_alpha   77.32386728
_cell_angle_beta   89.82193682
_cell_angle_gamma   90.66551781
_symmetry_Int_Tables_number   1
_chemical_formula_structural   AlSeI3Br4
_chemical_formula_sum   'Al2 Se2 I6 Br8'
_cell_volume   806.17688953
_cell_formula_units_Z   2
loop_
 _symmetry_equiv_pos_site_id
 _symmetry_equiv_pos_as_xyz
  1  'x, y, z'
loop_
 _atom_site_type_symbol
 _atom_site_label
 _atom_site_symmetry_multiplicity
 _atom_site_fract_x
 _atom_site_fract_y
 _atom_site_fract_z
 _atom_site_occupancy
  Al  Al0  1  0.980925  0.659401  0.660045  1
  Al  Al1  1  0.023835  0.661803  0.159260  1
  Se  Se2  1  0.596796  0.038438  0.505137  1
  Se  Se3  1  0.394634  0.036649  0.000224  1
  I  I4  1  0.379670  0.976227  0.370116  1
  I  I5  1  0.426461  0.277400  0.569118  1
  I  I6  1  0.149356  0.223041  0.891455  1
  I  I7  1  0.847796  0.225781  0.402022  1
  I  I8  1  0.097388  0.969311  0.194165  1
  I  I9  1  0.571348  0.276240  0.062370  1
  Br  Br10  1  0.155207  0.663436  0.012144  1
  Br  Br11  1  0.846516  0.665644  0.513237  1
  Br  Br12  1  0.711508  0.621883  0.157749  1
  Br  Br13  1  0.293207  0.613436  0.653632  1
  Br  Br14  1  0.156566  0.456506  0.282882  1
  Br  Br15  1  0.852173  0.423082  0.775638  1
  Br  Br16  1  0.593156  0.964948  0.882884  1
  Br  Br17  1  0.923460  0.917371  0.707719  1
