# generated using pymatgen
data_Li6PrGd5(TeO6)4
_symmetry_space_group_name_H-M   'P 1'
_cell_length_a   10.86384307
_cell_length_b   10.89052391
_cell_length_c   10.87651669
_cell_angle_alpha   109.55098588
_cell_angle_beta   109.45157135
_cell_angle_gamma   109.41378114
_symmetry_Int_Tables_number   1
_chemical_formula_structural   Li6PrGd5(TeO6)4
_chemical_formula_sum   'Li12 Pr2 Gd10 Te8 O48'
_cell_volume   990.57041268
_cell_formula_units_Z   2
loop_
 _symmetry_equiv_pos_site_id
 _symmetry_equiv_pos_as_xyz
  1  'x, y, z'
loop_
 _atom_site_type_symbol
 _atom_site_label
 _atom_site_symmetry_multiplicity
 _atom_site_fract_x
 _atom_site_fract_y
 _atom_site_fract_z
 _atom_site_occupancy
  Li  Li0  1  0.750688  0.375247  0.124981  1
  Li  Li1  1  0.874298  0.749735  0.124982  1
  Li  Li2  1  0.124567  0.375214  0.250344  1
  Li  Li3  1  0.625776  0.875131  0.250346  1
  Li  Li4  1  0.249757  0.125842  0.376516  1
  Li  Li5  1  0.626756  0.250674  0.376515  1
  Li  Li6  1  0.750023  0.875135  0.625036  1
  Li  Li7  1  0.375013  0.749905  0.625036  1
  Li  Li8  1  0.375025  0.124839  0.749320  1
  Li  Li9  1  0.874295  0.624481  0.749321  1
  Li  Li10  1  0.249915  0.623762  0.873769  1
  Li  Li11  1  0.123855  0.250006  0.873771  1
  Pr  Pr12  1  0.375242  0.250874  0.124677  1
  Pr  Pr13  1  0.249434  0.873802  0.124676  1
  Gd  Gd14  1  0.375471  0.625471  0.250942  1
  Gd  Gd15  1  0.875017  0.125017  0.250035  1
  Gd  Gd16  1  0.124770  0.749543  0.375609  1
  Gd  Gd17  1  0.750839  0.626065  0.375610  1
  Gd  Gd18  1  0.875009  0.250003  0.624982  1
  Gd  Gd19  1  0.249973  0.374980  0.624983  1
  Gd  Gd20  1  0.624986  0.374986  0.749972  1
  Gd  Gd21  1  0.124197  0.874196  0.748393  1
  Gd  Gd22  1  0.750024  0.125018  0.875011  1
  Gd  Gd23  1  0.624987  0.749992  0.875011  1
  Te  Te24  1  0.996999  0.999340  0.998126  1
  Te  Te25  1  0.501126  0.998786  0.998126  1
  Te  Te26  1  0.998943  0.497789  0.999706  1
  Te  Te27  1  0.500764  0.501918  0.999707  1
  Te  Te28  1  0.999903  0.000128  0.499943  1
  Te  Te29  1  0.501317  0.502015  0.502276  1
  Te  Te30  1  0.500958  0.000261  0.502276  1
  Te  Te31  1  0.000039  0.499814  0.499943  1
  O  O32  1  0.195203  0.613455  0.023072  1
  O  O33  1  0.327868  0.409616  0.023070  1
  O  O34  1  0.880009  0.906061  0.077173  1
  O  O35  1  0.697164  0.171112  0.077172  1
  O  O36  1  0.619820  0.921622  0.092839  1
  O  O37  1  0.973019  0.171219  0.092840  1
  O  O38  1  0.022661  0.693249  0.119165  1
  O  O39  1  0.596505  0.425916  0.119165  1
  O  O40  1  0.192273  0.079002  0.171728  1
  O  O41  1  0.479456  0.092727  0.171730  1
  O  O42  1  0.119077  0.525021  0.197108  1
  O  O43  1  0.578030  0.672086  0.197109  1
  O  O44  1  0.477098  0.880623  0.306624  1
  O  O45  1  0.329526  0.426000  0.306623  1
  O  O46  1  0.922653  0.803555  0.328773  1
  O  O47  1  0.906118  0.525214  0.328770  1
  O  O48  1  0.582217  0.409845  0.386754  1
  O  O49  1  0.304537  0.976909  0.386753  1
  O  O50  1  0.828718  0.025719  0.406358  1
  O  O51  1  0.077641  0.380638  0.406360  1
  O  O52  1  0.093556  0.119222  0.422641  1
  O  O53  1  0.829084  0.303418  0.422641  1
  O  O54  1  0.594279  0.671975  0.475119  1
  O  O55  1  0.380840  0.803145  0.475118  1
  O  O56  1  0.406660  0.329580  0.525605  1
  O  O57  1  0.618945  0.196024  0.525605  1
  O  O58  1  0.171002  0.696265  0.576854  1
  O  O59  1  0.905852  0.880590  0.576855  1
  O  O60  1  0.922841  0.619345  0.593932  1
  O  O61  1  0.171093  0.974589  0.593933  1
  O  O62  1  0.422394  0.594183  0.620241  1
  O  O63  1  0.697846  0.026058  0.620241  1
  O  O64  1  0.077502  0.196739  0.671121  1
  O  O65  1  0.093620  0.474385  0.671123  1
  O  O66  1  0.527004  0.120087  0.698746  1
  O  O67  1  0.671741  0.578660  0.698746  1
  O  O68  1  0.880905  0.474336  0.803565  1
  O  O69  1  0.422660  0.329230  0.803564  1
  O  O70  1  0.527309  0.906395  0.827757  1
  O  O71  1  0.800448  0.921362  0.827759  1
  O  O72  1  0.973092  0.301527  0.880042  1
  O  O73  1  0.406952  0.578516  0.880043  1
  O  O74  1  0.380888  0.074854  0.903430  1
  O  O75  1  0.022541  0.828575  0.903428  1
  O  O76  1  0.304183  0.826878  0.917498  1
  O  O77  1  0.113314  0.090621  0.917498  1
  O  O78  1  0.802267  0.379747  0.973882  1
  O  O79  1  0.671617  0.594137  0.973884  1
