# generated using pymatgen
data_NdTh5H8Br15
_symmetry_space_group_name_H-M   'P 1'
_cell_length_a   10.06861994
_cell_length_b   10.06862105
_cell_length_c   10.06861980
_cell_angle_alpha   109.38734874
_cell_angle_beta   109.38735160
_cell_angle_gamma   109.63909149
_symmetry_Int_Tables_number   1
_chemical_formula_structural   NdTh5H8Br15
_chemical_formula_sum   'Nd1 Th5 H8 Br15'
_cell_volume   785.75146815
_cell_formula_units_Z   1
loop_
 _symmetry_equiv_pos_site_id
 _symmetry_equiv_pos_as_xyz
  1  'x, y, z'
loop_
 _atom_site_type_symbol
 _atom_site_label
 _atom_site_symmetry_multiplicity
 _atom_site_fract_x
 _atom_site_fract_y
 _atom_site_fract_z
 _atom_site_occupancy
  Nd  Nd0  1  0.237914  0.237914  0.000000  1
  Th  Th1  1  0.760467  0.760467  0.000000  1
  Th  Th2  1  0.240225  0.002455  0.237770  1
  Th  Th3  1  0.002455  0.240225  0.237770  1
  Th  Th4  1  0.764685  0.002455  0.762230  1
  Th  Th5  1  0.002455  0.764685  0.762230  1
  H  H6  1  0.177729  0.997002  0.000000  1
  H  H7  1  0.821568  0.999810  0.000000  1
  H  H8  1  0.997002  0.177729  0.000000  1
  H  H9  1  0.999810  0.821568  0.000000  1
  H  H10  1  0.999810  0.999810  0.178244  1
  H  H11  1  0.177729  0.177729  0.180727  1
  H  H12  1  0.997002  0.997002  0.819274  1
  H  H13  1  0.821568  0.821568  0.821757  1
  Br  Br14  1  0.746147  0.252393  0.000000  1
  Br  Br15  1  0.506231  0.506231  0.000000  1
  Br  Br16  1  0.252393  0.746147  0.000000  1
  Br  Br17  1  0.747255  0.000094  0.252840  1
  Br  Br18  1  0.000094  0.747255  0.252840  1
  Br  Br19  1  0.508324  0.251862  0.256462  1
  Br  Br20  1  0.251862  0.508324  0.256462  1
  Br  Br21  1  0.746147  0.746147  0.493753  1
  Br  Br22  1  0.499905  0.999905  0.500000  1
  Br  Br23  1  0.999905  0.499905  0.500000  1
  Br  Br24  1  0.252393  0.252393  0.506247  1
  Br  Br25  1  0.251862  0.995399  0.743539  1
  Br  Br26  1  0.995399  0.251862  0.743539  1
  Br  Br27  1  0.747255  0.494414  0.747161  1
  Br  Br28  1  0.494414  0.747255  0.747161  1
