# generated using pymatgen
data_Tm2Co10P7W2
_symmetry_space_group_name_H-M   'P 1'
_cell_length_a   8.99619236
_cell_length_b   9.01430148
_cell_length_c   3.67011000
_cell_angle_alpha   90.00000000
_cell_angle_beta   90.00000000
_cell_angle_gamma   119.80123340
_symmetry_Int_Tables_number   1
_chemical_formula_structural   Tm2Co10P7W2
_chemical_formula_sum   'Tm2 Co10 P7 W2'
_cell_volume   258.26579719
_cell_formula_units_Z   1
loop_
 _symmetry_equiv_pos_site_id
 _symmetry_equiv_pos_as_xyz
  1  'x, y, z'
loop_
 _atom_site_type_symbol
 _atom_site_label
 _atom_site_symmetry_multiplicity
 _atom_site_fract_x
 _atom_site_fract_y
 _atom_site_fract_z
 _atom_site_occupancy
  Tm  Tm0  1  0.666923  0.334411  0.500000  1
  Tm  Tm1  1  0.337310  0.666909  0.000000  1
  Co  Co2  1  0.721613  0.878800  0.000000  1
  Co  Co3  1  0.936387  0.369375  0.000000  1
  Co  Co4  1  0.160705  0.283479  0.000000  1
  Co  Co5  1  0.387326  0.439990  0.500000  1
  Co  Co6  1  0.118757  0.837427  0.000000  1
  Co  Co7  1  0.432586  0.062213  0.000000  1
  Co  Co8  1  0.047054  0.613672  0.500000  1
  Co  Co9  1  0.562399  0.946189  0.500000  1
  Co  Co10  1  0.630261  0.567779  0.000000  1
  Co  Co11  1  0.872837  0.779500  0.500000  1
  P  P12  1  0.415452  0.302184  0.000000  1
  P  P13  1  0.289063  0.877681  0.500000  1
  P  P14  1  0.696414  0.112408  0.000000  1
  P  P15  1  0.595943  0.710161  0.500000  1
  P  P16  1  0.886044  0.587326  0.000000  1
  P  P17  1  0.120862  0.414628  0.500000  1
  P  P18  1  0.999087  0.994384  0.000000  1
  W  W19  1  0.218621  0.098253  0.500000  1
  W  W20  1  0.904357  0.123229  0.500000  1
