# generated using pymatgen
data_TbSi2Tc3Os
_symmetry_space_group_name_H-M   'P 1'
_cell_length_a   7.26189299
_cell_length_b   7.59327023
_cell_length_c   4.07068300
_cell_angle_alpha   90.00000000
_cell_angle_beta   90.00000000
_cell_angle_gamma   89.45451409
_symmetry_Int_Tables_number   1
_chemical_formula_structural   TbSi2Tc3Os
_chemical_formula_sum   'Tb2 Si4 Tc6 Os2'
_cell_volume   224.45345869
_cell_formula_units_Z   2
loop_
 _symmetry_equiv_pos_site_id
 _symmetry_equiv_pos_as_xyz
  1  'x, y, z'
loop_
 _atom_site_type_symbol
 _atom_site_label
 _atom_site_symmetry_multiplicity
 _atom_site_fract_x
 _atom_site_fract_y
 _atom_site_fract_z
 _atom_site_occupancy
  Tb  Tb0  1  0.000000  0.000000  0.000000  1
  Tb  Tb1  1  0.500000  0.500000  0.500000  1
  Si  Si2  1  0.280167  0.297993  0.000000  1
  Si  Si3  1  0.719833  0.702007  0.000000  1
  Si  Si4  1  0.779033  0.199988  0.500000  1
  Si  Si5  1  0.220967  0.800012  0.500000  1
  Tc  Tc6  1  0.655680  0.903230  0.500000  1
  Tc  Tc7  1  0.078818  0.340914  0.500000  1
  Tc  Tc8  1  0.344320  0.096770  0.500000  1
  Tc  Tc9  1  0.921182  0.659086  0.500000  1
  Tc  Tc10  1  0.152976  0.597989  0.000000  1
  Tc  Tc11  1  0.847024  0.402011  0.000000  1
  Os  Os12  1  0.582176  0.158857  0.000000  1
  Os  Os13  1  0.417824  0.841143  0.000000  1
