# generated using pymatgen
data_Ho6Lu10Cd4NiRu3
_symmetry_space_group_name_H-M   'P 1'
_cell_length_a   9.41223443
_cell_length_b   9.52027644
_cell_length_c   9.52027600
_cell_angle_alpha   60.00000154
_cell_angle_beta   59.61955084
_cell_angle_gamma   59.61955384
_symmetry_Int_Tables_number   1
_chemical_formula_structural   Ho6Lu10Cd4NiRu3
_chemical_formula_sum   'Ho6 Lu10 Cd4 Ni1 Ru3'
_cell_volume   599.72943195
_cell_formula_units_Z   1
loop_
 _symmetry_equiv_pos_site_id
 _symmetry_equiv_pos_as_xyz
  1  'x, y, z'
loop_
 _atom_site_type_symbol
 _atom_site_label
 _atom_site_symmetry_multiplicity
 _atom_site_fract_x
 _atom_site_fract_y
 _atom_site_fract_z
 _atom_site_occupancy
  Ho  Ho0  1  0.939521  0.560193  0.560193  1
  Ho  Ho1  1  0.558096  0.938694  0.938694  1
  Ho  Ho2  1  0.558096  0.938694  0.564517  1
  Ho  Ho3  1  0.939521  0.560193  0.940092  1
  Ho  Ho4  1  0.558096  0.564517  0.938694  1
  Ho  Ho5  1  0.939521  0.940092  0.560193  1
  Lu  Lu6  1  0.351109  0.345574  0.345574  1
  Lu  Lu7  1  0.351109  0.345574  0.957741  1
  Lu  Lu8  1  0.351109  0.957741  0.345574  1
  Lu  Lu9  1  0.963468  0.345511  0.345511  1
  Lu  Lu10  1  0.811727  0.187171  0.187171  1
  Lu  Lu11  1  0.184014  0.813854  0.813854  1
  Lu  Lu12  1  0.184014  0.813854  0.188277  1
  Lu  Lu13  1  0.811727  0.187171  0.813932  1
  Lu  Lu14  1  0.184014  0.188277  0.813854  1
  Lu  Lu15  1  0.811727  0.813932  0.187171  1
  Cd  Cd16  1  0.578703  0.579886  0.579886  1
  Cd  Cd17  1  0.578703  0.579886  0.261527  1
  Cd  Cd18  1  0.578703  0.261527  0.579886  1
  Cd  Cd19  1  0.256527  0.581158  0.581158  1
  Ni  Ni20  1  0.573624  0.142125  0.142125  1
  Ru  Ru21  1  0.145623  0.139422  0.139422  1
  Ru  Ru22  1  0.145623  0.139422  0.575533  1
  Ru  Ru23  1  0.145623  0.575533  0.139422  1
