# generated using pymatgen
data_TbY3(HfRh)4
_symmetry_space_group_name_H-M   'P 1'
_cell_length_a   4.59269100
_cell_length_b   6.99157258
_cell_length_c   8.23023600
_cell_angle_alpha   89.91563268
_cell_angle_beta   90.00000000
_cell_angle_gamma   90.00000000
_symmetry_Int_Tables_number   1
_chemical_formula_structural   TbY3(HfRh)4
_chemical_formula_sum   'Tb1 Y3 Hf4 Rh4'
_cell_volume   264.27368165
_cell_formula_units_Z   1
loop_
 _symmetry_equiv_pos_site_id
 _symmetry_equiv_pos_as_xyz
  1  'x, y, z'
loop_
 _atom_site_type_symbol
 _atom_site_label
 _atom_site_symmetry_multiplicity
 _atom_site_fract_x
 _atom_site_fract_y
 _atom_site_fract_z
 _atom_site_occupancy
  Tb  Tb0  1  0.250000  0.984580  0.322128  1
  Y  Y1  1  0.250000  0.483209  0.178451  1
  Y  Y2  1  0.750000  0.016211  0.678952  1
  Y  Y3  1  0.750000  0.516241  0.821634  1
  Hf  Hf4  1  0.250000  0.359669  0.574833  1
  Hf  Hf5  1  0.250000  0.859267  0.925723  1
  Hf  Hf6  1  0.750000  0.640542  0.425715  1
  Hf  Hf7  1  0.750000  0.139805  0.073502  1
  Rh  Rh8  1  0.250000  0.229201  0.910928  1
  Rh  Rh9  1  0.250000  0.730298  0.587726  1
  Rh  Rh10  1  0.750000  0.770432  0.088568  1
  Rh  Rh11  1  0.750000  0.270545  0.411839  1
