# generated using pymatgen
data_ErTmGe(PRh2)6
_symmetry_space_group_name_H-M   'P 1'
_cell_length_a   9.66729000
_cell_length_b   9.66728887
_cell_length_c   3.85914500
_cell_angle_alpha   90.00000000
_cell_angle_beta   90.00000000
_cell_angle_gamma   119.99999702
_symmetry_Int_Tables_number   1
_chemical_formula_structural   ErTmGe(PRh2)6
_chemical_formula_sum   'Er1 Tm1 Ge1 P6 Rh12'
_cell_volume   312.34257350
_cell_formula_units_Z   1
loop_
 _symmetry_equiv_pos_site_id
 _symmetry_equiv_pos_as_xyz
  1  'x, y, z'
loop_
 _atom_site_type_symbol
 _atom_site_label
 _atom_site_symmetry_multiplicity
 _atom_site_fract_x
 _atom_site_fract_y
 _atom_site_fract_z
 _atom_site_occupancy
  Er  Er0  1  0.666667  0.333333  0.251611  1
  Tm  Tm1  1  0.333333  0.666667  0.748429  1
  Ge  Ge2  1  0.000000  0.000000  0.500017  1
  P  P3  1  0.404452  0.285880  0.751111  1
  P  P4  1  0.714120  0.118572  0.751111  1
  P  P5  1  0.881428  0.595548  0.751111  1
  P  P6  1  0.595490  0.714101  0.248879  1
  P  P7  1  0.285899  0.881389  0.248879  1
  P  P8  1  0.118611  0.404510  0.248879  1
  Rh  Rh9  1  0.453235  0.068875  0.751007  1
  Rh  Rh10  1  0.931125  0.384358  0.751007  1
  Rh  Rh11  1  0.615642  0.546765  0.751007  1
  Rh  Rh12  1  0.546653  0.930989  0.248992  1
  Rh  Rh13  1  0.069011  0.615666  0.248992  1
  Rh  Rh14  1  0.384334  0.453347  0.248992  1
  Rh  Rh15  1  0.155559  0.275633  0.750868  1
  Rh  Rh16  1  0.724367  0.879928  0.750868  1
  Rh  Rh17  1  0.120072  0.844441  0.750868  1
  Rh  Rh18  1  0.844446  0.724380  0.249123  1
  Rh  Rh19  1  0.275620  0.120065  0.249123  1
  Rh  Rh20  1  0.879935  0.155554  0.249123  1
