# generated using pymatgen
data_Ce2FeRhF14
_symmetry_space_group_name_H-M   'P 1'
_cell_length_a   5.71655668
_cell_length_b   5.95779860
_cell_length_c   8.15644712
_cell_angle_alpha   78.81962996
_cell_angle_beta   89.88362331
_cell_angle_gamma   90.03419347
_symmetry_Int_Tables_number   1
_chemical_formula_structural   Ce2FeRhF14
_chemical_formula_sum   'Ce2 Fe1 Rh1 F14'
_cell_volume   272.52028113
_cell_formula_units_Z   1
loop_
 _symmetry_equiv_pos_site_id
 _symmetry_equiv_pos_as_xyz
  1  'x, y, z'
loop_
 _atom_site_type_symbol
 _atom_site_label
 _atom_site_symmetry_multiplicity
 _atom_site_fract_x
 _atom_site_fract_y
 _atom_site_fract_z
 _atom_site_occupancy
  Ce  Ce0  1  0.245235  0.833637  0.198807  1
  Ce  Ce1  1  0.745543  0.167602  0.806849  1
  Fe  Fe2  1  0.751509  0.308563  0.275216  1
  Rh  Rh3  1  0.253488  0.691490  0.728326  1
  F  F4  1  0.468503  0.432139  0.731206  1
  F  F5  1  0.039381  0.956066  0.709474  1
  F  F6  1  0.992934  0.469271  0.738292  1
  F  F7  1  0.029924  0.109727  0.283228  1
  F  F8  1  0.970294  0.565513  0.267858  1
  F  F9  1  0.419083  0.052322  0.978826  1
  F  F10  1  0.921668  0.943413  0.018584  1
  F  F11  1  0.248706  0.736965  0.482299  1
  F  F12  1  0.531415  0.893101  0.712127  1
  F  F13  1  0.538617  0.050446  0.286975  1
  F  F14  1  0.499896  0.538299  0.259563  1
  F  F15  1  0.747893  0.261933  0.516915  1
  F  F16  1  0.756098  0.357214  0.030886  1
  F  F17  1  0.259419  0.632297  0.974569  1
