# generated using pymatgen
data_Rb2NbV(CuTe2)4
_symmetry_space_group_name_H-M   'P 1'
_cell_length_a   6.01436617
_cell_length_b   8.27831600
_cell_length_c   10.73873192
_cell_angle_alpha   90.00000000
_cell_angle_beta   106.21542342
_cell_angle_gamma   90.00000000
_symmetry_Int_Tables_number   1
_chemical_formula_structural   Rb2NbV(CuTe2)4
_chemical_formula_sum   'Rb2 Nb1 V1 Cu4 Te8'
_cell_volume   513.39892920
_cell_formula_units_Z   1
loop_
 _symmetry_equiv_pos_site_id
 _symmetry_equiv_pos_as_xyz
  1  'x, y, z'
loop_
 _atom_site_type_symbol
 _atom_site_label
 _atom_site_symmetry_multiplicity
 _atom_site_fract_x
 _atom_site_fract_y
 _atom_site_fract_z
 _atom_site_occupancy
  Rb  Rb0  1  0.825358  0.750000  0.124176  1
  Rb  Rb1  1  0.193526  0.250000  0.872250  1
  Nb  Nb2  1  0.146019  0.250000  0.290316  1
  V  V3  1  0.353363  0.750000  0.707131  1
  Cu  Cu4  1  0.260644  0.500885  0.500982  1
  Cu  Cu5  1  0.260644  0.999115  0.500982  1
  Cu  Cu6  1  0.854667  0.750000  0.711008  1
  Cu  Cu7  1  0.644909  0.250000  0.289842  1
  Te  Te8  1  0.000555  0.750000  0.504961  1
  Te  Te9  1  0.992580  0.250000  0.501293  1
  Te  Te10  1  0.218104  0.750000  0.909764  1
  Te  Te11  1  0.789499  0.250000  0.081174  1
  Te  Te12  1  0.597980  0.498086  0.712750  1
  Te  Te13  1  0.400085  0.511055  0.290311  1
  Te  Te14  1  0.597980  0.001914  0.712750  1
  Te  Te15  1  0.400085  0.988945  0.290311  1
