# generated using pymatgen
data_Y7Tm13Pt16
_symmetry_space_group_name_H-M   'P 1'
_cell_length_a   7.44569748
_cell_length_b   7.51975448
_cell_length_c   14.62743401
_cell_angle_alpha   90.00238355
_cell_angle_beta   90.00255071
_cell_angle_gamma   89.95910349
_symmetry_Int_Tables_number   1
_chemical_formula_structural   Y7Tm13Pt16
_chemical_formula_sum   'Y7 Tm13 Pt16'
_cell_volume   818.98714243
_cell_formula_units_Z   1
loop_
 _symmetry_equiv_pos_site_id
 _symmetry_equiv_pos_as_xyz
  1  'x, y, z'
loop_
 _atom_site_type_symbol
 _atom_site_label
 _atom_site_symmetry_multiplicity
 _atom_site_fract_x
 _atom_site_fract_y
 _atom_site_fract_z
 _atom_site_occupancy
  Y  Y0  1  0.498754  0.679527  0.092970  1
  Y  Y1  1  0.501443  0.320367  0.592829  1
  Y  Y2  1  0.001287  0.179578  0.907138  1
  Y  Y3  1  0.001067  0.178925  0.592635  1
  Y  Y4  1  0.501355  0.320499  0.907127  1
  Y  Y5  1  0.498648  0.679750  0.407120  1
  Y  Y6  1  0.998795  0.820371  0.092803  1
  Tm  Tm7  1  0.681332  0.989827  0.250296  1
  Tm  Tm8  1  0.180980  0.510398  0.250295  1
  Tm  Tm9  1  0.818908  0.489833  0.749925  1
  Tm  Tm10  1  0.318904  0.010076  0.749984  1
  Tm  Tm11  1  0.656251  0.832584  0.622485  1
  Tm  Tm12  1  0.156136  0.667536  0.877392  1
  Tm  Tm13  1  0.843971  0.332409  0.377495  1
  Tm  Tm14  1  0.343814  0.167571  0.122628  1
  Tm  Tm15  1  0.343353  0.167255  0.377615  1
  Tm  Tm16  1  0.843884  0.332331  0.122664  1
  Tm  Tm17  1  0.155630  0.667966  0.622282  1
  Tm  Tm18  1  0.656131  0.832365  0.877460  1
  Tm  Tm19  1  0.997572  0.819579  0.406834  1
  Pt  Pt20  1  0.817430  0.642359  0.251076  1
  Pt  Pt21  1  0.315603  0.858512  0.250435  1
  Pt  Pt22  1  0.683777  0.141443  0.749899  1
  Pt  Pt23  1  0.183800  0.358626  0.749888  1
  Pt  Pt24  1  0.546469  0.384861  0.250090  1
  Pt  Pt25  1  0.045974  0.114507  0.250550  1
  Pt  Pt26  1  0.953766  0.884662  0.749965  1
  Pt  Pt27  1  0.453719  0.615333  0.749929  1
  Pt  Pt28  1  0.818200  0.534876  0.541640  1
  Pt  Pt29  1  0.317845  0.966071  0.957938  1
  Pt  Pt30  1  0.684387  0.032377  0.457510  1
  Pt  Pt31  1  0.182057  0.466217  0.042109  1
  Pt  Pt32  1  0.181471  0.467897  0.457377  1
  Pt  Pt33  1  0.682171  0.033988  0.042081  1
  Pt  Pt34  1  0.317348  0.965592  0.541615  1
  Pt  Pt35  1  0.817772  0.533931  0.957921  1
