# generated using pymatgen
data_Tm6Mn17Al6
_symmetry_space_group_name_H-M   'P 1'
_cell_length_a   8.55401655
_cell_length_b   8.56318415
_cell_length_c   8.56318524
_cell_angle_alpha   60.16208524
_cell_angle_beta   60.03540985
_cell_angle_gamma   60.03540678
_symmetry_Int_Tables_number   1
_chemical_formula_structural   Tm6Mn17Al6
_chemical_formula_sum   'Tm6 Mn17 Al6'
_cell_volume   444.31162580
_cell_formula_units_Z   1
loop_
 _symmetry_equiv_pos_site_id
 _symmetry_equiv_pos_as_xyz
  1  'x, y, z'
loop_
 _atom_site_type_symbol
 _atom_site_label
 _atom_site_symmetry_multiplicity
 _atom_site_fract_x
 _atom_site_fract_y
 _atom_site_fract_z
 _atom_site_occupancy
  Tm  Tm0  1  0.699976  0.702244  0.299016  1
  Tm  Tm1  1  0.298764  0.702244  0.299016  1
  Tm  Tm2  1  0.699778  0.300222  0.300222  1
  Tm  Tm3  1  0.298764  0.299016  0.702244  1
  Tm  Tm4  1  0.699976  0.299016  0.702244  1
  Tm  Tm5  1  0.299603  0.700397  0.700397  1
  Mn  Mn6  1  0.994504  0.005496  0.005496  1
  Mn  Mn7  1  0.999961  0.001995  0.494385  1
  Mn  Mn8  1  0.503659  0.001995  0.494385  1
  Mn  Mn9  1  0.000380  0.499620  0.499620  1
  Mn  Mn10  1  0.503659  0.494385  0.001995  1
  Mn  Mn11  1  0.999961  0.494385  0.001995  1
  Mn  Mn12  1  0.499014  0.000986  0.000986  1
  Mn  Mn13  1  0.642093  0.119468  0.119468  1
  Mn  Mn14  1  0.118972  0.119468  0.119468  1
  Mn  Mn15  1  0.677156  0.679030  0.966658  1
  Mn  Mn16  1  0.677156  0.966658  0.679030  1
  Mn  Mn17  1  0.962662  0.678666  0.678666  1
  Mn  Mn18  1  0.680006  0.678666  0.678666  1
  Mn  Mn19  1  0.324935  0.321949  0.028182  1
  Mn  Mn20  1  0.324935  0.028182  0.321949  1
  Mn  Mn21  1  0.036181  0.321998  0.321998  1
  Mn  Mn22  1  0.319824  0.321998  0.321998  1
  Al  Al23  1  0.878287  0.882092  0.361334  1
  Al  Al24  1  0.878287  0.361334  0.882092  1
  Al  Al25  1  0.362686  0.880445  0.880445  1
  Al  Al26  1  0.876424  0.880445  0.880445  1
  Al  Al27  1  0.121198  0.118762  0.638842  1
  Al  Al28  1  0.121198  0.638842  0.118762  1
