# generated using pymatgen
data_ThNi3BIr
_symmetry_space_group_name_H-M   'P 1'
_cell_length_a   5.19490748
_cell_length_b   5.19490737
_cell_length_c   7.21614200
_cell_angle_alpha   90.00000000
_cell_angle_beta   90.00000000
_cell_angle_gamma   122.09407189
_symmetry_Int_Tables_number   1
_chemical_formula_structural   ThNi3BIr
_chemical_formula_sum   'Th2 Ni6 B2 Ir2'
_cell_volume   164.98133000
_cell_formula_units_Z   2
loop_
 _symmetry_equiv_pos_site_id
 _symmetry_equiv_pos_as_xyz
  1  'x, y, z'
loop_
 _atom_site_type_symbol
 _atom_site_label
 _atom_site_symmetry_multiplicity
 _atom_site_fract_x
 _atom_site_fract_y
 _atom_site_fract_z
 _atom_site_occupancy
  Th  Th0  1  0.000000  0.000000  0.500000  1
  Th  Th1  1  0.000000  0.000000  0.000000  1
  Ni  Ni2  1  0.321186  0.678814  0.000000  1
  Ni  Ni3  1  0.678814  0.321186  0.000000  1
  Ni  Ni4  1  0.500000  0.000000  0.293780  1
  Ni  Ni5  1  0.000000  0.500000  0.293780  1
  Ni  Ni6  1  0.500000  0.000000  0.706220  1
  Ni  Ni7  1  0.000000  0.500000  0.706220  1
  B  B8  1  0.670598  0.329402  0.500000  1
  B  B9  1  0.329402  0.670598  0.500000  1
  Ir  Ir10  1  0.500000  0.500000  0.282416  1
  Ir  Ir11  1  0.500000  0.500000  0.717584  1
