# generated using pymatgen
data_Ag3Au3O8
_symmetry_space_group_name_H-M   'P 1'
_cell_length_a   9.32112517
_cell_length_b   3.96132437
_cell_length_c   5.64748438
_cell_angle_alpha   77.70383322
_cell_angle_beta   89.82016266
_cell_angle_gamma   88.40456012
_symmetry_Int_Tables_number   1
_chemical_formula_structural   Ag3Au3O8
_chemical_formula_sum   'Ag3 Au3 O8'
_cell_volume   203.66423669
_cell_formula_units_Z   1
loop_
 _symmetry_equiv_pos_site_id
 _symmetry_equiv_pos_as_xyz
  1  'x, y, z'
loop_
 _atom_site_type_symbol
 _atom_site_label
 _atom_site_symmetry_multiplicity
 _atom_site_fract_x
 _atom_site_fract_y
 _atom_site_fract_z
 _atom_site_occupancy
  Ag  Ag0  1  0.641592  0.683512  0.046676  1
  Ag  Ag1  1  0.496553  0.992196  0.503115  1
  Ag  Ag2  1  0.002821  0.007319  0.994835  1
  Au  Au3  1  0.861605  0.709884  0.542597  1
  Au  Au4  1  0.363061  0.302097  0.956426  1
  Au  Au5  1  0.137955  0.308038  0.453059  1
  O  O6  1  0.695501  0.928450  0.332808  1
  O  O7  1  0.203096  0.081242  0.176539  1
  O  O8  1  0.299111  0.080834  0.676307  1
  O  O9  1  0.804438  0.916969  0.826702  1
  O  O10  1  0.958781  0.527311  0.263791  1
  O  O11  1  0.459907  0.453620  0.236610  1
  O  O12  1  0.534739  0.520656  0.761931  1
  O  O13  1  0.040838  0.487873  0.728603  1
