# generated using pymatgen
data_Ce4Th(MnB3)2
_symmetry_space_group_name_H-M   'P 1'
_cell_length_a   5.37171936
_cell_length_b   5.37171977
_cell_length_c   8.31566499
_cell_angle_alpha   71.15626882
_cell_angle_beta   71.15628036
_cell_angle_gamma   59.99998509
_symmetry_Int_Tables_number   1
_chemical_formula_structural   Ce4Th(MnB3)2
_chemical_formula_sum   'Ce4 Th1 Mn2 B6'
_cell_volume   192.81100879
_cell_formula_units_Z   1
loop_
 _symmetry_equiv_pos_site_id
 _symmetry_equiv_pos_as_xyz
  1  'x, y, z'
loop_
 _atom_site_type_symbol
 _atom_site_label
 _atom_site_symmetry_multiplicity
 _atom_site_fract_x
 _atom_site_fract_y
 _atom_site_fract_z
 _atom_site_occupancy
  Ce  Ce0  1  0.746070  0.746070  0.761789  1
  Ce  Ce1  1  0.253930  0.253930  0.238211  1
  Ce  Ce2  1  0.587117  0.587117  0.238648  1
  Ce  Ce3  1  0.412883  0.412883  0.761352  1
  Th  Th4  1  0.000000  0.000000  0.000000  1
  Mn  Mn5  1  0.887881  0.887881  0.336358  1
  Mn  Mn6  1  0.112119  0.112119  0.663643  1
  B  B7  1  0.500000  0.167360  0.500000  1
  B  B8  1  0.832640  0.500000  0.500000  1
  B  B9  1  0.167360  0.832640  0.500000  1
  B  B10  1  0.167360  0.500000  0.500000  1
  B  B11  1  0.832640  0.167360  0.500000  1
  B  B12  1  0.500000  0.832640  0.500000  1
