# generated using pymatgen
data_TbHo5(SiIr)4
_symmetry_space_group_name_H-M   'P 1'
_cell_length_a   5.56107132
_cell_length_b   5.56107113
_cell_length_c   13.20654096
_cell_angle_alpha   89.91754632
_cell_angle_beta   90.08245358
_cell_angle_gamma   136.93877390
_symmetry_Int_Tables_number   1
_chemical_formula_structural   TbHo5(SiIr)4
_chemical_formula_sum   'Tb1 Ho5 Si4 Ir4'
_cell_volume   278.85982241
_cell_formula_units_Z   1
loop_
 _symmetry_equiv_pos_site_id
 _symmetry_equiv_pos_as_xyz
  1  'x, y, z'
loop_
 _atom_site_type_symbol
 _atom_site_label
 _atom_site_symmetry_multiplicity
 _atom_site_fract_x
 _atom_site_fract_y
 _atom_site_fract_z
 _atom_site_occupancy
  Tb  Tb0  1  0.774290  0.225710  0.604156  1
  Ho  Ho1  1  0.517586  0.482414  0.249966  1
  Ho  Ho2  1  0.225989  0.774011  0.395365  1
  Ho  Ho3  1  0.774191  0.225809  0.895729  1
  Ho  Ho4  1  0.482537  0.517463  0.750378  1
  Ho  Ho5  1  0.225918  0.774082  0.104392  1
  Si  Si6  1  0.061874  0.938126  0.590016  1
  Si  Si7  1  0.061692  0.938308  0.909901  1
  Si  Si8  1  0.938551  0.061449  0.409415  1
  Si  Si9  1  0.938180  0.061820  0.090255  1
  Ir  Ir10  1  0.811405  0.188595  0.250028  1
  Ir  Ir11  1  0.188096  0.811904  0.750653  1
  Ir  Ir12  1  0.499877  0.500123  0.000137  1
  Ir  Ir13  1  0.499815  0.500185  0.499609  1
