# generated using pymatgen
data_Na8Si3SnSe12
_symmetry_space_group_name_H-M   'P 1'
_cell_length_a   16.43812750
_cell_length_b   6.13352910
_cell_length_c   7.21323293
_cell_angle_alpha   66.38402672
_cell_angle_beta   89.79826643
_cell_angle_gamma   90.13796261
_symmetry_Int_Tables_number   1
_chemical_formula_structural   Na8Si3SnSe12
_chemical_formula_sum   'Na8 Si3 Sn1 Se12'
_cell_volume   666.34749477
_cell_formula_units_Z   1
loop_
 _symmetry_equiv_pos_site_id
 _symmetry_equiv_pos_as_xyz
  1  'x, y, z'
loop_
 _atom_site_type_symbol
 _atom_site_label
 _atom_site_symmetry_multiplicity
 _atom_site_fract_x
 _atom_site_fract_y
 _atom_site_fract_z
 _atom_site_occupancy
  Na  Na0  1  0.331414  0.471027  0.570984  1
  Na  Na1  1  0.832709  0.029906  0.429457  1
  Na  Na2  1  0.667452  0.529764  0.431366  1
  Na  Na3  1  0.167755  0.970574  0.571865  1
  Na  Na4  1  0.977826  0.334939  0.786680  1
  Na  Na5  1  0.520395  0.832117  0.788176  1
  Na  Na6  1  0.473384  0.170538  0.207736  1
  Na  Na7  1  0.028451  0.670396  0.211648  1
  Si  Si8  1  0.668576  0.158745  0.026267  1
  Si  Si9  1  0.173987  0.341237  0.969348  1
  Si  Si10  1  0.326091  0.841573  0.970174  1
  Sn  Sn11  1  0.830675  0.666561  0.027605  1
  Se  Se12  1  0.149022  0.441201  0.637494  1
  Se  Se13  1  0.646254  0.064686  0.359028  1
  Se  Se14  1  0.855496  0.547464  0.399405  1
  Se  Se15  1  0.352378  0.941501  0.637988  1
  Se  Se16  1  0.801775  0.296940  0.943200  1
  Se  Se17  1  0.302101  0.165447  0.057356  1
  Se  Se18  1  0.197782  0.664778  0.057161  1
  Se  Se19  1  0.683558  0.828187  0.946802  1
  Se  Se20  1  0.069810  0.170560  0.186006  1
  Se  Se21  1  0.566694  0.343982  0.811663  1
  Se  Se22  1  0.947091  0.847072  0.786973  1
  Se  Se23  1  0.429321  0.670807  0.185620  1
