# generated using pymatgen
data_NpIr(BrF12)2
_symmetry_space_group_name_H-M   'P 1'
_cell_length_a   5.34838663
_cell_length_b   9.22216900
_cell_length_c   10.09537822
_cell_angle_alpha   90.00000000
_cell_angle_beta   89.96036654
_cell_angle_gamma   90.00000000
_symmetry_Int_Tables_number   1
_chemical_formula_structural   NpIr(BrF12)2
_chemical_formula_sum   'Np1 Ir1 Br2 F24'
_cell_volume   497.94154349
_cell_formula_units_Z   1
loop_
 _symmetry_equiv_pos_site_id
 _symmetry_equiv_pos_as_xyz
  1  'x, y, z'
loop_
 _atom_site_type_symbol
 _atom_site_label
 _atom_site_symmetry_multiplicity
 _atom_site_fract_x
 _atom_site_fract_y
 _atom_site_fract_z
 _atom_site_occupancy
  Np  Np0  1  0.582603  0.750000  0.129286  1
  Ir  Ir1  1  0.918498  0.750000  0.629686  1
  Br  Br2  1  0.081297  0.250000  0.371029  1
  Br  Br3  1  0.417802  0.250000  0.869879  1
  F  F4  1  0.201771  0.750000  0.519895  1
  F  F5  1  0.806943  0.250000  0.477726  1
  F  F6  1  0.692090  0.250000  0.976455  1
  F  F7  1  0.278695  0.750000  0.013023  1
  F  F8  1  0.634843  0.750000  0.739685  1
  F  F9  1  0.356165  0.250000  0.264747  1
  F  F10  1  0.142931  0.250000  0.764044  1
  F  F11  1  0.886669  0.750000  0.245516  1
  F  F12  1  0.771177  0.606350  0.523693  1
  F  F13  1  0.223376  0.389481  0.473869  1
  F  F14  1  0.275409  0.389860  0.973048  1
  F  F15  1  0.223376  0.110519  0.473869  1
  F  F16  1  0.738782  0.596813  0.016149  1
  F  F17  1  0.771177  0.893650  0.523693  1
  F  F18  1  0.738782  0.903187  0.016149  1
  F  F19  1  0.275409  0.110140  0.973048  1
  F  F20  1  0.064334  0.606064  0.735697  1
  F  F21  1  0.939293  0.389816  0.267554  1
  F  F22  1  0.559313  0.389487  0.766609  1
  F  F23  1  0.939293  0.110184  0.267554  1
  F  F24  1  0.428163  0.596906  0.242897  1
  F  F25  1  0.064334  0.893936  0.735697  1
  F  F26  1  0.428163  0.903094  0.242897  1
  F  F27  1  0.559313  0.110513  0.766609  1
