# generated using pymatgen
data_Hf4Mg(Re7Tc)3
_symmetry_space_group_name_H-M   'P 1'
_cell_length_a   8.47087051
_cell_length_b   8.45560171
_cell_length_c   8.45560270
_cell_angle_alpha   109.43461243
_cell_angle_beta   109.50778948
_cell_angle_gamma   109.50781071
_symmetry_Int_Tables_number   1
_chemical_formula_structural   Hf4Mg(Re7Tc)3
_chemical_formula_sum   'Hf4 Mg1 Re21 Tc3'
_cell_volume   466.01404214
_cell_formula_units_Z   1
loop_
 _symmetry_equiv_pos_site_id
 _symmetry_equiv_pos_as_xyz
  1  'x, y, z'
loop_
 _atom_site_type_symbol
 _atom_site_label
 _atom_site_symmetry_multiplicity
 _atom_site_fract_x
 _atom_site_fract_y
 _atom_site_fract_z
 _atom_site_occupancy
  Hf  Hf0  1  0.631635  0.000000  0.000000  1
  Hf  Hf1  1  0.999712  0.633519  0.000000  1
  Hf  Hf2  1  0.999712  0.000000  0.633519  1
  Hf  Hf3  1  0.366192  0.366481  0.366481  1
  Mg  Mg4  1  0.999033  0.000000  0.000000  1
  Re  Re5  1  0.675294  0.394879  0.000000  1
  Re  Re6  1  0.001017  0.396331  0.676118  1
  Re  Re7  1  0.324898  0.720214  0.323882  1
  Re  Re8  1  0.324898  0.323882  0.720214  1
  Re  Re9  1  0.001017  0.676118  0.396331  1
  Re  Re10  1  0.675294  0.000000  0.394879  1
  Re  Re11  1  0.604685  0.603669  0.279786  1
  Re  Re12  1  0.280414  0.605121  0.605121  1
  Re  Re13  1  0.604685  0.279786  0.603669  1
  Re  Re14  1  0.374652  0.193563  0.000000  1
  Re  Re15  1  0.181089  0.806437  0.806437  1
  Re  Re16  1  0.374652  0.000000  0.193563  1
  Re  Re17  1  0.193380  0.376669  0.000000  1
  Re  Re18  1  0.000603  0.375815  0.192821  1
  Re  Re19  1  0.807781  0.182994  0.807179  1
  Re  Re20  1  0.807781  0.807179  0.182994  1
  Re  Re21  1  0.000603  0.192821  0.375815  1
  Re  Re22  1  0.193380  0.000000  0.376669  1
  Re  Re23  1  0.624787  0.624185  0.817006  1
  Re  Re24  1  0.816711  0.623331  0.623331  1
  Re  Re25  1  0.624787  0.817006  0.624185  1
  Tc  Tc26  1  0.396198  0.677290  0.000000  1
  Tc  Tc27  1  0.718909  0.322710  0.322710  1
  Tc  Tc28  1  0.396198  0.000000  0.677290  1
