# generated using pymatgen
data_Tb6YSn23Ir6
_symmetry_space_group_name_H-M   'P 1'
_cell_length_a   9.89107100
_cell_length_b   9.89107196
_cell_length_c   10.12167600
_cell_angle_alpha   90.00000000
_cell_angle_beta   90.00000000
_cell_angle_gamma   120.00000682
_symmetry_Int_Tables_number   1
_chemical_formula_structural   Tb6YSn23Ir6
_chemical_formula_sum   'Tb6 Y1 Sn23 Ir6'
_cell_volume   857.57026462
_cell_formula_units_Z   1
loop_
 _symmetry_equiv_pos_site_id
 _symmetry_equiv_pos_as_xyz
  1  'x, y, z'
loop_
 _atom_site_type_symbol
 _atom_site_label
 _atom_site_symmetry_multiplicity
 _atom_site_fract_x
 _atom_site_fract_y
 _atom_site_fract_z
 _atom_site_occupancy
  Tb  Tb0  1  0.480467  0.519533  0.306181  1
  Tb  Tb1  1  0.519533  0.480467  0.693819  1
  Tb  Tb2  1  0.480467  0.960933  0.306181  1
  Tb  Tb3  1  0.519533  0.039067  0.693819  1
  Tb  Tb4  1  0.039067  0.519533  0.306181  1
  Tb  Tb5  1  0.960933  0.480467  0.693819  1
  Y  Y6  1  0.000000  0.000000  0.000000  1
  Sn  Sn7  1  0.352183  0.000000  0.000000  1
  Sn  Sn8  1  0.647817  0.000000  0.000000  1
  Sn  Sn9  1  0.000000  0.352183  0.000000  1
  Sn  Sn10  1  0.000000  0.647817  0.000000  1
  Sn  Sn11  1  0.647817  0.647817  0.000000  1
  Sn  Sn12  1  0.352183  0.352183  0.000000  1
  Sn  Sn13  1  0.333333  0.666667  0.825186  1
  Sn  Sn14  1  0.666667  0.333333  0.174814  1
  Sn  Sn15  1  0.000000  0.000000  0.500000  1
  Sn  Sn16  1  0.777917  0.222083  0.457733  1
  Sn  Sn17  1  0.222083  0.777917  0.542267  1
  Sn  Sn18  1  0.777917  0.555834  0.457733  1
  Sn  Sn19  1  0.222083  0.444166  0.542267  1
  Sn  Sn20  1  0.444166  0.222083  0.457733  1
  Sn  Sn21  1  0.555834  0.777917  0.542267  1
  Sn  Sn22  1  0.333333  0.666667  0.120260  1
  Sn  Sn23  1  0.666667  0.333333  0.879740  1
  Sn  Sn24  1  0.118252  0.881748  0.283226  1
  Sn  Sn25  1  0.881748  0.118252  0.716774  1
  Sn  Sn26  1  0.118252  0.236505  0.283226  1
  Sn  Sn27  1  0.881748  0.763495  0.716774  1
  Sn  Sn28  1  0.763495  0.881748  0.283226  1
  Sn  Sn29  1  0.236505  0.118252  0.716774  1
  Ir  Ir30  1  0.830827  0.169173  0.198924  1
  Ir  Ir31  1  0.169173  0.830827  0.801076  1
  Ir  Ir32  1  0.830827  0.661652  0.198924  1
  Ir  Ir33  1  0.169173  0.338348  0.801076  1
  Ir  Ir34  1  0.338348  0.169173  0.198924  1
  Ir  Ir35  1  0.661652  0.830827  0.801076  1
