# generated using pymatgen
data_Tm4Co5Os3
_symmetry_space_group_name_H-M   'P 1'
_cell_length_a   5.10078773
_cell_length_b   5.13909063
_cell_length_c   8.44802800
_cell_angle_alpha   90.00000000
_cell_angle_beta   90.00000000
_cell_angle_gamma   120.24719854
_symmetry_Int_Tables_number   1
_chemical_formula_structural   Tm4Co5Os3
_chemical_formula_sum   'Tm4 Co5 Os3'
_cell_volume   191.30323111
_cell_formula_units_Z   1
loop_
 _symmetry_equiv_pos_site_id
 _symmetry_equiv_pos_as_xyz
  1  'x, y, z'
loop_
 _atom_site_type_symbol
 _atom_site_label
 _atom_site_symmetry_multiplicity
 _atom_site_fract_x
 _atom_site_fract_y
 _atom_site_fract_z
 _atom_site_occupancy
  Tm  Tm0  1  0.672455  0.336271  0.567391  1
  Tm  Tm1  1  0.336669  0.668330  0.438815  1
  Tm  Tm2  1  0.336669  0.668330  0.061185  1
  Tm  Tm3  1  0.672455  0.336271  0.932609  1
  Co  Co4  1  0.169677  0.333405  0.750000  1
  Co  Co5  1  0.169738  0.836173  0.750000  1
  Co  Co6  1  0.660894  0.830435  0.750000  1
  Co  Co7  1  0.817280  0.654880  0.250000  1
  Co  Co8  1  0.817217  0.162369  0.250000  1
  Os  Os9  1  0.007565  0.003812  0.505040  1
  Os  Os10  1  0.007565  0.003812  0.994960  1
  Os  Os11  1  0.331816  0.165913  0.250000  1
