# generated using pymatgen
data_Nb12TcMo6Os5
_symmetry_space_group_name_H-M   'P 1'
_cell_length_a   4.52545900
_cell_length_b   6.42150300
_cell_length_c   13.69829500
_cell_angle_alpha   90.00000000
_cell_angle_beta   90.00000000
_cell_angle_gamma   90.00000000
_symmetry_Int_Tables_number   1
_chemical_formula_structural   Nb12TcMo6Os5
_chemical_formula_sum   'Nb12 Tc1 Mo6 Os5'
_cell_volume   398.07585734
_cell_formula_units_Z   1
loop_
 _symmetry_equiv_pos_site_id
 _symmetry_equiv_pos_as_xyz
  1  'x, y, z'
loop_
 _atom_site_type_symbol
 _atom_site_label
 _atom_site_symmetry_multiplicity
 _atom_site_fract_x
 _atom_site_fract_y
 _atom_site_fract_z
 _atom_site_occupancy
  Nb  Nb0  1  0.500000  0.249490  0.999403  1
  Nb  Nb1  1  0.500000  0.750510  0.999403  1
  Nb  Nb2  1  0.000000  0.249919  0.166465  1
  Nb  Nb3  1  0.000000  0.750081  0.166465  1
  Nb  Nb4  1  0.500005  0.250037  0.333334  1
  Nb  Nb5  1  0.500005  0.749963  0.333334  1
  Nb  Nb6  1  0.000000  0.249917  0.500201  1
  Nb  Nb7  1  0.000000  0.750083  0.500201  1
  Nb  Nb8  1  0.499996  0.249490  0.667263  1
  Nb  Nb9  1  0.499996  0.750510  0.667263  1
  Nb  Nb10  1  0.000000  0.248978  0.833334  1
  Nb  Nb11  1  0.000000  0.751022  0.833334  1
  Tc  Tc12  1  0.499996  0.000000  0.833335  1
  Mo  Mo13  1  0.000000  0.000000  0.000803  1
  Mo  Mo14  1  0.500005  0.499999  0.166751  1
  Mo  Mo15  1  0.000000  0.000000  0.333333  1
  Mo  Mo16  1  0.500000  0.499999  0.499916  1
  Mo  Mo17  1  0.000000  0.000000  0.665864  1
  Mo  Mo18  1  0.499993  0.499999  0.833333  1
  Os  Os19  1  0.000000  0.499999  0.000255  1
  Os  Os20  1  0.500005  0.000000  0.167006  1
  Os  Os21  1  0.000000  0.499999  0.333335  1
  Os  Os22  1  0.500000  0.000000  0.499661  1
  Os  Os23  1  0.000000  0.499999  0.666410  1
