# generated using pymatgen
data_Ta4GaB4Ru10W
_symmetry_space_group_name_H-M   'P 1'
_cell_length_a   9.37407700
_cell_length_b   9.37407700
_cell_length_c   3.00402000
_cell_angle_alpha   90.00000000
_cell_angle_beta   90.00000000
_cell_angle_gamma   90.00000000
_symmetry_Int_Tables_number   1
_chemical_formula_structural   Ta4GaB4Ru10W
_chemical_formula_sum   'Ta4 Ga1 B4 Ru10 W1'
_cell_volume   263.97320955
_cell_formula_units_Z   1
loop_
 _symmetry_equiv_pos_site_id
 _symmetry_equiv_pos_as_xyz
  1  'x, y, z'
loop_
 _atom_site_type_symbol
 _atom_site_label
 _atom_site_symmetry_multiplicity
 _atom_site_fract_x
 _atom_site_fract_y
 _atom_site_fract_z
 _atom_site_occupancy
  Ta  Ta0  1  0.820252  0.673788  0.000000  1
  Ta  Ta1  1  0.179748  0.326212  0.000000  1
  Ta  Ta2  1  0.326212  0.820252  0.000000  1
  Ta  Ta3  1  0.673788  0.179748  0.000000  1
  Ga  Ga4  1  0.500000  0.500000  0.000000  1
  B  B5  1  0.615788  0.870267  0.000000  1
  B  B6  1  0.384212  0.129733  0.000000  1
  B  B7  1  0.129733  0.615788  0.000000  1
  B  B8  1  0.870267  0.384212  0.000000  1
  Ru  Ru9  1  0.571849  0.715143  0.500000  1
  Ru  Ru10  1  0.428151  0.284857  0.500000  1
  Ru  Ru11  1  0.070278  0.782882  0.500000  1
  Ru  Ru12  1  0.929722  0.217118  0.500000  1
  Ru  Ru13  1  0.284857  0.571849  0.500000  1
  Ru  Ru14  1  0.715143  0.428151  0.500000  1
  Ru  Ru15  1  0.217118  0.070278  0.500000  1
  Ru  Ru16  1  0.782882  0.929722  0.500000  1
  Ru  Ru17  1  0.500000  0.000000  0.500000  1
  Ru  Ru18  1  0.000000  0.500000  0.500000  1
  W  W19  1  0.000000  0.000000  0.000000  1
