# generated using pymatgen
data_La3Th3(Ir7Rh2)2
_symmetry_space_group_name_H-M   'P 1'
_cell_length_a   5.38916300
_cell_length_b   5.38916183
_cell_length_c   17.75680300
_cell_angle_alpha   90.00000000
_cell_angle_beta   90.00000000
_cell_angle_gamma   120.00000105
_symmetry_Int_Tables_number   1
_chemical_formula_structural   La3Th3(Ir7Rh2)2
_chemical_formula_sum   'La3 Th3 Ir14 Rh4'
_cell_volume   446.61977466
_cell_formula_units_Z   1
loop_
 _symmetry_equiv_pos_site_id
 _symmetry_equiv_pos_as_xyz
  1  'x, y, z'
loop_
 _atom_site_type_symbol
 _atom_site_label
 _atom_site_symmetry_multiplicity
 _atom_site_fract_x
 _atom_site_fract_y
 _atom_site_fract_z
 _atom_site_occupancy
  La  La0  1  0.333333  0.666667  0.957900  1
  La  La1  1  0.333333  0.666667  0.751542  1
  La  La2  1  0.666667  0.333333  0.249459  1
  Th  Th3  1  0.333333  0.666667  0.543293  1
  Th  Th4  1  0.666667  0.333333  0.041541  1
  Th  Th5  1  0.666667  0.333333  0.456947  1
  Ir  Ir6  1  0.167379  0.334757  0.126885  1
  Ir  Ir7  1  0.832349  0.664697  0.626184  1
  Ir  Ir8  1  0.665243  0.832621  0.126885  1
  Ir  Ir9  1  0.167379  0.832621  0.126885  1
  Ir  Ir10  1  0.832349  0.167651  0.626184  1
  Ir  Ir11  1  0.335303  0.167651  0.626184  1
  Ir  Ir12  1  0.832656  0.665313  0.873058  1
  Ir  Ir13  1  0.832656  0.167344  0.873058  1
  Ir  Ir14  1  0.334687  0.167344  0.873058  1
  Ir  Ir15  1  0.664476  0.832238  0.373695  1
  Ir  Ir16  1  0.167762  0.832238  0.373695  1
  Ir  Ir17  1  0.167762  0.335524  0.373695  1
  Ir  Ir18  1  0.000000  0.000000  0.999946  1
  Ir  Ir19  1  0.000000  0.000000  0.499867  1
  Rh  Rh20  1  0.000000  0.000000  0.250227  1
  Rh  Rh21  1  0.000000  0.000000  0.749992  1
  Rh  Rh22  1  0.333333  0.666667  0.249958  1
  Rh  Rh23  1  0.666667  0.333333  0.749858  1
