# generated using pymatgen
data_ErScP7Ru11Rh
_symmetry_space_group_name_H-M   'P 1'
_cell_length_a   9.34808801
_cell_length_b   9.40955591
_cell_length_c   3.93051300
_cell_angle_alpha   90.00000000
_cell_angle_beta   90.00000000
_cell_angle_gamma   119.62625789
_symmetry_Int_Tables_number   1
_chemical_formula_structural   ErScP7Ru11Rh
_chemical_formula_sum   'Er1 Sc1 P7 Ru11 Rh1'
_cell_volume   300.53501912
_cell_formula_units_Z   1
loop_
 _symmetry_equiv_pos_site_id
 _symmetry_equiv_pos_as_xyz
  1  'x, y, z'
loop_
 _atom_site_type_symbol
 _atom_site_label
 _atom_site_symmetry_multiplicity
 _atom_site_fract_x
 _atom_site_fract_y
 _atom_site_fract_z
 _atom_site_occupancy
  Er  Er0  1  0.330816  0.661963  0.000000  1
  Sc  Sc1  1  0.669792  0.335558  0.500000  1
  P  P2  1  0.599314  0.713579  0.500000  1
  P  P3  1  0.997142  0.999482  0.000000  1
  P  P4  1  0.278322  0.880297  0.500000  1
  P  P5  1  0.118613  0.400501  0.500000  1
  P  P6  1  0.884302  0.574125  0.000000  1
  P  P7  1  0.429525  0.310224  0.000000  1
  P  P8  1  0.695022  0.122443  0.000000  1
  Ru  Ru9  1  0.393558  0.441650  0.500000  1
  Ru  Ru10  1  0.912350  0.124341  0.500000  1
  Ru  Ru11  1  0.209882  0.086619  0.500000  1
  Ru  Ru12  1  0.878057  0.794865  0.500000  1
  Ru  Ru13  1  0.722748  0.890928  0.000000  1
  Ru  Ru14  1  0.109712  0.837314  0.000000  1
  Ru  Ru15  1  0.164379  0.271046  0.000000  1
  Ru  Ru16  1  0.430109  0.069816  0.000000  1
  Ru  Ru17  1  0.932963  0.360320  0.000000  1
  Ru  Ru18  1  0.642804  0.573520  0.000000  1
  Ru  Ru19  1  0.050222  0.606854  0.500000  1
  Rh  Rh20  1  0.550369  0.944555  0.500000  1
