# generated using pymatgen
data_Nb5Co2Sn(BRu2)4
_symmetry_space_group_name_H-M   'P 1'
_cell_length_a   9.32368700
_cell_length_b   9.32368700
_cell_length_c   3.03108400
_cell_angle_alpha   90.00000000
_cell_angle_beta   90.00000000
_cell_angle_gamma   90.00000000
_symmetry_Int_Tables_number   1
_chemical_formula_structural   Nb5Co2Sn(BRu2)4
_chemical_formula_sum   'Nb5 Co2 Sn1 B4 Ru8'
_cell_volume   263.49558536
_cell_formula_units_Z   1
loop_
 _symmetry_equiv_pos_site_id
 _symmetry_equiv_pos_as_xyz
  1  'x, y, z'
loop_
 _atom_site_type_symbol
 _atom_site_label
 _atom_site_symmetry_multiplicity
 _atom_site_fract_x
 _atom_site_fract_y
 _atom_site_fract_z
 _atom_site_occupancy
  Nb  Nb0  1  0.824856  0.675306  0.000000  1
  Nb  Nb1  1  0.175144  0.324694  0.000000  1
  Nb  Nb2  1  0.324694  0.824856  0.000000  1
  Nb  Nb3  1  0.675306  0.175144  0.000000  1
  Nb  Nb4  1  0.000000  0.000000  0.000000  1
  Co  Co5  1  0.500000  0.000000  0.500000  1
  Co  Co6  1  0.000000  0.500000  0.500000  1
  Sn  Sn7  1  0.500000  0.500000  0.000000  1
  B  B8  1  0.607928  0.889529  0.000000  1
  B  B9  1  0.392072  0.110471  0.000000  1
  B  B10  1  0.110471  0.607928  0.000000  1
  B  B11  1  0.889529  0.392072  0.000000  1
  Ru  Ru12  1  0.567614  0.728359  0.500000  1
  Ru  Ru13  1  0.432386  0.271641  0.500000  1
  Ru  Ru14  1  0.063158  0.775113  0.500000  1
  Ru  Ru15  1  0.936842  0.224887  0.500000  1
  Ru  Ru16  1  0.271641  0.567614  0.500000  1
  Ru  Ru17  1  0.728359  0.432386  0.500000  1
  Ru  Ru18  1  0.224887  0.063158  0.500000  1
  Ru  Ru19  1  0.775113  0.936842  0.500000  1
