# generated using pymatgen
data_Dy4HgPd3Pb2
_symmetry_space_group_name_H-M   'P 1'
_cell_length_a   8.12550736
_cell_length_b   8.12550736
_cell_length_c   3.59972000
_cell_angle_alpha   90.00000000
_cell_angle_beta   90.00000000
_cell_angle_gamma   90.61850494
_symmetry_Int_Tables_number   1
_chemical_formula_structural   Dy4HgPd3Pb2
_chemical_formula_sum   'Dy4 Hg1 Pd3 Pb2'
_cell_volume   237.65359707
_cell_formula_units_Z   1
loop_
 _symmetry_equiv_pos_site_id
 _symmetry_equiv_pos_as_xyz
  1  'x, y, z'
loop_
 _atom_site_type_symbol
 _atom_site_label
 _atom_site_symmetry_multiplicity
 _atom_site_fract_x
 _atom_site_fract_y
 _atom_site_fract_z
 _atom_site_occupancy
  Dy  Dy0  1  0.689635  0.165833  0.500000  1
  Dy  Dy1  1  0.152757  0.347243  0.500000  1
  Dy  Dy2  1  0.829725  0.670275  0.500000  1
  Dy  Dy3  1  0.334167  0.810365  0.500000  1
  Hg  Hg4  1  0.375234  0.124766  0.000000  1
  Pd  Pd5  1  0.121509  0.629356  0.000000  1
  Pd  Pd6  1  0.624508  0.875492  0.000000  1
  Pd  Pd7  1  0.870644  0.378491  0.000000  1
  Pb  Pb8  1  0.996853  0.995031  0.000000  1
  Pb  Pb9  1  0.504969  0.503147  0.000000  1
