# generated using pymatgen
data_Gd5Sn3N
_symmetry_space_group_name_H-M   'P 1'
_cell_length_a   8.89217800
_cell_length_b   8.89217883
_cell_length_c   6.38679800
_cell_angle_alpha   90.00000000
_cell_angle_beta   90.00000000
_cell_angle_gamma   119.99999692
_symmetry_Int_Tables_number   1
_chemical_formula_structural   Gd5Sn3N
_chemical_formula_sum   'Gd10 Sn6 N2'
_cell_volume   437.35103797
_cell_formula_units_Z   2
loop_
 _symmetry_equiv_pos_site_id
 _symmetry_equiv_pos_as_xyz
  1  'x, y, z'
loop_
 _atom_site_type_symbol
 _atom_site_label
 _atom_site_symmetry_multiplicity
 _atom_site_fract_x
 _atom_site_fract_y
 _atom_site_fract_z
 _atom_site_occupancy
  Gd  Gd0  1  0.666667  0.333333  0.000000  1
  Gd  Gd1  1  0.333333  0.666667  0.000000  1
  Gd  Gd2  1  0.333333  0.666667  0.500000  1
  Gd  Gd3  1  0.666667  0.333333  0.500000  1
  Gd  Gd4  1  0.783813  0.783813  0.750000  1
  Gd  Gd5  1  0.216187  0.000000  0.750000  1
  Gd  Gd6  1  0.000000  0.216187  0.750000  1
  Gd  Gd7  1  0.216187  0.216187  0.250000  1
  Gd  Gd8  1  0.783813  0.000000  0.250000  1
  Gd  Gd9  1  0.000000  0.783813  0.250000  1
  Sn  Sn10  1  0.404015  0.404015  0.750000  1
  Sn  Sn11  1  0.595985  0.000000  0.750000  1
  Sn  Sn12  1  0.000000  0.595985  0.750000  1
  Sn  Sn13  1  0.595985  0.595985  0.250000  1
  Sn  Sn14  1  0.404015  0.000000  0.250000  1
  Sn  Sn15  1  0.000000  0.404015  0.250000  1
  N  N16  1  0.000000  0.000000  0.000000  1
  N  N17  1  0.000000  0.000000  0.500000  1
