# generated using pymatgen
data_Tb2Yb2PtRh3O14
_symmetry_space_group_name_H-M   'P 1'
_cell_length_a   7.23027274
_cell_length_b   7.23402559
_cell_length_c   7.24725432
_cell_angle_alpha   60.06035092
_cell_angle_beta   60.03308763
_cell_angle_gamma   59.98281492
_symmetry_Int_Tables_number   1
_chemical_formula_structural   Tb2Yb2PtRh3O14
_chemical_formula_sum   'Tb2 Yb2 Pt1 Rh3 O14'
_cell_volume   268.19024765
_cell_formula_units_Z   1
loop_
 _symmetry_equiv_pos_site_id
 _symmetry_equiv_pos_as_xyz
  1  'x, y, z'
loop_
 _atom_site_type_symbol
 _atom_site_label
 _atom_site_symmetry_multiplicity
 _atom_site_fract_x
 _atom_site_fract_y
 _atom_site_fract_z
 _atom_site_occupancy
  Tb  Tb0  1  0.625000  0.625000  0.625000  1
  Tb  Tb1  1  0.625000  0.125000  0.625000  1
  Yb  Yb2  1  0.625000  0.625000  0.125000  1
  Yb  Yb3  1  0.125000  0.625000  0.625000  1
  Pt  Pt4  1  0.625000  0.125000  0.125000  1
  Rh  Rh5  1  0.125000  0.125000  0.125000  1
  Rh  Rh6  1  0.125000  0.625000  0.125000  1
  Rh  Rh7  1  0.125000  0.125000  0.625000  1
  O  O8  1  0.042038  0.454432  0.455280  1
  O  O9  1  0.791183  0.790613  0.213498  1
  O  O10  1  0.791183  0.204706  0.213498  1
  O  O11  1  0.460517  0.039479  0.460525  1
  O  O12  1  0.050433  0.452011  0.045544  1
  O  O13  1  0.747642  0.752770  0.746819  1
  O  O14  1  0.042038  0.048249  0.455280  1
  O  O15  1  0.199567  0.797989  0.204456  1
  O  O16  1  0.207962  0.201751  0.794720  1
  O  O17  1  0.502358  0.497230  0.503181  1
  O  O18  1  0.789483  0.210521  0.789475  1
  O  O19  1  0.458817  0.045294  0.036502  1
  O  O20  1  0.458817  0.459387  0.036502  1
  O  O21  1  0.207962  0.795568  0.794720  1
