# generated using pymatgen
data_DyMo3(PO4)4
_symmetry_space_group_name_H-M   'P 1'
_cell_length_a   4.88280785
_cell_length_b   7.04274126
_cell_length_c   9.07513070
_cell_angle_alpha   90.03569973
_cell_angle_beta   90.13679642
_cell_angle_gamma   89.91178269
_symmetry_Int_Tables_number   1
_chemical_formula_structural   DyMo3(PO4)4
_chemical_formula_sum   'Dy1 Mo3 P4 O16'
_cell_volume   312.07747248
_cell_formula_units_Z   1
loop_
 _symmetry_equiv_pos_site_id
 _symmetry_equiv_pos_as_xyz
  1  'x, y, z'
loop_
 _atom_site_type_symbol
 _atom_site_label
 _atom_site_symmetry_multiplicity
 _atom_site_fract_x
 _atom_site_fract_y
 _atom_site_fract_z
 _atom_site_occupancy
  Dy  Dy0  1  0.000000  0.000000  0.000000  1
  Mo  Mo1  1  0.500000  0.500000  0.500000  1
  Mo  Mo2  1  0.000000  0.500000  0.000000  1
  Mo  Mo3  1  0.500000  0.000000  0.500000  1
  P  P4  1  0.989322  0.745803  0.674102  1
  P  P5  1  0.493250  0.256880  0.819028  1
  P  P6  1  0.010678  0.254197  0.325898  1
  P  P7  1  0.506750  0.743120  0.180972  1
  O  O8  1  0.145835  0.436001  0.379218  1
  O  O9  1  0.652829  0.563604  0.129788  1
  O  O10  1  0.849629  0.931556  0.628423  1
  O  O11  1  0.368930  0.070384  0.871944  1
  O  O12  1  0.854165  0.563999  0.620782  1
  O  O13  1  0.347171  0.436396  0.870212  1
  O  O14  1  0.150371  0.068444  0.371577  1
  O  O15  1  0.631070  0.929616  0.128056  1
  O  O16  1  0.201626  0.735372  0.124237  1
  O  O17  1  0.705316  0.249598  0.385016  1
  O  O18  1  0.798374  0.264628  0.875763  1
  O  O19  1  0.294684  0.750402  0.614984  1
  O  O20  1  0.525151  0.747992  0.355384  1
  O  O21  1  0.017984  0.258482  0.152024  1
  O  O22  1  0.474849  0.252008  0.644616  1
  O  O23  1  0.982016  0.741518  0.847976  1
