# generated using pymatgen
data_EuLu4Bi3O14
_symmetry_space_group_name_H-M   'P 1'
_cell_length_a   6.52174199
_cell_length_b   6.54373822
_cell_length_c   7.64317500
_cell_angle_alpha   106.88225651
_cell_angle_beta   89.65681586
_cell_angle_gamma   99.19679966
_symmetry_Int_Tables_number   1
_chemical_formula_structural   EuLu4Bi3O14
_chemical_formula_sum   'Eu1 Lu4 Bi3 O14'
_cell_volume   307.83250823
_cell_formula_units_Z   1
loop_
 _symmetry_equiv_pos_site_id
 _symmetry_equiv_pos_as_xyz
  1  'x, y, z'
loop_
 _atom_site_type_symbol
 _atom_site_label
 _atom_site_symmetry_multiplicity
 _atom_site_fract_x
 _atom_site_fract_y
 _atom_site_fract_z
 _atom_site_occupancy
  Eu  Eu0  1  0.748850  0.485254  0.622955  1
  Lu  Lu1  1  0.464872  0.008545  0.252600  1
  Lu  Lu2  1  0.534727  0.997750  0.751459  1
  Lu  Lu3  1  0.275270  0.535408  0.885796  1
  Lu  Lu4  1  0.732344  0.459266  0.111175  1
  Bi  Bi5  1  0.995089  0.999241  0.499561  1
  Bi  Bi6  1  0.000255  0.997641  0.998401  1
  Bi  Bi7  1  0.277869  0.529811  0.382542  1
  O  O8  1  0.457869  0.659094  0.162021  1
  O  O9  1  0.543306  0.345426  0.844169  1
  O  O10  1  0.304052  0.917737  0.949496  1
  O  O11  1  0.697477  0.079279  0.051672  1
  O  O12  1  0.301850  0.933586  0.518398  1
  O  O13  1  0.693875  0.076234  0.488498  1
  O  O14  1  0.546491  0.358705  0.332646  1
  O  O15  1  0.455314  0.641658  0.663612  1
  O  O16  1  0.926899  0.657980  0.954194  1
  O  O17  1  0.069632  0.332228  0.029884  1
  O  O18  1  0.074947  0.341491  0.633523  1
  O  O19  1  0.905374  0.660603  0.371279  1
  O  O20  1  0.862953  0.901248  0.725656  1
  O  O21  1  0.130684  0.081815  0.270464  1
