# generated using pymatgen
data_CeNd2Hf3(SnRh)6
_symmetry_space_group_name_H-M   'P 1'
_cell_length_a   7.51528104
_cell_length_b   7.51634960
_cell_length_c   7.67160800
_cell_angle_alpha   90.00000000
_cell_angle_beta   90.00000000
_cell_angle_gamma   120.00642982
_symmetry_Int_Tables_number   1
_chemical_formula_structural   CeNd2Hf3(SnRh)6
_chemical_formula_sum   'Ce1 Nd2 Hf3 Sn6 Rh6'
_cell_volume   375.26761793
_cell_formula_units_Z   1
loop_
 _symmetry_equiv_pos_site_id
 _symmetry_equiv_pos_as_xyz
  1  'x, y, z'
loop_
 _atom_site_type_symbol
 _atom_site_label
 _atom_site_symmetry_multiplicity
 _atom_site_fract_x
 _atom_site_fract_y
 _atom_site_fract_z
 _atom_site_occupancy
  Ce  Ce0  1  0.999862  0.407478  0.750000  1
  Nd  Nd1  1  0.592977  0.592416  0.750000  1
  Nd  Nd2  1  0.407046  0.999547  0.750000  1
  Hf  Hf3  1  0.999693  0.392620  0.250000  1
  Hf  Hf4  1  0.605924  0.605840  0.250000  1
  Hf  Hf5  1  0.394379  0.000539  0.250000  1
  Sn  Sn6  1  0.265819  0.264903  0.487364  1
  Sn  Sn7  1  0.000210  0.735173  0.488032  1
  Sn  Sn8  1  0.000210  0.735173  0.011968  1
  Sn  Sn9  1  0.733976  0.998626  0.487337  1
  Sn  Sn10  1  0.733976  0.998626  0.012663  1
  Sn  Sn11  1  0.265819  0.264903  0.012636  1
  Rh  Rh12  1  0.330734  0.664466  0.453863  1
  Rh  Rh13  1  0.669329  0.333729  0.454422  1
  Rh  Rh14  1  0.330734  0.664466  0.046137  1
  Rh  Rh15  1  0.999953  0.008023  0.750000  1
  Rh  Rh16  1  0.000031  0.999747  0.250000  1
  Rh  Rh17  1  0.669329  0.333729  0.045578  1
