# generated using pymatgen
data_K2CeHCl7
_symmetry_space_group_name_H-M   'P 1'
_cell_length_a   7.89085577
_cell_length_b   7.68138400
_cell_length_c   11.63429300
_cell_angle_alpha   90.00000000
_cell_angle_beta   98.10519779
_cell_angle_gamma   90.00000000
_symmetry_Int_Tables_number   1
_chemical_formula_structural   K2CeHCl7
_chemical_formula_sum   'K4 Ce2 H2 Cl14'
_cell_volume   698.14164118
_cell_formula_units_Z   2
loop_
 _symmetry_equiv_pos_site_id
 _symmetry_equiv_pos_as_xyz
  1  'x, y, z'
loop_
 _atom_site_type_symbol
 _atom_site_label
 _atom_site_symmetry_multiplicity
 _atom_site_fract_x
 _atom_site_fract_y
 _atom_site_fract_z
 _atom_site_occupancy
  K  K0  1  0.235979  0.250000  0.998217  1
  K  K1  1  0.764021  0.750000  0.001783  1
  K  K2  1  0.190471  0.750000  0.670987  1
  K  K3  1  0.809529  0.250000  0.329013  1
  Ce  Ce4  1  0.299761  0.750000  0.214253  1
  Ce  Ce5  1  0.700239  0.250000  0.785747  1
  H  H6  1  0.329982  0.250000  0.532198  1
  H  H7  1  0.670018  0.750000  0.467802  1
  Cl  Cl8  1  0.167800  0.250000  0.546591  1
  Cl  Cl9  1  0.832200  0.750000  0.453409  1
  Cl  Cl10  1  0.384809  0.750000  0.443959  1
  Cl  Cl11  1  0.615191  0.250000  0.556041  1
  Cl  Cl12  1  0.068871  0.506148  0.221395  1
  Cl  Cl13  1  0.931129  0.006148  0.778605  1
  Cl  Cl14  1  0.931129  0.493852  0.778605  1
  Cl  Cl15  1  0.068871  0.993852  0.221395  1
  Cl  Cl16  1  0.206221  0.750000  0.988951  1
  Cl  Cl17  1  0.793779  0.250000  0.011049  1
  Cl  Cl18  1  0.529103  0.990689  0.184073  1
  Cl  Cl19  1  0.470897  0.490689  0.815927  1
  Cl  Cl20  1  0.470897  0.009311  0.815927  1
  Cl  Cl21  1  0.529103  0.509311  0.184073  1
