# generated using pymatgen
data_BPH4
_symmetry_space_group_name_H-M   'P 1'
_cell_length_a   3.23552879
_cell_length_b   3.23858050
_cell_length_c   7.81345221
_cell_angle_alpha   82.08460369
_cell_angle_beta   87.28142588
_cell_angle_gamma   119.98187181
_symmetry_Int_Tables_number   1
_chemical_formula_structural   BPH4
_chemical_formula_sum   'B1 P1 H4'
_cell_volume   69.59394762
_cell_formula_units_Z   1
loop_
 _symmetry_equiv_pos_site_id
 _symmetry_equiv_pos_as_xyz
  1  'x, y, z'
loop_
 _atom_site_type_symbol
 _atom_site_label
 _atom_site_symmetry_multiplicity
 _atom_site_fract_x
 _atom_site_fract_y
 _atom_site_fract_z
 _atom_site_occupancy
  B  B0  1  0.575465  0.941642  0.848907  1
  P  P1  1  0.214723  0.237055  0.922544  1
  H  H2  1  0.138805  0.133537  0.108188  1
  H  H3  1  0.441393  0.616452  0.430546  1
  H  H4  1  0.272658  0.546750  0.363227  1
  H  H5  1  0.631003  0.019252  0.691092  1
