# generated using pymatgen
data_La10Al4(IrOs)3
_symmetry_space_group_name_H-M   'P 1'
_cell_length_a   8.70232156
_cell_length_b   8.66768629
_cell_length_c   8.70232110
_cell_angle_alpha   109.56599811
_cell_angle_beta   109.68228698
_cell_angle_gamma   109.32665453
_symmetry_Int_Tables_number   1
_chemical_formula_structural   La10Al4(IrOs)3
_chemical_formula_sum   'La10 Al4 Ir3 Os3'
_cell_volume   504.29055320
_cell_formula_units_Z   1
loop_
 _symmetry_equiv_pos_site_id
 _symmetry_equiv_pos_as_xyz
  1  'x, y, z'
loop_
 _atom_site_type_symbol
 _atom_site_label
 _atom_site_symmetry_multiplicity
 _atom_site_fract_x
 _atom_site_fract_y
 _atom_site_fract_z
 _atom_site_occupancy
  La  La0  1  0.249813  0.685244  0.435438  1
  La  La1  1  0.750193  0.814756  0.064569  1
  La  La2  1  0.434819  0.250000  0.684818  1
  La  La3  1  0.684591  0.439024  0.252243  1
  La  La4  1  0.064821  0.750000  0.814821  1
  La  La5  1  0.813220  0.060977  0.745568  1
  La  La6  1  0.211232  0.210346  0.213051  1
  La  La7  1  0.498618  0.995923  0.287040  1
  La  La8  1  0.291117  0.504078  0.002694  1
  La  La9  1  0.002705  0.289654  0.500887  1
  Al  Al10  1  0.499406  0.999064  0.905325  1
  Al  Al11  1  0.592133  0.593913  0.594354  1
  Al  Al12  1  0.906262  0.500937  0.000341  1
  Al  Al13  1  0.000441  0.906087  0.498221  1
  Ir  Ir14  1  0.250834  0.117252  0.867337  1
  Ir  Ir15  1  0.750086  0.382747  0.633580  1
  Ir  Ir16  1  0.863805  0.250001  0.113805  1
  Os  Os17  1  0.119101  0.868337  0.249996  1
  Os  Os18  1  0.635149  0.750000  0.385149  1
  Os  Os19  1  0.381657  0.631662  0.750764  1
