# generated using pymatgen
data_Tm7Zr(Si4Ru3)4
_symmetry_space_group_name_H-M   'P 1'
_cell_length_a   10.15674532
_cell_length_b   10.15326289
_cell_length_c   13.65133874
_cell_angle_alpha   53.33473695
_cell_angle_beta   53.27010528
_cell_angle_gamma   30.86960736
_symmetry_Int_Tables_number   1
_chemical_formula_structural   Tm7Zr(Si4Ru3)4
_chemical_formula_sum   'Tm7 Zr1 Si16 Ru12'
_cell_volume   566.75533664
_cell_formula_units_Z   1
loop_
 _symmetry_equiv_pos_site_id
 _symmetry_equiv_pos_as_xyz
  1  'x, y, z'
loop_
 _atom_site_type_symbol
 _atom_site_label
 _atom_site_symmetry_multiplicity
 _atom_site_fract_x
 _atom_site_fract_y
 _atom_site_fract_z
 _atom_site_occupancy
  Tm  Tm0  1  0.039564  0.288219  0.640082  1
  Tm  Tm1  1  0.711139  0.961420  0.859991  1
  Tm  Tm2  1  0.959326  0.711794  0.359723  1
  Tm  Tm3  1  0.289379  0.038493  0.140836  1
  Tm  Tm4  1  0.299895  0.557182  0.643585  1
  Tm  Tm5  1  0.442079  0.700444  0.857433  1
  Tm  Tm6  1  0.702258  0.441304  0.354990  1
  Zr  Zr7  1  0.557795  0.292535  0.147033  1
  Si  Si8  1  0.975634  0.252441  0.896411  1
  Si  Si9  1  0.751750  0.020642  0.604458  1
  Si  Si10  1  0.024360  0.748860  0.106237  1
  Si  Si11  1  0.249767  0.978220  0.393307  1
  Si  Si12  1  0.139457  0.383839  0.900230  1
  Si  Si13  1  0.615182  0.861606  0.599479  1
  Si  Si14  1  0.859337  0.616633  0.102210  1
  Si  Si15  1  0.380250  0.146845  0.395725  1
  Si  Si16  1  0.081525  0.574350  0.568149  1
  Si  Si17  1  0.425905  0.919649  0.930942  1
  Si  Si18  1  0.917508  0.425564  0.432437  1
  Si  Si19  1  0.574461  0.082617  0.068430  1
  Si  Si20  1  0.621554  0.379346  0.749695  1
  Si  Si21  1  0.384136  0.614798  0.248506  1
  Si  Si22  1  0.128689  0.871540  0.750614  1
  Si  Si23  1  0.866796  0.131845  0.248753  1
  Ru  Ru24  1  0.900198  0.136813  0.587187  1
  Ru  Ru25  1  0.856674  0.105497  0.916314  1
  Ru  Ru26  1  0.101787  0.859885  0.410892  1
  Ru  Ru27  1  0.140584  0.895968  0.087287  1
  Ru  Ru28  1  0.836201  0.642468  0.782466  1
  Ru  Ru29  1  0.358436  0.164663  0.716660  1
  Ru  Ru30  1  0.166940  0.359679  0.216925  1
  Ru  Ru31  1  0.641989  0.835804  0.282823  1
  Ru  Ru32  1  0.251360  0.504035  0.931696  1
  Ru  Ru33  1  0.497039  0.748143  0.569874  1
  Ru  Ru34  1  0.748408  0.494601  0.066895  1
  Ru  Ru35  1  0.502639  0.252257  0.431725  1
