# generated using pymatgen
data_Li4Fe4SnPd(PbO8)2
_symmetry_space_group_name_H-M   'P 1'
_cell_length_a   6.12421202
_cell_length_b   6.12678157
_cell_length_c   10.07323300
_cell_angle_alpha   90.16409438
_cell_angle_beta   89.83297394
_cell_angle_gamma   120.75398040
_symmetry_Int_Tables_number   1
_chemical_formula_structural   Li4Fe4SnPd(PbO8)2
_chemical_formula_sum   'Li4 Fe4 Sn1 Pd1 Pb2 O16'
_cell_volume   324.81025503
_cell_formula_units_Z   1
loop_
 _symmetry_equiv_pos_site_id
 _symmetry_equiv_pos_as_xyz
  1  'x, y, z'
loop_
 _atom_site_type_symbol
 _atom_site_label
 _atom_site_symmetry_multiplicity
 _atom_site_fract_x
 _atom_site_fract_y
 _atom_site_fract_z
 _atom_site_occupancy
  Li  Li0  1  0.336210  0.662232  0.888413  1
  Li  Li1  1  0.992630  0.004758  0.985223  1
  Li  Li2  1  0.002677  0.006513  0.499763  1
  Li  Li3  1  0.656593  0.321612  0.410038  1
  Fe  Fe4  1  0.662208  0.832669  0.216389  1
  Fe  Fe5  1  0.339080  0.168523  0.715580  1
  Fe  Fe6  1  0.832057  0.660639  0.713861  1
  Fe  Fe7  1  0.831800  0.169380  0.715160  1
  Sn  Sn8  1  0.170432  0.834223  0.216492  1
  Pd  Pd9  1  0.167626  0.338497  0.214836  1
  Pb  Pb10  1  0.336479  0.666810  0.502740  1
  Pb  Pb11  1  0.675761  0.340993  0.982265  1
  O  O12  1  0.154858  0.844801  0.597315  1
  O  O13  1  0.022558  0.502821  0.332835  1
  O  O14  1  0.334620  0.664395  0.106078  1
  O  O15  1  0.997831  0.005251  0.316212  1
  O  O16  1  0.999943  0.999434  0.806472  1
  O  O17  1  0.157370  0.310775  0.602336  1
  O  O18  1  0.491217  0.973915  0.334893  1
  O  O19  1  0.481628  0.512433  0.332225  1
  O  O20  1  0.305771  0.160015  0.098697  1
  O  O21  1  0.692093  0.844134  0.601012  1
  O  O22  1  0.516053  0.486483  0.835437  1
  O  O23  1  0.513056  0.025165  0.838147  1
  O  O24  1  0.666598  0.329833  0.608409  1
  O  O25  1  0.840349  0.691304  0.102289  1
  O  O26  1  0.979687  0.490434  0.833076  1
  O  O27  1  0.842814  0.152257  0.101648  1
