# generated using pymatgen
data_Ti2Mn3Co
_symmetry_space_group_name_H-M   'P 1'
_cell_length_a   4.64396200
_cell_length_b   4.64396194
_cell_length_c   8.03047100
_cell_angle_alpha   90.00000000
_cell_angle_beta   90.00000000
_cell_angle_gamma   120.00000041
_symmetry_Int_Tables_number   1
_chemical_formula_structural   Ti2Mn3Co
_chemical_formula_sum   'Ti4 Mn6 Co2'
_cell_volume   149.98539025
_cell_formula_units_Z   2
loop_
 _symmetry_equiv_pos_site_id
 _symmetry_equiv_pos_as_xyz
  1  'x, y, z'
loop_
 _atom_site_type_symbol
 _atom_site_label
 _atom_site_symmetry_multiplicity
 _atom_site_fract_x
 _atom_site_fract_y
 _atom_site_fract_z
 _atom_site_occupancy
  Ti  Ti0  1  0.333333  0.666667  0.432273  1
  Ti  Ti1  1  0.666667  0.333333  0.932273  1
  Ti  Ti2  1  0.666667  0.333333  0.567727  1
  Ti  Ti3  1  0.333333  0.666667  0.067727  1
  Mn  Mn4  1  0.658398  0.829199  0.750000  1
  Mn  Mn5  1  0.341602  0.170801  0.250000  1
  Mn  Mn6  1  0.829199  0.170801  0.250000  1
  Mn  Mn7  1  0.170801  0.341602  0.750000  1
  Mn  Mn8  1  0.170801  0.829199  0.750000  1
  Mn  Mn9  1  0.829199  0.658398  0.250000  1
  Co  Co10  1  0.000000  0.000000  0.500000  1
  Co  Co11  1  0.000000  0.000000  0.000000  1
