# generated using pymatgen
data_TmLuGa9PtRh2
_symmetry_space_group_name_H-M   'P 1'
_cell_length_a   7.58772301
_cell_length_b   7.58746878
_cell_length_c   9.44118900
_cell_angle_alpha   90.00000000
_cell_angle_beta   90.00000000
_cell_angle_gamma   119.88702835
_symmetry_Int_Tables_number   1
_chemical_formula_structural   TmLuGa9PtRh2
_chemical_formula_sum   'Tm2 Lu2 Ga18 Pt2 Rh4'
_cell_volume   471.25825975
_cell_formula_units_Z   2
loop_
 _symmetry_equiv_pos_site_id
 _symmetry_equiv_pos_as_xyz
  1  'x, y, z'
loop_
 _atom_site_type_symbol
 _atom_site_label
 _atom_site_symmetry_multiplicity
 _atom_site_fract_x
 _atom_site_fract_y
 _atom_site_fract_z
 _atom_site_occupancy
  Tm  Tm0  1  0.996738  0.673468  0.250000  1
  Tm  Tm1  1  0.003262  0.326532  0.750000  1
  Lu  Lu2  1  0.673454  0.996725  0.250000  1
  Lu  Lu3  1  0.326546  0.003275  0.750000  1
  Ga  Ga4  1  0.336198  0.550504  0.250000  1
  Ga  Ga5  1  0.663802  0.449496  0.750000  1
  Ga  Ga6  1  0.550428  0.336081  0.250000  1
  Ga  Ga7  1  0.449572  0.663919  0.750000  1
  Ga  Ga8  1  0.997622  0.339092  0.082407  1
  Ga  Ga9  1  0.002378  0.660908  0.917593  1
  Ga  Ga10  1  0.002378  0.660908  0.582407  1
  Ga  Ga11  1  0.339324  0.997743  0.417658  1
  Ga  Ga12  1  0.997622  0.339092  0.417593  1
  Ga  Ga13  1  0.660676  0.002257  0.582342  1
  Ga  Ga14  1  0.660676  0.002257  0.917658  1
  Ga  Ga15  1  0.339324  0.997743  0.082342  1
  Ga  Ga16  1  0.336179  0.336068  0.570386  1
  Ga  Ga17  1  0.663821  0.663932  0.429614  1
  Ga  Ga18  1  0.663821  0.663932  0.070386  1
  Ga  Ga19  1  0.336179  0.336068  0.929614  1
  Ga  Ga20  1  0.135893  0.135931  0.250000  1
  Ga  Ga21  1  0.864107  0.864069  0.750000  1
  Pt  Pt22  1  0.000000  0.000000  0.000000  1
  Pt  Pt23  1  0.000000  0.000000  0.500000  1
  Rh  Rh24  1  0.671165  0.328760  0.999999  1
  Rh  Rh25  1  0.328835  0.671240  0.000001  1
  Rh  Rh26  1  0.328835  0.671240  0.499999  1
  Rh  Rh27  1  0.671165  0.328760  0.500001  1
