# generated using pymatgen
data_Ti8BeBi4W
_symmetry_space_group_name_H-M   'P 1'
_cell_length_a   7.94939921
_cell_length_b   7.94834501
_cell_length_c   7.94887637
_cell_angle_alpha   95.50069845
_cell_angle_beta   95.50843863
_cell_angle_gamma   143.91516291
_symmetry_Int_Tables_number   1
_chemical_formula_structural   Ti8BeBi4W
_chemical_formula_sum   'Ti8 Be1 Bi4 W1'
_cell_volume   281.26897705
_cell_formula_units_Z   1
loop_
 _symmetry_equiv_pos_site_id
 _symmetry_equiv_pos_as_xyz
  1  'x, y, z'
loop_
 _atom_site_type_symbol
 _atom_site_label
 _atom_site_symmetry_multiplicity
 _atom_site_fract_x
 _atom_site_fract_y
 _atom_site_fract_z
 _atom_site_occupancy
  Ti  Ti0  1  0.089990  0.205269  0.280411  1
  Ti  Ti1  1  0.924928  0.809590  0.719638  1
  Ti  Ti2  1  0.809568  0.089979  0.884687  1
  Ti  Ti3  1  0.410025  0.690430  0.115307  1
  Ti  Ti4  1  0.205277  0.924888  0.115270  1
  Ti  Ti5  1  0.575127  0.294746  0.884717  1
  Ti  Ti6  1  0.690409  0.575102  0.280388  1
  Ti  Ti7  1  0.294721  0.410018  0.719621  1
  Be  Be8  1  0.250031  0.249988  0.000005  1
  Bi  Bi9  1  0.139861  0.639889  0.779752  1
  Bi  Bi10  1  0.860089  0.360142  0.220227  1
  Bi  Bi11  1  0.360113  0.139883  0.500003  1
  Bi  Bi12  1  0.639893  0.860139  0.500021  1
  W  W13  1  0.749967  0.749939  0.999954  1
