# generated using pymatgen
data_Cs2Mn3GaF12
_symmetry_space_group_name_H-M   'P 1'
_cell_length_a   7.55914588
_cell_length_b   7.55914583
_cell_length_c   7.55914600
_cell_angle_alpha   59.83871295
_cell_angle_beta   59.83871320
_cell_angle_gamma   59.83870919
_symmetry_Int_Tables_number   1
_chemical_formula_structural   Cs2Mn3GaF12
_chemical_formula_sum   'Cs2 Mn3 Ga1 F12'
_cell_volume   304.30601335
_cell_formula_units_Z   1
loop_
 _symmetry_equiv_pos_site_id
 _symmetry_equiv_pos_as_xyz
  1  'x, y, z'
loop_
 _atom_site_type_symbol
 _atom_site_label
 _atom_site_symmetry_multiplicity
 _atom_site_fract_x
 _atom_site_fract_y
 _atom_site_fract_z
 _atom_site_occupancy
  Cs  Cs0  1  0.372248  0.372248  0.372248  1
  Cs  Cs1  1  0.627752  0.627752  0.627752  1
  Mn  Mn2  1  0.500000  0.000000  0.000000  1
  Mn  Mn3  1  0.000000  0.000000  0.500000  1
  Mn  Mn4  1  0.000000  0.500000  0.000000  1
  Ga  Ga5  1  0.000000  0.000000  0.000000  1
  F  F6  1  0.937133  0.322174  0.322174  1
  F  F7  1  0.301914  0.934652  0.934652  1
  F  F8  1  0.322174  0.322174  0.937133  1
  F  F9  1  0.934652  0.934652  0.301914  1
  F  F10  1  0.934652  0.301914  0.934652  1
  F  F11  1  0.322174  0.937133  0.322174  1
  F  F12  1  0.062867  0.677826  0.677826  1
  F  F13  1  0.698086  0.065348  0.065348  1
  F  F14  1  0.677826  0.677826  0.062867  1
  F  F15  1  0.065348  0.065348  0.698086  1
  F  F16  1  0.065348  0.698086  0.065348  1
  F  F17  1  0.677826  0.062867  0.677826  1
