# generated using pymatgen
data_YbCe(B4Ru)2
_symmetry_space_group_name_H-M   'P 1'
_cell_length_a   3.58536000
_cell_length_b   5.97581668
_cell_length_c   11.55271715
_cell_angle_alpha   90.12733675
_cell_angle_beta   90.00000000
_cell_angle_gamma   90.00000000
_symmetry_Int_Tables_number   1
_chemical_formula_structural   YbCe(B4Ru)2
_chemical_formula_sum   'Yb2 Ce2 B16 Ru4'
_cell_volume   247.52159967
_cell_formula_units_Z   2
loop_
 _symmetry_equiv_pos_site_id
 _symmetry_equiv_pos_as_xyz
  1  'x, y, z'
loop_
 _atom_site_type_symbol
 _atom_site_label
 _atom_site_symmetry_multiplicity
 _atom_site_fract_x
 _atom_site_fract_y
 _atom_site_fract_z
 _atom_site_occupancy
  Yb  Yb0  1  0.500000  0.127955  0.352789  1
  Yb  Yb1  1  0.500000  0.872045  0.647211  1
  Ce  Ce2  1  0.500000  0.629427  0.153348  1
  Ce  Ce3  1  0.500000  0.370573  0.846652  1
  B  B4  1  0.000000  0.976062  0.192050  1
  B  B5  1  0.000000  0.023938  0.807950  1
  B  B6  1  0.000000  0.476161  0.310426  1
  B  B7  1  0.000000  0.523839  0.689574  1
  B  B8  1  0.000000  0.787918  0.316579  1
  B  B9  1  0.000000  0.212082  0.683421  1
  B  B10  1  0.000000  0.285397  0.186265  1
  B  B11  1  0.000000  0.714603  0.813735  1
  B  B12  1  0.000000  0.863172  0.469673  1
  B  B13  1  0.000000  0.136828  0.530327  1
  B  B14  1  0.000000  0.363174  0.031412  1
  B  B15  1  0.000000  0.636826  0.968588  1
  B  B16  1  0.000000  0.889690  0.046932  1
  B  B17  1  0.000000  0.110310  0.953068  1
  B  B18  1  0.000000  0.386353  0.454363  1
  B  B19  1  0.000000  0.613647  0.545637  1
  Ru  Ru20  1  0.500000  0.637405  0.408690  1
  Ru  Ru21  1  0.500000  0.362595  0.591310  1
  Ru  Ru22  1  0.500000  0.140362  0.092263  1
  Ru  Ru23  1  0.500000  0.859638  0.907737  1
