# generated using pymatgen
data_Dy4YSc(Si3Ru)8
_symmetry_space_group_name_H-M   'P 1'
_cell_length_a   10.08676372
_cell_length_b   10.08676328
_cell_length_c   8.11906014
_cell_angle_alpha   90.01138088
_cell_angle_beta   90.01138288
_cell_angle_gamma   132.55112243
_symmetry_Int_Tables_number   1
_chemical_formula_structural   Dy4YSc(Si3Ru)8
_chemical_formula_sum   'Dy4 Y1 Sc1 Si24 Ru8'
_cell_volume   608.53402849
_cell_formula_units_Z   1
loop_
 _symmetry_equiv_pos_site_id
 _symmetry_equiv_pos_as_xyz
  1  'x, y, z'
loop_
 _atom_site_type_symbol
 _atom_site_label
 _atom_site_symmetry_multiplicity
 _atom_site_fract_x
 _atom_site_fract_y
 _atom_site_fract_z
 _atom_site_occupancy
  Dy  Dy0  1  0.002682  0.502379  0.249487  1
  Dy  Dy1  1  0.497621  0.997318  0.750513  1
  Dy  Dy2  1  0.997318  0.497621  0.750513  1
  Dy  Dy3  1  0.502379  0.002682  0.249487  1
  Y  Y4  1  0.500000  0.500000  0.500000  1
  Sc  Sc5  1  0.000000  0.000000  0.000000  1
  Si  Si6  1  0.294294  0.705706  0.000000  1
  Si  Si7  1  0.795094  0.204906  0.500000  1
  Si  Si8  1  0.705706  0.294294  0.000000  1
  Si  Si9  1  0.204906  0.795094  0.500000  1
  Si  Si10  1  0.833546  0.833546  0.330858  1
  Si  Si11  1  0.166454  0.166454  0.669142  1
  Si  Si12  1  0.669698  0.669698  0.834403  1
  Si  Si13  1  0.330302  0.330302  0.165597  1
  Si  Si14  1  0.621176  0.386529  0.227545  1
  Si  Si15  1  0.613471  0.378824  0.772455  1
  Si  Si16  1  0.110692  0.878746  0.730347  1
  Si  Si17  1  0.121254  0.889308  0.269653  1
  Si  Si18  1  0.378824  0.613471  0.772455  1
  Si  Si19  1  0.386529  0.621176  0.227545  1
  Si  Si20  1  0.889308  0.121254  0.269653  1
  Si  Si21  1  0.878746  0.110692  0.730347  1
  Si  Si22  1  0.845656  0.614029  0.004443  1
  Si  Si23  1  0.385971  0.154344  0.995557  1
  Si  Si24  1  0.888507  0.655098  0.505071  1
  Si  Si25  1  0.344902  0.111493  0.494929  1
  Si  Si26  1  0.154344  0.385971  0.995557  1
  Si  Si27  1  0.614029  0.845656  0.004443  1
  Si  Si28  1  0.111493  0.344902  0.494929  1
  Si  Si29  1  0.655098  0.888507  0.505071  1
  Ru  Ru30  1  0.167813  0.832187  0.000000  1
  Ru  Ru31  1  0.669233  0.330767  0.500000  1
  Ru  Ru32  1  0.832187  0.167813  0.000000  1
  Ru  Ru33  1  0.330767  0.669233  0.500000  1
  Ru  Ru34  1  0.626237  0.626237  0.126918  1
  Ru  Ru35  1  0.373763  0.373763  0.873082  1
  Ru  Ru36  1  0.873580  0.873580  0.627718  1
  Ru  Ru37  1  0.126420  0.126420  0.372282  1
