# generated using pymatgen
data_Ca3Eu7(AlSb3)4
_symmetry_space_group_name_H-M   'P 1'
_cell_length_a   4.55854500
_cell_length_b   12.31443665
_cell_length_c   14.38298640
_cell_angle_alpha   89.66656611
_cell_angle_beta   90.00000000
_cell_angle_gamma   90.00000000
_symmetry_Int_Tables_number   1
_chemical_formula_structural   Ca3Eu7(AlSb3)4
_chemical_formula_sum   'Ca3 Eu7 Al4 Sb12'
_cell_volume   807.38840994
_cell_formula_units_Z   1
loop_
 _symmetry_equiv_pos_site_id
 _symmetry_equiv_pos_as_xyz
  1  'x, y, z'
loop_
 _atom_site_type_symbol
 _atom_site_label
 _atom_site_symmetry_multiplicity
 _atom_site_fract_x
 _atom_site_fract_y
 _atom_site_fract_z
 _atom_site_occupancy
  Ca  Ca0  1  0.500000  0.500196  0.998266  1
  Ca  Ca1  1  0.500000  0.999518  0.500254  1
  Ca  Ca2  1  0.500000  0.590802  0.752238  1
  Eu  Eu3  1  0.500000  0.090497  0.747821  1
  Eu  Eu4  1  0.500000  0.410605  0.248903  1
  Eu  Eu5  1  0.500000  0.331841  0.519576  1
  Eu  Eu6  1  0.500000  0.909892  0.252029  1
  Eu  Eu7  1  0.500000  0.169209  0.017715  1
  Eu  Eu8  1  0.500000  0.829584  0.980147  1
  Eu  Eu9  1  0.500000  0.669428  0.484443  1
  Al  Al10  1  0.000000  0.172289  0.212766  1
  Al  Al11  1  0.000000  0.827920  0.787275  1
  Al  Al12  1  0.000000  0.672018  0.287828  1
  Al  Al13  1  0.000000  0.326480  0.711738  1
  Sb  Sb14  1  0.000000  0.844744  0.407811  1
  Sb  Sb15  1  0.000000  0.154376  0.591327  1
  Sb  Sb16  1  0.000000  0.652746  0.904226  1
  Sb  Sb17  1  0.000000  0.345820  0.092715  1
  Sb  Sb18  1  0.500000  0.339034  0.819765  1
  Sb  Sb19  1  0.500000  0.662856  0.178070  1
  Sb  Sb20  1  0.500000  0.835634  0.679103  1
  Sb  Sb21  1  0.500000  0.163189  0.322289  1
  Sb  Sb22  1  0.000000  0.519739  0.604287  1
  Sb  Sb23  1  0.000000  0.481392  0.400025  1
  Sb  Sb24  1  0.000000  0.019430  0.897461  1
  Sb  Sb25  1  0.000000  0.980763  0.101923  1
