# generated using pymatgen
data_Lu3Mg3BiAu2
_symmetry_space_group_name_H-M   'P 1'
_cell_length_a   7.55119200
_cell_length_b   7.55119105
_cell_length_c   4.23860600
_cell_angle_alpha   90.00000000
_cell_angle_beta   90.00000000
_cell_angle_gamma   119.99999659
_symmetry_Int_Tables_number   1
_chemical_formula_structural   Lu3Mg3BiAu2
_chemical_formula_sum   'Lu3 Mg3 Bi1 Au2'
_cell_volume   209.30744017
_cell_formula_units_Z   1
loop_
 _symmetry_equiv_pos_site_id
 _symmetry_equiv_pos_as_xyz
  1  'x, y, z'
loop_
 _atom_site_type_symbol
 _atom_site_label
 _atom_site_symmetry_multiplicity
 _atom_site_fract_x
 _atom_site_fract_y
 _atom_site_fract_z
 _atom_site_occupancy
  Lu  Lu0  1  0.396228  0.972433  0.500000  1
  Lu  Lu1  1  0.027567  0.423795  0.500000  1
  Lu  Lu2  1  0.576205  0.603773  0.500000  1
  Mg  Mg3  1  0.753692  0.986932  0.000000  1
  Mg  Mg4  1  0.233240  0.246308  0.000000  1
  Mg  Mg5  1  0.013068  0.766759  0.000000  1
  Bi  Bi6  1  0.666668  0.333334  0.000000  1
  Au  Au7  1  0.333333  0.666666  0.000000  1
  Au  Au8  1  0.000000  0.000000  0.500000  1
