# generated using pymatgen
data_Ho4MnGa18Pd5
_symmetry_space_group_name_H-M   'P 1'
_cell_length_a   7.62675080
_cell_length_b   7.62675095
_cell_length_c   9.57455694
_cell_angle_alpha   90.01179487
_cell_angle_beta   90.01180286
_cell_angle_gamma   119.80100973
_symmetry_Int_Tables_number   1
_chemical_formula_structural   Ho4MnGa18Pd5
_chemical_formula_sum   'Ho4 Mn1 Ga18 Pd5'
_cell_volume   483.27657347
_cell_formula_units_Z   1
loop_
 _symmetry_equiv_pos_site_id
 _symmetry_equiv_pos_as_xyz
  1  'x, y, z'
loop_
 _atom_site_type_symbol
 _atom_site_label
 _atom_site_symmetry_multiplicity
 _atom_site_fract_x
 _atom_site_fract_y
 _atom_site_fract_z
 _atom_site_occupancy
  Ho  Ho0  1  0.996275  0.667846  0.250084  1
  Ho  Ho1  1  0.003725  0.332154  0.749916  1
  Ho  Ho2  1  0.667846  0.996275  0.250084  1
  Ho  Ho3  1  0.332154  0.003725  0.749916  1
  Mn  Mn4  1  0.000000  0.000000  0.000000  1
  Ga  Ga5  1  0.121098  0.121098  0.241996  1
  Ga  Ga6  1  0.878902  0.878902  0.758004  1
  Ga  Ga7  1  0.997959  0.324054  0.076290  1
  Ga  Ga8  1  0.002041  0.675946  0.923710  1
  Ga  Ga9  1  0.000103  0.665753  0.583426  1
  Ga  Ga10  1  0.334247  0.999897  0.416574  1
  Ga  Ga11  1  0.999897  0.334247  0.416574  1
  Ga  Ga12  1  0.665753  0.000103  0.583426  1
  Ga  Ga13  1  0.675946  0.002041  0.923710  1
  Ga  Ga14  1  0.324054  0.997959  0.076290  1
  Ga  Ga15  1  0.333302  0.333302  0.568134  1
  Ga  Ga16  1  0.666698  0.666699  0.431866  1
  Ga  Ga17  1  0.680876  0.680877  0.060983  1
  Ga  Ga18  1  0.319124  0.319124  0.939017  1
  Ga  Ga19  1  0.340946  0.544894  0.248398  1
  Ga  Ga20  1  0.659054  0.455106  0.751602  1
  Ga  Ga21  1  0.544894  0.340946  0.248398  1
  Ga  Ga22  1  0.455106  0.659054  0.751602  1
  Pd  Pd23  1  0.671278  0.328722  0.000000  1
  Pd  Pd24  1  0.328722  0.671278  0.000000  1
  Pd  Pd25  1  0.328697  0.671303  0.500000  1
  Pd  Pd26  1  0.671303  0.328697  0.500000  1
  Pd  Pd27  1  0.000000  0.000000  0.500000  1
