# generated using pymatgen
data_LiLu3In(SiAg)2
_symmetry_space_group_name_H-M   'P 1'
_cell_length_a   7.15532896
_cell_length_b   7.15532888
_cell_length_c   4.16035000
_cell_angle_alpha   90.00000000
_cell_angle_beta   90.00000000
_cell_angle_gamma   120.88411917
_symmetry_Int_Tables_number   1
_chemical_formula_structural   LiLu3In(SiAg)2
_chemical_formula_sum   'Li1 Lu3 In1 Si2 Ag2'
_cell_volume   182.80212225
_cell_formula_units_Z   1
loop_
 _symmetry_equiv_pos_site_id
 _symmetry_equiv_pos_as_xyz
  1  'x, y, z'
loop_
 _atom_site_type_symbol
 _atom_site_label
 _atom_site_symmetry_multiplicity
 _atom_site_fract_x
 _atom_site_fract_y
 _atom_site_fract_z
 _atom_site_occupancy
  Li  Li0  1  0.746143  0.746143  0.000000  1
  Lu  Lu1  1  0.436000  0.436000  0.500000  1
  Lu  Lu2  1  0.564054  0.001268  0.500000  1
  Lu  Lu3  1  0.001268  0.564054  0.500000  1
  In  In4  1  0.985050  0.985050  0.500000  1
  Si  Si5  1  0.666543  0.341130  0.000000  1
  Si  Si6  1  0.341130  0.666543  0.000000  1
  Ag  Ag7  1  0.261953  0.997858  0.000000  1
  Ag  Ag8  1  0.997858  0.261953  0.000000  1
