# generated using pymatgen
data_Sc22AgIr2Os5
_symmetry_space_group_name_H-M   'P 1'
_cell_length_a   9.51004146
_cell_length_b   9.53981401
_cell_length_c   9.54127667
_cell_angle_alpha   59.51101843
_cell_angle_beta   60.09807601
_cell_angle_gamma   60.11354546
_symmetry_Int_Tables_number   1
_chemical_formula_structural   Sc22AgIr2Os5
_chemical_formula_sum   'Sc22 Ag1 Ir2 Os5'
_cell_volume   610.76029625
_cell_formula_units_Z   1
loop_
 _symmetry_equiv_pos_site_id
 _symmetry_equiv_pos_as_xyz
  1  'x, y, z'
loop_
 _atom_site_type_symbol
 _atom_site_label
 _atom_site_symmetry_multiplicity
 _atom_site_fract_x
 _atom_site_fract_y
 _atom_site_fract_z
 _atom_site_occupancy
  Sc  Sc0  1  0.805464  0.801627  0.198371  1
  Sc  Sc1  1  0.194709  0.801556  0.198446  1
  Sc  Sc2  1  0.803139  0.196864  0.196863  1
  Sc  Sc3  1  0.194536  0.198373  0.801629  1
  Sc  Sc4  1  0.805291  0.198444  0.801554  1
  Sc  Sc5  1  0.196861  0.803136  0.803137  1
  Sc  Sc6  1  0.620241  0.604656  0.151582  1
  Sc  Sc7  1  0.623519  0.151584  0.604654  1
  Sc  Sc8  1  0.150157  0.615277  0.612968  1
  Sc  Sc9  1  0.621592  0.612971  0.615284  1
  Sc  Sc10  1  0.379759  0.395344  0.848418  1
  Sc  Sc11  1  0.376481  0.848416  0.395346  1
  Sc  Sc12  1  0.849843  0.384723  0.387032  1
  Sc  Sc13  1  0.378408  0.387029  0.384716  1
  Sc  Sc14  1  0.844471  0.842749  0.469478  1
  Sc  Sc15  1  0.843300  0.469477  0.842749  1
  Sc  Sc16  1  0.470613  0.835560  0.836877  1
  Sc  Sc17  1  0.856949  0.836875  0.835553  1
  Sc  Sc18  1  0.155529  0.157251  0.530522  1
  Sc  Sc19  1  0.156700  0.530523  0.157251  1
  Sc  Sc20  1  0.529387  0.164440  0.163123  1
  Sc  Sc21  1  0.143051  0.163125  0.164447  1
  Ag  Ag22  1  0.500000  0.000000  0.000000  1
  Ir  Ir23  1  0.500000  0.000000  0.500000  1
  Ir  Ir24  1  0.000000  0.500000  0.000000  1
  Os  Os25  1  0.000000  0.000000  0.000000  1
  Os  Os26  1  0.500000  0.500000  0.500000  1
  Os  Os27  1  0.000000  0.000000  0.500000  1
  Os  Os28  1  0.000000  0.500000  0.500000  1
  Os  Os29  1  0.500000  0.500000  0.000000  1
