# generated using pymatgen
data_Ac(P3Ru)4
_symmetry_space_group_name_H-M   'P 1'
_cell_length_a   7.05188717
_cell_length_b   7.05188711
_cell_length_c   7.05188700
_cell_angle_alpha   109.47122031
_cell_angle_beta   109.47122016
_cell_angle_gamma   109.47121720
_symmetry_Int_Tables_number   1
_chemical_formula_structural   Ac(P3Ru)4
_chemical_formula_sum   'Ac1 P12 Ru4'
_cell_volume   269.95674476
_cell_formula_units_Z   1
loop_
 _symmetry_equiv_pos_site_id
 _symmetry_equiv_pos_as_xyz
  1  'x, y, z'
loop_
 _atom_site_type_symbol
 _atom_site_label
 _atom_site_symmetry_multiplicity
 _atom_site_fract_x
 _atom_site_fract_y
 _atom_site_fract_z
 _atom_site_occupancy
  Ac  Ac0  1  0.000000  0.000000  0.000000  1
  P  P1  1  0.144316  0.784782  0.640465  1
  P  P2  1  0.144316  0.503851  0.359535  1
  P  P3  1  0.855684  0.496149  0.640465  1
  P  P4  1  0.359535  0.144316  0.503851  1
  P  P5  1  0.784782  0.640465  0.144316  1
  P  P6  1  0.855684  0.215218  0.359535  1
  P  P7  1  0.640465  0.144316  0.784782  1
  P  P8  1  0.496149  0.640465  0.855684  1
  P  P9  1  0.640465  0.855684  0.496149  1
  P  P10  1  0.503851  0.359535  0.144316  1
  P  P11  1  0.359535  0.855684  0.215218  1
  P  P12  1  0.215218  0.359535  0.855684  1
  Ru  Ru13  1  0.500000  0.000000  0.000000  1
  Ru  Ru14  1  0.500000  0.500000  0.500000  1
  Ru  Ru15  1  0.000000  0.500000  0.000000  1
  Ru  Ru16  1  0.000000  0.000000  0.500000  1
