# generated using pymatgen
data_Sr2Cu12Si3Ni6P7
_symmetry_space_group_name_H-M   'P 1'
_cell_length_a   6.70772100
_cell_length_b   6.70772093
_cell_length_c   10.81066600
_cell_angle_alpha   90.00000000
_cell_angle_beta   90.00000000
_cell_angle_gamma   119.99999539
_symmetry_Int_Tables_number   1
_chemical_formula_structural   Sr2Cu12Si3Ni6P7
_chemical_formula_sum   'Sr2 Cu12 Si3 Ni6 P7'
_cell_volume   421.24336958
_cell_formula_units_Z   1
loop_
 _symmetry_equiv_pos_site_id
 _symmetry_equiv_pos_as_xyz
  1  'x, y, z'
loop_
 _atom_site_type_symbol
 _atom_site_label
 _atom_site_symmetry_multiplicity
 _atom_site_fract_x
 _atom_site_fract_y
 _atom_site_fract_z
 _atom_site_occupancy
  Sr  Sr0  1  0.000000  0.000000  0.999658  1
  Sr  Sr1  1  0.000000  0.000000  0.500412  1
  Cu  Cu2  1  0.538595  0.077191  0.106737  1
  Cu  Cu3  1  0.461327  0.538673  0.606507  1
  Cu  Cu4  1  0.077346  0.538673  0.606507  1
  Cu  Cu5  1  0.922809  0.461405  0.106737  1
  Cu  Cu6  1  0.538595  0.461405  0.106737  1
  Cu  Cu7  1  0.461935  0.923870  0.893705  1
  Cu  Cu8  1  0.461935  0.538065  0.893705  1
  Cu  Cu9  1  0.461327  0.922654  0.606507  1
  Cu  Cu10  1  0.076130  0.538065  0.893705  1
  Cu  Cu11  1  0.926422  0.463211  0.394066  1
  Cu  Cu12  1  0.536789  0.073578  0.394066  1
  Cu  Cu13  1  0.536789  0.463211  0.394066  1
  Si  Si14  1  0.333333  0.666667  0.071190  1
  Si  Si15  1  0.666667  0.333333  0.571694  1
  Si  Si16  1  0.666667  0.333333  0.928266  1
  Ni  Ni17  1  0.202179  0.404358  0.249770  1
  Ni  Ni18  1  0.797950  0.202050  0.748412  1
  Ni  Ni19  1  0.404097  0.202050  0.748412  1
  Ni  Ni20  1  0.595642  0.797821  0.249770  1
  Ni  Ni21  1  0.202179  0.797821  0.249770  1
  Ni  Ni22  1  0.797950  0.595903  0.748412  1
  P  P23  1  0.839369  0.678738  0.250478  1
  P  P24  1  0.160895  0.839105  0.749928  1
  P  P25  1  0.678209  0.839105  0.749928  1
  P  P26  1  0.321262  0.160631  0.250478  1
  P  P27  1  0.839369  0.160631  0.250478  1
  P  P28  1  0.160895  0.321791  0.749928  1
  P  P29  1  0.333333  0.666667  0.429972  1
