# generated using pymatgen
data_Ho4ScIn4IrPt
_symmetry_space_group_name_H-M   'P 1'
_cell_length_a   3.58931700
_cell_length_b   8.04982173
_cell_length_c   18.01632898
_cell_angle_alpha   89.84497403
_cell_angle_beta   90.00000000
_cell_angle_gamma   90.00000000
_symmetry_Int_Tables_number   1
_chemical_formula_structural   Ho4ScIn4IrPt
_chemical_formula_sum   'Ho8 Sc2 In8 Ir2 Pt2'
_cell_volume   520.55040942
_cell_formula_units_Z   2
loop_
 _symmetry_equiv_pos_site_id
 _symmetry_equiv_pos_as_xyz
  1  'x, y, z'
loop_
 _atom_site_type_symbol
 _atom_site_label
 _atom_site_symmetry_multiplicity
 _atom_site_fract_x
 _atom_site_fract_y
 _atom_site_fract_z
 _atom_site_occupancy
  Ho  Ho0  1  0.000000  0.382520  0.913515  1
  Ho  Ho1  1  0.000000  0.617480  0.086485  1
  Ho  Ho2  1  0.000000  0.234998  0.223784  1
  Ho  Ho3  1  0.000000  0.765002  0.776216  1
  Ho  Ho4  1  0.000000  0.250720  0.716007  1
  Ho  Ho5  1  0.000000  0.749280  0.283993  1
  Ho  Ho6  1  0.000000  0.000000  0.000000  1
  Ho  Ho7  1  0.000000  0.500000  0.500000  1
  Sc  Sc8  1  0.000000  0.113097  0.410982  1
  Sc  Sc9  1  0.000000  0.886903  0.589018  1
  In  In10  1  0.500000  0.412217  0.354033  1
  In  In11  1  0.500000  0.587783  0.645967  1
  In  In12  1  0.500000  0.073750  0.848853  1
  In  In13  1  0.500000  0.926250  0.151147  1
  In  In14  1  0.500000  0.291624  0.067503  1
  In  In15  1  0.500000  0.708376  0.932497  1
  In  In16  1  0.500000  0.193656  0.560785  1
  In  In17  1  0.500000  0.806344  0.439215  1
  Ir  Ir18  1  0.500000  0.024942  0.309504  1
  Ir  Ir19  1  0.500000  0.975058  0.690496  1
  Pt  Pt20  1  0.500000  0.477208  0.801361  1
  Pt  Pt21  1  0.500000  0.522792  0.198639  1
