# generated using pymatgen
data_AcTi3O7
_symmetry_space_group_name_H-M   'P 1'
_cell_length_a   3.97294800
_cell_length_b   6.54497588
_cell_length_c   10.54901464
_cell_angle_alpha   82.78408548
_cell_angle_beta   90.00000000
_cell_angle_gamma   90.00000000
_symmetry_Int_Tables_number   1
_chemical_formula_structural   AcTi3O7
_chemical_formula_sum   'Ac2 Ti6 O14'
_cell_volume   272.13190065
_cell_formula_units_Z   2
loop_
 _symmetry_equiv_pos_site_id
 _symmetry_equiv_pos_as_xyz
  1  'x, y, z'
loop_
 _atom_site_type_symbol
 _atom_site_label
 _atom_site_symmetry_multiplicity
 _atom_site_fract_x
 _atom_site_fract_y
 _atom_site_fract_z
 _atom_site_occupancy
  Ac  Ac0  1  0.250000  0.988150  0.169183  1
  Ac  Ac1  1  0.750000  0.011850  0.830817  1
  Ti  Ti2  1  0.250000  0.461242  0.898861  1
  Ti  Ti3  1  0.750000  0.538758  0.101139  1
  Ti  Ti4  1  0.250000  0.307042  0.548358  1
  Ti  Ti5  1  0.750000  0.692958  0.451642  1
  Ti  Ti6  1  0.250000  0.738231  0.648277  1
  Ti  Ti7  1  0.750000  0.261769  0.351723  1
  O  O8  1  0.250000  0.533598  0.078647  1
  O  O9  1  0.750000  0.466402  0.921353  1
  O  O10  1  0.250000  0.229729  0.367040  1
  O  O11  1  0.750000  0.770271  0.632960  1
  O  O12  1  0.250000  0.642123  0.470646  1
  O  O13  1  0.750000  0.357877  0.529354  1
  O  O14  1  0.250000  0.164523  0.936936  1
  O  O15  1  0.750000  0.835477  0.063064  1
  O  O16  1  0.250000  0.053580  0.639752  1
  O  O17  1  0.750000  0.946420  0.360248  1
  O  O18  1  0.250000  0.442937  0.712190  1
  O  O19  1  0.750000  0.557063  0.287810  1
  O  O20  1  0.250000  0.758066  0.832359  1
  O  O21  1  0.750000  0.241934  0.167641  1
