# generated using pymatgen
data_Y2Al9CuRh2
_symmetry_space_group_name_H-M   'P 1'
_cell_length_a   7.57003031
_cell_length_b   7.57003031
_cell_length_c   9.41667600
_cell_angle_alpha   90.00000000
_cell_angle_beta   90.00000000
_cell_angle_gamma   119.81488192
_symmetry_Int_Tables_number   1
_chemical_formula_structural   Y2Al9CuRh2
_chemical_formula_sum   'Y4 Al18 Cu2 Rh4'
_cell_volume   468.19912604
_cell_formula_units_Z   2
loop_
 _symmetry_equiv_pos_site_id
 _symmetry_equiv_pos_as_xyz
  1  'x, y, z'
loop_
 _atom_site_type_symbol
 _atom_site_label
 _atom_site_symmetry_multiplicity
 _atom_site_fract_x
 _atom_site_fract_y
 _atom_site_fract_z
 _atom_site_occupancy
  Y  Y0  1  0.994154  0.671821  0.250000  1
  Y  Y1  1  0.005846  0.328179  0.750000  1
  Y  Y2  1  0.671821  0.994154  0.250000  1
  Y  Y3  1  0.328179  0.005846  0.750000  1
  Al  Al4  1  0.126960  0.126960  0.250000  1
  Al  Al5  1  0.873040  0.873040  0.750000  1
  Al  Al6  1  0.999950  0.337059  0.074505  1
  Al  Al7  1  0.000050  0.662941  0.925495  1
  Al  Al8  1  0.000050  0.662941  0.574505  1
  Al  Al9  1  0.337059  0.999950  0.425495  1
  Al  Al10  1  0.999950  0.337059  0.425495  1
  Al  Al11  1  0.662941  0.000050  0.574505  1
  Al  Al12  1  0.662941  0.000050  0.925495  1
  Al  Al13  1  0.337059  0.999950  0.074505  1
  Al  Al14  1  0.335121  0.335121  0.553300  1
  Al  Al15  1  0.664879  0.664879  0.446700  1
  Al  Al16  1  0.664879  0.664879  0.053300  1
  Al  Al17  1  0.335121  0.335121  0.946700  1
  Al  Al18  1  0.337499  0.547937  0.250000  1
  Al  Al19  1  0.662501  0.452063  0.750000  1
  Al  Al20  1  0.547937  0.337499  0.250000  1
  Al  Al21  1  0.452063  0.662501  0.750000  1
  Cu  Cu22  1  0.000000  0.000000  0.000000  1
  Cu  Cu23  1  0.000000  0.000000  0.500000  1
  Rh  Rh24  1  0.671438  0.328562  0.000000  1
  Rh  Rh25  1  0.328562  0.671438  0.000000  1
  Rh  Rh26  1  0.328562  0.671438  0.500000  1
  Rh  Rh27  1  0.671438  0.328562  0.500000  1
