# generated using pymatgen
data_TbYB10Ir
_symmetry_space_group_name_H-M   'P 1'
_cell_length_a   4.18160200
_cell_length_b   5.69271200
_cell_length_c   11.36058700
_cell_angle_alpha   90.00094712
_cell_angle_beta   90.00000000
_cell_angle_gamma   90.00000000
_symmetry_Int_Tables_number   1
_chemical_formula_structural   TbYB10Ir
_chemical_formula_sum   'Tb2 Y2 B20 Ir2'
_cell_volume   270.43486416
_cell_formula_units_Z   2
loop_
 _symmetry_equiv_pos_site_id
 _symmetry_equiv_pos_as_xyz
  1  'x, y, z'
loop_
 _atom_site_type_symbol
 _atom_site_label
 _atom_site_symmetry_multiplicity
 _atom_site_fract_x
 _atom_site_fract_y
 _atom_site_fract_z
 _atom_site_occupancy
  Tb  Tb0  1  0.500000  0.294096  0.865785  1
  Tb  Tb1  1  0.500000  0.705904  0.134215  1
  Y  Y2  1  0.500000  0.205733  0.365854  1
  Y  Y3  1  0.500000  0.794267  0.634146  1
  B  B4  1  0.000000  0.381546  0.042579  1
  B  B5  1  0.000000  0.618454  0.957421  1
  B  B6  1  0.000000  0.118467  0.542563  1
  B  B7  1  0.000000  0.881533  0.457437  1
  B  B8  1  0.000000  0.364128  0.197045  1
  B  B9  1  0.000000  0.635872  0.802955  1
  B  B10  1  0.000000  0.135985  0.697090  1
  B  B11  1  0.000000  0.864015  0.302910  1
  B  B12  1  0.000000  0.056459  0.193200  1
  B  B13  1  0.000000  0.943541  0.806800  1
  B  B14  1  0.000000  0.443449  0.693250  1
  B  B15  1  0.000000  0.556551  0.306750  1
  B  B16  1  0.301382  0.220335  0.119145  1
  B  B17  1  0.698618  0.779665  0.880855  1
  B  B18  1  0.301382  0.779665  0.880855  1
  B  B19  1  0.698607  0.279616  0.619164  1
  B  B20  1  0.698618  0.220335  0.119145  1
  B  B21  1  0.301393  0.720384  0.380836  1
  B  B22  1  0.698607  0.720384  0.380836  1
  B  B23  1  0.301393  0.279616  0.619164  1
  Ir  Ir24  1  0.000000  0.000000  0.000000  1
  Ir  Ir25  1  0.000000  0.500000  0.500000  1
