# generated using pymatgen
data_Lu2B8RhW
_symmetry_space_group_name_H-M   'P 1'
_cell_length_a   3.55960900
_cell_length_b   5.95406678
_cell_length_c   11.51715122
_cell_angle_alpha   90.33109999
_cell_angle_beta   90.00000000
_cell_angle_gamma   90.00000000
_symmetry_Int_Tables_number   1
_chemical_formula_structural   Lu2B8RhW
_chemical_formula_sum   'Lu4 B16 Rh2 W2'
_cell_volume   244.09215132
_cell_formula_units_Z   2
loop_
 _symmetry_equiv_pos_site_id
 _symmetry_equiv_pos_as_xyz
  1  'x, y, z'
loop_
 _atom_site_type_symbol
 _atom_site_label
 _atom_site_symmetry_multiplicity
 _atom_site_fract_x
 _atom_site_fract_y
 _atom_site_fract_z
 _atom_site_occupancy
  Lu  Lu0  1  0.500000  0.370507  0.147348  1
  Lu  Lu1  1  0.500000  0.629493  0.852652  1
  Lu  Lu2  1  0.500000  0.128529  0.650405  1
  Lu  Lu3  1  0.500000  0.871471  0.349595  1
  B  B4  1  0.000000  0.114125  0.047740  1
  B  B5  1  0.000000  0.885875  0.952260  1
  B  B6  1  0.000000  0.384391  0.547565  1
  B  B7  1  0.000000  0.615609  0.452435  1
  B  B8  1  0.000000  0.131387  0.467897  1
  B  B9  1  0.000000  0.868613  0.532103  1
  B  B10  1  0.000000  0.365581  0.969843  1
  B  B11  1  0.000000  0.634419  0.030157  1
  B  B12  1  0.000000  0.022175  0.192360  1
  B  B13  1  0.000000  0.977825  0.807640  1
  B  B14  1  0.000000  0.475992  0.695759  1
  B  B15  1  0.000000  0.524008  0.304241  1
  B  B16  1  0.000000  0.206702  0.311252  1
  B  B17  1  0.000000  0.793298  0.688748  1
  B  B18  1  0.000000  0.289280  0.814228  1
  B  B19  1  0.000000  0.710720  0.185772  1
  Rh  Rh20  1  0.500000  0.142918  0.906252  1
  Rh  Rh21  1  0.500000  0.857082  0.093748  1
  W  W22  1  0.500000  0.369201  0.412906  1
  W  W23  1  0.500000  0.630799  0.587094  1
