# generated using pymatgen
data_MnNb3Al2C
_symmetry_space_group_name_H-M   'P 1'
_cell_length_a   8.28736198
_cell_length_b   8.28736240
_cell_length_c   8.28736200
_cell_angle_alpha   60.00000161
_cell_angle_beta   59.99999992
_cell_angle_gamma   59.99999703
_symmetry_Int_Tables_number   1
_chemical_formula_structural   MnNb3Al2C
_chemical_formula_sum   'Mn4 Nb12 Al8 C4'
_cell_volume   402.47040118
_cell_formula_units_Z   4
loop_
 _symmetry_equiv_pos_site_id
 _symmetry_equiv_pos_as_xyz
  1  'x, y, z'
loop_
 _atom_site_type_symbol
 _atom_site_label
 _atom_site_symmetry_multiplicity
 _atom_site_fract_x
 _atom_site_fract_y
 _atom_site_fract_z
 _atom_site_occupancy
  Mn  Mn0  1  0.125000  0.125000  0.125000  1
  Mn  Mn1  1  0.625000  0.125000  0.125000  1
  Mn  Mn2  1  0.125000  0.625000  0.125000  1
  Mn  Mn3  1  0.125000  0.125000  0.625000  1
  Nb  Nb4  1  0.555639  0.944361  0.555639  1
  Nb  Nb5  1  0.305639  0.694361  0.694361  1
  Nb  Nb6  1  0.694361  0.305639  0.305639  1
  Nb  Nb7  1  0.305639  0.694361  0.305639  1
  Nb  Nb8  1  0.694361  0.694361  0.305639  1
  Nb  Nb9  1  0.305639  0.305639  0.694361  1
  Nb  Nb10  1  0.555639  0.555639  0.944361  1
  Nb  Nb11  1  0.944361  0.555639  0.555639  1
  Nb  Nb12  1  0.555639  0.944361  0.944361  1
  Nb  Nb13  1  0.944361  0.944361  0.555639  1
  Nb  Nb14  1  0.694361  0.305639  0.694361  1
  Nb  Nb15  1  0.944361  0.555639  0.944361  1
  Al  Al16  1  0.916584  0.916584  0.916584  1
  Al  Al17  1  0.999752  0.333416  0.333416  1
  Al  Al18  1  0.333416  0.999752  0.333416  1
  Al  Al19  1  0.333416  0.333416  0.999752  1
  Al  Al20  1  0.916584  0.250248  0.916584  1
  Al  Al21  1  0.916584  0.916584  0.250248  1
  Al  Al22  1  0.250248  0.916584  0.916584  1
  Al  Al23  1  0.333416  0.333416  0.333416  1
  C  C24  1  0.625000  0.625000  0.625000  1
  C  C25  1  0.125000  0.625000  0.625000  1
  C  C26  1  0.625000  0.125000  0.625000  1
  C  C27  1  0.625000  0.625000  0.125000  1
