# generated using pymatgen
data_Yb4MnGaPd10
_symmetry_space_group_name_H-M   'P 1'
_cell_length_a   4.21888100
_cell_length_b   5.71064512
_cell_length_c   11.26164790
_cell_angle_alpha   90.22604610
_cell_angle_beta   90.00000000
_cell_angle_gamma   90.00000000
_symmetry_Int_Tables_number   1
_chemical_formula_structural   Yb4MnGaPd10
_chemical_formula_sum   'Yb4 Mn1 Ga1 Pd10'
_cell_volume   271.31950286
_cell_formula_units_Z   1
loop_
 _symmetry_equiv_pos_site_id
 _symmetry_equiv_pos_as_xyz
  1  'x, y, z'
loop_
 _atom_site_type_symbol
 _atom_site_label
 _atom_site_symmetry_multiplicity
 _atom_site_fract_x
 _atom_site_fract_y
 _atom_site_fract_z
 _atom_site_occupancy
  Yb  Yb0  1  0.000000  0.810654  0.639014  1
  Yb  Yb1  1  0.000000  0.311442  0.860545  1
  Yb  Yb2  1  0.000000  0.189346  0.360986  1
  Yb  Yb3  1  0.000000  0.688558  0.139455  1
  Mn  Mn4  1  0.500000  0.500000  0.500000  1
  Ga  Ga5  1  0.500000  0.000000  0.000000  1
  Pd  Pd6  1  0.000000  0.809327  0.894266  1
  Pd  Pd7  1  0.000000  0.695137  0.390999  1
  Pd  Pd8  1  0.000000  0.304863  0.609001  1
  Pd  Pd9  1  0.500000  0.943632  0.241965  1
  Pd  Pd10  1  0.500000  0.443297  0.255896  1
  Pd  Pd11  1  0.500000  0.556703  0.744104  1
  Pd  Pd12  1  0.500000  0.056368  0.758035  1
  Pd  Pd13  1  0.500000  0.500000  0.000000  1
  Pd  Pd14  1  0.500000  0.000000  0.500000  1
  Pd  Pd15  1  0.000000  0.190673  0.105734  1
