# generated using pymatgen
data_LuNbB2SbRu5
_symmetry_space_group_name_H-M   'P 1'
_cell_length_a   9.54185018
_cell_length_b   9.54185040
_cell_length_c   3.09445900
_cell_angle_alpha   90.00000000
_cell_angle_beta   90.00000000
_cell_angle_gamma   90.98118699
_symmetry_Int_Tables_number   1
_chemical_formula_structural   LuNbB2SbRu5
_chemical_formula_sum   'Lu2 Nb2 B4 Sb2 Ru10'
_cell_volume   281.69960951
_cell_formula_units_Z   2
loop_
 _symmetry_equiv_pos_site_id
 _symmetry_equiv_pos_as_xyz
  1  'x, y, z'
loop_
 _atom_site_type_symbol
 _atom_site_label
 _atom_site_symmetry_multiplicity
 _atom_site_fract_x
 _atom_site_fract_y
 _atom_site_fract_z
 _atom_site_occupancy
  Lu  Lu0  1  0.824742  0.675258  0.000000  1
  Lu  Lu1  1  0.175258  0.324742  0.000000  1
  Nb  Nb2  1  0.325588  0.825588  0.000000  1
  Nb  Nb3  1  0.674412  0.174412  0.000000  1
  B  B4  1  0.620951  0.879049  0.000000  1
  B  B5  1  0.379049  0.120951  0.000000  1
  B  B6  1  0.120885  0.620885  0.000000  1
  B  B7  1  0.879115  0.379115  0.000000  1
  Sb  Sb8  1  0.500000  0.500000  0.000000  1
  Sb  Sb9  1  0.000000  0.000000  0.000000  1
  Ru  Ru10  1  0.559532  0.724811  0.500000  1
  Ru  Ru11  1  0.440468  0.275189  0.500000  1
  Ru  Ru12  1  0.081514  0.783541  0.500000  1
  Ru  Ru13  1  0.918486  0.216459  0.500000  1
  Ru  Ru14  1  0.283541  0.581514  0.500000  1
  Ru  Ru15  1  0.716459  0.418486  0.500000  1
  Ru  Ru16  1  0.224811  0.059532  0.500000  1
  Ru  Ru17  1  0.775189  0.940468  0.500000  1
  Ru  Ru18  1  0.500000  0.000000  0.500000  1
  Ru  Ru19  1  0.000000  0.500000  0.500000  1
