# generated using pymatgen
data_YbDy2Zn11
_symmetry_space_group_name_H-M   'P 1'
_cell_length_a   8.15540366
_cell_length_b   8.15540224
_cell_length_c   8.15540263
_cell_angle_alpha   148.22419864
_cell_angle_beta   115.92912995
_cell_angle_gamma   73.29918292
_symmetry_Int_Tables_number   1
_chemical_formula_structural   YbDy2Zn11
_chemical_formula_sum   'Yb1 Dy2 Zn11'
_cell_volume   252.77652024
_cell_formula_units_Z   1
loop_
 _symmetry_equiv_pos_site_id
 _symmetry_equiv_pos_as_xyz
  1  'x, y, z'
loop_
 _atom_site_type_symbol
 _atom_site_label
 _atom_site_symmetry_multiplicity
 _atom_site_fract_x
 _atom_site_fract_y
 _atom_site_fract_z
 _atom_site_occupancy
  Yb  Yb0  1  0.000000  0.000000  0.000000  1
  Dy  Dy1  1  0.298285  0.298285  0.000000  1
  Dy  Dy2  1  0.701715  0.701715  0.000000  1
  Zn  Zn3  1  0.500000  0.000000  0.500000  1
  Zn  Zn4  1  0.678738  0.500000  0.178738  1
  Zn  Zn5  1  0.321262  0.500000  0.821262  1
  Zn  Zn6  1  0.695073  0.338543  0.356530  1
  Zn  Zn7  1  0.304927  0.661457  0.643470  1
  Zn  Zn8  1  0.982014  0.338543  0.643470  1
  Zn  Zn9  1  0.017986  0.661457  0.356530  1
  Zn  Zn10  1  0.420485  0.136923  0.283562  1
  Zn  Zn11  1  0.579515  0.863077  0.716438  1
  Zn  Zn12  1  0.853361  0.136923  0.716438  1
  Zn  Zn13  1  0.146639  0.863077  0.283562  1
