# generated using pymatgen
data_Zr4Pd8Pt3Rh
_symmetry_space_group_name_H-M   'P 1'
_cell_length_a   5.68979876
_cell_length_b   5.71116580
_cell_length_c   9.33942906
_cell_angle_alpha   90.35737637
_cell_angle_beta   90.18766832
_cell_angle_gamma   119.85085953
_symmetry_Int_Tables_number   1
_chemical_formula_structural   Zr4Pd8Pt3Rh
_chemical_formula_sum   'Zr4 Pd8 Pt3 Rh1'
_cell_volume   263.21046345
_cell_formula_units_Z   1
loop_
 _symmetry_equiv_pos_site_id
 _symmetry_equiv_pos_as_xyz
  1  'x, y, z'
loop_
 _atom_site_type_symbol
 _atom_site_label
 _atom_site_symmetry_multiplicity
 _atom_site_fract_x
 _atom_site_fract_y
 _atom_site_fract_z
 _atom_site_occupancy
  Zr  Zr0  1  0.000000  0.000000  0.500000  1
  Zr  Zr1  1  0.000000  0.000000  0.000000  1
  Zr  Zr2  1  0.335602  0.673114  0.254638  1
  Zr  Zr3  1  0.664398  0.326886  0.745362  1
  Pd  Pd4  1  0.500000  0.500000  0.000000  1
  Pd  Pd5  1  0.500000  0.000000  0.000000  1
  Pd  Pd6  1  0.830585  0.171712  0.248386  1
  Pd  Pd7  1  0.830189  0.661639  0.248669  1
  Pd  Pd8  1  0.340061  0.171574  0.248975  1
  Pd  Pd9  1  0.169415  0.828288  0.751614  1
  Pd  Pd10  1  0.169811  0.338361  0.751331  1
  Pd  Pd11  1  0.659939  0.828426  0.751025  1
  Pt  Pt12  1  0.500000  0.500000  0.500000  1
  Pt  Pt13  1  0.000000  0.500000  0.500000  1
  Pt  Pt14  1  0.000000  0.500000  0.000000  1
  Rh  Rh15  1  0.500000  0.000000  0.500000  1
