# generated using pymatgen
data_Th3GaGe2Ir3
_symmetry_space_group_name_H-M   'P 1'
_cell_length_a   7.32071561
_cell_length_b   7.34228856
_cell_length_c   4.02985400
_cell_angle_alpha   90.00000000
_cell_angle_beta   90.00000000
_cell_angle_gamma   120.09754071
_symmetry_Int_Tables_number   1
_chemical_formula_structural   Th3GaGe2Ir3
_chemical_formula_sum   'Th3 Ga1 Ge2 Ir3'
_cell_volume   187.40329704
_cell_formula_units_Z   1
loop_
 _symmetry_equiv_pos_site_id
 _symmetry_equiv_pos_as_xyz
  1  'x, y, z'
loop_
 _atom_site_type_symbol
 _atom_site_label
 _atom_site_symmetry_multiplicity
 _atom_site_fract_x
 _atom_site_fract_y
 _atom_site_fract_z
 _atom_site_occupancy
  Th  Th0  1  0.412696  0.414090  0.500000  1
  Th  Th1  1  0.587304  0.001394  0.500000  1
  Th  Th2  1  0.000000  0.585435  0.500000  1
  Ga  Ga3  1  0.000000  0.243595  0.000000  1
  Ge  Ge4  1  0.756064  0.759990  0.000000  1
  Ge  Ge5  1  0.243936  0.003926  0.000000  1
  Ir  Ir6  1  0.665195  0.330770  0.000000  1
  Ir  Ir7  1  0.334805  0.665576  0.000000  1
  Ir  Ir8  1  0.000000  0.995223  0.500000  1
