# generated using pymatgen
data_Ac2Nd3(Sn5Pt2)2
_symmetry_space_group_name_H-M   'P 1'
_cell_length_a   14.31276800
_cell_length_b   14.31276800
_cell_length_c   4.72384700
_cell_angle_alpha   90.00000000
_cell_angle_beta   90.00000000
_cell_angle_gamma   90.00000000
_symmetry_Int_Tables_number   1
_chemical_formula_structural   Ac2Nd3(Sn5Pt2)2
_chemical_formula_sum   'Ac4 Nd6 Sn20 Pt8'
_cell_volume   967.70522577
_cell_formula_units_Z   2
loop_
 _symmetry_equiv_pos_site_id
 _symmetry_equiv_pos_as_xyz
  1  'x, y, z'
loop_
 _atom_site_type_symbol
 _atom_site_label
 _atom_site_symmetry_multiplicity
 _atom_site_fract_x
 _atom_site_fract_y
 _atom_site_fract_z
 _atom_site_occupancy
  Ac  Ac0  1  0.888535  0.388535  0.500000  1
  Ac  Ac1  1  0.111465  0.611465  0.500000  1
  Ac  Ac2  1  0.388535  0.111465  0.500000  1
  Ac  Ac3  1  0.611465  0.888535  0.500000  1
  Nd  Nd4  1  0.500000  0.500000  0.000000  1
  Nd  Nd5  1  0.000000  0.000000  0.000000  1
  Nd  Nd6  1  0.678272  0.178272  0.500000  1
  Nd  Nd7  1  0.321728  0.821728  0.500000  1
  Nd  Nd8  1  0.178272  0.321728  0.500000  1
  Nd  Nd9  1  0.821728  0.678272  0.500000  1
  Sn  Sn10  1  0.570398  0.070398  0.000000  1
  Sn  Sn11  1  0.429602  0.929602  0.000000  1
  Sn  Sn12  1  0.070398  0.429602  0.000000  1
  Sn  Sn13  1  0.929602  0.570398  0.000000  1
  Sn  Sn14  1  0.655667  0.698127  0.000000  1
  Sn  Sn15  1  0.344333  0.301873  0.000000  1
  Sn  Sn16  1  0.155667  0.801873  0.000000  1
  Sn  Sn17  1  0.844333  0.198127  0.000000  1
  Sn  Sn18  1  0.301873  0.655667  0.000000  1
  Sn  Sn19  1  0.698127  0.344333  0.000000  1
  Sn  Sn20  1  0.198127  0.155667  0.000000  1
  Sn  Sn21  1  0.801873  0.844333  0.000000  1
  Sn  Sn22  1  0.659190  0.505667  0.500000  1
  Sn  Sn23  1  0.340810  0.494333  0.500000  1
  Sn  Sn24  1  0.159190  0.994333  0.500000  1
  Sn  Sn25  1  0.840810  0.005667  0.500000  1
  Sn  Sn26  1  0.494333  0.659190  0.500000  1
  Sn  Sn27  1  0.505667  0.340810  0.500000  1
  Sn  Sn28  1  0.005667  0.159190  0.500000  1
  Sn  Sn29  1  0.994333  0.840810  0.500000  1
  Pt  Pt30  1  0.744038  0.528584  0.000000  1
  Pt  Pt31  1  0.255962  0.471416  0.000000  1
  Pt  Pt32  1  0.244038  0.971416  0.000000  1
  Pt  Pt33  1  0.755962  0.028584  0.000000  1
  Pt  Pt34  1  0.471416  0.744038  0.000000  1
  Pt  Pt35  1  0.528584  0.255962  0.000000  1
  Pt  Pt36  1  0.028584  0.244038  0.000000  1
  Pt  Pt37  1  0.971416  0.755962  0.000000  1
