# generated using pymatgen
data_NaLu3(ReN3)4
_symmetry_space_group_name_H-M   'P 1'
_cell_length_a   7.32092440
_cell_length_b   7.32092300
_cell_length_c   6.19486499
_cell_angle_alpha   73.04641680
_cell_angle_beta   73.04640776
_cell_angle_gamma   82.37018357
_symmetry_Int_Tables_number   1
_chemical_formula_structural   NaLu3(ReN3)4
_chemical_formula_sum   'Na1 Lu3 Re4 N12'
_cell_volume   303.37444099
_cell_formula_units_Z   1
loop_
 _symmetry_equiv_pos_site_id
 _symmetry_equiv_pos_as_xyz
  1  'x, y, z'
loop_
 _atom_site_type_symbol
 _atom_site_label
 _atom_site_symmetry_multiplicity
 _atom_site_fract_x
 _atom_site_fract_y
 _atom_site_fract_z
 _atom_site_occupancy
  Na  Na0  1  0.709549  0.290451  0.250000  1
  Lu  Lu1  1  0.909985  0.090015  0.750000  1
  Lu  Lu2  1  0.286677  0.713323  0.750000  1
  Lu  Lu3  1  0.087767  0.912233  0.250000  1
  Re  Re4  1  0.620383  0.794223  0.276513  1
  Re  Re5  1  0.205777  0.379617  0.223487  1
  Re  Re6  1  0.379039  0.200392  0.725709  1
  Re  Re7  1  0.799608  0.620961  0.774291  1
  N  N8  1  0.332516  0.374890  0.914303  1
  N  N9  1  0.020442  0.209746  0.349284  1
  N  N10  1  0.790254  0.979558  0.150716  1
  N  N11  1  0.215420  0.001789  0.842658  1
  N  N12  1  0.659942  0.641804  0.070831  1
  N  N13  1  0.886662  0.381701  0.805278  1
  N  N14  1  0.125840  0.629674  0.166277  1
  N  N15  1  0.998211  0.784580  0.657342  1
  N  N16  1  0.370326  0.874160  0.333723  1
  N  N17  1  0.625110  0.667484  0.585697  1
  N  N18  1  0.618299  0.113338  0.694722  1
  N  N19  1  0.358196  0.340058  0.429169  1
