# generated using pymatgen
data_Th3Ga3RuPtRh
_symmetry_space_group_name_H-M   'P 1'
_cell_length_a   7.27074800
_cell_length_b   7.27074759
_cell_length_c   4.09943100
_cell_angle_alpha   90.00000000
_cell_angle_beta   90.00000000
_cell_angle_gamma   120.00000186
_symmetry_Int_Tables_number   1
_chemical_formula_structural   Th3Ga3RuPtRh
_chemical_formula_sum   'Th3 Ga3 Ru1 Pt1 Rh1'
_cell_volume   187.67756714
_cell_formula_units_Z   1
loop_
 _symmetry_equiv_pos_site_id
 _symmetry_equiv_pos_as_xyz
  1  'x, y, z'
loop_
 _atom_site_type_symbol
 _atom_site_label
 _atom_site_symmetry_multiplicity
 _atom_site_fract_x
 _atom_site_fract_y
 _atom_site_fract_z
 _atom_site_occupancy
  Th  Th0  1  0.991708  0.407728  0.500000  1
  Th  Th1  1  0.592272  0.583980  0.500000  1
  Th  Th2  1  0.416020  0.008292  0.500000  1
  Ga  Ga3  1  0.995731  0.759429  0.000000  1
  Ga  Ga4  1  0.240571  0.236303  0.000000  1
  Ga  Ga5  1  0.763697  0.004269  0.000000  1
  Ru  Ru6  1  0.666667  0.333333  0.000000  1
  Pt  Pt7  1  0.333333  0.666667  0.000000  1
  Rh  Rh8  1  0.000000  0.000000  0.500000  1
