# generated using pymatgen
data_Y16Cd4Ir3Rh
_symmetry_space_group_name_H-M   'P 1'
_cell_length_a   9.67781294
_cell_length_b   9.67781253
_cell_length_c   9.67781352
_cell_angle_alpha   59.96941665
_cell_angle_beta   59.96941549
_cell_angle_gamma   59.96941827
_symmetry_Int_Tables_number   1
_chemical_formula_structural   Y16Cd4Ir3Rh
_chemical_formula_sum   'Y16 Cd4 Ir3 Rh1'
_cell_volume   640.49446217
_cell_formula_units_Z   1
loop_
 _symmetry_equiv_pos_site_id
 _symmetry_equiv_pos_as_xyz
  1  'x, y, z'
loop_
 _atom_site_type_symbol
 _atom_site_label
 _atom_site_symmetry_multiplicity
 _atom_site_fract_x
 _atom_site_fract_y
 _atom_site_fract_z
 _atom_site_occupancy
  Y  Y0  1  0.348549  0.348549  0.348549  1
  Y  Y1  1  0.350262  0.350262  0.952197  1
  Y  Y2  1  0.350262  0.952197  0.350262  1
  Y  Y3  1  0.952197  0.350262  0.350262  1
  Y  Y4  1  0.808852  0.189832  0.189832  1
  Y  Y5  1  0.188415  0.810045  0.810045  1
  Y  Y6  1  0.189832  0.808852  0.189832  1
  Y  Y7  1  0.810045  0.188415  0.810045  1
  Y  Y8  1  0.189832  0.189832  0.808852  1
  Y  Y9  1  0.810045  0.810045  0.188415  1
  Y  Y10  1  0.939103  0.562148  0.562148  1
  Y  Y11  1  0.563321  0.937285  0.937285  1
  Y  Y12  1  0.562148  0.939103  0.562148  1
  Y  Y13  1  0.937285  0.563321  0.937285  1
  Y  Y14  1  0.562148  0.562148  0.939103  1
  Y  Y15  1  0.937285  0.937285  0.563321  1
  Cd  Cd16  1  0.580224  0.580224  0.580224  1
  Cd  Cd17  1  0.580787  0.580787  0.256957  1
  Cd  Cd18  1  0.580787  0.256957  0.580787  1
  Cd  Cd19  1  0.256957  0.580787  0.580787  1
  Ir  Ir20  1  0.142334  0.142334  0.575265  1
  Ir  Ir21  1  0.142334  0.575265  0.142334  1
  Ir  Ir22  1  0.575265  0.142334  0.142334  1
  Rh  Rh23  1  0.141734  0.141734  0.141734  1
