# generated using pymatgen
data_DyHo2PaNiB14
_symmetry_space_group_name_H-M   'P 1'
_cell_length_a   7.22025280
_cell_length_b   7.22183169
_cell_length_c   7.50793000
_cell_angle_alpha   90.00000000
_cell_angle_beta   90.00000000
_cell_angle_gamma   90.07639941
_symmetry_Int_Tables_number   1
_chemical_formula_structural   DyHo2PaNiB14
_chemical_formula_sum   'Dy2 Ho4 Pa2 Ni2 B28'
_cell_volume   391.48902807
_cell_formula_units_Z   2
loop_
 _symmetry_equiv_pos_site_id
 _symmetry_equiv_pos_as_xyz
  1  'x, y, z'
loop_
 _atom_site_type_symbol
 _atom_site_label
 _atom_site_symmetry_multiplicity
 _atom_site_fract_x
 _atom_site_fract_y
 _atom_site_fract_z
 _atom_site_occupancy
  Dy  Dy0  1  0.694189  0.167455  0.500000  1
  Dy  Dy1  1  0.306516  0.833136  0.500000  1
  Ho  Ho2  1  0.333998  0.807569  0.000000  1
  Ho  Ho3  1  0.808061  0.665546  0.000000  1
  Ho  Ho4  1  0.833577  0.693524  0.500000  1
  Ho  Ho5  1  0.166799  0.306751  0.500000  1
  Pa  Pa6  1  0.193890  0.329452  0.000000  1
  Pa  Pa7  1  0.670447  0.193783  0.000000  1
  Ni  Ni8  1  0.999518  0.997775  0.000000  1
  Ni  Ni9  1  0.500975  0.499336  0.500000  1
  B  B10  1  0.173480  0.039269  0.231739  1
  B  B11  1  0.960640  0.172783  0.233226  1
  B  B12  1  0.039743  0.824090  0.231096  1
  B  B13  1  0.675069  0.461943  0.268068  1
  B  B14  1  0.325539  0.541052  0.268963  1
  B  B15  1  0.824617  0.959758  0.232262  1
  B  B16  1  0.540175  0.675648  0.270569  1
  B  B17  1  0.459873  0.326767  0.267163  1
  B  B18  1  0.824617  0.959758  0.767738  1
  B  B19  1  0.039743  0.824090  0.768904  1
  B  B20  1  0.960640  0.172783  0.766774  1
  B  B21  1  0.325539  0.541052  0.731037  1
  B  B22  1  0.675069  0.461943  0.731932  1
  B  B23  1  0.173480  0.039269  0.768261  1
  B  B24  1  0.459873  0.326767  0.732837  1
  B  B25  1  0.540175  0.675648  0.729431  1
  B  B26  1  0.088947  0.588897  0.246081  1
  B  B27  1  0.409658  0.090602  0.242406  1
  B  B28  1  0.587901  0.912226  0.246800  1
  B  B29  1  0.910386  0.410158  0.243971  1
  B  B30  1  0.910386  0.410158  0.756029  1
  B  B31  1  0.587901  0.912226  0.753200  1
  B  B32  1  0.409658  0.090602  0.757594  1
  B  B33  1  0.088947  0.588897  0.753919  1
  B  B34  1  0.000100  0.997234  0.390626  1
  B  B35  1  0.499885  0.502412  0.110602  1
  B  B36  1  0.000100  0.997234  0.609374  1
  B  B37  1  0.499885  0.502412  0.889398  1
