# generated using pymatgen
data_Th3(Si3Pd10)2
_symmetry_space_group_name_H-M   'P 1'
_cell_length_a   8.80078355
_cell_length_b   8.80078411
_cell_length_c   8.80078300
_cell_angle_alpha   60.00000040
_cell_angle_beta   59.99999832
_cell_angle_gamma   59.99999662
_symmetry_Int_Tables_number   1
_chemical_formula_structural   Th3(Si3Pd10)2
_chemical_formula_sum   'Th3 Si6 Pd20'
_cell_volume   482.00218497
_cell_formula_units_Z   1
loop_
 _symmetry_equiv_pos_site_id
 _symmetry_equiv_pos_as_xyz
  1  'x, y, z'
loop_
 _atom_site_type_symbol
 _atom_site_label
 _atom_site_symmetry_multiplicity
 _atom_site_fract_x
 _atom_site_fract_y
 _atom_site_fract_z
 _atom_site_occupancy
  Th  Th0  1  0.250000  0.250000  0.250000  1
  Th  Th1  1  0.750000  0.750000  0.750000  1
  Th  Th2  1  0.000000  0.000000  0.000000  1
  Si  Si3  1  0.731770  0.268230  0.268230  1
  Si  Si4  1  0.268230  0.731770  0.731770  1
  Si  Si5  1  0.268230  0.731770  0.268230  1
  Si  Si6  1  0.731770  0.268230  0.731770  1
  Si  Si7  1  0.268230  0.268230  0.731770  1
  Si  Si8  1  0.731770  0.731770  0.268230  1
  Pd  Pd9  1  0.383780  0.383780  0.383780  1
  Pd  Pd10  1  0.616220  0.616220  0.616220  1
  Pd  Pd11  1  0.383780  0.383780  0.848661  1
  Pd  Pd12  1  0.383780  0.848661  0.383780  1
  Pd  Pd13  1  0.616220  0.616220  0.151339  1
  Pd  Pd14  1  0.616220  0.151339  0.616220  1
  Pd  Pd15  1  0.848661  0.383780  0.383780  1
  Pd  Pd16  1  0.151339  0.616220  0.616220  1
  Pd  Pd17  1  0.346449  0.000000  0.000000  1
  Pd  Pd18  1  0.653551  0.000000  0.000000  1
  Pd  Pd19  1  0.000000  0.346449  0.653551  1
  Pd  Pd20  1  0.000000  0.653551  0.346449  1
  Pd  Pd21  1  0.000000  0.346449  0.000000  1
  Pd  Pd22  1  0.653551  0.000000  0.346449  1
  Pd  Pd23  1  0.000000  0.653551  0.000000  1
  Pd  Pd24  1  0.346449  0.000000  0.653551  1
  Pd  Pd25  1  0.000000  0.000000  0.346449  1
  Pd  Pd26  1  0.000000  0.000000  0.653551  1
  Pd  Pd27  1  0.653551  0.346449  0.000000  1
  Pd  Pd28  1  0.346449  0.653551  0.000000  1
