# generated using pymatgen
data_Sc6Al13Ga(Si5Os3)2
_symmetry_space_group_name_H-M   'P 1'
_cell_length_a   8.48951300
_cell_length_b   8.48951418
_cell_length_c   9.05927500
_cell_angle_alpha   90.00000000
_cell_angle_beta   90.00000000
_cell_angle_gamma   119.99999929
_symmetry_Int_Tables_number   1
_chemical_formula_structural   Sc6Al13Ga(Si5Os3)2
_chemical_formula_sum   'Sc6 Al13 Ga1 Si10 Os6'
_cell_volume   565.44412205
_cell_formula_units_Z   1
loop_
 _symmetry_equiv_pos_site_id
 _symmetry_equiv_pos_as_xyz
  1  'x, y, z'
loop_
 _atom_site_type_symbol
 _atom_site_label
 _atom_site_symmetry_multiplicity
 _atom_site_fract_x
 _atom_site_fract_y
 _atom_site_fract_z
 _atom_site_occupancy
  Sc  Sc0  1  0.198249  0.801751  0.250000  1
  Sc  Sc1  1  0.198249  0.396499  0.250000  1
  Sc  Sc2  1  0.603501  0.801751  0.250000  1
  Sc  Sc3  1  0.801806  0.198194  0.750000  1
  Sc  Sc4  1  0.801806  0.603612  0.750000  1
  Sc  Sc5  1  0.396388  0.198194  0.750000  1
  Al  Al6  1  0.157370  0.842630  0.919130  1
  Al  Al7  1  0.157370  0.314741  0.919130  1
  Al  Al8  1  0.685259  0.842630  0.919130  1
  Al  Al9  1  0.842650  0.157350  0.080813  1
  Al  Al10  1  0.842650  0.685301  0.080813  1
  Al  Al11  1  0.314699  0.157350  0.080813  1
  Al  Al12  1  0.842650  0.157350  0.419187  1
  Al  Al13  1  0.842650  0.685301  0.419187  1
  Al  Al14  1  0.314699  0.157350  0.419187  1
  Al  Al15  1  0.157370  0.842630  0.580870  1
  Al  Al16  1  0.157370  0.314741  0.580870  1
  Al  Al17  1  0.685259  0.842630  0.580870  1
  Al  Al18  1  0.000000  0.000000  0.750000  1
  Ga  Ga19  1  0.000000  0.000000  0.250000  1
  Si  Si20  1  0.566482  0.433518  0.250000  1
  Si  Si21  1  0.566482  0.132964  0.250000  1
  Si  Si22  1  0.867036  0.433518  0.250000  1
  Si  Si23  1  0.433513  0.566487  0.750000  1
  Si  Si24  1  0.433513  0.867025  0.750000  1
  Si  Si25  1  0.132975  0.566487  0.750000  1
  Si  Si26  1  0.333333  0.666667  0.452229  1
  Si  Si27  1  0.666667  0.333333  0.547649  1
  Si  Si28  1  0.666667  0.333333  0.952351  1
  Si  Si29  1  0.333333  0.666667  0.047771  1
  Os  Os30  1  0.499935  0.500065  0.500048  1
  Os  Os31  1  0.499935  0.999870  0.500048  1
  Os  Os32  1  0.000130  0.500065  0.500048  1
  Os  Os33  1  0.499935  0.500065  0.999952  1
  Os  Os34  1  0.499935  0.999870  0.999952  1
  Os  Os35  1  0.000130  0.500065  0.999952  1
