# generated using pymatgen
data_Zr2Co3Cu4
_symmetry_space_group_name_H-M   'P 1'
_cell_length_a   4.76816567
_cell_length_b   4.75293298
_cell_length_c   6.44284511
_cell_angle_alpha   82.40494328
_cell_angle_beta   74.72232120
_cell_angle_gamma   59.89392591
_symmetry_Int_Tables_number   1
_chemical_formula_structural   Zr2Co3Cu4
_chemical_formula_sum   'Zr2 Co3 Cu4'
_cell_volume   121.85138970
_cell_formula_units_Z   1
loop_
 _symmetry_equiv_pos_site_id
 _symmetry_equiv_pos_as_xyz
  1  'x, y, z'
loop_
 _atom_site_type_symbol
 _atom_site_label
 _atom_site_symmetry_multiplicity
 _atom_site_fract_x
 _atom_site_fract_y
 _atom_site_fract_z
 _atom_site_occupancy
  Zr  Zr0  1  0.093120  0.000000  0.250918  1
  Zr  Zr1  1  0.906880  0.000000  0.749082  1
  Co  Co2  1  0.500000  0.500000  0.500000  1
  Co  Co3  1  0.000000  0.500000  0.500000  1
  Co  Co4  1  0.500000  0.000000  0.500000  1
  Cu  Cu5  1  0.536916  0.674131  0.846980  1
  Cu  Cu6  1  0.211047  0.325869  0.846980  1
  Cu  Cu7  1  0.463084  0.325869  0.153020  1
  Cu  Cu8  1  0.788953  0.674131  0.153020  1
