# generated using pymatgen
data_DyHo4GePb3
_symmetry_space_group_name_H-M   'P 1'
_cell_length_a   9.31514411
_cell_length_b   9.31514426
_cell_length_c   6.52863700
_cell_angle_alpha   90.00000000
_cell_angle_beta   90.00000000
_cell_angle_gamma   119.98274050
_symmetry_Int_Tables_number   1
_chemical_formula_structural   DyHo4GePb3
_chemical_formula_sum   'Dy2 Ho8 Ge2 Pb6'
_cell_volume   490.69069430
_cell_formula_units_Z   2
loop_
 _symmetry_equiv_pos_site_id
 _symmetry_equiv_pos_as_xyz
  1  'x, y, z'
loop_
 _atom_site_type_symbol
 _atom_site_label
 _atom_site_symmetry_multiplicity
 _atom_site_fract_x
 _atom_site_fract_y
 _atom_site_fract_z
 _atom_site_occupancy
  Dy  Dy0  1  0.748394  0.748394  0.250000  1
  Dy  Dy1  1  0.251606  0.251606  0.750000  1
  Ho  Ho2  1  0.251347  0.999982  0.250000  1
  Ho  Ho3  1  0.748653  0.000018  0.750000  1
  Ho  Ho4  1  0.999982  0.251347  0.250000  1
  Ho  Ho5  1  0.000018  0.748653  0.750000  1
  Ho  Ho6  1  0.333300  0.666700  0.000000  1
  Ho  Ho7  1  0.666700  0.333300  0.000000  1
  Ho  Ho8  1  0.666700  0.333300  0.500000  1
  Ho  Ho9  1  0.333300  0.666700  0.500000  1
  Ge  Ge10  1  0.000000  0.000000  0.000000  1
  Ge  Ge11  1  0.000000  0.000000  0.500000  1
  Pb  Pb12  1  0.607790  0.000106  0.250000  1
  Pb  Pb13  1  0.392210  0.999894  0.750000  1
  Pb  Pb14  1  0.000106  0.607790  0.250000  1
  Pb  Pb15  1  0.999894  0.392210  0.750000  1
  Pb  Pb16  1  0.392012  0.392012  0.250000  1
  Pb  Pb17  1  0.607988  0.607988  0.750000  1
