# generated using pymatgen
data_SrHo(Al5Os)4
_symmetry_space_group_name_H-M   'P 1'
_cell_length_a   6.88040720
_cell_length_b   6.88040713
_cell_length_c   9.17358800
_cell_angle_alpha   90.00000000
_cell_angle_beta   90.00000000
_cell_angle_gamma   96.59337732
_symmetry_Int_Tables_number   1
_chemical_formula_structural   SrHo(Al5Os)4
_chemical_formula_sum   'Sr1 Ho1 Al20 Os4'
_cell_volume   431.40538826
_cell_formula_units_Z   1
loop_
 _symmetry_equiv_pos_site_id
 _symmetry_equiv_pos_as_xyz
  1  'x, y, z'
loop_
 _atom_site_type_symbol
 _atom_site_label
 _atom_site_symmetry_multiplicity
 _atom_site_fract_x
 _atom_site_fract_y
 _atom_site_fract_z
 _atom_site_occupancy
  Sr  Sr0  1  0.875413  0.124587  0.750000  1
  Ho  Ho1  1  0.127681  0.872319  0.250000  1
  Al  Al2  1  0.520744  0.781526  0.750000  1
  Al  Al3  1  0.782362  0.520414  0.250000  1
  Al  Al4  1  0.479586  0.217638  0.250000  1
  Al  Al5  1  0.218474  0.479256  0.750000  1
  Al  Al6  1  0.622726  0.377274  0.961510  1
  Al  Al7  1  0.376461  0.623539  0.050280  1
  Al  Al8  1  0.622726  0.377274  0.538490  1
  Al  Al9  1  0.376461  0.623539  0.449720  1
  Al  Al10  1  0.409438  0.144462  0.750000  1
  Al  Al11  1  0.145336  0.418230  0.250000  1
  Al  Al12  1  0.581770  0.854664  0.250000  1
  Al  Al13  1  0.855538  0.590562  0.750000  1
  Al  Al14  1  0.845823  0.154177  0.397950  1
  Al  Al15  1  0.160881  0.839119  0.600220  1
  Al  Al16  1  0.845823  0.154177  0.102050  1
  Al  Al17  1  0.160881  0.839119  0.899780  1
  Al  Al18  1  0.774344  0.775428  0.003366  1
  Al  Al19  1  0.774344  0.775428  0.496634  1
  Al  Al20  1  0.224572  0.225656  0.003366  1
  Al  Al21  1  0.224572  0.225656  0.496634  1
  Os  Os22  1  0.497130  0.000111  0.001538  1
  Os  Os23  1  0.999889  0.502870  0.001538  1
  Os  Os24  1  0.497130  0.000111  0.498462  1
  Os  Os25  1  0.999889  0.502870  0.498462  1
