# generated using pymatgen
data_TmMg7(B6Os)4
_symmetry_space_group_name_H-M   'P 1'
_cell_length_a   8.89272598
_cell_length_b   11.07850217
_cell_length_c   3.50578800
_cell_angle_alpha   90.00000000
_cell_angle_beta   90.00000000
_cell_angle_gamma   90.12110633
_symmetry_Int_Tables_number   1
_chemical_formula_structural   TmMg7(B6Os)4
_chemical_formula_sum   'Tm1 Mg7 B24 Os4'
_cell_volume   345.38274536
_cell_formula_units_Z   1
loop_
 _symmetry_equiv_pos_site_id
 _symmetry_equiv_pos_as_xyz
  1  'x, y, z'
loop_
 _atom_site_type_symbol
 _atom_site_label
 _atom_site_symmetry_multiplicity
 _atom_site_fract_x
 _atom_site_fract_y
 _atom_site_fract_z
 _atom_site_occupancy
  Tm  Tm0  1  0.324485  0.086116  0.000000  1
  Mg  Mg1  1  0.946217  0.128619  0.000000  1
  Mg  Mg2  1  0.446816  0.373511  0.000000  1
  Mg  Mg3  1  0.830288  0.413614  0.000000  1
  Mg  Mg4  1  0.168913  0.587701  0.000000  1
  Mg  Mg5  1  0.555362  0.627316  0.000000  1
  Mg  Mg6  1  0.054704  0.870940  0.000000  1
  Mg  Mg7  1  0.670052  0.912295  0.000000  1
  B  B8  1  0.093078  0.025289  0.500000  1
  B  B9  1  0.556061  0.064641  0.500000  1
  B  B10  1  0.757235  0.078861  0.500000  1
  B  B11  1  0.130261  0.182912  0.500000  1
  B  B12  1  0.482911  0.213109  0.500000  1
  B  B13  1  0.797811  0.238780  0.500000  1
  B  B14  1  0.296945  0.263400  0.500000  1
  B  B15  1  0.981107  0.288836  0.500000  1
  B  B16  1  0.632799  0.320220  0.500000  1
  B  B17  1  0.256432  0.422495  0.500000  1
  B  B18  1  0.054413  0.436167  0.500000  1
  B  B19  1  0.592519  0.475476  0.500000  1
  B  B20  1  0.408129  0.525182  0.500000  1
  B  B21  1  0.944300  0.564603  0.500000  1
  B  B22  1  0.743395  0.579415  0.500000  1
  B  B23  1  0.367951  0.679443  0.500000  1
  B  B24  1  0.018772  0.710963  0.500000  1
  B  B25  1  0.702483  0.738566  0.500000  1
  B  B26  1  0.201724  0.760454  0.500000  1
  B  B27  1  0.519790  0.787554  0.500000  1
  B  B28  1  0.868600  0.819508  0.500000  1
  B  B29  1  0.243751  0.917556  0.500000  1
  B  B30  1  0.443898  0.933074  0.500000  1
  B  B31  1  0.907159  0.974303  0.500000  1
  Os  Os32  1  0.643551  0.180750  0.000000  1
  Os  Os33  1  0.143870  0.323013  0.000000  1
  Os  Os34  1  0.856690  0.679839  0.000000  1
  Os  Os35  1  0.357525  0.815477  0.000000  1
