# generated using pymatgen
data_GaFe5Mo12(PtN2)2
_symmetry_space_group_name_H-M   'P 1'
_cell_length_a   6.76889800
_cell_length_b   6.77186088
_cell_length_c   6.77664710
_cell_angle_alpha   90.30395849
_cell_angle_beta   89.86471645
_cell_angle_gamma   90.15939729
_symmetry_Int_Tables_number   1
_chemical_formula_structural   GaFe5Mo12(PtN2)2
_chemical_formula_sum   'Ga1 Fe5 Mo12 Pt2 N4'
_cell_volume   310.62176225
_cell_formula_units_Z   1
loop_
 _symmetry_equiv_pos_site_id
 _symmetry_equiv_pos_as_xyz
  1  'x, y, z'
loop_
 _atom_site_type_symbol
 _atom_site_label
 _atom_site_symmetry_multiplicity
 _atom_site_fract_x
 _atom_site_fract_y
 _atom_site_fract_z
 _atom_site_occupancy
  Ga  Ga0  1  0.819272  0.678199  0.568355  1
  Fe  Fe1  1  0.320259  0.318146  0.433477  1
  Fe  Fe2  1  0.076767  0.558972  0.326071  1
  Fe  Fe3  1  0.425311  0.079830  0.195553  1
  Fe  Fe4  1  0.561169  0.427704  0.670990  1
  Fe  Fe5  1  0.932096  0.929258  0.814624  1
  Mo  Mo6  1  0.622409  0.053169  0.541602  1
  Mo  Mo7  1  0.122072  0.954826  0.457045  1
  Mo  Mo8  1  0.878533  0.549355  0.955899  1
  Mo  Mo9  1  0.378594  0.447570  0.043709  1
  Mo  Mo10  1  0.209811  0.615982  0.699856  1
  Mo  Mo11  1  0.292447  0.124105  0.799485  1
  Mo  Mo12  1  0.793268  0.875323  0.196967  1
  Mo  Mo13  1  0.707180  0.383931  0.298867  1
  Mo  Mo14  1  0.052993  0.211116  0.133170  1
  Mo  Mo15  1  0.952898  0.291648  0.626644  1
  Mo  Mo16  1  0.548930  0.791111  0.866778  1
  Mo  Mo17  1  0.445756  0.706842  0.372761  1
  Pt  Pt18  1  0.683840  0.184182  0.937286  1
  Pt  Pt19  1  0.186217  0.814415  0.065728  1
  N  N20  1  0.371641  0.875322  0.624504  1
  N  N21  1  0.871194  0.127960  0.371800  1
  N  N22  1  0.124732  0.373311  0.878696  1
  N  N23  1  0.622610  0.627719  0.120132  1
