# generated using pymatgen
data_Zr10Mn3Al9(CoOs)4
_symmetry_space_group_name_H-M   'P 1'
_cell_length_a   8.81719331
_cell_length_b   8.81719102
_cell_length_c   8.80961559
_cell_angle_alpha   60.70367691
_cell_angle_beta   60.70368363
_cell_angle_gamma   60.40992754
_symmetry_Int_Tables_number   1
_chemical_formula_structural   Zr10Mn3Al9(CoOs)4
_chemical_formula_sum   'Zr10 Mn3 Al9 Co4 Os4'
_cell_volume   490.90367568
_cell_formula_units_Z   1
loop_
 _symmetry_equiv_pos_site_id
 _symmetry_equiv_pos_as_xyz
  1  'x, y, z'
loop_
 _atom_site_type_symbol
 _atom_site_label
 _atom_site_symmetry_multiplicity
 _atom_site_fract_x
 _atom_site_fract_y
 _atom_site_fract_z
 _atom_site_occupancy
  Zr  Zr0  1  0.193775  0.193775  0.808705  1
  Zr  Zr1  1  0.805066  0.199643  0.193570  1
  Zr  Zr2  1  0.199643  0.805066  0.193570  1
  Zr  Zr3  1  0.798961  0.798961  0.208671  1
  Zr  Zr4  1  0.209744  0.797802  0.801799  1
  Zr  Zr5  1  0.797802  0.209744  0.801799  1
  Zr  Zr6  1  0.378244  0.378244  0.386355  1
  Zr  Zr7  1  0.383723  0.852290  0.385229  1
  Zr  Zr8  1  0.852290  0.383723  0.385229  1
  Zr  Zr9  1  0.382010  0.382010  0.850576  1
  Mn  Mn10  1  0.823196  0.540685  0.815589  1
  Mn  Mn11  1  0.540685  0.823196  0.815589  1
  Mn  Mn12  1  0.820223  0.820223  0.534846  1
  Al  Al13  1  0.165988  0.165988  0.166860  1
  Al  Al14  1  0.161714  0.508483  0.163763  1
  Al  Al15  1  0.508483  0.161714  0.163763  1
  Al  Al16  1  0.161512  0.161512  0.512376  1
  Al  Al17  1  0.623720  0.623720  0.620747  1
  Al  Al18  1  0.621330  0.134154  0.618077  1
  Al  Al19  1  0.134154  0.621330  0.618077  1
  Al  Al20  1  0.620231  0.620231  0.137037  1
  Al  Al21  1  0.834833  0.834833  0.833109  1
  Co  Co22  1  0.994185  0.503651  0.506090  1
  Co  Co23  1  0.503651  0.994185  0.506090  1
  Co  Co24  1  0.500357  0.500357  0.498670  1
  Co  Co25  1  0.995225  0.995225  0.998841  1
  Os  Os26  1  0.994317  0.994317  0.495654  1
  Os  Os27  1  0.495226  0.992392  0.993284  1
  Os  Os28  1  0.992392  0.495226  0.993284  1
  Os  Os29  1  0.507318  0.507318  0.992752  1
