# generated using pymatgen
data_Pr7SmSc12Si15Ag
_symmetry_space_group_name_H-M   'P 1'
_cell_length_a   7.27835677
_cell_length_b   7.51889237
_cell_length_c   14.32229514
_cell_angle_alpha   90.03672426
_cell_angle_beta   89.72844187
_cell_angle_gamma   90.15505970
_symmetry_Int_Tables_number   1
_chemical_formula_structural   Pr7SmSc12Si15Ag
_chemical_formula_sum   'Pr7 Sm1 Sc12 Si15 Ag1'
_cell_volume   783.77836794
_cell_formula_units_Z   1
loop_
 _symmetry_equiv_pos_site_id
 _symmetry_equiv_pos_as_xyz
  1  'x, y, z'
loop_
 _atom_site_type_symbol
 _atom_site_label
 _atom_site_symmetry_multiplicity
 _atom_site_fract_x
 _atom_site_fract_y
 _atom_site_fract_z
 _atom_site_occupancy
  Pr  Pr0  1  0.513536  0.325733  0.399312  1
  Pr  Pr1  1  0.487033  0.673066  0.902744  1
  Pr  Pr2  1  0.492725  0.674422  0.601055  1
  Pr  Pr3  1  0.989806  0.834005  0.597200  1
  Pr  Pr4  1  0.987133  0.828555  0.902764  1
  Pr  Pr5  1  0.512410  0.327239  0.097390  1
  Pr  Pr6  1  0.013010  0.172711  0.098268  1
  Sm  Sm7  1  0.008895  0.171563  0.397557  1
  Sc  Sc8  1  0.342278  0.171623  0.627839  1
  Sc  Sc9  1  0.666516  0.824492  0.373731  1
  Sc  Sc10  1  0.664087  0.000541  0.752039  1
  Sc  Sc11  1  0.166155  0.676874  0.371308  1
  Sc  Sc12  1  0.829803  0.322903  0.876200  1
  Sc  Sc13  1  0.823700  0.324935  0.624967  1
  Sc  Sc14  1  0.839473  0.502439  0.250799  1
  Sc  Sc15  1  0.339409  0.996464  0.248643  1
  Sc  Sc16  1  0.328150  0.174077  0.876054  1
  Sc  Sc17  1  0.169318  0.676396  0.125061  1
  Sc  Sc18  1  0.671390  0.824758  0.124273  1
  Sc  Sc19  1  0.161357  0.496289  0.753960  1
  Si  Si20  1  0.287054  0.882871  0.750890  1
  Si  Si21  1  0.465264  0.624941  0.248285  1
  Si  Si22  1  0.036141  0.129486  0.749843  1
  Si  Si23  1  0.536010  0.376370  0.752377  1
  Si  Si24  1  0.964616  0.876520  0.249724  1
  Si  Si25  1  0.711791  0.118000  0.249315  1
  Si  Si26  1  0.849533  0.537144  0.039680  1
  Si  Si27  1  0.348383  0.962619  0.040289  1
  Si  Si28  1  0.149749  0.462994  0.961177  1
  Si  Si29  1  0.653569  0.037834  0.538156  1
  Si  Si30  1  0.342906  0.960449  0.460475  1
  Si  Si31  1  0.840792  0.540929  0.457389  1
  Si  Si32  1  0.791320  0.617147  0.751529  1
  Si  Si33  1  0.211145  0.381104  0.249948  1
  Si  Si34  1  0.650812  0.036910  0.959935  1
  Ag  Ag35  1  0.154730  0.455597  0.539827  1
