# generated using pymatgen
data_La16Cd4IrPd3
_symmetry_space_group_name_H-M   'P 1'
_cell_length_a   10.22517639
_cell_length_b   10.22517639
_cell_length_c   10.22517604
_cell_angle_alpha   59.73161070
_cell_angle_beta   59.73161153
_cell_angle_gamma   59.73161296
_symmetry_Int_Tables_number   1
_chemical_formula_structural   La16Cd4IrPd3
_chemical_formula_sum   'La16 Cd4 Ir1 Pd3'
_cell_volume   751.34982683
_cell_formula_units_Z   1
loop_
 _symmetry_equiv_pos_site_id
 _symmetry_equiv_pos_as_xyz
  1  'x, y, z'
loop_
 _atom_site_type_symbol
 _atom_site_label
 _atom_site_symmetry_multiplicity
 _atom_site_fract_x
 _atom_site_fract_y
 _atom_site_fract_z
 _atom_site_occupancy
  La  La0  1  0.350470  0.350470  0.350470  1
  La  La1  1  0.347240  0.347240  0.951566  1
  La  La2  1  0.347240  0.951566  0.347240  1
  La  La3  1  0.951566  0.347240  0.347240  1
  La  La4  1  0.815137  0.190789  0.190789  1
  La  La5  1  0.192694  0.806613  0.806613  1
  La  La6  1  0.190789  0.815137  0.190789  1
  La  La7  1  0.806613  0.192694  0.806613  1
  La  La8  1  0.190789  0.190789  0.815137  1
  La  La9  1  0.806613  0.806613  0.192694  1
  La  La10  1  0.936384  0.564209  0.564209  1
  La  La11  1  0.559439  0.937346  0.937346  1
  La  La12  1  0.564209  0.936384  0.564209  1
  La  La13  1  0.937346  0.559439  0.937346  1
  La  La14  1  0.564209  0.564209  0.936384  1
  La  La15  1  0.937346  0.937346  0.559439  1
  Cd  Cd16  1  0.579878  0.579878  0.579878  1
  Cd  Cd17  1  0.579963  0.579963  0.260272  1
  Cd  Cd18  1  0.579963  0.260272  0.579963  1
  Cd  Cd19  1  0.260272  0.579963  0.579963  1
  Ir  Ir20  1  0.143142  0.143142  0.143142  1
  Pd  Pd21  1  0.143080  0.143080  0.572539  1
  Pd  Pd22  1  0.143080  0.572539  0.143080  1
  Pd  Pd23  1  0.572539  0.143080  0.143080  1
