# generated using pymatgen
data_HoPa2(AlRh)3
_symmetry_space_group_name_H-M   'P 1'
_cell_length_a   7.13837300
_cell_length_b   7.19017865
_cell_length_c   3.91817400
_cell_angle_alpha   90.00000000
_cell_angle_beta   90.00000000
_cell_angle_gamma   119.76193885
_symmetry_Int_Tables_number   1
_chemical_formula_structural   HoPa2(AlRh)3
_chemical_formula_sum   'Ho1 Pa2 Al3 Rh3'
_cell_volume   174.57823203
_cell_formula_units_Z   1
loop_
 _symmetry_equiv_pos_site_id
 _symmetry_equiv_pos_as_xyz
  1  'x, y, z'
loop_
 _atom_site_type_symbol
 _atom_site_label
 _atom_site_symmetry_multiplicity
 _atom_site_fract_x
 _atom_site_fract_y
 _atom_site_fract_z
 _atom_site_occupancy
  Ho  Ho0  1  0.413324  0.000000  0.000000  1
  Pa  Pa1  1  0.002438  0.420026  0.000000  1
  Pa  Pa2  1  0.582413  0.579974  0.000000  1
  Al  Al3  1  0.237865  0.228489  0.500000  1
  Al  Al4  1  0.009375  0.771511  0.500000  1
  Al  Al5  1  0.749683  0.000000  0.500000  1
  Rh  Rh6  1  0.691848  0.361219  0.500000  1
  Rh  Rh7  1  0.330628  0.638781  0.500000  1
  Rh  Rh8  1  0.982427  0.000000  0.000000  1
