# generated using pymatgen
data_S24NO3
_symmetry_space_group_name_H-M   'P 1'
_cell_length_a   14.80127839
_cell_length_b   14.80127924
_cell_length_c   14.80127669
_cell_angle_alpha   118.68636068
_cell_angle_beta   118.68635954
_cell_angle_gamma   118.68634942
_symmetry_Int_Tables_number   1
_chemical_formula_structural   S24NO3
_chemical_formula_sum   'S24 N1 O3'
_cell_volume   959.47777166
_cell_formula_units_Z   1
loop_
 _symmetry_equiv_pos_site_id
 _symmetry_equiv_pos_as_xyz
  1  'x, y, z'
loop_
 _atom_site_type_symbol
 _atom_site_label
 _atom_site_symmetry_multiplicity
 _atom_site_fract_x
 _atom_site_fract_y
 _atom_site_fract_z
 _atom_site_occupancy
  S  S0  1  0.803005  0.525459  0.525459  1
  S  S1  1  0.525459  0.525459  0.803005  1
  S  S2  1  0.525459  0.803005  0.525459  1
  S  S3  1  0.248266  0.380153  0.635671  1
  S  S4  1  0.346849  0.950310  0.346849  1
  S  S5  1  0.346849  0.346849  0.950310  1
  S  S6  1  0.950310  0.346849  0.346849  1
  S  S7  1  0.123016  0.738544  0.254682  1
  S  S8  1  0.254682  0.123016  0.738544  1
  S  S9  1  0.738544  0.254682  0.123016  1
  S  S10  1  0.738544  0.123016  0.254682  1
  S  S11  1  0.254682  0.738544  0.123016  1
  S  S12  1  0.123016  0.254682  0.738544  1
  S  S13  1  0.348022  0.881396  0.533513  1
  S  S14  1  0.533513  0.348022  0.881396  1
  S  S15  1  0.881396  0.533513  0.348022  1
  S  S16  1  0.881396  0.348022  0.533513  1
  S  S17  1  0.533513  0.881396  0.348022  1
  S  S18  1  0.348022  0.533513  0.881396  1
  S  S19  1  0.248266  0.635671  0.380153  1
  S  S20  1  0.380153  0.248266  0.635671  1
  S  S21  1  0.635671  0.380153  0.248266  1
  S  S22  1  0.635671  0.248266  0.380153  1
  S  S23  1  0.380153  0.635671  0.248266  1
  N  N24  1  0.935546  0.935546  0.935546  1
  O  O25  1  0.878147  0.963572  0.963572  1
  O  O26  1  0.963572  0.963572  0.878147  1
  O  O27  1  0.963572  0.878147  0.963572  1
