# generated using pymatgen
data_Ho9Th11(Ir2Ru)4
_symmetry_space_group_name_H-M   'P 1'
_cell_length_a   11.17943082
_cell_length_b   11.09000725
_cell_length_c   6.40504087
_cell_angle_alpha   89.94540740
_cell_angle_beta   89.78803936
_cell_angle_gamma   90.08398549
_symmetry_Int_Tables_number   1
_chemical_formula_structural   Ho9Th11(Ir2Ru)4
_chemical_formula_sum   'Ho9 Th11 Ir8 Ru4'
_cell_volume   794.09011552
_cell_formula_units_Z   1
loop_
 _symmetry_equiv_pos_site_id
 _symmetry_equiv_pos_as_xyz
  1  'x, y, z'
loop_
 _atom_site_type_symbol
 _atom_site_label
 _atom_site_symmetry_multiplicity
 _atom_site_fract_x
 _atom_site_fract_y
 _atom_site_fract_z
 _atom_site_occupancy
  Ho  Ho0  1  0.797393  0.587177  0.615007  1
  Ho  Ho1  1  0.911634  0.710071  0.114173  1
  Ho  Ho2  1  0.911919  0.292928  0.615223  1
  Ho  Ho3  1  0.079895  0.710195  0.616657  1
  Ho  Ho4  1  0.085877  0.287574  0.117214  1
  Ho  Ho5  1  0.999075  0.001317  0.502286  1
  Ho  Ho6  1  0.000228  0.999560  0.002375  1
  Ho  Ho7  1  0.499306  0.499590  0.010893  1
  Ho  Ho8  1  0.503954  0.501019  0.511026  1
  Th  Th9  1  0.287810  0.090623  0.379736  1
  Th  Th10  1  0.288185  0.907538  0.879585  1
  Th  Th11  1  0.712477  0.091936  0.881873  1
  Th  Th12  1  0.712458  0.908160  0.381714  1
  Th  Th13  1  0.593485  0.787972  0.882175  1
  Th  Th14  1  0.590620  0.212235  0.382823  1
  Th  Th15  1  0.409678  0.787715  0.381045  1
  Th  Th16  1  0.408721  0.211572  0.882062  1
  Th  Th17  1  0.200912  0.412235  0.616335  1
  Th  Th18  1  0.201914  0.588604  0.117068  1
  Th  Th19  1  0.798445  0.413726  0.114303  1
  Ir  Ir20  1  0.844748  0.153036  0.248245  1
  Ir  Ir21  1  0.843875  0.849780  0.749806  1
  Ir  Ir22  1  0.155323  0.150763  0.747039  1
  Ir  Ir23  1  0.154808  0.847790  0.247496  1
  Ir  Ir24  1  0.653019  0.344261  0.759220  1
  Ir  Ir25  1  0.655268  0.655154  0.249723  1
  Ir  Ir26  1  0.345803  0.344352  0.259410  1
  Ir  Ir27  1  0.345543  0.655238  0.755921  1
  Ru  Ru28  1  0.499893  0.000213  0.114281  1
  Ru  Ru29  1  0.499930  0.999173  0.613634  1
  Ru  Ru30  1  0.005115  0.498034  0.879752  1
  Ru  Ru31  1  0.002688  0.500460  0.371901  1
