# generated using pymatgen
data_Y3Fe(Ni4P3)2
_symmetry_space_group_name_H-M   'P 1'
_cell_length_a   3.76362000
_cell_length_b   10.48022902
_cell_length_c   12.30570003
_cell_angle_alpha   90.00773923
_cell_angle_beta   90.00230239
_cell_angle_gamma   89.99947870
_symmetry_Int_Tables_number   1
_chemical_formula_structural   Y3Fe(Ni4P3)2
_chemical_formula_sum   'Y6 Fe2 Ni16 P12'
_cell_volume   485.38109957
_cell_formula_units_Z   2
loop_
 _symmetry_equiv_pos_site_id
 _symmetry_equiv_pos_as_xyz
  1  'x, y, z'
loop_
 _atom_site_type_symbol
 _atom_site_label
 _atom_site_symmetry_multiplicity
 _atom_site_fract_x
 _atom_site_fract_y
 _atom_site_fract_z
 _atom_site_occupancy
  Y  Y0  1  0.751824  0.000035  0.479116  1
  Y  Y1  1  0.251814  0.499951  0.520505  1
  Y  Y2  1  0.251820  0.683512  0.793864  1
  Y  Y3  1  0.251819  0.316471  0.793845  1
  Y  Y4  1  0.751802  0.816472  0.205887  1
  Y  Y5  1  0.751802  0.183549  0.205921  1
  Fe  Fe6  1  0.751755  0.999955  0.013789  1
  Fe  Fe7  1  0.251650  0.999992  0.846377  1
  Ni  Ni8  1  0.252018  0.500017  0.983832  1
  Ni  Ni9  1  0.251926  0.198336  0.571616  1
  Ni  Ni10  1  0.251919  0.801665  0.571625  1
  Ni  Ni11  1  0.751913  0.301080  0.428699  1
  Ni  Ni12  1  0.751917  0.698902  0.428661  1
  Ni  Ni13  1  0.251790  0.620046  0.289123  1
  Ni  Ni14  1  0.251774  0.379917  0.289131  1
  Ni  Ni15  1  0.751876  0.880466  0.711707  1
  Ni  Ni16  1  0.751881  0.119550  0.711720  1
  Ni  Ni17  1  0.251828  0.167444  0.006364  1
  Ni  Ni18  1  0.251822  0.832615  0.006377  1
  Ni  Ni19  1  0.751906  0.331073  0.994372  1
  Ni  Ni20  1  0.751930  0.668912  0.994370  1
  Ni  Ni21  1  0.751348  0.500003  0.157708  1
  Ni  Ni22  1  0.251980  0.000003  0.297512  1
  Ni  Ni23  1  0.751890  0.499998  0.699837  1
  P  P24  1  0.251818  0.186827  0.385439  1
  P  P25  1  0.251818  0.813145  0.385439  1
  P  P26  1  0.751863  0.313312  0.614280  1
  P  P27  1  0.751846  0.686708  0.614272  1
  P  P28  1  0.251777  0.999995  0.118749  1
  P  P29  1  0.751866  0.500012  0.876951  1
  P  P30  1  0.251746  0.650266  0.107754  1
  P  P31  1  0.251752  0.349724  0.107755  1
  P  P32  1  0.751768  0.850346  0.892784  1
  P  P33  1  0.751787  0.149706  0.892750  1
  P  P34  1  0.251824  0.000001  0.658130  1
  P  P35  1  0.751737  0.499996  0.343739  1
