# generated using pymatgen
data_Nd3Sc3Al6PtAu5
_symmetry_space_group_name_H-M   'P 1'
_cell_length_a   7.29622600
_cell_length_b   7.29622631
_cell_length_c   7.98975700
_cell_angle_alpha   90.00000000
_cell_angle_beta   90.00000000
_cell_angle_gamma   119.99998954
_symmetry_Int_Tables_number   1
_chemical_formula_structural   Nd3Sc3Al6PtAu5
_chemical_formula_sum   'Nd3 Sc3 Al6 Pt1 Au5'
_cell_volume   368.35012554
_cell_formula_units_Z   1
loop_
 _symmetry_equiv_pos_site_id
 _symmetry_equiv_pos_as_xyz
  1  'x, y, z'
loop_
 _atom_site_type_symbol
 _atom_site_label
 _atom_site_symmetry_multiplicity
 _atom_site_fract_x
 _atom_site_fract_y
 _atom_site_fract_z
 _atom_site_occupancy
  Nd  Nd0  1  0.579300  0.998144  0.750000  1
  Nd  Nd1  1  0.001856  0.581158  0.750000  1
  Nd  Nd2  1  0.418842  0.420700  0.750000  1
  Sc  Sc3  1  0.996178  0.600996  0.250000  1
  Sc  Sc4  1  0.604818  0.003822  0.250000  1
  Sc  Sc5  1  0.399004  0.395182  0.250000  1
  Al  Al6  1  0.752811  0.754110  0.020209  1
  Al  Al7  1  0.245890  0.998701  0.020209  1
  Al  Al8  1  0.001299  0.247189  0.020209  1
  Al  Al9  1  0.752811  0.754110  0.479791  1
  Al  Al10  1  0.245890  0.998701  0.479791  1
  Al  Al11  1  0.001299  0.247189  0.479791  1
  Pt  Pt12  1  0.000000  0.000000  0.250000  1
  Au  Au13  1  0.000000  0.000000  0.750000  1
  Au  Au14  1  0.666667  0.333333  0.029661  1
  Au  Au15  1  0.666667  0.333333  0.470339  1
  Au  Au16  1  0.333333  0.666667  0.462851  1
  Au  Au17  1  0.333333  0.666667  0.037149  1
