# generated using pymatgen
data_Sb4PtRh
_symmetry_space_group_name_H-M   'P 1'
_cell_length_a   6.50751987
_cell_length_b   6.51876520
_cell_length_c   6.51497000
_cell_angle_alpha   90.00000000
_cell_angle_beta   90.00000000
_cell_angle_gamma   89.15510705
_symmetry_Int_Tables_number   1
_chemical_formula_structural   Sb4PtRh
_chemical_formula_sum   'Sb8 Pt2 Rh2'
_cell_volume   276.34145578
_cell_formula_units_Z   2
loop_
 _symmetry_equiv_pos_site_id
 _symmetry_equiv_pos_as_xyz
  1  'x, y, z'
loop_
 _atom_site_type_symbol
 _atom_site_label
 _atom_site_symmetry_multiplicity
 _atom_site_fract_x
 _atom_site_fract_y
 _atom_site_fract_z
 _atom_site_occupancy
  Sb  Sb0  1  0.375429  0.130716  0.878600  1
  Sb  Sb1  1  0.124571  0.869284  0.378600  1
  Sb  Sb2  1  0.873885  0.379226  0.130154  1
  Sb  Sb3  1  0.626115  0.620774  0.630154  1
  Sb  Sb4  1  0.373885  0.379226  0.369846  1
  Sb  Sb5  1  0.126115  0.620774  0.869846  1
  Sb  Sb6  1  0.875429  0.130716  0.621400  1
  Sb  Sb7  1  0.624571  0.869284  0.121400  1
  Pt  Pt8  1  0.500000  0.000000  0.500000  1
  Pt  Pt9  1  0.000000  0.000000  0.000000  1
  Rh  Rh10  1  0.000000  0.500000  0.500000  1
  Rh  Rh11  1  0.500000  0.500000  0.000000  1
