# generated using pymatgen
data_Hf8Co12Si15Ge
_symmetry_space_group_name_H-M   'P 1'
_cell_length_a   5.22030109
_cell_length_b   6.77184740
_cell_length_c   13.68380576
_cell_angle_alpha   90.07179163
_cell_angle_beta   89.98860361
_cell_angle_gamma   90.01778021
_symmetry_Int_Tables_number   1
_chemical_formula_structural   Hf8Co12Si15Ge
_chemical_formula_sum   'Hf8 Co12 Si15 Ge1'
_cell_volume   483.73693228
_cell_formula_units_Z   1
loop_
 _symmetry_equiv_pos_site_id
 _symmetry_equiv_pos_as_xyz
  1  'x, y, z'
loop_
 _atom_site_type_symbol
 _atom_site_label
 _atom_site_symmetry_multiplicity
 _atom_site_fract_x
 _atom_site_fract_y
 _atom_site_fract_z
 _atom_site_occupancy
  Hf  Hf0  1  0.230816  0.402424  0.146272  1
  Hf  Hf1  1  0.730497  0.101419  0.147221  1
  Hf  Hf2  1  0.268785  0.099943  0.645758  1
  Hf  Hf3  1  0.769040  0.399175  0.645800  1
  Hf  Hf4  1  0.230551  0.600350  0.354395  1
  Hf  Hf5  1  0.730741  0.899208  0.354595  1
  Hf  Hf6  1  0.268960  0.898970  0.853209  1
  Hf  Hf7  1  0.768969  0.600060  0.853809  1
  Co  Co8  1  0.991223  0.281698  0.979171  1
  Co  Co9  1  0.506238  0.224876  0.481367  1
  Co  Co10  1  0.776689  0.999719  0.749670  1
  Co  Co11  1  0.498439  0.231208  0.979056  1
  Co  Co12  1  0.723256  0.499328  0.250810  1
  Co  Co13  1  0.493893  0.775064  0.518916  1
  Co  Co14  1  0.006102  0.275244  0.481323  1
  Co  Co15  1  0.004641  0.719809  0.018367  1
  Co  Co16  1  0.223452  0.996316  0.253696  1
  Co  Co17  1  0.276824  0.500168  0.749654  1
  Co  Co18  1  0.508805  0.770451  0.018590  1
  Co  Co19  1  0.994037  0.724653  0.518912  1
  Si  Si20  1  0.717040  0.519007  0.432426  1
  Si  Si21  1  0.782703  0.019383  0.567697  1
  Si  Si22  1  0.481640  0.752973  0.188770  1
  Si  Si23  1  0.020878  0.253799  0.811274  1
  Si  Si24  1  0.520567  0.245877  0.811102  1
  Si  Si25  1  0.217261  0.980712  0.432868  1
  Si  Si26  1  0.283303  0.520426  0.931186  1
  Si  Si27  1  0.977649  0.744654  0.188701  1
  Si  Si28  1  0.717064  0.480177  0.068525  1
  Si  Si29  1  0.283110  0.480470  0.567826  1
  Si  Si30  1  0.478858  0.245931  0.312411  1
  Si  Si31  1  0.020186  0.745745  0.687878  1
  Si  Si32  1  0.780448  0.980748  0.931440  1
  Si  Si33  1  0.520695  0.753914  0.687810  1
  Si  Si34  1  0.980130  0.253672  0.312280  1
  Ge  Ge35  1  0.216510  0.022427  0.067218  1
