# generated using pymatgen
data_Ho10TcIrAu4
_symmetry_space_group_name_H-M   'P 1'
_cell_length_a   11.28677200
_cell_length_b   11.28677200
_cell_length_c   6.32166900
_cell_angle_alpha   90.00000000
_cell_angle_beta   90.00000000
_cell_angle_gamma   90.00000000
_symmetry_Int_Tables_number   1
_chemical_formula_structural   Ho10TcIrAu4
_chemical_formula_sum   'Ho20 Tc2 Ir2 Au8'
_cell_volume   805.32514013
_cell_formula_units_Z   2
loop_
 _symmetry_equiv_pos_site_id
 _symmetry_equiv_pos_as_xyz
  1  'x, y, z'
loop_
 _atom_site_type_symbol
 _atom_site_label
 _atom_site_symmetry_multiplicity
 _atom_site_fract_x
 _atom_site_fract_y
 _atom_site_fract_z
 _atom_site_occupancy
  Ho  Ho0  1  0.301588  0.082839  0.355737  1
  Ho  Ho1  1  0.301588  0.917161  0.855737  1
  Ho  Ho2  1  0.698412  0.082839  0.855737  1
  Ho  Ho3  1  0.698412  0.917161  0.355737  1
  Ho  Ho4  1  0.582839  0.801588  0.855737  1
  Ho  Ho5  1  0.582839  0.198412  0.355737  1
  Ho  Ho6  1  0.417161  0.801588  0.355737  1
  Ho  Ho7  1  0.417161  0.198412  0.855737  1
  Ho  Ho8  1  0.201625  0.415857  0.642797  1
  Ho  Ho9  1  0.201625  0.584143  0.142797  1
  Ho  Ho10  1  0.798375  0.415857  0.142797  1
  Ho  Ho11  1  0.798375  0.584143  0.642797  1
  Ho  Ho12  1  0.915857  0.701625  0.142797  1
  Ho  Ho13  1  0.915857  0.298375  0.642797  1
  Ho  Ho14  1  0.084143  0.701625  0.642797  1
  Ho  Ho15  1  0.084143  0.298375  0.142797  1
  Ho  Ho16  1  0.000000  0.000000  0.497745  1
  Ho  Ho17  1  0.000000  0.000000  0.997745  1
  Ho  Ho18  1  0.500000  0.500000  0.997745  1
  Ho  Ho19  1  0.500000  0.500000  0.497745  1
  Tc  Tc20  1  0.500000  0.000000  0.111365  1
  Tc  Tc21  1  0.500000  0.000000  0.611365  1
  Ir  Ir22  1  0.000000  0.500000  0.896521  1
  Ir  Ir23  1  0.000000  0.500000  0.396521  1
  Au  Au24  1  0.845566  0.156154  0.250623  1
  Au  Au25  1  0.845566  0.843846  0.750623  1
  Au  Au26  1  0.154434  0.156154  0.750623  1
  Au  Au27  1  0.154434  0.843846  0.250623  1
  Au  Au28  1  0.656154  0.345566  0.750623  1
  Au  Au29  1  0.656154  0.654434  0.250623  1
  Au  Au30  1  0.343846  0.345566  0.250623  1
  Au  Au31  1  0.343846  0.654434  0.750623  1
