# generated using pymatgen
data_TbNd2PaAl15(GaIr2)3
_symmetry_space_group_name_H-M   'P 1'
_cell_length_a   7.61246500
_cell_length_b   7.60712439
_cell_length_c   9.48684600
_cell_angle_alpha   90.00000000
_cell_angle_beta   90.00000000
_cell_angle_gamma   119.53858349
_symmetry_Int_Tables_number   1
_chemical_formula_structural   TbNd2PaAl15(GaIr2)3
_chemical_formula_sum   'Tb1 Nd2 Pa1 Al15 Ga3 Ir6'
_cell_volume   477.96804074
_cell_formula_units_Z   1
loop_
 _symmetry_equiv_pos_site_id
 _symmetry_equiv_pos_as_xyz
  1  'x, y, z'
loop_
 _atom_site_type_symbol
 _atom_site_label
 _atom_site_symmetry_multiplicity
 _atom_site_fract_x
 _atom_site_fract_y
 _atom_site_fract_z
 _atom_site_occupancy
  Tb  Tb0  1  0.672509  0.995459  0.250000  1
  Nd  Nd1  1  0.005106  0.329814  0.750000  1
  Nd  Nd2  1  0.330290  0.004756  0.750000  1
  Pa  Pa3  1  0.998445  0.673562  0.250000  1
  Al  Al4  1  0.132914  0.131721  0.250000  1
  Al  Al5  1  0.999808  0.332820  0.078334  1
  Al  Al6  1  0.995839  0.664579  0.926222  1
  Al  Al7  1  0.995839  0.664579  0.573778  1
  Al  Al8  1  0.339804  0.003744  0.421411  1
  Al  Al9  1  0.999808  0.332820  0.421666  1
  Al  Al10  1  0.665449  0.996798  0.569694  1
  Al  Al11  1  0.665449  0.996798  0.930306  1
  Al  Al12  1  0.339804  0.003744  0.078589  1
  Al  Al13  1  0.333658  0.333706  0.542342  1
  Al  Al14  1  0.663685  0.665872  0.439547  1
  Al  Al15  1  0.663685  0.665872  0.060453  1
  Al  Al16  1  0.333658  0.333706  0.957658  1
  Al  Al17  1  0.338626  0.547882  0.250000  1
  Al  Al18  1  0.549121  0.342265  0.250000  1
  Ga  Ga19  1  0.869343  0.871268  0.750000  1
  Ga  Ga20  1  0.657188  0.452972  0.750000  1
  Ga  Ga21  1  0.453055  0.659398  0.750000  1
  Ir  Ir22  1  0.673785  0.330643  0.005386  1
  Ir  Ir23  1  0.326322  0.671905  0.005848  1
  Ir  Ir24  1  0.326322  0.671905  0.494152  1
  Ir  Ir25  1  0.673785  0.330643  0.494614  1
  Ir  Ir26  1  0.998354  0.995384  0.008002  1
  Ir  Ir27  1  0.998354  0.995384  0.491998  1
