# generated using pymatgen
data_V3CuPd12
_symmetry_space_group_name_H-M   'P 1'
_cell_length_a   5.51330600
_cell_length_b   5.51330575
_cell_length_c   8.93195500
_cell_angle_alpha   90.00000000
_cell_angle_beta   90.00000000
_cell_angle_gamma   119.99980952
_symmetry_Int_Tables_number   1
_chemical_formula_structural   V3CuPd12
_chemical_formula_sum   'V3 Cu1 Pd12'
_cell_volume   235.12681799
_cell_formula_units_Z   1
loop_
 _symmetry_equiv_pos_site_id
 _symmetry_equiv_pos_as_xyz
  1  'x, y, z'
loop_
 _atom_site_type_symbol
 _atom_site_label
 _atom_site_symmetry_multiplicity
 _atom_site_fract_x
 _atom_site_fract_y
 _atom_site_fract_z
 _atom_site_occupancy
  V  V0  1  0.000000  0.000000  0.503699  1
  V  V1  1  0.000000  0.000000  0.996301  1
  V  V2  1  0.666666  0.333334  0.250000  1
  Cu  Cu3  1  0.333333  0.666667  0.750000  1
  Pd  Pd4  1  0.501814  0.498186  0.496307  1
  Pd  Pd5  1  0.501813  0.003627  0.496306  1
  Pd  Pd6  1  0.996373  0.498187  0.496306  1
  Pd  Pd7  1  0.501814  0.498186  0.003693  1
  Pd  Pd8  1  0.501813  0.003627  0.003694  1
  Pd  Pd9  1  0.996373  0.498187  0.003694  1
  Pd  Pd10  1  0.163651  0.836349  0.250000  1
  Pd  Pd11  1  0.163652  0.327301  0.250000  1
  Pd  Pd12  1  0.672699  0.836348  0.250000  1
  Pd  Pd13  1  0.835183  0.164817  0.750000  1
  Pd  Pd14  1  0.835184  0.670367  0.750000  1
  Pd  Pd15  1  0.329633  0.164816  0.750000  1
