# generated using pymatgen
data_Dy5Sc5In8(CuRh)2
_symmetry_space_group_name_H-M   'P 1'
_cell_length_a   3.55142900
_cell_length_b   7.84836907
_cell_length_c   17.72898307
_cell_angle_alpha   89.94700595
_cell_angle_beta   90.00000000
_cell_angle_gamma   90.00000000
_symmetry_Int_Tables_number   1
_chemical_formula_structural   Dy5Sc5In8(CuRh)2
_chemical_formula_sum   'Dy5 Sc5 In8 Cu2 Rh2'
_cell_volume   494.15841327
_cell_formula_units_Z   1
loop_
 _symmetry_equiv_pos_site_id
 _symmetry_equiv_pos_as_xyz
  1  'x, y, z'
loop_
 _atom_site_type_symbol
 _atom_site_label
 _atom_site_symmetry_multiplicity
 _atom_site_fract_x
 _atom_site_fract_y
 _atom_site_fract_z
 _atom_site_occupancy
  Dy  Dy0  1  0.000000  0.000000  0.000000  1
  Dy  Dy1  1  0.000000  0.742061  0.782158  1
  Dy  Dy2  1  0.000000  0.257939  0.217842  1
  Dy  Dy3  1  0.000000  0.260694  0.715146  1
  Dy  Dy4  1  0.000000  0.739306  0.284854  1
  Sc  Sc5  1  0.000000  0.500000  0.500000  1
  Sc  Sc6  1  0.000000  0.878375  0.582809  1
  Sc  Sc7  1  0.000000  0.121625  0.417191  1
  Sc  Sc8  1  0.000000  0.375442  0.911525  1
  Sc  Sc9  1  0.000000  0.624558  0.088475  1
  In  In10  1  0.500000  0.801082  0.440360  1
  In  In11  1  0.500000  0.198918  0.559640  1
  In  In12  1  0.500000  0.311848  0.061648  1
  In  In13  1  0.500000  0.688152  0.938352  1
  In  In14  1  0.500000  0.921654  0.153054  1
  In  In15  1  0.500000  0.078346  0.846946  1
  In  In16  1  0.500000  0.418875  0.355834  1
  In  In17  1  0.500000  0.581125  0.644166  1
  Cu  Cu18  1  0.500000  0.962266  0.691806  1
  Cu  Cu19  1  0.500000  0.037734  0.308194  1
  Rh  Rh20  1  0.500000  0.461436  0.806326  1
  Rh  Rh21  1  0.500000  0.538564  0.193674  1
