# generated using pymatgen
data_Ca5Si2AsH
_symmetry_space_group_name_H-M   'P 1'
_cell_length_a   8.99207357
_cell_length_b   8.99195139
_cell_length_c   8.99199235
_cell_angle_alpha   129.68644257
_cell_angle_beta   129.68681920
_cell_angle_gamma   73.90789689
_symmetry_Int_Tables_number   1
_chemical_formula_structural   Ca5Si2AsH
_chemical_formula_sum   'Ca10 Si4 As2 H2'
_cell_volume   419.96529586
_cell_formula_units_Z   2
loop_
 _symmetry_equiv_pos_site_id
 _symmetry_equiv_pos_as_xyz
  1  'x, y, z'
loop_
 _atom_site_type_symbol
 _atom_site_label
 _atom_site_symmetry_multiplicity
 _atom_site_fract_x
 _atom_site_fract_y
 _atom_site_fract_z
 _atom_site_occupancy
  Ca  Ca0  1  0.500000  0.500000  0.000000  1
  Ca  Ca1  1  0.000000  0.000000  0.000000  1
  Ca  Ca2  1  0.522872  0.022873  0.835955  1
  Ca  Ca3  1  0.186921  0.686916  0.164051  1
  Ca  Ca4  1  0.022872  0.186919  0.500008  1
  Ca  Ca5  1  0.686921  0.522863  0.500004  1
  Ca  Ca6  1  0.477128  0.977127  0.164045  1
  Ca  Ca7  1  0.813079  0.313084  0.835949  1
  Ca  Ca8  1  0.977128  0.813081  0.499992  1
  Ca  Ca9  1  0.313079  0.477137  0.499996  1
  Si  Si10  1  0.884928  0.384927  0.269854  1
  Si  Si11  1  0.115072  0.615073  0.730146  1
  Si  Si12  1  0.384925  0.115072  0.499996  1
  Si  Si13  1  0.615075  0.884928  0.500004  1
  As  As14  1  0.250001  0.250001  0.000004  1
  As  As15  1  0.749999  0.749999  0.999996  1
  H  H16  1  0.250005  0.750025  0.500018  1
  H  H17  1  0.749995  0.249975  0.499982  1
