# generated using pymatgen
data_LiTbPt3Rh
_symmetry_space_group_name_H-M   'P 1'
_cell_length_a   5.31939947
_cell_length_b   5.34535413
_cell_length_c   5.34535400
_cell_angle_alpha   60.00000083
_cell_angle_beta   59.83846496
_cell_angle_gamma   59.83845125
_symmetry_Int_Tables_number   1
_chemical_formula_structural   LiTbPt3Rh
_chemical_formula_sum   'Li1 Tb1 Pt3 Rh1'
_cell_volume   107.21012932
_cell_formula_units_Z   1
loop_
 _symmetry_equiv_pos_site_id
 _symmetry_equiv_pos_as_xyz
  1  'x, y, z'
loop_
 _atom_site_type_symbol
 _atom_site_label
 _atom_site_symmetry_multiplicity
 _atom_site_fract_x
 _atom_site_fract_y
 _atom_site_fract_z
 _atom_site_occupancy
  Li  Li0  1  0.000606  0.999798  0.999798  1
  Tb  Tb1  1  0.249243  0.250252  0.250252  1
  Pt  Pt2  1  0.625241  0.625444  0.625444  1
  Pt  Pt3  1  0.625241  0.625444  0.123870  1
  Pt  Pt4  1  0.625241  0.123870  0.625444  1
  Rh  Rh5  1  0.124427  0.625191  0.625191  1
