# generated using pymatgen
data_TbLu2Ga5Co
_symmetry_space_group_name_H-M   'P 1'
_cell_length_a   6.79725700
_cell_length_b   6.84979180
_cell_length_c   4.17981100
_cell_angle_alpha   90.00000000
_cell_angle_beta   90.00000000
_cell_angle_gamma   119.74663052
_symmetry_Int_Tables_number   1
_chemical_formula_structural   TbLu2Ga5Co
_chemical_formula_sum   'Tb1 Lu2 Ga5 Co1'
_cell_volume   168.96684368
_cell_formula_units_Z   1
loop_
 _symmetry_equiv_pos_site_id
 _symmetry_equiv_pos_as_xyz
  1  'x, y, z'
loop_
 _atom_site_type_symbol
 _atom_site_label
 _atom_site_symmetry_multiplicity
 _atom_site_fract_x
 _atom_site_fract_y
 _atom_site_fract_z
 _atom_site_occupancy
  Tb  Tb0  1  0.594845  0.000000  0.000000  1
  Lu  Lu1  1  0.999125  0.599747  0.000000  1
  Lu  Lu2  1  0.399379  0.400253  0.000000  1
  Ga  Ga3  1  0.231519  0.000000  0.500000  1
  Ga  Ga4  1  0.000936  0.231982  0.500000  1
  Ga  Ga5  1  0.768954  0.768018  0.500000  1
  Ga  Ga6  1  0.330770  0.662153  0.500000  1
  Ga  Ga7  1  0.668618  0.337847  0.500000  1
  Co  Co8  1  0.005854  0.000000  0.000000  1
