# generated using pymatgen
data_Tb6YSe8
_symmetry_space_group_name_H-M   'P 1'
_cell_length_a   8.19623545
_cell_length_b   8.19070932
_cell_length_c   8.19623600
_cell_angle_alpha   119.97934297
_cell_angle_beta   90.08698981
_cell_angle_gamma   119.96479451
_symmetry_Int_Tables_number   1
_chemical_formula_structural   Tb6YSe8
_chemical_formula_sum   'Tb6 Y1 Se8'
_cell_volume   389.10951795
_cell_formula_units_Z   1
loop_
 _symmetry_equiv_pos_site_id
 _symmetry_equiv_pos_as_xyz
  1  'x, y, z'
loop_
 _atom_site_type_symbol
 _atom_site_label
 _atom_site_symmetry_multiplicity
 _atom_site_fract_x
 _atom_site_fract_y
 _atom_site_fract_z
 _atom_site_occupancy
  Tb  Tb0  1  0.249918  0.000006  0.249915  1
  Tb  Tb1  1  0.249908  0.499837  0.249942  1
  Tb  Tb2  1  0.750087  0.000020  0.249941  1
  Tb  Tb3  1  0.249917  0.999976  0.750065  1
  Tb  Tb4  1  0.750098  0.000000  0.750096  1
  Tb  Tb5  1  0.750097  0.500160  0.750069  1
  Y  Y6  1  0.249982  0.500002  0.749975  1
  Se  Se7  1  0.999989  0.000004  0.999988  1
  Se  Se8  1  0.499993  0.000001  0.499994  1
  Se  Se9  1  0.998327  0.996659  0.498337  1
  Se  Se10  1  0.998287  0.499991  0.498298  1
  Se  Se11  1  0.501620  0.499979  0.498392  1
  Se  Se12  1  0.998404  0.500019  0.001633  1
  Se  Se13  1  0.501690  0.500013  0.001679  1
  Se  Se14  1  0.501685  0.003338  0.001685  1
