# generated using pymatgen
data_Dy2BeCoCl2
_symmetry_space_group_name_H-M   'P 1'
_cell_length_a   3.78952900
_cell_length_b   3.78952942
_cell_length_c   10.73114600
_cell_angle_alpha   90.00000000
_cell_angle_beta   90.00000000
_cell_angle_gamma   120.00002253
_symmetry_Int_Tables_number   1
_chemical_formula_structural   Dy2BeCoCl2
_chemical_formula_sum   'Dy2 Be1 Co1 Cl2'
_cell_volume   133.45878125
_cell_formula_units_Z   1
loop_
 _symmetry_equiv_pos_site_id
 _symmetry_equiv_pos_as_xyz
  1  'x, y, z'
loop_
 _atom_site_type_symbol
 _atom_site_label
 _atom_site_symmetry_multiplicity
 _atom_site_fract_x
 _atom_site_fract_y
 _atom_site_fract_z
 _atom_site_occupancy
  Dy  Dy0  1  0.000000  0.000000  0.822827  1
  Dy  Dy1  1  0.000000  0.000000  0.176819  1
  Be  Be2  1  0.666667  0.333333  0.002971  1
  Co  Co3  1  0.333333  0.666667  0.996242  1
  Cl  Cl4  1  0.333333  0.666667  0.341470  1
  Cl  Cl5  1  0.666667  0.333333  0.659670  1
