# generated using pymatgen
data_Pr2Dy3Y(IrO7)2
_symmetry_space_group_name_H-M   'P 1'
_cell_length_a   6.48056429
_cell_length_b   6.48684827
_cell_length_c   7.51861900
_cell_angle_alpha   90.00000000
_cell_angle_beta   90.00000000
_cell_angle_gamma   109.78779717
_symmetry_Int_Tables_number   1
_chemical_formula_structural   Pr2Dy3Y(IrO7)2
_chemical_formula_sum   'Pr2 Dy3 Y1 Ir2 O14'
_cell_volume   297.40791493
_cell_formula_units_Z   1
loop_
 _symmetry_equiv_pos_site_id
 _symmetry_equiv_pos_as_xyz
  1  'x, y, z'
loop_
 _atom_site_type_symbol
 _atom_site_label
 _atom_site_symmetry_multiplicity
 _atom_site_fract_x
 _atom_site_fract_y
 _atom_site_fract_z
 _atom_site_occupancy
  Pr  Pr0  1  0.000336  0.000221  0.000346  1
  Pr  Pr1  1  0.000336  0.000221  0.499654  1
  Dy  Dy2  1  0.515371  0.064275  0.250000  1
  Dy  Dy3  1  0.936452  0.484193  0.750000  1
  Dy  Dy4  1  0.064131  0.515550  0.250000  1
  Y  Y5  1  0.484105  0.937765  0.750000  1
  Ir  Ir6  1  0.500341  0.500637  0.000181  1
  Ir  Ir7  1  0.500341  0.500637  0.499819  1
  O  O8  1  0.589765  0.587609  0.750000  1
  O  O9  1  0.408942  0.408616  0.250000  1
  O  O10  1  0.840091  0.121195  0.750000  1
  O  O11  1  0.160338  0.878289  0.250000  1
  O  O12  1  0.120794  0.838787  0.750000  1
  O  O13  1  0.879110  0.160988  0.250000  1
  O  O14  1  0.439171  0.180613  0.967014  1
  O  O15  1  0.560381  0.819518  0.465312  1
  O  O16  1  0.180741  0.440284  0.965893  1
  O  O17  1  0.819480  0.560093  0.465667  1
  O  O18  1  0.439171  0.180613  0.532986  1
  O  O19  1  0.560381  0.819518  0.034688  1
  O  O20  1  0.819480  0.560093  0.034333  1
  O  O21  1  0.180741  0.440284  0.534107  1
