# generated using pymatgen
data_Dy14TmSc5Bi12
_symmetry_space_group_name_H-M   'P 1'
_cell_length_a   8.09124099
_cell_length_b   9.38632372
_cell_length_c   11.95108801
_cell_angle_alpha   89.93027094
_cell_angle_beta   90.08294858
_cell_angle_gamma   89.97403702
_symmetry_Int_Tables_number   1
_chemical_formula_structural   Dy14TmSc5Bi12
_chemical_formula_sum   'Dy14 Tm1 Sc5 Bi12'
_cell_volume   907.64765043
_cell_formula_units_Z   1
loop_
 _symmetry_equiv_pos_site_id
 _symmetry_equiv_pos_as_xyz
  1  'x, y, z'
loop_
 _atom_site_type_symbol
 _atom_site_label
 _atom_site_symmetry_multiplicity
 _atom_site_fract_x
 _atom_site_fract_y
 _atom_site_fract_z
 _atom_site_occupancy
  Dy  Dy0  1  0.352739  0.246740  0.282620  1
  Dy  Dy1  1  0.643463  0.749021  0.715798  1
  Dy  Dy2  1  0.145300  0.748271  0.784481  1
  Dy  Dy3  1  0.856131  0.248758  0.214757  1
  Dy  Dy4  1  0.184064  0.248906  0.780894  1
  Dy  Dy5  1  0.815016  0.749454  0.219492  1
  Dy  Dy6  1  0.315809  0.750195  0.280520  1
  Dy  Dy7  1  0.683953  0.249360  0.720632  1
  Dy  Dy8  1  0.804932  0.936102  0.941042  1
  Dy  Dy9  1  0.304211  0.935519  0.558665  1
  Dy  Dy10  1  0.807170  0.564561  0.942324  1
  Dy  Dy11  1  0.694693  0.064319  0.441165  1
  Dy  Dy12  1  0.195028  0.437032  0.058597  1
  Dy  Dy13  1  0.695692  0.435299  0.440965  1
  Tm  Tm14  1  0.304162  0.566714  0.558984  1
  Sc  Sc15  1  0.025215  0.249783  0.512197  1
  Sc  Sc16  1  0.976162  0.749142  0.486550  1
  Sc  Sc17  1  0.475220  0.750034  0.012708  1
  Sc  Sc18  1  0.522108  0.247561  0.988424  1
  Sc  Sc19  1  0.196322  0.069187  0.057523  1
  Bi  Bi20  1  0.401124  0.252873  0.542434  1
  Bi  Bi21  1  0.597545  0.749065  0.457740  1
  Bi  Bi22  1  0.101651  0.760080  0.043981  1
  Bi  Bi23  1  0.906099  0.247639  0.958875  1
  Bi  Bi24  1  0.066261  0.003599  0.330110  1
  Bi  Bi25  1  0.934146  0.995369  0.667995  1
  Bi  Bi26  1  0.432403  0.995457  0.833481  1
  Bi  Bi27  1  0.934746  0.503274  0.667951  1
  Bi  Bi28  1  0.562805  0.003593  0.166868  1
  Bi  Bi29  1  0.066246  0.495396  0.331502  1
  Bi  Bi30  1  0.565555  0.494891  0.168349  1
  Bi  Bi31  1  0.434032  0.502807  0.832378  1
