# generated using pymatgen
data_Tb3Dy5(HoRu2)2
_symmetry_space_group_name_H-M   'P 1'
_cell_length_a   6.37414590
_cell_length_b   7.26266036
_cell_length_c   8.49966528
_cell_angle_alpha   96.66925151
_cell_angle_beta   112.12447585
_cell_angle_gamma   89.88102314
_symmetry_Int_Tables_number   1
_chemical_formula_structural   Tb3Dy5(HoRu2)2
_chemical_formula_sum   'Tb3 Dy5 Ho2 Ru4'
_cell_volume   361.66669740
_cell_formula_units_Z   1
loop_
 _symmetry_equiv_pos_site_id
 _symmetry_equiv_pos_as_xyz
  1  'x, y, z'
loop_
 _atom_site_type_symbol
 _atom_site_label
 _atom_site_symmetry_multiplicity
 _atom_site_fract_x
 _atom_site_fract_y
 _atom_site_fract_z
 _atom_site_occupancy
  Tb  Tb0  1  0.978406  0.915586  0.186510  1
  Tb  Tb1  1  0.792321  0.584203  0.813532  1
  Tb  Tb2  1  0.022012  0.084411  0.813707  1
  Dy  Dy3  1  0.207494  0.415726  0.186531  1
  Dy  Dy4  1  0.640342  0.814547  0.433812  1
  Dy  Dy5  1  0.206432  0.685570  0.566322  1
  Dy  Dy6  1  0.359521  0.185524  0.566037  1
  Dy  Dy7  1  0.793208  0.314309  0.433312  1
  Ho  Ho8  1  0.422110  0.749547  0.999908  1
  Ho  Ho9  1  0.577871  0.250472  0.000316  1
  Ru  Ru10  1  0.824257  0.575653  0.220295  1
  Ru  Ru11  1  0.603221  0.925005  0.779376  1
  Ru  Ru12  1  0.176321  0.424204  0.779826  1
  Ru  Ru13  1  0.396486  0.075244  0.220516  1
