# generated using pymatgen
data_TbNd8Er3In20
_symmetry_space_group_name_H-M   'P 1'
_cell_length_a   6.64601859
_cell_length_b   10.54988900
_cell_length_c   12.48723100
_cell_angle_alpha   90.00000000
_cell_angle_beta   90.02413899
_cell_angle_gamma   90.00000000
_symmetry_Int_Tables_number   1
_chemical_formula_structural   TbNd8Er3In20
_chemical_formula_sum   'Tb1 Nd8 Er3 In20'
_cell_volume   875.53910713
_cell_formula_units_Z   1
loop_
 _symmetry_equiv_pos_site_id
 _symmetry_equiv_pos_as_xyz
  1  'x, y, z'
loop_
 _atom_site_type_symbol
 _atom_site_label
 _atom_site_symmetry_multiplicity
 _atom_site_fract_x
 _atom_site_fract_y
 _atom_site_fract_z
 _atom_site_occupancy
  Tb  Tb0  1  0.852007  0.250000  0.442460  1
  Nd  Nd1  1  0.889452  0.491214  0.142797  1
  Nd  Nd2  1  0.610251  0.008383  0.643029  1
  Nd  Nd3  1  0.110754  0.990947  0.857461  1
  Nd  Nd4  1  0.389202  0.508342  0.357374  1
  Nd  Nd5  1  0.110754  0.509053  0.857461  1
  Nd  Nd6  1  0.389202  0.991658  0.357374  1
  Nd  Nd7  1  0.889452  0.008786  0.142797  1
  Nd  Nd8  1  0.610251  0.491617  0.643029  1
  Er  Er9  1  0.350920  0.750000  0.056524  1
  Er  Er10  1  0.148785  0.750000  0.556998  1
  Er  Er11  1  0.649210  0.250000  0.943507  1
  In  In12  1  0.615501  0.750000  0.503046  1
  In  In13  1  0.884021  0.750000  0.003353  1
  In  In14  1  0.381853  0.250000  0.497707  1
  In  In15  1  0.116263  0.250000  0.996229  1
  In  In16  1  0.651468  0.750000  0.243609  1
  In  In17  1  0.848130  0.750000  0.744044  1
  In  In18  1  0.348190  0.250000  0.756675  1
  In  In19  1  0.154408  0.250000  0.254997  1
  In  In20  1  0.116193  0.750000  0.281878  1
  In  In21  1  0.384674  0.750000  0.782371  1
  In  In22  1  0.884113  0.250000  0.718314  1
  In  In23  1  0.615698  0.250000  0.216496  1
  In  In24  1  0.875401  0.545683  0.402852  1
  In  In25  1  0.624503  0.955605  0.902706  1
  In  In26  1  0.124136  0.044159  0.597527  1
  In  In27  1  0.375584  0.455657  0.097148  1
  In  In28  1  0.124136  0.455841  0.597527  1
  In  In29  1  0.375584  0.044343  0.097148  1
  In  In30  1  0.875401  0.954317  0.402852  1
  In  In31  1  0.624503  0.544395  0.902706  1
