# generated using pymatgen
data_SmBi5(PtO6)3
_symmetry_space_group_name_H-M   'P 1'
_cell_length_a   9.25571000
_cell_length_b   9.26498892
_cell_length_c   5.21986878
_cell_angle_alpha   90.17490035
_cell_angle_beta   90.00000000
_cell_angle_gamma   119.96689034
_symmetry_Int_Tables_number   1
_chemical_formula_structural   SmBi5(PtO6)3
_chemical_formula_sum   'Sm1 Bi5 Pt3 O18'
_cell_volume   387.78138988
_cell_formula_units_Z   1
loop_
 _symmetry_equiv_pos_site_id
 _symmetry_equiv_pos_as_xyz
  1  'x, y, z'
loop_
 _atom_site_type_symbol
 _atom_site_label
 _atom_site_symmetry_multiplicity
 _atom_site_fract_x
 _atom_site_fract_y
 _atom_site_fract_z
 _atom_site_occupancy
  Sm  Sm0  1  0.621565  0.000000  0.500000  1
  Bi  Bi1  1  0.999589  0.626617  0.501036  1
  Bi  Bi2  1  0.998756  0.292878  0.997893  1
  Bi  Bi3  1  0.372972  0.373383  0.498964  1
  Bi  Bi4  1  0.293820  0.000000  0.000000  1
  Bi  Bi5  1  0.705876  0.707122  0.002107  1
  Pt  Pt6  1  0.333375  0.666790  0.995208  1
  Pt  Pt7  1  0.000366  0.000000  0.500000  1
  Pt  Pt8  1  0.666587  0.333210  0.004792  1
  O  O9  1  0.087206  0.881218  0.284394  1
  O  O10  1  0.229677  0.770867  0.776203  1
  O  O11  1  0.127667  0.538966  0.206267  1
  O  O12  1  0.410772  0.872041  0.208483  1
  O  O13  1  0.232262  0.456693  0.783859  1
  O  O14  1  0.117402  0.203529  0.277283  1
  O  O15  1  0.205988  0.118782  0.715606  1
  O  O16  1  0.544786  0.775962  0.785512  1
  O  O17  1  0.461819  0.593571  0.214690  1
  O  O18  1  0.792657  0.908553  0.285511  1
  O  O19  1  0.458810  0.229133  0.223797  1
  O  O20  1  0.588701  0.461034  0.793733  1
  O  O21  1  0.538732  0.127959  0.791517  1
  O  O22  1  0.775569  0.543307  0.216141  1
  O  O23  1  0.913873  0.796471  0.722717  1
  O  O24  1  0.768824  0.224038  0.214488  1
  O  O25  1  0.868247  0.406429  0.785310  1
  O  O26  1  0.884104  0.091447  0.714489  1
