# generated using pymatgen
data_Cr3Si12Mo17
_symmetry_space_group_name_H-M   'P 1'
_cell_length_a   7.27433300
_cell_length_b   7.27433406
_cell_length_c   13.69389600
_cell_angle_alpha   90.00000000
_cell_angle_beta   90.00000000
_cell_angle_gamma   140.83414515
_symmetry_Int_Tables_number   1
_chemical_formula_structural   Cr3Si12Mo17
_chemical_formula_sum   'Cr3 Si12 Mo17'
_cell_volume   457.64964071
_cell_formula_units_Z   1
loop_
 _symmetry_equiv_pos_site_id
 _symmetry_equiv_pos_as_xyz
  1  'x, y, z'
loop_
 _atom_site_type_symbol
 _atom_site_label
 _atom_site_symmetry_multiplicity
 _atom_site_fract_x
 _atom_site_fract_y
 _atom_site_fract_z
 _atom_site_occupancy
  Cr  Cr0  1  0.499870  0.499870  0.000000  1
  Cr  Cr1  1  0.499844  0.499844  0.500000  1
  Cr  Cr2  1  0.000849  0.000849  0.000000  1
  Si  Si3  1  0.249989  0.750044  0.750683  1
  Si  Si4  1  0.750044  0.249989  0.249317  1
  Si  Si5  1  0.750044  0.249989  0.750683  1
  Si  Si6  1  0.249989  0.750044  0.249317  1
  Si  Si7  1  0.261015  0.261015  0.663681  1
  Si  Si8  1  0.750916  0.750916  0.159312  1
  Si  Si9  1  0.261015  0.261015  0.336319  1
  Si  Si10  1  0.750916  0.750916  0.840688  1
  Si  Si11  1  0.574945  0.902006  0.500000  1
  Si  Si12  1  0.089830  0.409178  0.000000  1
  Si  Si13  1  0.902006  0.574945  0.500000  1
  Si  Si14  1  0.409178  0.089830  0.000000  1
  Mo  Mo15  1  0.072804  0.426020  0.401225  1
  Mo  Mo16  1  0.573087  0.926669  0.902919  1
  Mo  Mo17  1  0.426020  0.072804  0.598775  1
  Mo  Mo18  1  0.926669  0.573087  0.097081  1
  Mo  Mo19  1  0.848234  0.652714  0.677844  1
  Mo  Mo20  1  0.348009  0.152448  0.175691  1
  Mo  Mo21  1  0.652714  0.848234  0.322156  1
  Mo  Mo22  1  0.152448  0.348009  0.824309  1
  Mo  Mo23  1  0.652714  0.848234  0.677844  1
  Mo  Mo24  1  0.152448  0.348009  0.175691  1
  Mo  Mo25  1  0.848234  0.652714  0.322156  1
  Mo  Mo26  1  0.348009  0.152448  0.824309  1
  Mo  Mo27  1  0.426020  0.072804  0.401225  1
  Mo  Mo28  1  0.926669  0.573087  0.902919  1
  Mo  Mo29  1  0.072804  0.426020  0.598775  1
  Mo  Mo30  1  0.573087  0.926669  0.097081  1
  Mo  Mo31  1  0.999575  0.999575  0.500000  1
