# generated using pymatgen
data_Lu11Sn10
_symmetry_space_group_name_H-M   'P 1'
_cell_length_a   11.63420253
_cell_length_b   11.63420195
_cell_length_c   11.63420200
_cell_angle_alpha   121.27645706
_cell_angle_beta   121.27645531
_cell_angle_gamma   87.80297530
_symmetry_Int_Tables_number   1
_chemical_formula_structural   Lu11Sn10
_chemical_formula_sum   'Lu22 Sn20'
_cell_volume   1091.15678356
_cell_formula_units_Z   2
loop_
 _symmetry_equiv_pos_site_id
 _symmetry_equiv_pos_as_xyz
  1  'x, y, z'
loop_
 _atom_site_type_symbol
 _atom_site_label
 _atom_site_symmetry_multiplicity
 _atom_site_fract_x
 _atom_site_fract_y
 _atom_site_fract_z
 _atom_site_occupancy
  Lu  Lu0  1  0.811276  0.061758  0.250482  1
  Lu  Lu1  1  0.811276  0.560794  0.749518  1
  Lu  Lu2  1  0.061758  0.811276  0.250482  1
  Lu  Lu3  1  0.560794  0.811276  0.749518  1
  Lu  Lu4  1  0.188724  0.938242  0.749518  1
  Lu  Lu5  1  0.188724  0.439206  0.250482  1
  Lu  Lu6  1  0.938242  0.188724  0.749518  1
  Lu  Lu7  1  0.439206  0.188724  0.250482  1
  Lu  Lu8  1  0.172821  0.172821  0.345642  1
  Lu  Lu9  1  0.827179  0.827179  0.654358  1
  Lu  Lu10  1  0.172821  0.827179  0.000000  1
  Lu  Lu11  1  0.827179  0.172821  0.000000  1
  Lu  Lu12  1  0.665047  0.665047  0.000000  1
  Lu  Lu13  1  0.334953  0.334953  0.000000  1
  Lu  Lu14  1  0.602734  0.933348  0.330613  1
  Lu  Lu15  1  0.602734  0.272121  0.669387  1
  Lu  Lu16  1  0.933348  0.602734  0.330613  1
  Lu  Lu17  1  0.272121  0.602734  0.669387  1
  Lu  Lu18  1  0.397266  0.066652  0.669387  1
  Lu  Lu19  1  0.397266  0.727879  0.330613  1
  Lu  Lu20  1  0.066652  0.397266  0.669387  1
  Lu  Lu21  1  0.727879  0.397266  0.330613  1
  Sn  Sn22  1  0.356014  0.000000  0.356014  1
  Sn  Sn23  1  0.643986  0.000000  0.643986  1
  Sn  Sn24  1  0.000000  0.643986  0.643986  1
  Sn  Sn25  1  0.000000  0.356014  0.356014  1
  Sn  Sn26  1  0.887953  0.887953  0.000000  1
  Sn  Sn27  1  0.112047  0.112047  0.000000  1
  Sn  Sn28  1  0.370709  0.370709  0.741416  1
  Sn  Sn29  1  0.629291  0.629291  0.258584  1
  Sn  Sn30  1  0.370709  0.629291  0.000000  1
  Sn  Sn31  1  0.629291  0.370709  0.000000  1
  Sn  Sn32  1  0.750000  0.250000  0.500000  1
  Sn  Sn33  1  0.250000  0.750000  0.500000  1
  Sn  Sn34  1  0.882173  0.882173  0.413509  1
  Sn  Sn35  1  0.468664  0.468664  0.586491  1
  Sn  Sn36  1  0.882173  0.468664  0.000000  1
  Sn  Sn37  1  0.468664  0.882173  0.000000  1
  Sn  Sn38  1  0.117827  0.117827  0.586491  1
  Sn  Sn39  1  0.531336  0.531336  0.413509  1
  Sn  Sn40  1  0.117827  0.531336  0.000000  1
  Sn  Sn41  1  0.531336  0.117827  0.000000  1
