# generated using pymatgen
data_Ce(LuCo)4
_symmetry_space_group_name_H-M   'P 1'
_cell_length_a   5.55855076
_cell_length_b   5.55855037
_cell_length_c   9.10619629
_cell_angle_alpha   71.45158099
_cell_angle_beta   71.45157367
_cell_angle_gamma   41.07383438
_symmetry_Int_Tables_number   1
_chemical_formula_structural   Ce(LuCo)4
_chemical_formula_sum   'Ce1 Lu4 Co4'
_cell_volume   173.86865853
_cell_formula_units_Z   1
loop_
 _symmetry_equiv_pos_site_id
 _symmetry_equiv_pos_as_xyz
  1  'x, y, z'
loop_
 _atom_site_type_symbol
 _atom_site_label
 _atom_site_symmetry_multiplicity
 _atom_site_fract_x
 _atom_site_fract_y
 _atom_site_fract_z
 _atom_site_occupancy
  Ce  Ce0  1  0.500000  0.500000  0.500000  1
  Lu  Lu1  1  0.729733  0.729733  0.683194  1
  Lu  Lu2  1  0.270267  0.270267  0.316806  1
  Lu  Lu3  1  0.387819  0.387819  0.899549  1
  Lu  Lu4  1  0.612181  0.612181  0.100451  1
  Co  Co5  1  0.033712  0.033712  0.647969  1
  Co  Co6  1  0.966288  0.966288  0.352031  1
  Co  Co7  1  0.092431  0.092431  0.883096  1
  Co  Co8  1  0.907569  0.907569  0.116904  1
