# generated using pymatgen
data_CoSb12Ru2Pt
_symmetry_space_group_name_H-M   'P 1'
_cell_length_a   8.08360969
_cell_length_b   8.07642738
_cell_length_c   9.36518309
_cell_angle_alpha   54.74238419
_cell_angle_beta   54.98625496
_cell_angle_gamma   70.69007726
_symmetry_Int_Tables_number   1
_chemical_formula_structural   CoSb12Ru2Pt
_chemical_formula_sum   'Co1 Sb12 Ru2 Pt1'
_cell_volume   408.90552956
_cell_formula_units_Z   1
loop_
 _symmetry_equiv_pos_site_id
 _symmetry_equiv_pos_as_xyz
  1  'x, y, z'
loop_
 _atom_site_type_symbol
 _atom_site_label
 _atom_site_symmetry_multiplicity
 _atom_site_fract_x
 _atom_site_fract_y
 _atom_site_fract_z
 _atom_site_occupancy
  Co  Co0  1  0.500000  0.000000  0.500000  1
  Sb  Sb1  1  0.155955  0.155751  0.179339  1
  Sb  Sb2  1  0.844045  0.844249  0.820661  1
  Sb  Sb3  1  0.833623  0.852957  0.495597  1
  Sb  Sb4  1  0.166377  0.147043  0.504403  1
  Sb  Sb5  1  0.810722  0.503147  0.338468  1
  Sb  Sb6  1  0.189278  0.496853  0.661532  1
  Sb  Sb7  1  0.506928  0.823847  0.338993  1
  Sb  Sb8  1  0.493072  0.176153  0.661007  1
  Sb  Sb9  1  0.653926  0.338169  0.851125  1
  Sb  Sb10  1  0.346074  0.661831  0.148875  1
  Sb  Sb11  1  0.662142  0.327677  0.163232  1
  Sb  Sb12  1  0.337858  0.672323  0.836768  1
  Ru  Ru13  1  0.000000  0.500000  0.000000  1
  Ru  Ru14  1  0.500000  0.000000  0.000000  1
  Pt  Pt15  1  0.000000  0.500000  0.500000  1
