# generated using pymatgen
data_Li2Er3MgAu3
_symmetry_space_group_name_H-M   'P 1'
_cell_length_a   7.43774742
_cell_length_b   7.43774788
_cell_length_c   4.03178900
_cell_angle_alpha   90.00000000
_cell_angle_beta   90.00000000
_cell_angle_gamma   119.80817175
_symmetry_Int_Tables_number   1
_chemical_formula_structural   Li2Er3MgAu3
_chemical_formula_sum   'Li2 Er3 Mg1 Au3'
_cell_volume   193.52966792
_cell_formula_units_Z   1
loop_
 _symmetry_equiv_pos_site_id
 _symmetry_equiv_pos_as_xyz
  1  'x, y, z'
loop_
 _atom_site_type_symbol
 _atom_site_label
 _atom_site_symmetry_multiplicity
 _atom_site_fract_x
 _atom_site_fract_y
 _atom_site_fract_z
 _atom_site_occupancy
  Li  Li0  1  0.247915  0.000251  0.500000  1
  Li  Li1  1  0.000251  0.247915  0.500000  1
  Er  Er2  1  0.590813  0.000877  0.000000  1
  Er  Er3  1  0.000877  0.590813  0.000000  1
  Er  Er4  1  0.403663  0.403663  0.000000  1
  Mg  Mg5  1  0.753342  0.753342  0.500000  1
  Au  Au6  1  0.333557  0.666711  0.500000  1
  Au  Au7  1  0.666711  0.333557  0.500000  1
  Au  Au8  1  0.002871  0.002871  0.000000  1
