# generated using pymatgen
data_Ca2Cd3Rh2
_symmetry_space_group_name_H-M   'P 1'
_cell_length_a   5.52880478
_cell_length_b   5.52880385
_cell_length_c   7.39958436
_cell_angle_alpha   110.47310341
_cell_angle_beta   110.47310181
_cell_angle_gamma   48.39667109
_symmetry_Int_Tables_number   1
_chemical_formula_structural   Ca2Cd3Rh2
_chemical_formula_sum   'Ca2 Cd3 Rh2'
_cell_volume   156.20514267
_cell_formula_units_Z   1
loop_
 _symmetry_equiv_pos_site_id
 _symmetry_equiv_pos_as_xyz
  1  'x, y, z'
loop_
 _atom_site_type_symbol
 _atom_site_label
 _atom_site_symmetry_multiplicity
 _atom_site_fract_x
 _atom_site_fract_y
 _atom_site_fract_z
 _atom_site_occupancy
  Ca  Ca0  1  0.856960  0.856960  0.211735  1
  Ca  Ca1  1  0.143040  0.143040  0.788265  1
  Cd  Cd2  1  0.500000  0.500000  0.000000  1
  Cd  Cd3  1  0.635298  0.635298  0.441131  1
  Cd  Cd4  1  0.364702  0.364702  0.558870  1
  Rh  Rh5  1  0.138572  0.138572  0.192805  1
  Rh  Rh6  1  0.861428  0.861428  0.807195  1
