# generated using pymatgen
data_Rb2AuBrF6
_symmetry_space_group_name_H-M   'P 1'
_cell_length_a   7.38829975
_cell_length_b   6.98461701
_cell_length_c   9.27186146
_cell_angle_alpha   89.99013811
_cell_angle_beta   91.35694679
_cell_angle_gamma   90.00158145
_symmetry_Int_Tables_number   1
_chemical_formula_structural   Rb2AuBrF6
_chemical_formula_sum   'Rb4 Au2 Br2 F12'
_cell_volume   478.33507051
_cell_formula_units_Z   2
loop_
 _symmetry_equiv_pos_site_id
 _symmetry_equiv_pos_as_xyz
  1  'x, y, z'
loop_
 _atom_site_type_symbol
 _atom_site_label
 _atom_site_symmetry_multiplicity
 _atom_site_fract_x
 _atom_site_fract_y
 _atom_site_fract_z
 _atom_site_occupancy
  Rb  Rb0  1  0.031906  0.466486  0.243750  1
  Rb  Rb1  1  0.468111  0.966458  0.256278  1
  Rb  Rb2  1  0.531981  0.033418  0.743744  1
  Rb  Rb3  1  0.968061  0.533404  0.756236  1
  Au  Au4  1  0.499924  0.499940  0.999990  1
  Au  Au5  1  0.000154  0.999944  0.500021  1
  Br  Br6  1  0.000049  0.999948  0.000005  1
  Br  Br7  1  0.499999  0.499936  0.500001  1
  F  F8  1  0.763496  0.534921  0.024105  1
  F  F9  1  0.531240  0.221421  0.019487  1
  F  F10  1  0.096591  0.054264  0.199652  1
  F  F11  1  0.403458  0.554112  0.300324  1
  F  F12  1  0.968389  0.721465  0.480420  1
  F  F13  1  0.736466  0.035297  0.475883  1
  F  F14  1  0.263726  0.964889  0.524139  1
  F  F15  1  0.031888  0.278703  0.519636  1
  F  F16  1  0.596543  0.445779  0.699675  1
  F  F17  1  0.903510  0.945654  0.800358  1
  F  F18  1  0.468348  0.778758  0.980437  1
  F  F19  1  0.236158  0.465203  0.975862  1
