# generated using pymatgen
data_Yb3Dy(Pt2O7)2
_symmetry_space_group_name_H-M   'P 1'
_cell_length_a   7.24621198
_cell_length_b   7.24621168
_cell_length_c   7.24621217
_cell_angle_alpha   60.12208848
_cell_angle_beta   60.12209194
_cell_angle_gamma   60.12209278
_symmetry_Int_Tables_number   1
_chemical_formula_structural   Yb3Dy(Pt2O7)2
_chemical_formula_sum   'Yb3 Dy1 Pt4 O14'
_cell_volume   269.78493072
_cell_formula_units_Z   1
loop_
 _symmetry_equiv_pos_site_id
 _symmetry_equiv_pos_as_xyz
  1  'x, y, z'
loop_
 _atom_site_type_symbol
 _atom_site_label
 _atom_site_symmetry_multiplicity
 _atom_site_fract_x
 _atom_site_fract_y
 _atom_site_fract_z
 _atom_site_occupancy
  Yb  Yb0  1  0.125000  0.625000  0.125000  1
  Yb  Yb1  1  0.125000  0.125000  0.625000  1
  Yb  Yb2  1  0.625000  0.125000  0.125000  1
  Dy  Dy3  1  0.125000  0.125000  0.125000  1
  Pt  Pt4  1  0.625000  0.625000  0.625000  1
  Pt  Pt5  1  0.125000  0.625000  0.625000  1
  Pt  Pt6  1  0.625000  0.125000  0.625000  1
  Pt  Pt7  1  0.625000  0.625000  0.125000  1
  O  O8  1  0.292181  0.707540  0.707540  1
  O  O9  1  0.536321  0.959657  0.959657  1
  O  O10  1  0.707540  0.292181  0.707540  1
  O  O11  1  0.290343  0.290343  0.713679  1
  O  O12  1  0.707540  0.707540  0.292181  1
  O  O13  1  0.002454  0.002454  0.002454  1
  O  O14  1  0.290343  0.713679  0.290343  1
  O  O15  1  0.959657  0.536321  0.959657  1
  O  O16  1  0.959657  0.959657  0.536321  1
  O  O17  1  0.542460  0.542460  0.957819  1
  O  O18  1  0.247546  0.247546  0.247546  1
  O  O19  1  0.542460  0.957819  0.542460  1
  O  O20  1  0.713679  0.290343  0.290343  1
  O  O21  1  0.957819  0.542460  0.542460  1
