# generated using pymatgen
data_Li4Nd2ThPb4
_symmetry_space_group_name_H-M   'P 1'
_cell_length_a   4.76400873
_cell_length_b   7.28440348
_cell_length_c   8.86481700
_cell_angle_alpha   114.25889586
_cell_angle_beta   105.58710937
_cell_angle_gamma   90.00000483
_symmetry_Int_Tables_number   1
_chemical_formula_structural   Li4Nd2ThPb4
_chemical_formula_sum   'Li4 Nd2 Th1 Pb4'
_cell_volume   268.01247757
_cell_formula_units_Z   1
loop_
 _symmetry_equiv_pos_site_id
 _symmetry_equiv_pos_as_xyz
  1  'x, y, z'
loop_
 _atom_site_type_symbol
 _atom_site_label
 _atom_site_symmetry_multiplicity
 _atom_site_fract_x
 _atom_site_fract_y
 _atom_site_fract_z
 _atom_site_occupancy
  Li  Li0  1  0.673277  0.985969  0.346554  1
  Li  Li1  1  0.327344  0.016623  0.654688  1
  Li  Li2  1  0.327344  0.638065  0.654688  1
  Li  Li3  1  0.673277  0.360586  0.346554  1
  Nd  Nd4  1  0.999005  0.999005  0.998010  1
  Nd  Nd5  1  0.872653  0.372653  0.745309  1
  Th  Th6  1  0.126883  0.626883  0.253764  1
  Pb  Pb7  1  0.501049  0.706945  0.002098  1
  Pb  Pb8  1  0.501049  0.295153  0.002098  1
  Pb  Pb9  1  0.784372  0.784372  0.568745  1
  Pb  Pb10  1  0.213746  0.213746  0.427492  1
