# generated using pymatgen
data_La6Tb14Sn11Bi5
_symmetry_space_group_name_H-M   'P 1'
_cell_length_a   8.29236620
_cell_length_b   8.29436743
_cell_length_c   15.75929400
_cell_angle_alpha   89.82291152
_cell_angle_beta   90.34023076
_cell_angle_gamma   89.97568660
_symmetry_Int_Tables_number   1
_chemical_formula_structural   La6Tb14Sn11Bi5
_chemical_formula_sum   'La6 Tb14 Sn11 Bi5'
_cell_volume   1083.89877802
_cell_formula_units_Z   1
loop_
 _symmetry_equiv_pos_site_id
 _symmetry_equiv_pos_as_xyz
  1  'x, y, z'
loop_
 _atom_site_type_symbol
 _atom_site_label
 _atom_site_symmetry_multiplicity
 _atom_site_fract_x
 _atom_site_fract_y
 _atom_site_fract_z
 _atom_site_occupancy
  La  La0  1  0.465015  0.821040  0.897579  1
  La  La1  1  0.967616  0.676717  0.602313  1
  La  La2  1  0.533672  0.174390  0.397336  1
  La  La3  1  0.033739  0.327070  0.102385  1
  La  La4  1  0.540985  0.179174  0.103915  1
  La  La5  1  0.046440  0.322592  0.396976  1
  Tb  Tb6  1  0.445280  0.828927  0.610699  1
  Tb  Tb7  1  0.948655  0.666238  0.889324  1
  Tb  Tb8  1  0.621409  0.342625  0.876128  1
  Tb  Tb9  1  0.122846  0.161666  0.622921  1
  Tb  Tb10  1  0.379812  0.662390  0.380777  1
  Tb  Tb11  1  0.879537  0.834406  0.122342  1
  Tb  Tb12  1  0.386750  0.661570  0.122796  1
  Tb  Tb13  1  0.888087  0.839072  0.377377  1
  Tb  Tb14  1  0.614322  0.340960  0.622707  1
  Tb  Tb15  1  0.121430  0.161215  0.875974  1
  Tb  Tb16  1  0.284883  0.499711  0.745986  1
  Tb  Tb17  1  0.785229  0.000049  0.749363  1
  Tb  Tb18  1  0.715270  0.500713  0.246359  1
  Tb  Tb19  1  0.215058  0.998572  0.254641  1
  Sn  Sn20  1  0.285501  0.471075  0.546316  1
  Sn  Sn21  1  0.220737  0.963773  0.459695  1
  Sn  Sn22  1  0.719320  0.537537  0.040008  1
  Sn  Sn23  1  0.650588  0.642682  0.747207  1
  Sn  Sn24  1  0.149603  0.858176  0.753926  1
  Sn  Sn25  1  0.346997  0.363229  0.249328  1
  Sn  Sn26  1  0.847227  0.137486  0.250128  1
  Sn  Sn27  1  0.421576  0.128335  0.751181  1
  Sn  Sn28  1  0.919868  0.370734  0.749523  1
  Sn  Sn29  1  0.581389  0.869747  0.251654  1
  Sn  Sn30  1  0.082422  0.629447  0.249237  1
  Bi  Bi31  1  0.217765  0.968789  0.045833  1
  Bi  Bi32  1  0.719801  0.530149  0.454106  1
  Bi  Bi33  1  0.775273  0.025261  0.546085  1
  Bi  Bi34  1  0.277435  0.473256  0.953567  1
  Bi  Bi35  1  0.788464  0.031231  0.954309  1
