# generated using pymatgen
data_U2NbI15
_symmetry_space_group_name_H-M   'P 1'
_cell_length_a   16.10009601
_cell_length_b   16.12286269
_cell_length_c   7.53233894
_cell_angle_alpha   89.68822440
_cell_angle_beta   89.70150836
_cell_angle_gamma   86.43503949
_symmetry_Int_Tables_number   1
_chemical_formula_structural   U2NbI15
_chemical_formula_sum   'U4 Nb2 I30'
_cell_volume   1951.40616688
_cell_formula_units_Z   2
loop_
 _symmetry_equiv_pos_site_id
 _symmetry_equiv_pos_as_xyz
  1  'x, y, z'
loop_
 _atom_site_type_symbol
 _atom_site_label
 _atom_site_symmetry_multiplicity
 _atom_site_fract_x
 _atom_site_fract_y
 _atom_site_fract_z
 _atom_site_occupancy
  U  U0  1  0.433522  0.232735  0.474860  1
  U  U1  1  0.771851  0.561685  0.525142  1
  U  U2  1  0.561352  0.772049  0.525038  1
  U  U3  1  0.100614  0.899679  0.000066  1
  Nb  Nb4  1  0.224379  0.442219  0.475184  1
  Nb  Nb5  1  0.891140  0.108764  0.000283  1
  I  I6  1  0.530586  0.334605  0.244289  1
  I  I7  1  0.668467  0.467282  0.754022  1
  I  I8  1  0.467377  0.667988  0.753588  1
  I  I9  1  0.331677  0.519194  0.261541  1
  I  I10  1  0.575101  0.199474  0.703450  1
  I  I11  1  0.803953  0.421329  0.294993  1
  I  I12  1  0.868302  0.236022  0.775794  1
  I  I13  1  0.763967  0.132109  0.223791  1
  I  I14  1  0.133717  0.758609  0.231510  1
  I  I15  1  0.240979  0.866404  0.768593  1
  I  I16  1  0.999593  0.185942  0.208330  1
  I  I17  1  0.814132  0.001152  0.791498  1
  I  I18  1  0.998213  0.802538  0.775303  1
  I  I19  1  0.197324  0.001727  0.224346  1
  I  I20  1  0.046549  0.053974  0.785056  1
  I  I21  1  0.946145  0.954168  0.215608  1
  I  I22  1  0.278676  0.286842  0.262195  1
  I  I23  1  0.718626  0.718302  0.743578  1
  I  I24  1  0.096616  0.464983  0.253870  1
  I  I25  1  0.530754  0.911417  0.755489  1
  I  I26  1  0.912417  0.529838  0.755542  1
  I  I27  1  0.466722  0.092218  0.246180  1
  I  I28  1  0.146893  0.334340  0.688138  1
  I  I29  1  0.665762  0.865706  0.296619  1
  I  I30  1  0.866208  0.665290  0.296424  1
  I  I31  1  0.331312  0.136494  0.704619  1
  I  I32  1  0.379560  0.387498  0.687576  1
  I  I33  1  0.614847  0.615064  0.306731  1
  I  I34  1  0.201008  0.569496  0.696191  1
  I  I35  1  0.421658  0.802864  0.294558  1
