# generated using pymatgen
data_Tb15ErIn4Pd3Rh
_symmetry_space_group_name_H-M   'P 1'
_cell_length_a   9.75165918
_cell_length_b   9.76194413
_cell_length_c   9.76806700
_cell_angle_alpha   59.97924622
_cell_angle_beta   59.94432212
_cell_angle_gamma   59.91620208
_symmetry_Int_Tables_number   1
_chemical_formula_structural   Tb15ErIn4Pd3Rh
_chemical_formula_sum   'Tb15 Er1 In4 Pd3 Rh1'
_cell_volume   656.72235804
_cell_formula_units_Z   1
loop_
 _symmetry_equiv_pos_site_id
 _symmetry_equiv_pos_as_xyz
  1  'x, y, z'
loop_
 _atom_site_type_symbol
 _atom_site_label
 _atom_site_symmetry_multiplicity
 _atom_site_fract_x
 _atom_site_fract_y
 _atom_site_fract_z
 _atom_site_occupancy
  Tb  Tb0  1  0.809553  0.189420  0.810526  1
  Tb  Tb1  1  0.194264  0.185688  0.810024  1
  Tb  Tb2  1  0.645235  0.054177  0.650294  1
  Tb  Tb3  1  0.062065  0.063274  0.437330  1
  Tb  Tb4  1  0.434738  0.437652  0.063804  1
  Tb  Tb5  1  0.644950  0.651153  0.650516  1
  Tb  Tb6  1  0.809553  0.189420  0.190501  1
  Tb  Tb7  1  0.193065  0.809957  0.811073  1
  Tb  Tb8  1  0.059766  0.647784  0.646225  1
  Tb  Tb9  1  0.435324  0.063666  0.063311  1
  Tb  Tb10  1  0.435324  0.063666  0.437698  1
  Tb  Tb11  1  0.062460  0.437385  0.063455  1
  Tb  Tb12  1  0.644950  0.651153  0.053382  1
  Tb  Tb13  1  0.193065  0.809957  0.185905  1
  Tb  Tb14  1  0.062460  0.437385  0.436700  1
  Er  Er15  1  0.810396  0.809886  0.189859  1
  In  In16  1  0.417321  0.417031  0.416825  1
  In  In17  1  0.417321  0.417031  0.748821  1
  In  In18  1  0.417884  0.747341  0.417387  1
  In  In19  1  0.746915  0.418123  0.417480  1
  Pd  Pd20  1  0.858257  0.431756  0.854994  1
  Pd  Pd21  1  0.857364  0.854938  0.856887  1
  Pd  Pd22  1  0.857364  0.854938  0.430812  1
  Rh  Rh23  1  0.430407  0.857217  0.856189  1
