# generated using pymatgen
data_Mn3ZnAs(PN2)6
_symmetry_space_group_name_H-M   'P 1'
_cell_length_a   7.23415864
_cell_length_b   7.23415966
_cell_length_c   7.26522600
_cell_angle_alpha   109.55823611
_cell_angle_beta   109.55823897
_cell_angle_gamma   109.38406738
_symmetry_Int_Tables_number   1
_chemical_formula_structural   Mn3ZnAs(PN2)6
_chemical_formula_sum   'Mn3 Zn1 As1 P6 N12'
_cell_volume   292.37202598
_cell_formula_units_Z   1
loop_
 _symmetry_equiv_pos_site_id
 _symmetry_equiv_pos_as_xyz
  1  'x, y, z'
loop_
 _atom_site_type_symbol
 _atom_site_label
 _atom_site_symmetry_multiplicity
 _atom_site_fract_x
 _atom_site_fract_y
 _atom_site_fract_z
 _atom_site_occupancy
  Mn  Mn0  1  0.000000  0.341541  0.998040  1
  Mn  Mn1  1  0.658459  0.658459  0.656500  1
  Mn  Mn2  1  0.341541  0.000000  0.998040  1
  Zn  Zn3  1  0.000000  0.000000  0.338246  1
  As  As4  1  0.000000  0.000000  0.006347  1
  P  P5  1  0.750461  0.249218  0.499722  1
  P  P6  1  0.249218  0.750461  0.499722  1
  P  P7  1  0.501243  0.750782  0.250504  1
  P  P8  1  0.498757  0.249539  0.749261  1
  P  P9  1  0.750782  0.501243  0.250504  1
  P  P10  1  0.249539  0.498757  0.749261  1
  N  N11  1  0.560427  0.276370  0.999671  1
  N  N12  1  0.442025  0.442025  0.717162  1
  N  N13  1  0.000000  0.272665  0.561550  1
  N  N14  1  0.272665  0.000000  0.561550  1
  N  N15  1  0.715943  0.439573  0.439244  1
  N  N16  1  0.000000  0.557975  0.275137  1
  N  N17  1  0.557975  0.000000  0.275137  1
  N  N18  1  0.439573  0.715943  0.439244  1
  N  N19  1  0.276370  0.560427  0.999671  1
  N  N20  1  0.723630  0.284057  0.723301  1
  N  N21  1  0.727335  0.727335  0.288885  1
  N  N22  1  0.284057  0.723630  0.723301  1
