# generated using pymatgen
data_K4Hf6FeCl18
_symmetry_space_group_name_H-M   'P 1'
_cell_length_a   9.99597454
_cell_length_b   10.16904369
_cell_length_c   10.25677895
_cell_angle_alpha   118.51474112
_cell_angle_beta   100.12944125
_cell_angle_gamma   103.84287942
_symmetry_Int_Tables_number   1
_chemical_formula_structural   K4Hf6FeCl18
_chemical_formula_sum   'K4 Hf6 Fe1 Cl18'
_cell_volume   836.51788333
_cell_formula_units_Z   1
loop_
 _symmetry_equiv_pos_site_id
 _symmetry_equiv_pos_as_xyz
  1  'x, y, z'
loop_
 _atom_site_type_symbol
 _atom_site_label
 _atom_site_symmetry_multiplicity
 _atom_site_fract_x
 _atom_site_fract_y
 _atom_site_fract_z
 _atom_site_occupancy
  K  K0  1  0.653166  0.537263  0.227232  1
  K  K1  1  0.346834  0.462737  0.772768  1
  K  K2  1  0.687323  0.225195  0.563415  1
  K  K3  1  0.312677  0.774805  0.436585  1
  Hf  Hf4  1  0.157533  0.059232  0.241471  1
  Hf  Hf5  1  0.842467  0.940768  0.758529  1
  Hf  Hf6  1  0.853863  0.131846  0.138267  1
  Hf  Hf7  1  0.146137  0.868154  0.861733  1
  Hf  Hf8  1  0.151353  0.249781  0.046627  1
  Hf  Hf9  1  0.848647  0.750219  0.953373  1
  Fe  Fe10  1  0.000000  0.000000  0.000000  1
  Cl  Cl11  1  0.008567  0.410935  0.198135  1
  Cl  Cl12  1  0.991433  0.589065  0.801865  1
  Cl  Cl13  1  0.328810  0.334527  0.311719  1
  Cl  Cl14  1  0.671190  0.665473  0.688281  1
  Cl  Cl15  1  0.324353  0.521850  0.101123  1
  Cl  Cl16  1  0.675647  0.478150  0.898877  1
  Cl  Cl17  1  0.005029  0.795497  0.210470  1
  Cl  Cl18  1  0.994971  0.204503  0.789530  1
  Cl  Cl19  1  0.702273  0.278036  0.290756  1
  Cl  Cl20  1  0.297727  0.721964  0.709244  1
  Cl  Cl21  1  0.317173  0.128126  0.902453  1
  Cl  Cl22  1  0.682827  0.871874  0.097547  1
  Cl  Cl23  1  0.014618  0.204800  0.408648  1
  Cl  Cl24  1  0.985382  0.795200  0.591352  1
  Cl  Cl25  1  0.321183  0.921340  0.110683  1
  Cl  Cl26  1  0.678817  0.078660  0.889317  1
  Cl  Cl27  1  0.335448  0.121501  0.502806  1
  Cl  Cl28  1  0.664552  0.878499  0.497194  1
