# generated using pymatgen
data_Zr8Ti12Si9P7
_symmetry_space_group_name_H-M   'P 1'
_cell_length_a   6.76226426
_cell_length_b   6.76825650
_cell_length_c   12.43114402
_cell_angle_alpha   90.11241502
_cell_angle_beta   89.98967140
_cell_angle_gamma   90.03020599
_symmetry_Int_Tables_number   1
_chemical_formula_structural   Zr8Ti12Si9P7
_chemical_formula_sum   'Zr8 Ti12 Si9 P7'
_cell_volume   568.95660327
_cell_formula_units_Z   1
loop_
 _symmetry_equiv_pos_site_id
 _symmetry_equiv_pos_as_xyz
  1  'x, y, z'
loop_
 _atom_site_type_symbol
 _atom_site_label
 _atom_site_symmetry_multiplicity
 _atom_site_fract_x
 _atom_site_fract_y
 _atom_site_fract_z
 _atom_site_occupancy
  Zr  Zr0  1  0.001180  0.652571  0.029528  1
  Zr  Zr1  1  0.996755  0.345492  0.529344  1
  Zr  Zr2  1  0.657718  0.003536  0.969272  1
  Zr  Zr3  1  0.154963  0.497729  0.779450  1
  Zr  Zr4  1  0.845835  0.502893  0.279651  1
  Zr  Zr5  1  0.498180  0.154776  0.221421  1
  Zr  Zr6  1  0.503312  0.845788  0.719894  1
  Zr  Zr7  1  0.345572  0.997327  0.470866  1
  Ti  Ti8  1  0.342627  0.508985  0.375310  1
  Ti  Ti9  1  0.842647  0.991221  0.375219  1
  Ti  Ti10  1  0.005602  0.160244  0.126037  1
  Ti  Ti11  1  0.991060  0.842703  0.625133  1
  Ti  Ti12  1  0.656612  0.491439  0.874598  1
  Ti  Ti13  1  0.509273  0.342894  0.624787  1
  Ti  Ti14  1  0.493464  0.653357  0.126168  1
  Ti  Ti15  1  0.156684  0.010422  0.872262  1
  Ti  Ti16  1  0.672039  0.672231  0.500080  1
  Ti  Ti17  1  0.827704  0.172493  0.749590  1
  Ti  Ti18  1  0.171177  0.826045  0.252178  1
  Ti  Ti19  1  0.327721  0.329181  0.999226  1
  Si  Si20  1  0.292195  0.952559  0.063847  1
  Si  Si21  1  0.868316  0.795700  0.824696  1
  Si  Si22  1  0.132455  0.202549  0.324990  1
  Si  Si23  1  0.797354  0.867992  0.174648  1
  Si  Si24  1  0.296858  0.631839  0.575026  1
  Si  Si25  1  0.702436  0.366923  0.074570  1
  Si  Si26  1  0.631924  0.296939  0.425127  1
  Si  Si27  1  0.367410  0.706123  0.926910  1
  Si  Si28  1  0.203444  0.132491  0.674378  1
  P  P29  1  0.045833  0.707782  0.436345  1
  P  P30  1  0.953547  0.291509  0.935551  1
  P  P31  1  0.708314  0.046336  0.564196  1
  P  P32  1  0.208182  0.453665  0.185443  1
  P  P33  1  0.791799  0.546307  0.685867  1
  P  P34  1  0.453633  0.207954  0.814294  1
  P  P35  1  0.546174  0.792006  0.314102  1
