# generated using pymatgen
data_Dy4HoTm3(P3Ir4)4
_symmetry_space_group_name_H-M   'P 1'
_cell_length_a   12.94706001
_cell_length_b   12.94789835
_cell_length_c   3.99333100
_cell_angle_alpha   90.00000000
_cell_angle_beta   90.00000000
_cell_angle_gamma   120.00214099
_symmetry_Int_Tables_number   1
_chemical_formula_structural   Dy4HoTm3(P3Ir4)4
_chemical_formula_sum   'Dy4 Ho1 Tm3 P12 Ir16'
_cell_volume   579.73165351
_cell_formula_units_Z   1
loop_
 _symmetry_equiv_pos_site_id
 _symmetry_equiv_pos_as_xyz
  1  'x, y, z'
loop_
 _atom_site_type_symbol
 _atom_site_label
 _atom_site_symmetry_multiplicity
 _atom_site_fract_x
 _atom_site_fract_y
 _atom_site_fract_z
 _atom_site_occupancy
  Dy  Dy0  1  0.333330  0.666669  0.500000  1
  Dy  Dy1  1  0.666670  0.333338  0.500000  1
  Dy  Dy2  1  0.185681  0.185682  0.000000  1
  Dy  Dy3  1  0.814319  0.000001  0.000000  1
  Ho  Ho4  1  0.000000  0.814269  0.000000  1
  Tm  Tm5  1  0.000000  0.446182  0.500000  1
  Tm  Tm6  1  0.553863  0.553866  0.500000  1
  Tm  Tm7  1  0.446137  0.000003  0.500000  1
  P  P8  1  0.000000  0.652110  0.500000  1
  P  P9  1  0.348012  0.348015  0.500000  1
  P  P10  1  0.651988  0.000002  0.500000  1
  P  P11  1  0.516819  0.688322  0.000000  1
  P  P12  1  0.311685  0.828486  0.000000  1
  P  P13  1  0.171484  0.483192  0.000000  1
  P  P14  1  0.483181  0.171503  0.000000  1
  P  P15  1  0.688315  0.516801  0.000000  1
  P  P16  1  0.828516  0.311707  0.000000  1
  P  P17  1  0.000000  0.176541  0.500000  1
  P  P18  1  0.823525  0.823465  0.500000  1
  P  P19  1  0.176475  0.999940  0.500000  1
  Ir  Ir20  1  0.509329  0.866050  0.000000  1
  Ir  Ir21  1  0.133939  0.643289  0.000000  1
  Ir  Ir22  1  0.356721  0.490670  0.000000  1
  Ir  Ir23  1  0.490671  0.356721  0.000000  1
  Ir  Ir24  1  0.866061  0.509350  0.000000  1
  Ir  Ir25  1  0.643279  0.133949  0.000000  1
  Ir  Ir26  1  0.000000  0.275244  0.000000  1
  Ir  Ir27  1  0.724893  0.724799  0.000000  1
  Ir  Ir28  1  0.275107  0.999906  0.000000  1
  Ir  Ir29  1  0.630007  0.808813  0.500000  1
  Ir  Ir30  1  0.190984  0.821147  0.500000  1
  Ir  Ir31  1  0.178821  0.369997  0.500000  1
  Ir  Ir32  1  0.369993  0.178806  0.500000  1
  Ir  Ir33  1  0.809016  0.630163  0.500000  1
  Ir  Ir34  1  0.821179  0.191176  0.500000  1
  Ir  Ir35  1  0.000000  0.999823  0.500000  1
