# generated using pymatgen
data_KAlB14
_symmetry_space_group_name_H-M   'P 1'
_cell_length_a   7.39409914
_cell_length_b   7.39409903
_cell_length_c   7.39409937
_cell_angle_alpha   133.39835287
_cell_angle_beta   111.04803824
_cell_angle_gamma   87.35100326
_symmetry_Int_Tables_number   1
_chemical_formula_structural   KAlB14
_chemical_formula_sum   'K2 Al2 B28'
_cell_volume   261.86996928
_cell_formula_units_Z   2
loop_
 _symmetry_equiv_pos_site_id
 _symmetry_equiv_pos_as_xyz
  1  'x, y, z'
loop_
 _atom_site_type_symbol
 _atom_site_label
 _atom_site_symmetry_multiplicity
 _atom_site_fract_x
 _atom_site_fract_y
 _atom_site_fract_z
 _atom_site_occupancy
  K  K0  1  0.098839  0.750000  0.348839  1
  K  K1  1  0.901161  0.250000  0.651161  1
  Al  Al2  1  0.500000  0.500000  0.500000  1
  Al  Al3  1  0.500000  0.000000  0.000000  1
  B  B4  1  0.894658  0.217266  0.999691  1
  B  B5  1  0.467205  0.172439  0.795127  1
  B  B6  1  0.877312  0.172079  0.204873  1
  B  B7  1  0.717575  0.394967  0.000309  1
  B  B8  1  0.579142  0.414721  0.164422  1
  B  B9  1  0.726202  0.357346  0.368855  1
  B  B10  1  0.303744  0.335322  0.968422  1
  B  B11  1  0.717575  0.717266  0.322608  1
  B  B12  1  0.877312  0.672439  0.705233  1
  B  B13  1  0.467205  0.672079  0.294767  1
  B  B14  1  0.105342  0.105033  0.322608  1
  B  B15  1  0.894658  0.894967  0.677392  1
  B  B16  1  0.532795  0.327921  0.705233  1
  B  B17  1  0.122688  0.327561  0.294767  1
  B  B18  1  0.282425  0.282734  0.677392  1
  B  B19  1  0.750298  0.914721  0.835578  1
  B  B20  1  0.488491  0.857346  0.631145  1
  B  B21  1  0.866901  0.835322  0.031578  1
  B  B22  1  0.696256  0.664678  0.031578  1
  B  B23  1  0.273798  0.642654  0.631145  1
  B  B24  1  0.420858  0.585279  0.835578  1
  B  B25  1  0.282425  0.605033  0.999691  1
  B  B26  1  0.122688  0.827921  0.795127  1
  B  B27  1  0.532795  0.827561  0.204873  1
  B  B28  1  0.105342  0.782734  0.000309  1
  B  B29  1  0.133099  0.164678  0.968422  1
  B  B30  1  0.511509  0.142654  0.368855  1
  B  B31  1  0.249702  0.085279  0.164422  1
