# generated using pymatgen
data_Ho2Er8In8IrPd3
_symmetry_space_group_name_H-M   'P 1'
_cell_length_a   3.60218800
_cell_length_b   8.10623102
_cell_length_c   18.18768307
_cell_angle_alpha   90.01603163
_cell_angle_beta   90.00000000
_cell_angle_gamma   90.00000000
_symmetry_Int_Tables_number   1
_chemical_formula_structural   Ho2Er8In8IrPd3
_chemical_formula_sum   'Ho2 Er8 In8 Ir1 Pd3'
_cell_volume   531.08338207
_cell_formula_units_Z   1
loop_
 _symmetry_equiv_pos_site_id
 _symmetry_equiv_pos_as_xyz
  1  'x, y, z'
loop_
 _atom_site_type_symbol
 _atom_site_label
 _atom_site_symmetry_multiplicity
 _atom_site_fract_x
 _atom_site_fract_y
 _atom_site_fract_z
 _atom_site_occupancy
  Ho  Ho0  1  0.000000  0.500393  0.499741  1
  Ho  Ho1  1  0.000000  0.000668  0.000782  1
  Er  Er2  1  0.000000  0.729590  0.277553  1
  Er  Er3  1  0.000000  0.259648  0.719404  1
  Er  Er4  1  0.000000  0.758874  0.779791  1
  Er  Er5  1  0.000000  0.254521  0.220375  1
  Er  Er6  1  0.000000  0.615608  0.087125  1
  Er  Er7  1  0.000000  0.382699  0.916262  1
  Er  Er8  1  0.000000  0.882534  0.583427  1
  Er  Er9  1  0.000000  0.116965  0.415107  1
  In  In10  1  0.500000  0.708317  0.932598  1
  In  In11  1  0.500000  0.292884  0.068178  1
  In  In12  1  0.500000  0.792175  0.431982  1
  In  In13  1  0.500000  0.207191  0.567070  1
  In  In14  1  0.500000  0.578518  0.649355  1
  In  In15  1  0.500000  0.422352  0.351494  1
  In  In16  1  0.500000  0.924450  0.150326  1
  In  In17  1  0.500000  0.078076  0.850183  1
  Ir  Ir18  1  0.500000  0.521053  0.195745  1
  Pd  Pd19  1  0.500000  0.475978  0.803982  1
  Pd  Pd20  1  0.500000  0.976461  0.695617  1
  Pd  Pd21  1  0.500000  0.021045  0.303901  1
