# generated using pymatgen
data_Ho2Si2IrPt2
_symmetry_space_group_name_H-M   'P 1'
_cell_length_a   4.21999700
_cell_length_b   6.66744500
_cell_length_c   8.75635500
_cell_angle_alpha   90.00000000
_cell_angle_beta   90.00000000
_cell_angle_gamma   90.00000000
_symmetry_Int_Tables_number   1
_chemical_formula_structural   Ho2Si2IrPt2
_chemical_formula_sum   'Ho4 Si4 Ir2 Pt4'
_cell_volume   246.37403968
_cell_formula_units_Z   2
loop_
 _symmetry_equiv_pos_site_id
 _symmetry_equiv_pos_as_xyz
  1  'x, y, z'
loop_
 _atom_site_type_symbol
 _atom_site_label
 _atom_site_symmetry_multiplicity
 _atom_site_fract_x
 _atom_site_fract_y
 _atom_site_fract_z
 _atom_site_occupancy
  Ho  Ho0  1  0.000000  0.883342  0.330359  1
  Ho  Ho1  1  0.000000  0.116658  0.669641  1
  Ho  Ho2  1  0.000000  0.383342  0.169641  1
  Ho  Ho3  1  0.000000  0.616658  0.830359  1
  Si  Si4  1  0.500000  0.570664  0.357828  1
  Si  Si5  1  0.500000  0.429336  0.642172  1
  Si  Si6  1  0.500000  0.070664  0.142172  1
  Si  Si7  1  0.500000  0.929336  0.857828  1
  Ir  Ir8  1  0.000000  0.500000  0.500000  1
  Ir  Ir9  1  0.000000  0.000000  0.000000  1
  Pt  Pt10  1  0.500000  0.693875  0.089297  1
  Pt  Pt11  1  0.500000  0.306125  0.910703  1
  Pt  Pt12  1  0.500000  0.193875  0.410703  1
  Pt  Pt13  1  0.500000  0.806125  0.589297  1
