# generated using pymatgen
data_GdTh7TiS17
_symmetry_space_group_name_H-M   'P 1'
_cell_length_a   8.01410364
_cell_length_b   8.00946803
_cell_length_c   10.60776300
_cell_angle_alpha   80.80300927
_cell_angle_beta   80.55551841
_cell_angle_gamma   65.42826283
_symmetry_Int_Tables_number   1
_chemical_formula_structural   GdTh7TiS17
_chemical_formula_sum   'Gd1 Th7 Ti1 S17'
_cell_volume   607.65146968
_cell_formula_units_Z   1
loop_
 _symmetry_equiv_pos_site_id
 _symmetry_equiv_pos_as_xyz
  1  'x, y, z'
loop_
 _atom_site_type_symbol
 _atom_site_label
 _atom_site_symmetry_multiplicity
 _atom_site_fract_x
 _atom_site_fract_y
 _atom_site_fract_z
 _atom_site_occupancy
  Gd  Gd0  1  0.812084  0.302853  0.295909  1
  Th  Th1  1  0.300355  0.813154  0.293865  1
  Th  Th2  1  0.186185  0.697886  0.703776  1
  Th  Th3  1  0.699811  0.187700  0.702930  1
  Th  Th4  1  0.206735  0.203636  0.542541  1
  Th  Th5  1  0.794465  0.794439  0.454061  1
  Th  Th6  1  0.682759  0.682447  0.979997  1
  Th  Th7  1  0.316503  0.317983  0.023932  1
  Ti  Ti8  1  0.999341  0.004973  0.002313  1
  S  S9  1  0.825723  0.428519  0.532236  1
  S  S10  1  0.431855  0.819879  0.532084  1
  S  S11  1  0.178111  0.567382  0.467754  1
  S  S12  1  0.571722  0.175557  0.469213  1
  S  S13  1  0.941654  0.323258  0.027336  1
  S  S14  1  0.322336  0.943845  0.024731  1
  S  S15  1  0.056739  0.679758  0.972506  1
  S  S16  1  0.677447  0.059766  0.972978  1
  S  S17  1  0.209860  0.204948  0.277584  1
  S  S18  1  0.790359  0.791483  0.723074  1
  S  S19  1  0.061357  0.058700  0.773977  1
  S  S20  1  0.938337  0.942636  0.227255  1
  S  S21  1  0.303091  0.303247  0.756265  1
  S  S22  1  0.694325  0.697353  0.243670  1
  S  S23  1  0.519352  0.521255  0.832419  1
  S  S24  1  0.476719  0.483131  0.164255  1
  S  S25  1  0.002774  0.994213  0.503339  1
