# generated using pymatgen
data_Dy12GaCo6
_symmetry_space_group_name_H-M   'P 1'
_cell_length_a   8.29489089
_cell_length_b   8.29489094
_cell_length_c   8.29489200
_cell_angle_alpha   109.47122322
_cell_angle_beta   109.47122334
_cell_angle_gamma   109.47121780
_symmetry_Int_Tables_number   1
_chemical_formula_structural   Dy12GaCo6
_chemical_formula_sum   'Dy12 Ga1 Co6'
_cell_volume   439.34955424
_cell_formula_units_Z   1
loop_
 _symmetry_equiv_pos_site_id
 _symmetry_equiv_pos_as_xyz
  1  'x, y, z'
loop_
 _atom_site_type_symbol
 _atom_site_label
 _atom_site_symmetry_multiplicity
 _atom_site_fract_x
 _atom_site_fract_y
 _atom_site_fract_z
 _atom_site_occupancy
  Dy  Dy0  1  0.806724  0.700122  0.506845  1
  Dy  Dy1  1  0.193276  0.299878  0.493155  1
  Dy  Dy2  1  0.193276  0.700122  0.893398  1
  Dy  Dy3  1  0.806724  0.299878  0.106602  1
  Dy  Dy4  1  0.700122  0.506845  0.806724  1
  Dy  Dy5  1  0.299878  0.493155  0.193276  1
  Dy  Dy6  1  0.700122  0.893398  0.193276  1
  Dy  Dy7  1  0.299878  0.106602  0.806724  1
  Dy  Dy8  1  0.506845  0.806724  0.700122  1
  Dy  Dy9  1  0.493155  0.193276  0.299878  1
  Dy  Dy10  1  0.106602  0.806724  0.299878  1
  Dy  Dy11  1  0.893398  0.193276  0.700122  1
  Ga  Ga12  1  0.000000  0.000000  0.000000  1
  Co  Co13  1  0.886120  0.386120  0.500000  1
  Co  Co14  1  0.113880  0.613880  0.500000  1
  Co  Co15  1  0.386120  0.500000  0.886120  1
  Co  Co16  1  0.613880  0.500000  0.113880  1
  Co  Co17  1  0.500000  0.886120  0.386120  1
  Co  Co18  1  0.500000  0.113880  0.613880  1
