# generated using pymatgen
data_Sr3Ca(Si5Pt3)2
_symmetry_space_group_name_H-M   'P 1'
_cell_length_a   8.39806935
_cell_length_b   8.38035270
_cell_length_c   8.38035346
_cell_angle_alpha   138.04236887
_cell_angle_beta   105.35064196
_cell_angle_gamma   89.48973313
_symmetry_Int_Tables_number   1
_chemical_formula_structural   Sr3Ca(Si5Pt3)2
_chemical_formula_sum   'Sr3 Ca1 Si10 Pt6'
_cell_volume   363.74294957
_cell_formula_units_Z   1
loop_
 _symmetry_equiv_pos_site_id
 _symmetry_equiv_pos_as_xyz
  1  'x, y, z'
loop_
 _atom_site_type_symbol
 _atom_site_label
 _atom_site_symmetry_multiplicity
 _atom_site_fract_x
 _atom_site_fract_y
 _atom_site_fract_z
 _atom_site_occupancy
  Sr  Sr0  1  0.635388  0.370958  0.264430  1
  Sr  Sr1  1  0.364476  0.629190  0.735285  1
  Sr  Sr2  1  0.106045  0.870617  0.235428  1
  Ca  Ca3  1  0.894619  0.128957  0.765662  1
  Si  Si4  1  0.465660  0.112949  0.352712  1
  Si  Si5  1  0.537059  0.889257  0.647801  1
  Si  Si6  1  0.761071  0.613215  0.147856  1
  Si  Si7  1  0.238400  0.385375  0.853026  1
  Si  Si8  1  0.267323  0.518081  0.248584  1
  Si  Si9  1  0.730975  0.479521  0.750024  1
  Si  Si10  1  0.730975  0.980951  0.251454  1
  Si  Si11  1  0.267323  0.018739  0.749242  1
  Si  Si12  1  0.999915  0.250733  0.249112  1
  Si  Si13  1  0.999915  0.750802  0.749181  1
  Pt  Pt14  1  0.501382  0.250784  0.751048  1
  Pt  Pt15  1  0.501382  0.750334  0.250598  1
  Pt  Pt16  1  0.246942  0.134872  0.112070  1
  Pt  Pt17  1  0.753763  0.866317  0.887446  1
  Pt  Pt18  1  0.020751  0.634896  0.385854  1
  Pt  Pt19  1  0.976635  0.363451  0.613185  1
