# generated using pymatgen
data_Cs4MnWBr12
_symmetry_space_group_name_H-M   'P 1'
_cell_length_a   7.79132600
_cell_length_b   7.86489500
_cell_length_c   11.17648600
_cell_angle_alpha   90.00000000
_cell_angle_beta   90.00000000
_cell_angle_gamma   90.00000000
_symmetry_Int_Tables_number   1
_chemical_formula_structural   Cs4MnWBr12
_chemical_formula_sum   'Cs4 Mn1 W1 Br12'
_cell_volume   684.87227212
_cell_formula_units_Z   1
loop_
 _symmetry_equiv_pos_site_id
 _symmetry_equiv_pos_as_xyz
  1  'x, y, z'
loop_
 _atom_site_type_symbol
 _atom_site_label
 _atom_site_symmetry_multiplicity
 _atom_site_fract_x
 _atom_site_fract_y
 _atom_site_fract_z
 _atom_site_occupancy
  Cs  Cs0  1  0.500000  0.000000  0.763693  1
  Cs  Cs1  1  0.000000  0.500000  0.236882  1
  Cs  Cs2  1  0.500000  0.000000  0.236307  1
  Cs  Cs3  1  0.000000  0.500000  0.763118  1
  Mn  Mn4  1  0.000000  0.000000  0.000000  1
  W  W5  1  0.500000  0.500000  0.500000  1
  Br  Br6  1  0.000000  0.000000  0.779305  1
  Br  Br7  1  0.500000  0.500000  0.272370  1
  Br  Br8  1  0.729651  0.729786  0.500000  1
  Br  Br9  1  0.229226  0.228793  0.000000  1
  Br  Br10  1  0.729651  0.270214  0.500000  1
  Br  Br11  1  0.229226  0.771207  0.000000  1
  Br  Br12  1  0.000000  0.000000  0.220695  1
  Br  Br13  1  0.500000  0.500000  0.727630  1
  Br  Br14  1  0.270349  0.270214  0.500000  1
  Br  Br15  1  0.770774  0.771207  0.000000  1
  Br  Br16  1  0.270349  0.729786  0.500000  1
  Br  Br17  1  0.770774  0.228793  0.000000  1
