# generated using pymatgen
data_Sm5Er(CI5)2
_symmetry_space_group_name_H-M   'P 1'
_cell_length_a   7.79172536
_cell_length_b   9.59189277
_cell_length_c   9.68116967
_cell_angle_alpha   107.05321480
_cell_angle_beta   96.20772120
_cell_angle_gamma   104.41930584
_symmetry_Int_Tables_number   1
_chemical_formula_structural   Sm5Er(CI5)2
_chemical_formula_sum   'Sm5 Er1 C2 I10'
_cell_volume   656.99500209
_cell_formula_units_Z   1
loop_
 _symmetry_equiv_pos_site_id
 _symmetry_equiv_pos_as_xyz
  1  'x, y, z'
loop_
 _atom_site_type_symbol
 _atom_site_label
 _atom_site_symmetry_multiplicity
 _atom_site_fract_x
 _atom_site_fract_y
 _atom_site_fract_z
 _atom_site_occupancy
  Sm  Sm0  1  0.029256  0.736985  0.923446  1
  Sm  Sm1  1  0.105565  0.038684  0.777494  1
  Sm  Sm2  1  0.969063  0.262828  0.076037  1
  Sm  Sm3  1  0.892057  0.960040  0.221681  1
  Sm  Sm4  1  0.373052  0.132580  0.177860  1
  Er  Er5  1  0.632343  0.869482  0.825030  1
  C  C6  1  0.086985  0.029264  0.040403  1
  C  C7  1  0.908490  0.969493  0.958470  1
  I  I8  1  0.205948  0.737677  0.650279  1
  I  I9  1  0.910011  0.630879  0.179507  1
  I  I10  1  0.087318  0.367815  0.818870  1
  I  I11  1  0.740183  0.913500  0.545585  1
  I  I12  1  0.252350  0.082993  0.459985  1
  I  I13  1  0.650279  0.551423  0.727644  1
  I  I14  1  0.457858  0.808259  0.087443  1
  I  I15  1  0.807337  0.266107  0.356302  1
  I  I16  1  0.346366  0.456985  0.270840  1
  I  I17  1  0.545536  0.185005  0.903128  1
