# generated using pymatgen
data_Co3NiB4
_symmetry_space_group_name_H-M   'P 1'
_cell_length_a   3.00678600
_cell_length_b   3.90401161
_cell_length_c   5.32771407
_cell_angle_alpha   89.43020356
_cell_angle_beta   90.00000000
_cell_angle_gamma   90.00000000
_symmetry_Int_Tables_number   1
_chemical_formula_structural   Co3NiB4
_chemical_formula_sum   'Co3 Ni1 B4'
_cell_volume   62.53642529
_cell_formula_units_Z   1
loop_
 _symmetry_equiv_pos_site_id
 _symmetry_equiv_pos_as_xyz
  1  'x, y, z'
loop_
 _atom_site_type_symbol
 _atom_site_label
 _atom_site_symmetry_multiplicity
 _atom_site_fract_x
 _atom_site_fract_y
 _atom_site_fract_z
 _atom_site_occupancy
  Co  Co0  1  0.000000  0.876698  0.823096  1
  Co  Co1  1  0.500000  0.379339  0.675992  1
  Co  Co2  1  0.500000  0.122064  0.180306  1
  Ni  Ni3  1  0.000000  0.622208  0.321671  1
  B  B4  1  0.000000  0.123129  0.470990  1
  B  B5  1  0.000000  0.373193  0.964716  1
  B  B6  1  0.500000  0.882629  0.537742  1
  B  B7  1  0.500000  0.620739  0.025488  1
