# generated using pymatgen
data_Y5Mg2Co17P12
_symmetry_space_group_name_H-M   'P 1'
_cell_length_a   12.13609914
_cell_length_b   12.12545351
_cell_length_c   3.72575000
_cell_angle_alpha   90.00000000
_cell_angle_beta   90.00000000
_cell_angle_gamma   119.97098146
_symmetry_Int_Tables_number   1
_chemical_formula_structural   Y5Mg2Co17P12
_chemical_formula_sum   'Y5 Mg2 Co17 P12'
_cell_volume   474.95051850
_cell_formula_units_Z   1
loop_
 _symmetry_equiv_pos_site_id
 _symmetry_equiv_pos_as_xyz
  1  'x, y, z'
loop_
 _atom_site_type_symbol
 _atom_site_label
 _atom_site_symmetry_multiplicity
 _atom_site_fract_x
 _atom_site_fract_y
 _atom_site_fract_z
 _atom_site_occupancy
  Y  Y0  1  0.668483  0.334923  0.000000  1
  Y  Y1  1  0.331517  0.666440  0.000000  1
  Y  Y2  1  0.815354  0.814874  0.500000  1
  Y  Y3  1  0.184646  0.999520  0.500000  1
  Y  Y4  1  0.000000  0.189918  0.500000  1
  Mg  Mg5  1  0.439116  0.439653  0.000000  1
  Mg  Mg6  1  0.560884  0.000538  0.000000  1
  Co  Co7  1  0.876988  0.362150  0.500000  1
  Co  Co8  1  0.646136  0.517530  0.500000  1
  Co  Co9  1  0.481221  0.123287  0.500000  1
  Co  Co10  1  0.353864  0.871394  0.500000  1
  Co  Co11  1  0.518779  0.642065  0.500000  1
  Co  Co12  1  0.123012  0.485161  0.500000  1
  Co  Co13  1  0.000000  0.553357  0.000000  1
  Co  Co14  1  0.804392  0.182143  0.000000  1
  Co  Co15  1  0.825926  0.623782  0.000000  1
  Co  Co16  1  0.374631  0.196363  0.000000  1
  Co  Co17  1  0.174074  0.797857  0.000000  1
  Co  Co18  1  0.625369  0.821732  0.000000  1
  Co  Co19  1  0.195608  0.377751  0.000000  1
  Co  Co20  1  0.279712  0.281440  0.500000  1
  Co  Co21  1  0.720288  0.001728  0.500000  1
  Co  Co22  1  0.000000  0.715256  0.500000  1
  Co  Co23  1  0.000000  0.999469  0.000000  1
  P  P24  1  0.692938  0.173342  0.500000  1
  P  P25  1  0.835258  0.522153  0.500000  1
  P  P26  1  0.478658  0.305971  0.500000  1
  P  P27  1  0.164742  0.686894  0.500000  1
  P  P28  1  0.521342  0.827313  0.500000  1
  P  P29  1  0.307062  0.480403  0.500000  1
  P  P30  1  0.178821  0.180740  0.000000  1
  P  P31  1  0.821179  0.001919  0.000000  1
  P  P32  1  0.000000  0.818661  0.000000  1
  P  P33  1  0.641904  0.637878  0.000000  1
  P  P34  1  0.358096  0.995974  0.000000  1
  P  P35  1  0.000000  0.370417  0.000000  1
