# generated using pymatgen
data_Tb4Tm8TcOs3
_symmetry_space_group_name_H-M   'P 1'
_cell_length_a   7.41237245
_cell_length_b   8.94547600
_cell_length_c   6.25630300
_cell_angle_alpha   90.00000000
_cell_angle_beta   89.92085608
_cell_angle_gamma   90.00000000
_symmetry_Int_Tables_number   1
_chemical_formula_structural   Tb4Tm8TcOs3
_chemical_formula_sum   'Tb4 Tm8 Tc1 Os3'
_cell_volume   414.83753786
_cell_formula_units_Z   1
loop_
 _symmetry_equiv_pos_site_id
 _symmetry_equiv_pos_as_xyz
  1  'x, y, z'
loop_
 _atom_site_type_symbol
 _atom_site_label
 _atom_site_symmetry_multiplicity
 _atom_site_fract_x
 _atom_site_fract_y
 _atom_site_fract_z
 _atom_site_occupancy
  Tb  Tb0  1  0.039722  0.250000  0.624950  1
  Tb  Tb1  1  0.959940  0.750000  0.372231  1
  Tb  Tb2  1  0.461157  0.750000  0.128356  1
  Tb  Tb3  1  0.539252  0.250000  0.876776  1
  Tm  Tm4  1  0.173898  0.062497  0.161724  1
  Tm  Tm5  1  0.825409  0.937474  0.835044  1
  Tm  Tm6  1  0.325856  0.936382  0.663256  1
  Tm  Tm7  1  0.825409  0.562526  0.835044  1
  Tm  Tm8  1  0.675154  0.063102  0.336567  1
  Tm  Tm9  1  0.173898  0.437503  0.161724  1
  Tm  Tm10  1  0.675154  0.436898  0.336567  1
  Tm  Tm11  1  0.325856  0.563618  0.663256  1
  Tc  Tc12  1  0.381525  0.250000  0.460212  1
  Os  Os13  1  0.618455  0.750000  0.544964  1
  Os  Os14  1  0.116988  0.750000  0.956020  1
  Os  Os15  1  0.882324  0.250000  0.043310  1
