# generated using pymatgen
data_Tb6PrCo2Sn23Rh4
_symmetry_space_group_name_H-M   'P 1'
_cell_length_a   9.83418854
_cell_length_b   9.83313285
_cell_length_c   10.07237979
_cell_angle_alpha   89.99999849
_cell_angle_beta   90.01421186
_cell_angle_gamma   119.99645498
_symmetry_Int_Tables_number   1
_chemical_formula_structural   Tb6PrCo2Sn23Rh4
_chemical_formula_sum   'Tb6 Pr1 Co2 Sn23 Rh4'
_cell_volume   843.54577846
_cell_formula_units_Z   1
loop_
 _symmetry_equiv_pos_site_id
 _symmetry_equiv_pos_as_xyz
  1  'x, y, z'
loop_
 _atom_site_type_symbol
 _atom_site_label
 _atom_site_symmetry_multiplicity
 _atom_site_fract_x
 _atom_site_fract_y
 _atom_site_fract_z
 _atom_site_occupancy
  Tb  Tb0  1  0.478955  0.521394  0.306851  1
  Tb  Tb1  1  0.521045  0.478606  0.693149  1
  Tb  Tb2  1  0.478955  0.957562  0.306851  1
  Tb  Tb3  1  0.521045  0.042438  0.693149  1
  Tb  Tb4  1  0.043168  0.521584  0.306856  1
  Tb  Tb5  1  0.956832  0.478416  0.693144  1
  Pr  Pr6  1  0.000000  0.000000  0.000000  1
  Co  Co7  1  0.337378  0.168689  0.198909  1
  Co  Co8  1  0.662622  0.831311  0.801091  1
  Sn  Sn9  1  0.351609  0.004706  0.004718  1
  Sn  Sn10  1  0.648391  0.995294  0.995282  1
  Sn  Sn11  1  0.000000  0.352078  0.000000  1
  Sn  Sn12  1  0.000000  0.647922  0.000000  1
  Sn  Sn13  1  0.648391  0.653097  0.995282  1
  Sn  Sn14  1  0.351609  0.346903  0.004718  1
  Sn  Sn15  1  0.338315  0.669158  0.819052  1
  Sn  Sn16  1  0.661685  0.330842  0.180948  1
  Sn  Sn17  1  0.000000  0.000000  0.500000  1
  Sn  Sn18  1  0.778853  0.221422  0.455946  1
  Sn  Sn19  1  0.221147  0.778578  0.544054  1
  Sn  Sn20  1  0.778853  0.557431  0.455946  1
  Sn  Sn21  1  0.221147  0.442569  0.544054  1
  Sn  Sn22  1  0.438706  0.219353  0.450467  1
  Sn  Sn23  1  0.561294  0.780647  0.549533  1
  Sn  Sn24  1  0.333360  0.666680  0.117573  1
  Sn  Sn25  1  0.666640  0.333320  0.882427  1
  Sn  Sn26  1  0.123475  0.886922  0.277406  1
  Sn  Sn27  1  0.876525  0.113078  0.722594  1
  Sn  Sn28  1  0.123475  0.236554  0.277406  1
  Sn  Sn29  1  0.876525  0.763446  0.722594  1
  Sn  Sn30  1  0.758933  0.879467  0.282325  1
  Sn  Sn31  1  0.241067  0.120533  0.717675  1
  Rh  Rh32  1  0.830986  0.167769  0.197985  1
  Rh  Rh33  1  0.169014  0.832231  0.802015  1
  Rh  Rh34  1  0.830986  0.663217  0.197985  1
  Rh  Rh35  1  0.169014  0.336783  0.802015  1
