# generated using pymatgen
data_Y20Hg3Pd3Ru2
_symmetry_space_group_name_H-M   'P 1'
_cell_length_a   9.58015700
_cell_length_b   9.58015609
_cell_length_c   9.53485200
_cell_angle_alpha   90.00000000
_cell_angle_beta   90.00000000
_cell_angle_gamma   120.00000658
_symmetry_Int_Tables_number   1
_chemical_formula_structural   Y20Hg3Pd3Ru2
_chemical_formula_sum   'Y20 Hg3 Pd3 Ru2'
_cell_volume   757.86137054
_cell_formula_units_Z   1
loop_
 _symmetry_equiv_pos_site_id
 _symmetry_equiv_pos_as_xyz
  1  'x, y, z'
loop_
 _atom_site_type_symbol
 _atom_site_label
 _atom_site_symmetry_multiplicity
 _atom_site_fract_x
 _atom_site_fract_y
 _atom_site_fract_z
 _atom_site_occupancy
  Y  Y0  1  0.000000  0.000000  0.539216  1
  Y  Y1  1  0.000000  0.000000  0.960784  1
  Y  Y2  1  0.207318  0.792682  0.441817  1
  Y  Y3  1  0.207318  0.414636  0.441817  1
  Y  Y4  1  0.585364  0.792682  0.441817  1
  Y  Y5  1  0.791426  0.208574  0.559461  1
  Y  Y6  1  0.791426  0.582853  0.559461  1
  Y  Y7  1  0.417147  0.208574  0.559461  1
  Y  Y8  1  0.791426  0.208574  0.940539  1
  Y  Y9  1  0.791426  0.582853  0.940539  1
  Y  Y10  1  0.417147  0.208574  0.940539  1
  Y  Y11  1  0.207318  0.792682  0.058183  1
  Y  Y12  1  0.207318  0.414636  0.058183  1
  Y  Y13  1  0.585364  0.792682  0.058183  1
  Y  Y14  1  0.541058  0.458942  0.250000  1
  Y  Y15  1  0.541058  0.082117  0.250000  1
  Y  Y16  1  0.917883  0.458942  0.250000  1
  Y  Y17  1  0.458856  0.541144  0.750000  1
  Y  Y18  1  0.458856  0.917712  0.750000  1
  Y  Y19  1  0.082288  0.541144  0.750000  1
  Hg  Hg20  1  0.886834  0.113166  0.250000  1
  Hg  Hg21  1  0.886834  0.773669  0.250000  1
  Hg  Hg22  1  0.226331  0.113166  0.250000  1
  Pd  Pd23  1  0.128085  0.871915  0.750000  1
  Pd  Pd24  1  0.128085  0.256170  0.750000  1
  Pd  Pd25  1  0.743830  0.871915  0.750000  1
  Ru  Ru26  1  0.333333  0.666667  0.250000  1
  Ru  Ru27  1  0.666667  0.333333  0.750000  1
