# generated using pymatgen
data_Rb(SnS2)12
_symmetry_space_group_name_H-M   'P 1'
_cell_length_a   11.29355992
_cell_length_b   11.39322547
_cell_length_c   11.07044848
_cell_angle_alpha   109.17604334
_cell_angle_beta   109.37378304
_cell_angle_gamma   69.51708195
_symmetry_Int_Tables_number   1
_chemical_formula_structural   Rb(SnS2)12
_chemical_formula_sum   'Rb1 Sn12 S24'
_cell_volume   1221.92247195
_cell_formula_units_Z   1
loop_
 _symmetry_equiv_pos_site_id
 _symmetry_equiv_pos_as_xyz
  1  'x, y, z'
loop_
 _atom_site_type_symbol
 _atom_site_label
 _atom_site_symmetry_multiplicity
 _atom_site_fract_x
 _atom_site_fract_y
 _atom_site_fract_z
 _atom_site_occupancy
  Rb  Rb0  1  0.000000  0.500000  0.000000  1
  Sn  Sn1  1  0.496802  0.498956  0.665026  1
  Sn  Sn2  1  0.997470  0.997061  0.663551  1
  Sn  Sn3  1  0.741004  0.241603  0.827018  1
  Sn  Sn4  1  0.253978  0.755207  0.835292  1
  Sn  Sn5  1  0.500000  0.500000  0.000000  1
  Sn  Sn6  1  0.000000  0.000000  0.000000  1
  Sn  Sn7  1  0.746022  0.244793  0.164708  1
  Sn  Sn8  1  0.258996  0.758397  0.172982  1
  Sn  Sn9  1  0.503198  0.501044  0.334974  1
  Sn  Sn10  1  0.002530  0.002939  0.336449  1
  Sn  Sn11  1  0.744496  0.244125  0.495005  1
  Sn  Sn12  1  0.255504  0.755875  0.504995  1
  S  S13  1  0.489610  0.330386  0.773220  1
  S  S14  1  0.998940  0.829631  0.776569  1
  S  S15  1  0.744844  0.073718  0.940053  1
  S  S16  1  0.246902  0.587221  0.945552  1
  S  S17  1  0.750972  0.412720  0.723074  1
  S  S18  1  0.253148  0.926354  0.727826  1
  S  S19  1  0.492846  0.332080  0.107742  1
  S  S20  1  0.002484  0.830691  0.111623  1
  S  S21  1  0.997516  0.169309  0.888377  1
  S  S22  1  0.507154  0.667920  0.892258  1
  S  S23  1  0.249028  0.587280  0.276926  1
  S  S24  1  0.746852  0.073646  0.272174  1
  S  S25  1  0.753098  0.412779  0.054448  1
  S  S26  1  0.255156  0.926282  0.059947  1
  S  S27  1  0.491984  0.330933  0.438961  1
  S  S28  1  0.000464  0.829382  0.439844  1
  S  S29  1  0.001060  0.170369  0.223431  1
  S  S30  1  0.510390  0.669614  0.226780  1
  S  S31  1  0.245371  0.586077  0.609334  1
  S  S32  1  0.742578  0.073280  0.603204  1
  S  S33  1  0.754629  0.413923  0.390666  1
  S  S34  1  0.257422  0.926720  0.396796  1
  S  S35  1  0.999536  0.170618  0.560156  1
  S  S36  1  0.508016  0.669067  0.561039  1
