# generated using pymatgen
data_TmLu15(TiIr3)4
_symmetry_space_group_name_H-M   'P 1'
_cell_length_a   10.54811302
_cell_length_b   10.55164904
_cell_length_c   6.06464001
_cell_angle_alpha   89.99342709
_cell_angle_beta   90.00009632
_cell_angle_gamma   90.00674523
_symmetry_Int_Tables_number   1
_chemical_formula_structural   TmLu15(TiIr3)4
_chemical_formula_sum   'Tm1 Lu15 Ti4 Ir12'
_cell_volume   674.99434246
_cell_formula_units_Z   1
loop_
 _symmetry_equiv_pos_site_id
 _symmetry_equiv_pos_as_xyz
  1  'x, y, z'
loop_
 _atom_site_type_symbol
 _atom_site_label
 _atom_site_symmetry_multiplicity
 _atom_site_fract_x
 _atom_site_fract_y
 _atom_site_fract_z
 _atom_site_occupancy
  Tm  Tm0  1  0.085889  0.286748  0.127555  1
  Lu  Lu1  1  0.287212  0.085412  0.372961  1
  Lu  Lu2  1  0.287061  0.914358  0.872910  1
  Lu  Lu3  1  0.712966  0.085591  0.872772  1
  Lu  Lu4  1  0.712955  0.914374  0.372827  1
  Lu  Lu5  1  0.585594  0.787000  0.872866  1
  Lu  Lu6  1  0.585605  0.213020  0.372863  1
  Lu  Lu7  1  0.414416  0.786988  0.372841  1
  Lu  Lu8  1  0.414453  0.212984  0.872776  1
  Lu  Lu9  1  0.213120  0.414542  0.627173  1
  Lu  Lu10  1  0.213076  0.585779  0.127168  1
  Lu  Lu11  1  0.786830  0.414492  0.127154  1
  Lu  Lu12  1  0.786918  0.585609  0.627199  1
  Lu  Lu13  1  0.914382  0.713047  0.127207  1
  Lu  Lu14  1  0.914239  0.287023  0.627223  1
  Lu  Lu15  1  0.085667  0.713007  0.627149  1
  Ti  Ti16  1  0.999943  0.999955  0.499963  1
  Ti  Ti17  1  0.999845  0.999660  0.999764  1
  Ti  Ti18  1  0.500026  0.500023  0.999944  1
  Ti  Ti19  1  0.500020  0.500048  0.500049  1
  Ir  Ir20  1  0.859253  0.139938  0.250323  1
  Ir  Ir21  1  0.859767  0.859679  0.750039  1
  Ir  Ir22  1  0.140468  0.139878  0.748998  1
  Ir  Ir23  1  0.140277  0.859769  0.250008  1
  Ir  Ir24  1  0.640294  0.359704  0.750030  1
  Ir  Ir25  1  0.640316  0.640250  0.250007  1
  Ir  Ir26  1  0.360086  0.359804  0.250203  1
  Ir  Ir27  1  0.359744  0.640301  0.750037  1
  Ir  Ir28  1  0.500050  0.999991  0.119830  1
  Ir  Ir29  1  0.500002  0.000001  0.619829  1
  Ir  Ir30  1  0.999731  0.500528  0.879731  1
  Ir  Ir31  1  0.999795  0.500498  0.380601  1
