# generated using pymatgen
data_LuThF36
_symmetry_space_group_name_H-M   'P 1'
_cell_length_a   6.06445099
_cell_length_b   10.58355608
_cell_length_c   10.56138200
_cell_angle_alpha   91.23846586
_cell_angle_beta   95.91243981
_cell_angle_gamma   74.19906751
_symmetry_Int_Tables_number   1
_chemical_formula_structural   LuThF36
_chemical_formula_sum   'Lu1 Th1 F36'
_cell_volume   648.76753262
_cell_formula_units_Z   1
loop_
 _symmetry_equiv_pos_site_id
 _symmetry_equiv_pos_as_xyz
  1  'x, y, z'
loop_
 _atom_site_type_symbol
 _atom_site_label
 _atom_site_symmetry_multiplicity
 _atom_site_fract_x
 _atom_site_fract_y
 _atom_site_fract_z
 _atom_site_occupancy
  Lu  Lu0  1  0.215716  0.194466  0.165283  1
  Th  Th1  1  0.745316  0.832808  0.875756  1
  F  F2  1  0.309957  0.383643  0.870014  1
  F  F3  1  0.624282  0.627829  0.125618  1
  F  F4  1  0.321146  0.281247  0.582903  1
  F  F5  1  0.679833  0.746539  0.437376  1
  F  F6  1  0.871431  0.222182  0.808827  1
  F  F7  1  0.153742  0.770786  0.187290  1
  F  F8  1  0.675255  0.839184  0.067324  1
  F  F9  1  0.330481  0.115258  0.991082  1
  F  F10  1  0.795280  0.604365  0.868325  1
  F  F11  1  0.206765  0.382458  0.102515  1
  F  F12  1  0.457708  0.459141  0.836808  1
  F  F13  1  0.588988  0.503256  0.153354  1
  F  F14  1  0.730980  0.695448  0.699450  1
  F  F15  1  0.261448  0.348884  0.292086  1
  F  F16  1  0.746873  0.974579  0.549779  1
  F  F17  1  0.240262  0.013026  0.447355  1
  F  F18  1  0.291373  0.173318  0.651979  1
  F  F19  1  0.689154  0.811370  0.321577  1
  F  F20  1  0.805722  0.093738  0.581764  1
  F  F21  1  0.173840  0.920777  0.359984  1
  F  F22  1  0.822036  0.010814  0.844213  1
  F  F23  1  0.190810  0.004138  0.095029  1
  F  F24  1  0.907833  0.349744  0.796715  1
  F  F25  1  0.114578  0.647094  0.211364  1
  F  F26  1  0.157555  0.744774  0.909730  1
  F  F27  1  0.846019  0.243090  0.118860  1
  F  F28  1  0.399097  0.943543  0.745783  1
  F  F29  1  0.530543  0.080184  0.274324  1
  F  F30  1  0.112980  0.758931  0.581407  1
  F  F31  1  0.964270  0.230942  0.395406  1
  F  F32  1  0.206169  0.636820  0.647481  1
  F  F33  1  0.817611  0.360054  0.365313  1
  F  F34  1  0.282786  0.843790  0.828612  1
  F  F35  1  0.688338  0.158632  0.194955  1
  F  F36  1  0.530839  0.444280  0.550481  1
  F  F37  1  0.512987  0.548864  0.463885  1
