# generated using pymatgen
data_AlCo6MoW5
_symmetry_space_group_name_H-M   'P 1'
_cell_length_a   8.96250291
_cell_length_b   8.96250308
_cell_length_c   8.96250439
_cell_angle_alpha   31.03070557
_cell_angle_beta   31.03070746
_cell_angle_gamma   31.03070894
_symmetry_Int_Tables_number   1
_chemical_formula_structural   AlCo6MoW5
_chemical_formula_sum   'Al1 Co6 Mo1 W5'
_cell_volume   169.72351392
_cell_formula_units_Z   1
loop_
 _symmetry_equiv_pos_site_id
 _symmetry_equiv_pos_as_xyz
  1  'x, y, z'
loop_
 _atom_site_type_symbol
 _atom_site_label
 _atom_site_symmetry_multiplicity
 _atom_site_fract_x
 _atom_site_fract_y
 _atom_site_fract_z
 _atom_site_occupancy
  Al  Al0  1  0.000087  0.000087  0.000087  1
  Co  Co1  1  0.090684  0.090684  0.584101  1
  Co  Co2  1  0.415701  0.909488  0.909488  1
  Co  Co3  1  0.584101  0.090684  0.090684  1
  Co  Co4  1  0.909488  0.909488  0.415701  1
  Co  Co5  1  0.909488  0.415701  0.909488  1
  Co  Co6  1  0.090684  0.584101  0.090684  1
  Mo  Mo7  1  0.346841  0.346841  0.346841  1
  W  W8  1  0.832447  0.832447  0.832447  1
  W  W9  1  0.653194  0.653194  0.653194  1
  W  W10  1  0.449729  0.449729  0.449729  1
  W  W11  1  0.549959  0.549959  0.549959  1
  W  W12  1  0.167597  0.167597  0.167597  1
