# generated using pymatgen
data_DyHo6Lu(Si4Mo3)4
_symmetry_space_group_name_H-M   'P 1'
_cell_length_a   6.75476605
_cell_length_b   6.94018292
_cell_length_c   12.91348111
_cell_angle_alpha   89.95458529
_cell_angle_beta   89.99373363
_cell_angle_gamma   89.97931653
_symmetry_Int_Tables_number   1
_chemical_formula_structural   DyHo6Lu(Si4Mo3)4
_chemical_formula_sum   'Dy1 Ho6 Lu1 Si16 Mo12'
_cell_volume   605.37487575
_cell_formula_units_Z   1
loop_
 _symmetry_equiv_pos_site_id
 _symmetry_equiv_pos_as_xyz
  1  'x, y, z'
loop_
 _atom_site_type_symbol
 _atom_site_label
 _atom_site_symmetry_multiplicity
 _atom_site_fract_x
 _atom_site_fract_y
 _atom_site_fract_z
 _atom_site_occupancy
  Dy  Dy0  1  0.497294  0.332681  0.093892  1
  Ho  Ho1  1  0.997154  0.167282  0.406096  1
  Ho  Ho2  1  0.502882  0.667214  0.593935  1
  Ho  Ho3  1  0.002635  0.832698  0.906488  1
  Ho  Ho4  1  0.502730  0.667539  0.906337  1
  Ho  Ho5  1  0.002831  0.832734  0.593944  1
  Ho  Ho6  1  0.497068  0.332689  0.405660  1
  Lu  Lu7  1  0.996351  0.167928  0.094251  1
  Si  Si8  1  0.659098  0.041650  0.547305  1
  Si  Si9  1  0.158930  0.457783  0.953082  1
  Si  Si10  1  0.339082  0.959275  0.047581  1
  Si  Si11  1  0.840872  0.541689  0.452502  1
  Si  Si12  1  0.340923  0.958334  0.452391  1
  Si  Si13  1  0.841672  0.540237  0.047592  1
  Si  Si14  1  0.659669  0.041581  0.953129  1
  Si  Si15  1  0.159131  0.458425  0.547287  1
  Si  Si16  1  0.534852  0.366427  0.750268  1
  Si  Si17  1  0.034787  0.133379  0.750070  1
  Si  Si18  1  0.465432  0.633837  0.249815  1
  Si  Si19  1  0.965590  0.867538  0.249510  1
  Si  Si20  1  0.802487  0.629574  0.750251  1
  Si  Si21  1  0.302277  0.870158  0.750109  1
  Si  Si22  1  0.196577  0.369250  0.249370  1
  Si  Si23  1  0.698786  0.129858  0.249515  1
  Mo  Mo24  1  0.830327  0.334576  0.625197  1
  Mo  Mo25  1  0.330057  0.165122  0.875105  1
  Mo  Mo26  1  0.169514  0.665620  0.125149  1
  Mo  Mo27  1  0.669808  0.834836  0.374504  1
  Mo  Mo28  1  0.169606  0.665242  0.374571  1
  Mo  Mo29  1  0.670402  0.835235  0.124785  1
  Mo  Mo30  1  0.830824  0.334066  0.875371  1
  Mo  Mo31  1  0.330456  0.165367  0.625146  1
  Mo  Mo32  1  0.666024  0.998529  0.750199  1
  Mo  Mo33  1  0.166124  0.501294  0.750158  1
  Mo  Mo34  1  0.333507  0.002076  0.249663  1
  Mo  Mo35  1  0.834242  0.498281  0.249776  1
