# generated using pymatgen
data_HoSc2Fe8Os
_symmetry_space_group_name_H-M   'P 1'
_cell_length_a   8.61393933
_cell_length_b   8.61394006
_cell_length_c   8.61393950
_cell_angle_alpha   33.68093900
_cell_angle_beta   33.68093051
_cell_angle_gamma   33.68093520
_symmetry_Int_Tables_number   1
_chemical_formula_structural   HoSc2Fe8Os
_chemical_formula_sum   'Ho1 Sc2 Fe8 Os1'
_cell_volume   175.12404270
_cell_formula_units_Z   1
loop_
 _symmetry_equiv_pos_site_id
 _symmetry_equiv_pos_as_xyz
  1  'x, y, z'
loop_
 _atom_site_type_symbol
 _atom_site_label
 _atom_site_symmetry_multiplicity
 _atom_site_fract_x
 _atom_site_fract_y
 _atom_site_fract_z
 _atom_site_occupancy
  Ho  Ho0  1  0.000000  0.000000  0.000000  1
  Sc  Sc1  1  0.143225  0.143225  0.143225  1
  Sc  Sc2  1  0.856775  0.856775  0.856775  1
  Fe  Fe3  1  0.333126  0.333126  0.333126  1
  Fe  Fe4  1  0.666874  0.666874  0.666874  1
  Fe  Fe5  1  0.077467  0.585266  0.585266  1
  Fe  Fe6  1  0.585266  0.585266  0.077467  1
  Fe  Fe7  1  0.585266  0.077467  0.585266  1
  Fe  Fe8  1  0.414734  0.922533  0.414734  1
  Fe  Fe9  1  0.922533  0.414734  0.414734  1
  Fe  Fe10  1  0.414734  0.414734  0.922533  1
  Os  Os11  1  0.500000  0.500000  0.500000  1
