# generated using pymatgen
data_Ca2Tb3Dy(SiNi3)4
_symmetry_space_group_name_H-M   'P 1'
_cell_length_a   7.61704831
_cell_length_b   7.61597716
_cell_length_c   7.61417669
_cell_angle_alpha   108.89197845
_cell_angle_beta   109.75152254
_cell_angle_gamma   109.76104358
_symmetry_Int_Tables_number   1
_chemical_formula_structural   Ca2Tb3Dy(SiNi3)4
_chemical_formula_sum   'Ca2 Tb3 Dy1 Si4 Ni12'
_cell_volume   340.04595104
_cell_formula_units_Z   1
loop_
 _symmetry_equiv_pos_site_id
 _symmetry_equiv_pos_as_xyz
  1  'x, y, z'
loop_
 _atom_site_type_symbol
 _atom_site_label
 _atom_site_symmetry_multiplicity
 _atom_site_fract_x
 _atom_site_fract_y
 _atom_site_fract_z
 _atom_site_occupancy
  Ca  Ca0  1  0.284318  0.284063  0.000271  1
  Ca  Ca1  1  0.715682  0.999745  0.715953  1
  Tb  Tb2  1  0.708506  0.708286  0.000281  1
  Tb  Tb3  1  0.291494  0.999779  0.291775  1
  Tb  Tb4  1  0.000000  0.290731  0.291434  1
  Dy  Dy5  1  0.000000  0.707866  0.708628  1
  Si  Si6  1  0.000000  0.999282  0.493060  1
  Si  Si7  1  0.000000  0.507794  0.000444  1
  Si  Si8  1  0.499478  0.999399  0.000383  1
  Si  Si9  1  0.500522  0.499921  0.500906  1
  Ni  Ni10  1  0.327804  0.327365  0.655156  1
  Ni  Ni11  1  0.672196  0.999561  0.327351  1
  Ni  Ni12  1  0.000000  0.669674  0.330422  1
  Ni  Ni13  1  0.672442  0.325799  0.997487  1
  Ni  Ni14  1  0.327558  0.653357  0.325045  1
  Ni  Ni15  1  0.000000  0.330329  0.669723  1
  Ni  Ni16  1  0.326993  0.672695  0.999692  1
  Ni  Ni17  1  0.327038  0.001802  0.674121  1
  Ni  Ni18  1  0.660238  0.331162  0.329161  1
  Ni  Ni19  1  0.672962  0.674764  0.347083  1
  Ni  Ni20  1  0.673007  0.345702  0.672699  1
  Ni  Ni21  1  0.339762  0.670923  0.668922  1
