# generated using pymatgen
data_Er4Sb6Ru3Rh4
_symmetry_space_group_name_H-M   'P 1'
_cell_length_a   7.54846224
_cell_length_b   7.54846234
_cell_length_c   7.54273001
_cell_angle_alpha   109.45239910
_cell_angle_beta   109.45239822
_cell_angle_gamma   109.53961497
_symmetry_Int_Tables_number   1
_chemical_formula_structural   Er4Sb6Ru3Rh4
_chemical_formula_sum   'Er4 Sb6 Ru3 Rh4'
_cell_volume   330.71848935
_cell_formula_units_Z   1
loop_
 _symmetry_equiv_pos_site_id
 _symmetry_equiv_pos_as_xyz
  1  'x, y, z'
loop_
 _atom_site_type_symbol
 _atom_site_label
 _atom_site_symmetry_multiplicity
 _atom_site_fract_x
 _atom_site_fract_y
 _atom_site_fract_z
 _atom_site_occupancy
  Er  Er0  1  0.498891  0.998891  0.997781  1
  Er  Er1  1  0.998891  0.498891  0.997781  1
  Er  Er2  1  0.002993  0.002993  0.501704  1
  Er  Er3  1  0.498711  0.498711  0.501704  1
  Sb  Sb4  1  0.315141  0.000920  0.316061  1
  Sb  Sb5  1  0.000624  0.685049  0.685673  1
  Sb  Sb6  1  0.683082  0.683082  0.997665  1
  Sb  Sb7  1  0.685049  0.000624  0.685673  1
  Sb  Sb8  1  0.000920  0.315141  0.316061  1
  Sb  Sb9  1  0.314582  0.314582  0.997665  1
  Ru  Ru10  1  0.249315  0.500079  0.749394  1
  Ru  Ru11  1  0.500079  0.249315  0.749394  1
  Ru  Ru12  1  0.000080  0.000080  0.000159  1
  Rh  Rh13  1  0.750644  0.250644  0.501288  1
  Rh  Rh14  1  0.499609  0.750745  0.250355  1
  Rh  Rh15  1  0.250644  0.750644  0.501288  1
  Rh  Rh16  1  0.750745  0.499609  0.250355  1
