# generated using pymatgen
data_Ho17Er3(InGa2)4
_symmetry_space_group_name_H-M   'P 1'
_cell_length_a   7.69588500
_cell_length_b   7.69588500
_cell_length_c   14.26920600
_cell_angle_alpha   90.00000000
_cell_angle_beta   90.00000000
_cell_angle_gamma   90.00000000
_symmetry_Int_Tables_number   1
_chemical_formula_structural   Ho17Er3(InGa2)4
_chemical_formula_sum   'Ho17 Er3 In4 Ga8'
_cell_volume   845.11721151
_cell_formula_units_Z   1
loop_
 _symmetry_equiv_pos_site_id
 _symmetry_equiv_pos_as_xyz
  1  'x, y, z'
loop_
 _atom_site_type_symbol
 _atom_site_label
 _atom_site_symmetry_multiplicity
 _atom_site_fract_x
 _atom_site_fract_y
 _atom_site_fract_z
 _atom_site_occupancy
  Ho  Ho0  1  0.500000  0.000000  0.740595  1
  Ho  Ho1  1  0.673116  0.661017  0.606350  1
  Ho  Ho2  1  0.672806  0.338643  0.106470  1
  Ho  Ho3  1  0.827178  0.838643  0.393559  1
  Ho  Ho4  1  0.172875  0.838560  0.893636  1
  Ho  Ho5  1  0.326884  0.338983  0.606350  1
  Ho  Ho6  1  0.327194  0.661357  0.106470  1
  Ho  Ho7  1  0.172822  0.161357  0.393559  1
  Ho  Ho8  1  0.827125  0.161440  0.893636  1
  Ho  Ho9  1  0.661357  0.327178  0.393559  1
  Ho  Ho10  1  0.338560  0.327125  0.893636  1
  Ho  Ho11  1  0.161017  0.826884  0.606350  1
  Ho  Ho12  1  0.838643  0.827194  0.106470  1
  Ho  Ho13  1  0.338643  0.672822  0.393559  1
  Ho  Ho14  1  0.661440  0.672875  0.893636  1
  Ho  Ho15  1  0.838983  0.173116  0.606350  1
  Ho  Ho16  1  0.161357  0.172806  0.106470  1
  Er  Er17  1  0.000000  0.500000  0.758617  1
  Er  Er18  1  0.000000  0.500000  0.258690  1
  Er  Er19  1  0.500000  0.000000  0.241531  1
  In  In20  1  0.000000  0.500000  0.496325  1
  In  In21  1  0.000000  0.500000  0.996198  1
  In  In22  1  0.500000  0.000000  0.503491  1
  In  In23  1  0.500000  0.000000  0.004087  1
  Ga  Ga24  1  0.875583  0.874858  0.750075  1
  Ga  Ga25  1  0.875077  0.124972  0.250026  1
  Ga  Ga26  1  0.624972  0.624923  0.250026  1
  Ga  Ga27  1  0.374858  0.624417  0.750075  1
  Ga  Ga28  1  0.124417  0.125142  0.750075  1
  Ga  Ga29  1  0.124923  0.875028  0.250026  1
  Ga  Ga30  1  0.375028  0.375077  0.250026  1
  Ga  Ga31  1  0.625142  0.375583  0.750075  1
