# generated using pymatgen
data_Y5Ti2P12Ir17
_symmetry_space_group_name_H-M   'P 1'
_cell_length_a   12.61028100
_cell_length_b   12.80185536
_cell_length_c   3.97143900
_cell_angle_alpha   90.00000000
_cell_angle_beta   90.00000000
_cell_angle_gamma   119.50619560
_symmetry_Int_Tables_number   1
_chemical_formula_structural   Y5Ti2P12Ir17
_chemical_formula_sum   'Y5 Ti2 P12 Ir17'
_cell_volume   557.97633436
_cell_formula_units_Z   1
loop_
 _symmetry_equiv_pos_site_id
 _symmetry_equiv_pos_as_xyz
  1  'x, y, z'
loop_
 _atom_site_type_symbol
 _atom_site_label
 _atom_site_symmetry_multiplicity
 _atom_site_fract_x
 _atom_site_fract_y
 _atom_site_fract_z
 _atom_site_occupancy
  Y  Y0  1  0.330211  0.660487  0.500000  1
  Y  Y1  1  0.669725  0.339513  0.500000  1
  Y  Y2  1  0.999269  0.811887  0.000000  1
  Y  Y3  1  0.187382  0.188113  0.000000  1
  Y  Y4  1  0.812792  0.000000  0.000000  1
  Ti  Ti5  1  0.998696  0.447165  0.500000  1
  Ti  Ti6  1  0.551530  0.552835  0.500000  1
  P  P7  1  0.001682  0.639505  0.500000  1
  P  P8  1  0.362177  0.360495  0.500000  1
  P  P9  1  0.644569  0.000000  0.500000  1
  P  P10  1  0.514455  0.682394  0.000000  1
  P  P11  1  0.308846  0.824147  0.000000  1
  P  P12  1  0.162938  0.480443  0.000000  1
  P  P13  1  0.484699  0.175853  0.000000  1
  P  P14  1  0.682495  0.519557  0.000000  1
  P  P15  1  0.832060  0.317606  0.000000  1
  P  P16  1  0.999745  0.175613  0.500000  1
  P  P17  1  0.824132  0.824387  0.500000  1
  P  P18  1  0.180781  0.000000  0.500000  1
  Ir  Ir19  1  0.504766  0.863662  0.000000  1
  Ir  Ir20  1  0.127409  0.640838  0.000000  1
  Ir  Ir21  1  0.355428  0.492164  0.000000  1
  Ir  Ir22  1  0.486571  0.359162  0.000000  1
  Ir  Ir23  1  0.863265  0.507836  0.000000  1
  Ir  Ir24  1  0.641105  0.136338  0.000000  1
  Ir  Ir25  1  0.463561  0.000000  0.500000  1
  Ir  Ir26  1  0.997047  0.281814  0.000000  1
  Ir  Ir27  1  0.715234  0.718186  0.000000  1
  Ir  Ir28  1  0.289935  0.000000  0.000000  1
  Ir  Ir29  1  0.622779  0.805484  0.500000  1
  Ir  Ir30  1  0.201699  0.823403  0.500000  1
  Ir  Ir31  1  0.176848  0.368698  0.500000  1
  Ir  Ir32  1  0.378296  0.176597  0.500000  1
  Ir  Ir33  1  0.808150  0.631302  0.500000  1
  Ir  Ir34  1  0.817295  0.194516  0.500000  1
  Ir  Ir35  1  0.002430  0.000000  0.500000  1
