# generated using pymatgen
data_Tb6Ho(TmSb2)3
_symmetry_space_group_name_H-M   'P 1'
_cell_length_a   8.99310200
_cell_length_b   8.99310168
_cell_length_c   6.28132800
_cell_angle_alpha   90.00000000
_cell_angle_beta   90.00000000
_cell_angle_gamma   119.99999382
_symmetry_Int_Tables_number   1
_chemical_formula_structural   Tb6Ho(TmSb2)3
_chemical_formula_sum   'Tb6 Ho1 Tm3 Sb6'
_cell_volume   439.94780363
_cell_formula_units_Z   1
loop_
 _symmetry_equiv_pos_site_id
 _symmetry_equiv_pos_as_xyz
  1  'x, y, z'
loop_
 _atom_site_type_symbol
 _atom_site_label
 _atom_site_symmetry_multiplicity
 _atom_site_fract_x
 _atom_site_fract_y
 _atom_site_fract_z
 _atom_site_occupancy
  Tb  Tb0  1  0.999998  0.752468  0.750001  1
  Tb  Tb1  1  0.999998  0.247530  0.249999  1
  Tb  Tb2  1  0.752470  0.752468  0.249999  1
  Tb  Tb3  1  0.752470  0.000002  0.750001  1
  Tb  Tb4  1  0.247532  0.247530  0.750001  1
  Tb  Tb5  1  0.247532  0.000002  0.249999  1
  Ho  Ho6  1  0.333333  0.666667  0.500000  1
  Tm  Tm7  1  0.666667  0.333333  0.000000  1
  Tm  Tm8  1  0.666667  0.333333  0.500000  1
  Tm  Tm9  1  0.333333  0.666667  0.000000  1
  Sb  Sb10  1  0.390232  0.000195  0.750140  1
  Sb  Sb11  1  0.390232  0.390037  0.249860  1
  Sb  Sb12  1  0.999805  0.609768  0.249860  1
  Sb  Sb13  1  0.999805  0.390037  0.750140  1
  Sb  Sb14  1  0.609963  0.609768  0.750140  1
  Sb  Sb15  1  0.609963  0.000195  0.249860  1
