# generated using pymatgen
data_Dy3Th5(As3Rh4)4
_symmetry_space_group_name_H-M   'P 1'
_cell_length_a   13.46052300
_cell_length_b   13.46052337
_cell_length_c   4.05682800
_cell_angle_alpha   90.00000000
_cell_angle_beta   90.00000000
_cell_angle_gamma   120.00000156
_symmetry_Int_Tables_number   1
_chemical_formula_structural   Dy3Th5(As3Rh4)4
_chemical_formula_sum   'Dy3 Th5 As12 Rh16'
_cell_volume   636.56257318
_cell_formula_units_Z   1
loop_
 _symmetry_equiv_pos_site_id
 _symmetry_equiv_pos_as_xyz
  1  'x, y, z'
loop_
 _atom_site_type_symbol
 _atom_site_label
 _atom_site_symmetry_multiplicity
 _atom_site_fract_x
 _atom_site_fract_y
 _atom_site_fract_z
 _atom_site_occupancy
  Dy  Dy0  1  0.558420  0.558420  0.000000  1
  Dy  Dy1  1  0.441580  0.000000  0.000000  1
  Dy  Dy2  1  0.000000  0.441580  0.000000  1
  Th  Th3  1  0.184652  0.184652  0.500000  1
  Th  Th4  1  0.815348  0.000000  0.500000  1
  Th  Th5  1  0.000000  0.815348  0.500000  1
  Th  Th6  1  0.333333  0.666667  0.000000  1
  Th  Th7  1  0.666667  0.333333  0.000000  1
  As  As8  1  0.823925  0.823925  0.000000  1
  As  As9  1  0.176075  0.000000  0.000000  1
  As  As10  1  0.000000  0.176075  0.000000  1
  As  As11  1  0.169793  0.482700  0.500000  1
  As  As12  1  0.517300  0.687092  0.500000  1
  As  As13  1  0.312908  0.830207  0.500000  1
  As  As14  1  0.687092  0.517300  0.500000  1
  As  As15  1  0.830207  0.312908  0.500000  1
  As  As16  1  0.482700  0.169793  0.500000  1
  As  As17  1  0.354033  0.354033  0.000000  1
  As  As18  1  0.645967  0.000000  0.000000  1
  As  As19  1  0.000000  0.645967  0.000000  1
  Rh  Rh20  1  0.721133  0.721133  0.500000  1
  Rh  Rh21  1  0.278867  0.000000  0.500000  1
  Rh  Rh22  1  0.000000  0.278867  0.500000  1
  Rh  Rh23  1  0.177685  0.371474  0.000000  1
  Rh  Rh24  1  0.628526  0.806211  0.000000  1
  Rh  Rh25  1  0.193789  0.822315  0.000000  1
  Rh  Rh26  1  0.806211  0.628526  0.000000  1
  Rh  Rh27  1  0.822315  0.193789  0.000000  1
  Rh  Rh28  1  0.371474  0.177685  0.000000  1
  Rh  Rh29  1  0.352357  0.481100  0.500000  1
  Rh  Rh30  1  0.518900  0.871258  0.500000  1
  Rh  Rh31  1  0.128742  0.647643  0.500000  1
  Rh  Rh32  1  0.871258  0.518900  0.500000  1
  Rh  Rh33  1  0.647643  0.128742  0.500000  1
  Rh  Rh34  1  0.481100  0.352357  0.500000  1
  Rh  Rh35  1  0.000000  0.000000  0.000000  1
