# generated using pymatgen
data_Dy2Er4Al24Ru7Rh
_symmetry_space_group_name_H-M   'P 1'
_cell_length_a   8.76391447
_cell_length_b   8.76093125
_cell_length_c   9.58257825
_cell_angle_alpha   89.86771891
_cell_angle_beta   90.13184297
_cell_angle_gamma   119.86742298
_symmetry_Int_Tables_number   1
_chemical_formula_structural   Dy2Er4Al24Ru7Rh
_chemical_formula_sum   'Dy2 Er4 Al24 Ru7 Rh1'
_cell_volume   638.02619291
_cell_formula_units_Z   1
loop_
 _symmetry_equiv_pos_site_id
 _symmetry_equiv_pos_as_xyz
  1  'x, y, z'
loop_
 _atom_site_type_symbol
 _atom_site_label
 _atom_site_symmetry_multiplicity
 _atom_site_fract_x
 _atom_site_fract_y
 _atom_site_fract_z
 _atom_site_occupancy
  Dy  Dy0  1  0.191462  0.386230  0.250934  1
  Dy  Dy1  1  0.808538  0.613770  0.749066  1
  Er  Er2  1  0.612919  0.808216  0.250991  1
  Er  Er3  1  0.387081  0.191784  0.749009  1
  Er  Er4  1  0.194146  0.805981  0.250430  1
  Er  Er5  1  0.805854  0.194019  0.749570  1
  Al  Al6  1  0.332739  0.667611  0.019806  1
  Al  Al7  1  0.667261  0.332389  0.980194  1
  Al  Al8  1  0.666424  0.333190  0.519065  1
  Al  Al9  1  0.333576  0.666810  0.480935  1
  Al  Al10  1  0.163566  0.325562  0.577759  1
  Al  Al11  1  0.836434  0.674438  0.422241  1
  Al  Al12  1  0.674280  0.836493  0.577522  1
  Al  Al13  1  0.838688  0.674939  0.077914  1
  Al  Al14  1  0.325720  0.163507  0.422478  1
  Al  Al15  1  0.161312  0.325061  0.922086  1
  Al  Al16  1  0.163386  0.836862  0.577195  1
  Al  Al17  1  0.325182  0.161276  0.077716  1
  Al  Al18  1  0.836614  0.163138  0.422805  1
  Al  Al19  1  0.674818  0.838724  0.922284  1
  Al  Al20  1  0.837027  0.162756  0.077441  1
  Al  Al21  1  0.162973  0.837244  0.922559  1
  Al  Al22  1  0.561194  0.123734  0.249757  1
  Al  Al23  1  0.438806  0.876266  0.750243  1
  Al  Al24  1  0.875856  0.438837  0.249765  1
  Al  Al25  1  0.124144  0.561163  0.750235  1
  Al  Al26  1  0.561789  0.438663  0.250785  1
  Al  Al27  1  0.438211  0.561337  0.749215  1
  Al  Al28  1  0.999496  0.999819  0.250044  1
  Al  Al29  1  0.000504  0.000181  0.749956  1
  Ru  Ru30  1  0.500000  0.000000  0.000000  1
  Ru  Ru31  1  0.000000  0.500000  0.000000  1
  Ru  Ru32  1  0.500000  0.000000  0.500000  1
  Ru  Ru33  1  0.000000  0.500000  0.500000  1
  Ru  Ru34  1  0.500000  0.500000  0.500000  1
  Ru  Ru35  1  0.000000  0.000000  0.000000  1
  Ru  Ru36  1  0.000000  0.000000  0.500000  1
  Rh  Rh37  1  0.500000  0.500000  0.000000  1
