# generated using pymatgen
data_Y20Zn3Cd3IrRu
_symmetry_space_group_name_H-M   'P 1'
_cell_length_a   9.61741500
_cell_length_b   9.61741550
_cell_length_c   9.70884900
_cell_angle_alpha   90.00000000
_cell_angle_beta   90.00000000
_cell_angle_gamma   120.00000171
_symmetry_Int_Tables_number   1
_chemical_formula_structural   Y20Zn3Cd3IrRu
_chemical_formula_sum   'Y20 Zn3 Cd3 Ir1 Ru1'
_cell_volume   777.70538624
_cell_formula_units_Z   1
loop_
 _symmetry_equiv_pos_site_id
 _symmetry_equiv_pos_as_xyz
  1  'x, y, z'
loop_
 _atom_site_type_symbol
 _atom_site_label
 _atom_site_symmetry_multiplicity
 _atom_site_fract_x
 _atom_site_fract_y
 _atom_site_fract_z
 _atom_site_occupancy
  Y  Y0  1  0.000000  0.000000  0.475030  1
  Y  Y1  1  0.000000  0.000000  0.024970  1
  Y  Y2  1  0.208144  0.791856  0.438315  1
  Y  Y3  1  0.208144  0.416289  0.438315  1
  Y  Y4  1  0.583711  0.791856  0.438315  1
  Y  Y5  1  0.791427  0.208573  0.557271  1
  Y  Y6  1  0.791427  0.582854  0.557271  1
  Y  Y7  1  0.417146  0.208573  0.557271  1
  Y  Y8  1  0.791427  0.208573  0.942729  1
  Y  Y9  1  0.791427  0.582854  0.942729  1
  Y  Y10  1  0.417146  0.208573  0.942729  1
  Y  Y11  1  0.208144  0.791856  0.061685  1
  Y  Y12  1  0.208144  0.416289  0.061685  1
  Y  Y13  1  0.583711  0.791856  0.061685  1
  Y  Y14  1  0.541567  0.458433  0.250000  1
  Y  Y15  1  0.541567  0.083134  0.250000  1
  Y  Y16  1  0.916866  0.458433  0.250000  1
  Y  Y17  1  0.458645  0.541355  0.750000  1
  Y  Y18  1  0.458645  0.917290  0.750000  1
  Y  Y19  1  0.082710  0.541355  0.750000  1
  Zn  Zn20  1  0.878066  0.121934  0.250000  1
  Zn  Zn21  1  0.878066  0.756134  0.250000  1
  Zn  Zn22  1  0.243866  0.121934  0.250000  1
  Cd  Cd23  1  0.110346  0.889654  0.750000  1
  Cd  Cd24  1  0.110346  0.220691  0.750000  1
  Cd  Cd25  1  0.779309  0.889654  0.750000  1
  Ir  Ir26  1  0.666667  0.333333  0.750000  1
  Ru  Ru27  1  0.333333  0.666667  0.250000  1
