# generated using pymatgen
data_Tb9Ho3(CoRh)2
_symmetry_space_group_name_H-M   'P 1'
_cell_length_a   6.26828268
_cell_length_b   7.08366637
_cell_length_c   9.51321883
_cell_angle_alpha   90.02435772
_cell_angle_beta   89.55092977
_cell_angle_gamma   89.97459606
_symmetry_Int_Tables_number   1
_chemical_formula_structural   Tb9Ho3(CoRh)2
_chemical_formula_sum   'Tb9 Ho3 Co2 Rh2'
_cell_volume   422.39691391
_cell_formula_units_Z   1
loop_
 _symmetry_equiv_pos_site_id
 _symmetry_equiv_pos_as_xyz
  1  'x, y, z'
loop_
 _atom_site_type_symbol
 _atom_site_label
 _atom_site_symmetry_multiplicity
 _atom_site_fract_x
 _atom_site_fract_y
 _atom_site_fract_z
 _atom_site_occupancy
  Tb  Tb0  1  0.670723  0.170519  0.065650  1
  Tb  Tb1  1  0.367141  0.542499  0.249769  1
  Tb  Tb2  1  0.146534  0.034128  0.249849  1
  Tb  Tb3  1  0.823003  0.681543  0.432869  1
  Tb  Tb4  1  0.322157  0.817717  0.933446  1
  Tb  Tb5  1  0.170496  0.329877  0.567308  1
  Tb  Tb6  1  0.670836  0.170778  0.433944  1
  Tb  Tb7  1  0.867406  0.957760  0.750267  1
  Tb  Tb8  1  0.645758  0.465468  0.750686  1
  Ho  Ho9  1  0.169975  0.329199  0.934095  1
  Ho  Ho10  1  0.323102  0.818468  0.566576  1
  Ho  Ho11  1  0.822850  0.681605  0.065886  1
  Co  Co12  1  0.554331  0.883224  0.251842  1
  Co  Co13  1  0.053695  0.616790  0.752862  1
  Rh  Rh14  1  0.947108  0.385362  0.246103  1
  Rh  Rh15  1  0.444883  0.115064  0.748850  1
