# generated using pymatgen
data_Sm4Lu6Sn7Pb
_symmetry_space_group_name_H-M   'P 1'
_cell_length_a   8.01432900
_cell_length_b   8.17631347
_cell_length_c   15.39251657
_cell_angle_alpha   90.10570220
_cell_angle_beta   90.00000000
_cell_angle_gamma   90.00000000
_symmetry_Int_Tables_number   1
_chemical_formula_structural   Sm4Lu6Sn7Pb
_chemical_formula_sum   'Sm8 Lu12 Sn14 Pb2'
_cell_volume   1008.63397030
_cell_formula_units_Z   2
loop_
 _symmetry_equiv_pos_site_id
 _symmetry_equiv_pos_as_xyz
  1  'x, y, z'
loop_
 _atom_site_type_symbol
 _atom_site_label
 _atom_site_symmetry_multiplicity
 _atom_site_fract_x
 _atom_site_fract_y
 _atom_site_fract_z
 _atom_site_occupancy
  Sm  Sm0  1  0.517883  0.324314  0.902737  1
  Sm  Sm1  1  0.017883  0.175686  0.597263  1
  Sm  Sm2  1  0.481071  0.680474  0.403559  1
  Sm  Sm3  1  0.981071  0.819526  0.096441  1
  Sm  Sm4  1  0.484191  0.675041  0.096686  1
  Sm  Sm5  1  0.984191  0.824959  0.403314  1
  Sm  Sm6  1  0.514282  0.320505  0.597237  1
  Sm  Sm7  1  0.014282  0.179495  0.902763  1
  Lu  Lu8  1  0.360111  0.835383  0.875037  1
  Lu  Lu9  1  0.860111  0.664617  0.624963  1
  Lu  Lu10  1  0.639889  0.159481  0.375389  1
  Lu  Lu11  1  0.139889  0.340519  0.124611  1
  Lu  Lu12  1  0.642626  0.162562  0.124514  1
  Lu  Lu13  1  0.142626  0.337438  0.375486  1
  Lu  Lu14  1  0.360026  0.837254  0.624125  1
  Lu  Lu15  1  0.860026  0.662746  0.875875  1
  Lu  Lu16  1  0.191417  0.504490  0.750256  1
  Lu  Lu17  1  0.691417  0.995510  0.749744  1
  Lu  Lu18  1  0.809036  0.495676  0.248120  1
  Lu  Lu19  1  0.309036  0.004324  0.251880  1
  Sn  Sn20  1  0.697270  0.958679  0.541951  1
  Sn  Sn21  1  0.197270  0.541321  0.958049  1
  Sn  Sn22  1  0.696070  0.959206  0.957836  1
  Sn  Sn23  1  0.196070  0.540794  0.542164  1
  Sn  Sn24  1  0.302974  0.042443  0.458851  1
  Sn  Sn25  1  0.802974  0.457557  0.041149  1
  Sn  Sn26  1  0.556662  0.623050  0.749393  1
  Sn  Sn27  1  0.056662  0.876950  0.750607  1
  Sn  Sn28  1  0.444812  0.375378  0.250499  1
  Sn  Sn29  1  0.944812  0.124622  0.249501  1
  Sn  Sn30  1  0.324984  0.146404  0.750495  1
  Sn  Sn31  1  0.824984  0.353596  0.749505  1
  Sn  Sn32  1  0.674410  0.852259  0.249993  1
  Sn  Sn33  1  0.174410  0.647741  0.250007  1
  Pb  Pb34  1  0.302286  0.041300  0.041707  1
  Pb  Pb35  1  0.802286  0.458700  0.458293  1
