# generated using pymatgen
data_Li6CeGdUN6
_symmetry_space_group_name_H-M   'P 1'
_cell_length_a   6.12932300
_cell_length_b   6.12932425
_cell_length_c   5.47556800
_cell_angle_alpha   90.00000000
_cell_angle_beta   90.00000000
_cell_angle_gamma   120.00000946
_symmetry_Int_Tables_number   1
_chemical_formula_structural   Li6CeGdUN6
_chemical_formula_sum   'Li6 Ce1 Gd1 U1 N6'
_cell_volume   178.14960829
_cell_formula_units_Z   1
loop_
 _symmetry_equiv_pos_site_id
 _symmetry_equiv_pos_as_xyz
  1  'x, y, z'
loop_
 _atom_site_type_symbol
 _atom_site_label
 _atom_site_symmetry_multiplicity
 _atom_site_fract_x
 _atom_site_fract_y
 _atom_site_fract_z
 _atom_site_occupancy
  Li  Li0  1  0.975740  0.646263  0.603528  1
  Li  Li1  1  0.353737  0.329477  0.603528  1
  Li  Li2  1  0.670523  0.024260  0.603528  1
  Li  Li3  1  0.004921  0.335708  0.394174  1
  Li  Li4  1  0.664292  0.669212  0.394174  1
  Li  Li5  1  0.330788  0.995079  0.394174  1
  Ce  Ce6  1  0.333333  0.666667  0.993019  1
  Gd  Gd7  1  0.000000  0.000000  0.997442  1
  U  U8  1  0.666667  0.333333  0.007105  1
  N  N9  1  0.981075  0.644712  0.226651  1
  N  N10  1  0.355288  0.336362  0.226651  1
  N  N11  1  0.663638  0.018925  0.226651  1
  N  N12  1  0.977108  0.336687  0.776457  1
  N  N13  1  0.663313  0.640421  0.776457  1
  N  N14  1  0.359579  0.022892  0.776457  1
