# generated using pymatgen
data_BaPdCl6
_symmetry_space_group_name_H-M   'P 1'
_cell_length_a   6.65134886
_cell_length_b   6.65134951
_cell_length_c   11.16913361
_cell_angle_alpha   86.02986830
_cell_angle_beta   86.02987032
_cell_angle_gamma   67.06741193
_symmetry_Int_Tables_number   1
_chemical_formula_structural   BaPdCl6
_chemical_formula_sum   'Ba2 Pd2 Cl12'
_cell_volume   453.50103904
_cell_formula_units_Z   2
loop_
 _symmetry_equiv_pos_site_id
 _symmetry_equiv_pos_as_xyz
  1  'x, y, z'
loop_
 _atom_site_type_symbol
 _atom_site_label
 _atom_site_symmetry_multiplicity
 _atom_site_fract_x
 _atom_site_fract_y
 _atom_site_fract_z
 _atom_site_occupancy
  Ba  Ba0  1  0.006293  0.993707  0.250000  1
  Ba  Ba1  1  0.993707  0.006293  0.750000  1
  Pd  Pd2  1  0.000000  0.500000  0.000000  1
  Pd  Pd3  1  0.500000  0.000000  0.500000  1
  Cl  Cl4  1  0.157691  0.482938  0.185412  1
  Cl  Cl5  1  0.517062  0.842309  0.314588  1
  Cl  Cl6  1  0.842309  0.517062  0.814588  1
  Cl  Cl7  1  0.482938  0.157691  0.685412  1
  Cl  Cl8  1  0.798989  0.878458  0.013728  1
  Cl  Cl9  1  0.121542  0.201011  0.486272  1
  Cl  Cl10  1  0.201011  0.121542  0.986272  1
  Cl  Cl11  1  0.878458  0.798989  0.513728  1
  Cl  Cl12  1  0.716482  0.426471  0.105323  1
  Cl  Cl13  1  0.573529  0.283518  0.394677  1
  Cl  Cl14  1  0.283518  0.573529  0.894677  1
  Cl  Cl15  1  0.426471  0.716482  0.605323  1
