# generated using pymatgen
data_Y4Al18ReNi4Pd
_symmetry_space_group_name_H-M   'P 1'
_cell_length_a   7.51630274
_cell_length_b   7.51630284
_cell_length_c   9.40047120
_cell_angle_alpha   90.34919820
_cell_angle_beta   90.34920987
_cell_angle_gamma   119.65780344
_symmetry_Int_Tables_number   1
_chemical_formula_structural   Y4Al18ReNi4Pd
_chemical_formula_sum   'Y4 Al18 Re1 Ni4 Pd1'
_cell_volume   461.47064883
_cell_formula_units_Z   1
loop_
 _symmetry_equiv_pos_site_id
 _symmetry_equiv_pos_as_xyz
  1  'x, y, z'
loop_
 _atom_site_type_symbol
 _atom_site_label
 _atom_site_symmetry_multiplicity
 _atom_site_fract_x
 _atom_site_fract_y
 _atom_site_fract_z
 _atom_site_occupancy
  Y  Y0  1  0.990868  0.666681  0.247541  1
  Y  Y1  1  0.000737  0.326969  0.751699  1
  Y  Y2  1  0.673031  0.999263  0.248301  1
  Y  Y3  1  0.333319  0.009132  0.752459  1
  Al  Al4  1  0.127628  0.128193  0.245115  1
  Al  Al5  1  0.871807  0.872372  0.754885  1
  Al  Al6  1  0.006053  0.335266  0.071539  1
  Al  Al7  1  0.004325  0.665066  0.927593  1
  Al  Al8  1  0.002525  0.663416  0.574922  1
  Al  Al9  1  0.336584  0.997475  0.425078  1
  Al  Al10  1  0.000935  0.341781  0.426569  1
  Al  Al11  1  0.658219  0.999065  0.573431  1
  Al  Al12  1  0.664734  0.993947  0.928461  1
  Al  Al13  1  0.334934  0.995675  0.072407  1
  Al  Al14  1  0.336997  0.339717  0.553049  1
  Al  Al15  1  0.660283  0.663003  0.446951  1
  Al  Al16  1  0.668837  0.667095  0.046512  1
  Al  Al17  1  0.332905  0.331163  0.953488  1
  Al  Al18  1  0.338427  0.555186  0.249631  1
  Al  Al19  1  0.661114  0.453446  0.748070  1
  Al  Al20  1  0.546554  0.338886  0.251930  1
  Al  Al21  1  0.444814  0.661573  0.750369  1
  Re  Re22  1  0.673807  0.326193  0.000000  1
  Ni  Ni23  1  0.330744  0.669256  0.000000  1
  Ni  Ni24  1  0.328435  0.671565  0.500000  1
  Ni  Ni25  1  0.670743  0.329257  0.500000  1
  Ni  Ni26  1  0.001624  0.998376  0.000000  1
  Pd  Pd27  1  0.999018  0.000982  0.500000  1
