# generated using pymatgen
data_Pu4VTc3B16
_symmetry_space_group_name_H-M   'P 1'
_cell_length_a   3.56365200
_cell_length_b   5.98904939
_cell_length_c   11.58935027
_cell_angle_alpha   90.15315159
_cell_angle_beta   90.00000000
_cell_angle_gamma   90.00000000
_symmetry_Int_Tables_number   1
_chemical_formula_structural   Pu4VTc3B16
_chemical_formula_sum   'Pu4 V1 Tc3 B16'
_cell_volume   247.34931930
_cell_formula_units_Z   1
loop_
 _symmetry_equiv_pos_site_id
 _symmetry_equiv_pos_as_xyz
  1  'x, y, z'
loop_
 _atom_site_type_symbol
 _atom_site_label
 _atom_site_symmetry_multiplicity
 _atom_site_fract_x
 _atom_site_fract_y
 _atom_site_fract_z
 _atom_site_occupancy
  Pu  Pu0  1  0.000000  0.626354  0.348918  1
  Pu  Pu1  1  0.000000  0.373708  0.649931  1
  Pu  Pu2  1  0.000000  0.124870  0.151110  1
  Pu  Pu3  1  0.000000  0.874010  0.849063  1
  V  V4  1  0.000000  0.629699  0.085304  1
  Tc  Tc5  1  0.000000  0.372708  0.915382  1
  Tc  Tc6  1  0.000000  0.136101  0.410459  1
  Tc  Tc7  1  0.000000  0.863424  0.590217  1
  B  B8  1  0.500000  0.786230  0.185542  1
  B  B9  1  0.500000  0.214261  0.814950  1
  B  B10  1  0.500000  0.286574  0.313099  1
  B  B11  1  0.500000  0.712475  0.686558  1
  B  B12  1  0.500000  0.865133  0.032421  1
  B  B13  1  0.500000  0.135205  0.967778  1
  B  B14  1  0.500000  0.365023  0.467935  1
  B  B15  1  0.500000  0.634686  0.531438  1
  B  B16  1  0.500000  0.885578  0.452773  1
  B  B17  1  0.500000  0.113784  0.547028  1
  B  B18  1  0.500000  0.385702  0.047027  1
  B  B19  1  0.500000  0.614406  0.953154  1
  B  B20  1  0.500000  0.974141  0.307482  1
  B  B21  1  0.500000  0.026343  0.692436  1
  B  B22  1  0.500000  0.476241  0.191811  1
  B  B23  1  0.500000  0.523343  0.808184  1
