# generated using pymatgen
data_Pr2Th2Zn10GaGe
_symmetry_space_group_name_H-M   'P 1'
_cell_length_a   8.42106326
_cell_length_b   8.42106474
_cell_length_c   8.93603000
_cell_angle_alpha   90.00000000
_cell_angle_beta   90.00000000
_cell_angle_gamma   149.13553294
_symmetry_Int_Tables_number   1
_chemical_formula_structural   Pr2Th2Zn10GaGe
_chemical_formula_sum   'Pr2 Th2 Zn10 Ga1 Ge1'
_cell_volume   325.08995214
_cell_formula_units_Z   1
loop_
 _symmetry_equiv_pos_site_id
 _symmetry_equiv_pos_as_xyz
  1  'x, y, z'
loop_
 _atom_site_type_symbol
 _atom_site_label
 _atom_site_symmetry_multiplicity
 _atom_site_fract_x
 _atom_site_fract_y
 _atom_site_fract_z
 _atom_site_occupancy
  Pr  Pr0  1  0.000441  0.999559  0.497544  1
  Pr  Pr1  1  0.000441  0.999559  0.002456  1
  Th  Th2  1  0.204438  0.795562  0.250000  1
  Th  Th3  1  0.795601  0.204399  0.750000  1
  Zn  Zn4  1  0.814043  0.185957  0.393058  1
  Zn  Zn5  1  0.186232  0.813768  0.607014  1
  Zn  Zn6  1  0.814043  0.185957  0.106942  1
  Zn  Zn7  1  0.186232  0.813768  0.892986  1
  Zn  Zn8  1  0.652983  0.347017  0.480571  1
  Zn  Zn9  1  0.347814  0.652186  0.520992  1
  Zn  Zn10  1  0.652983  0.347017  0.019429  1
  Zn  Zn11  1  0.347814  0.652186  0.979008  1
  Zn  Zn12  1  0.402002  0.597998  0.250000  1
  Zn  Zn13  1  0.595222  0.404778  0.750000  1
  Ga  Ga14  1  0.441751  0.558249  0.750000  1
  Ge  Ge15  1  0.557958  0.442042  0.250000  1
