# generated using pymatgen
data_Sc6ReSi6Tc5
_symmetry_space_group_name_H-M   'P 1'
_cell_length_a   7.76004113
_cell_length_b   7.77132064
_cell_length_c   7.76459399
_cell_angle_alpha   126.67177020
_cell_angle_beta   127.61717823
_cell_angle_gamma   77.98344275
_symmetry_Int_Tables_number   1
_chemical_formula_structural   Sc6ReSi6Tc5
_chemical_formula_sum   'Sc6 Re1 Si6 Tc5'
_cell_volume   288.34237577
_cell_formula_units_Z   1
loop_
 _symmetry_equiv_pos_site_id
 _symmetry_equiv_pos_as_xyz
  1  'x, y, z'
loop_
 _atom_site_type_symbol
 _atom_site_label
 _atom_site_symmetry_multiplicity
 _atom_site_fract_x
 _atom_site_fract_y
 _atom_site_fract_z
 _atom_site_occupancy
  Sc  Sc0  1  0.554168  0.104072  0.049965  1
  Sc  Sc1  1  0.446297  0.497603  0.552340  1
  Sc  Sc2  1  0.945385  0.497576  0.051233  1
  Sc  Sc3  1  0.054008  0.103991  0.549872  1
  Sc  Sc4  1  0.751275  0.888648  0.638490  1
  Sc  Sc5  1  0.250030  0.888506  0.137305  1
  Re  Re6  1  0.369389  0.496014  0.126891  1
  Si  Si7  1  0.750860  0.496298  0.248049  1
  Si  Si8  1  0.248112  0.496176  0.745356  1
  Si  Si9  1  0.334400  0.828958  0.494747  1
  Si  Si10  1  0.666084  0.163517  0.497231  1
  Si  Si11  1  0.833711  0.831193  0.997329  1
  Si  Si12  1  0.168234  0.166397  0.998387  1
  Tc  Tc13  1  0.499704  0.237380  0.737545  1
  Tc  Tc14  1  0.999731  0.236099  0.236232  1
  Tc  Tc15  1  0.130225  0.757143  0.627086  1
  Tc  Tc16  1  0.869026  0.496331  0.627407  1
  Tc  Tc17  1  0.629362  0.756298  0.126737  1
