# generated using pymatgen
data_Sm2Fe7Co5P7
_symmetry_space_group_name_H-M   'P 1'
_cell_length_a   9.02290517
_cell_length_b   9.03047079
_cell_length_c   3.62524000
_cell_angle_alpha   90.00000000
_cell_angle_beta   90.00000000
_cell_angle_gamma   119.87627945
_symmetry_Int_Tables_number   1
_chemical_formula_structural   Sm2Fe7Co5P7
_chemical_formula_sum   'Sm2 Fe7 Co5 P7'
_cell_volume   256.13224839
_cell_formula_units_Z   1
loop_
 _symmetry_equiv_pos_site_id
 _symmetry_equiv_pos_as_xyz
  1  'x, y, z'
loop_
 _atom_site_type_symbol
 _atom_site_label
 _atom_site_symmetry_multiplicity
 _atom_site_fract_x
 _atom_site_fract_y
 _atom_site_fract_z
 _atom_site_occupancy
  Sm  Sm0  1  0.333628  0.666400  0.000000  1
  Sm  Sm1  1  0.666254  0.333274  0.500000  1
  Fe  Fe2  1  0.152546  0.879395  0.000000  1
  Fe  Fe3  1  0.119940  0.272414  0.000000  1
  Fe  Fe4  1  0.729935  0.849768  0.000000  1
  Fe  Fe5  1  0.566057  0.615480  0.500000  1
  Fe  Fe6  1  0.229709  0.127327  0.500000  1
  Fe  Fe7  1  0.872294  0.103492  0.500000  1
  Fe  Fe8  1  0.899131  0.773376  0.500000  1
  Co  Co9  1  0.429829  0.369611  0.000000  1
  Co  Co10  1  0.627643  0.059038  0.000000  1
  Co  Co11  1  0.939384  0.568386  0.000000  1
  Co  Co12  1  0.385358  0.949873  0.500000  1
  Co  Co13  1  0.049253  0.434418  0.500000  1
  P  P14  1  0.403425  0.107704  0.000000  1
  P  P15  1  0.891133  0.295062  0.000000  1
  P  P16  1  0.702022  0.596064  0.000000  1
  P  P17  1  0.108834  0.711365  0.500000  1
  P  P18  1  0.290065  0.399246  0.500000  1
  P  P19  1  0.602268  0.887582  0.500000  1
  P  P20  1  0.001290  0.000725  0.000000  1
