# generated using pymatgen
data_VAsBr2(OF8)2
_symmetry_space_group_name_H-M   'P 1'
_cell_length_a   8.88312727
_cell_length_b   8.86481143
_cell_length_c   8.94009723
_cell_angle_alpha   89.14594882
_cell_angle_beta   90.12123175
_cell_angle_gamma   89.35458314
_symmetry_Int_Tables_number   1
_chemical_formula_structural   VAsBr2(OF8)2
_chemical_formula_sum   'V2 As2 Br4 O4 F32'
_cell_volume   703.88334792
_cell_formula_units_Z   2
loop_
 _symmetry_equiv_pos_site_id
 _symmetry_equiv_pos_as_xyz
  1  'x, y, z'
loop_
 _atom_site_type_symbol
 _atom_site_label
 _atom_site_symmetry_multiplicity
 _atom_site_fract_x
 _atom_site_fract_y
 _atom_site_fract_z
 _atom_site_occupancy
  V  V0  1  0.638799  0.889598  0.637478  1
  V  V1  1  0.862577  0.612609  0.136888  1
  As  As2  1  0.365256  0.383682  0.864534  1
  As  As3  1  0.135927  0.113546  0.364490  1
  Br  Br4  1  0.772035  0.458482  0.693266  1
  Br  Br5  1  0.196960  0.975649  0.793237  1
  Br  Br6  1  0.698647  0.022452  0.204657  1
  Br  Br7  1  0.272595  0.545758  0.299579  1
  O  O8  1  0.713730  0.379731  0.546692  1
  O  O9  1  0.049114  0.039825  0.868900  1
  O  O10  1  0.551151  0.960390  0.128311  1
  O  O11  1  0.209110  0.618805  0.447319  1
  F  F12  1  0.648680  0.674002  0.621858  1
  F  F13  1  0.881199  0.616679  0.934492  1
  F  F14  1  0.570173  0.366424  0.858893  1
  F  F15  1  0.362896  0.177052  0.875417  1
  F  F16  1  0.123507  0.109716  0.569517  1
  F  F17  1  0.434707  0.871376  0.637674  1
  F  F18  1  0.855818  0.827566  0.126075  1
  F  F19  1  0.628920  0.893875  0.426440  1
  F  F20  1  0.935821  0.128847  0.363520  1
  F  F21  1  0.138918  0.318134  0.379268  1
  F  F22  1  0.380994  0.382484  0.063033  1
  F  F23  1  0.076848  0.628760  0.147675  1
  F  F24  1  0.624095  0.087896  0.641309  1
  F  F25  1  0.859585  0.628398  0.335004  1
  F  F26  1  0.169085  0.388033  0.876289  1
  F  F27  1  0.379934  0.580002  0.857817  1
  F  F28  1  0.141674  0.129584  0.169746  1
  F  F29  1  0.837969  0.890569  0.622221  1
  F  F30  1  0.881542  0.414533  0.144355  1
  F  F31  1  0.645645  0.868968  0.834569  1
  F  F32  1  0.332065  0.109333  0.380313  1
  F  F33  1  0.125095  0.917000  0.363346  1
  F  F34  1  0.361901  0.371503  0.669246  1
  F  F35  1  0.664527  0.609517  0.123670  1
  F  F36  1  0.945908  0.538344  0.634469  1
  F  F37  1  0.869704  0.305954  0.785808  1
  F  F38  1  0.288095  0.879298  0.944870  1
  F  F39  1  0.135299  0.802147  0.717898  1
  F  F40  1  0.784753  0.122249  0.052935  1
  F  F41  1  0.632831  0.195920  0.282463  1
  F  F42  1  0.447942  0.466727  0.363127  1
  F  F43  1  0.367971  0.698581  0.211337  1
