# generated using pymatgen
data_LiNd19Rh12
_symmetry_space_group_name_H-M   'P 1'
_cell_length_a   11.22534400
_cell_length_b   11.22534400
_cell_length_c   6.50839900
_cell_angle_alpha   90.00000000
_cell_angle_beta   90.00000000
_cell_angle_gamma   90.00000000
_symmetry_Int_Tables_number   1
_chemical_formula_structural   LiNd19Rh12
_chemical_formula_sum   'Li1 Nd19 Rh12'
_cell_volume   820.11260558
_cell_formula_units_Z   1
loop_
 _symmetry_equiv_pos_site_id
 _symmetry_equiv_pos_as_xyz
  1  'x, y, z'
loop_
 _atom_site_type_symbol
 _atom_site_label
 _atom_site_symmetry_multiplicity
 _atom_site_fract_x
 _atom_site_fract_y
 _atom_site_fract_z
 _atom_site_occupancy
  Li  Li0  1  0.000000  0.000000  0.000000  1
  Nd  Nd1  1  0.084297  0.275827  0.113683  1
  Nd  Nd2  1  0.792689  0.414280  0.117301  1
  Nd  Nd3  1  0.207311  0.585720  0.117301  1
  Nd  Nd4  1  0.915703  0.724173  0.113683  1
  Nd  Nd5  1  0.409162  0.792033  0.384105  1
  Nd  Nd6  1  0.590838  0.207967  0.384105  1
  Nd  Nd7  1  0.291372  0.089139  0.385987  1
  Nd  Nd8  1  0.708628  0.910861  0.385987  1
  Nd  Nd9  1  0.414280  0.207311  0.882699  1
  Nd  Nd10  1  0.724173  0.084297  0.886317  1
  Nd  Nd11  1  0.275827  0.915703  0.886317  1
  Nd  Nd12  1  0.585720  0.792689  0.882699  1
  Nd  Nd13  1  0.089139  0.708628  0.614013  1
  Nd  Nd14  1  0.910861  0.291372  0.614013  1
  Nd  Nd15  1  0.207967  0.409162  0.615895  1
  Nd  Nd16  1  0.792033  0.590838  0.615895  1
  Nd  Nd17  1  0.500000  0.500000  0.000000  1
  Nd  Nd18  1  0.500000  0.500000  0.500000  1
  Nd  Nd19  1  0.000000  0.000000  0.500000  1
  Rh  Rh20  1  0.155754  0.844978  0.257931  1
  Rh  Rh21  1  0.344337  0.344495  0.247830  1
  Rh  Rh22  1  0.655663  0.655505  0.247830  1
  Rh  Rh23  1  0.844246  0.155022  0.257931  1
  Rh  Rh24  1  0.344495  0.655663  0.752170  1
  Rh  Rh25  1  0.155022  0.155754  0.742069  1
  Rh  Rh26  1  0.844978  0.844246  0.742069  1
  Rh  Rh27  1  0.655505  0.344337  0.752170  1
  Rh  Rh28  1  0.000000  0.500000  0.376041  1
  Rh  Rh29  1  0.500000  0.000000  0.115800  1
  Rh  Rh30  1  0.500000  0.000000  0.623959  1
  Rh  Rh31  1  0.000000  0.500000  0.884200  1
