# generated using pymatgen
data_La2Nd2HgRh
_symmetry_space_group_name_H-M   'P 1'
_cell_length_a   10.00814755
_cell_length_b   10.00814816
_cell_length_c   10.03283200
_cell_angle_alpha   59.91837941
_cell_angle_beta   59.91837738
_cell_angle_gamma   60.16324210
_symmetry_Int_Tables_number   1
_chemical_formula_structural   La2Nd2HgRh
_chemical_formula_sum   'La8 Nd8 Hg4 Rh4'
_cell_volume   710.57621676
_cell_formula_units_Z   4
loop_
 _symmetry_equiv_pos_site_id
 _symmetry_equiv_pos_as_xyz
  1  'x, y, z'
loop_
 _atom_site_type_symbol
 _atom_site_label
 _atom_site_symmetry_multiplicity
 _atom_site_fract_x
 _atom_site_fract_y
 _atom_site_fract_z
 _atom_site_occupancy
  La  La0  1  0.599166  0.599166  0.600948  1
  La  La1  1  0.599166  0.599166  0.200721  1
  La  La2  1  0.600948  0.200721  0.599166  1
  La  La3  1  0.200721  0.600948  0.599166  1
  La  La4  1  0.059554  0.440446  0.440446  1
  La  La5  1  0.440446  0.059554  0.059554  1
  La  La6  1  0.440446  0.059554  0.440446  1
  La  La7  1  0.059554  0.440446  0.059554  1
  Nd  Nd8  1  0.442340  0.442340  0.057660  1
  Nd  Nd9  1  0.057660  0.057660  0.442340  1
  Nd  Nd10  1  0.186304  0.813696  0.813696  1
  Nd  Nd11  1  0.813696  0.186304  0.186304  1
  Nd  Nd12  1  0.813696  0.186304  0.813696  1
  Nd  Nd13  1  0.186304  0.813696  0.186304  1
  Nd  Nd14  1  0.813551  0.813551  0.186449  1
  Nd  Nd15  1  0.186449  0.186449  0.813551  1
  Hg  Hg16  1  0.834788  0.834788  0.833742  1
  Hg  Hg17  1  0.834788  0.834788  0.496681  1
  Hg  Hg18  1  0.833742  0.496681  0.834788  1
  Hg  Hg19  1  0.496681  0.833742  0.834788  1
  Rh  Rh20  1  0.390711  0.390711  0.393740  1
  Rh  Rh21  1  0.390711  0.390711  0.824838  1
  Rh  Rh22  1  0.393740  0.824838  0.390711  1
  Rh  Rh23  1  0.824838  0.393740  0.390711  1
