# generated using pymatgen
data_Th8Ta5Si16Mo7
_symmetry_space_group_name_H-M   'P 1'
_cell_length_a   7.08868701
_cell_length_b   7.08937717
_cell_length_c   13.23563302
_cell_angle_alpha   90.06439486
_cell_angle_beta   90.14801822
_cell_angle_gamma   89.98714766
_symmetry_Int_Tables_number   1
_chemical_formula_structural   Th8Ta5Si16Mo7
_chemical_formula_sum   'Th8 Ta5 Si16 Mo7'
_cell_volume   665.14582052
_cell_formula_units_Z   1
loop_
 _symmetry_equiv_pos_site_id
 _symmetry_equiv_pos_as_xyz
  1  'x, y, z'
loop_
 _atom_site_type_symbol
 _atom_site_label
 _atom_site_symmetry_multiplicity
 _atom_site_fract_x
 _atom_site_fract_y
 _atom_site_fract_z
 _atom_site_occupancy
  Th  Th0  1  0.002275  0.335499  0.220462  1
  Th  Th1  1  0.996479  0.663509  0.720105  1
  Th  Th2  1  0.166061  0.501436  0.470836  1
  Th  Th3  1  0.499374  0.833113  0.029665  1
  Th  Th4  1  0.833885  0.494742  0.968987  1
  Th  Th5  1  0.504017  0.164436  0.529929  1
  Th  Th6  1  0.336424  0.002696  0.778586  1
  Th  Th7  1  0.665242  0.998363  0.281141  1
  Ta  Ta8  1  0.164795  0.165862  0.999031  1
  Ta  Ta9  1  0.832029  0.834849  0.501297  1
  Ta  Ta10  1  0.333702  0.666308  0.249598  1
  Ta  Ta11  1  0.666386  0.333960  0.749663  1
  Ta  Ta12  1  0.004305  0.834020  0.126283  1
  Si  Si13  1  0.289152  0.037340  0.186212  1
  Si  Si14  1  0.722845  0.971846  0.687839  1
  Si  Si15  1  0.466706  0.782838  0.436307  1
  Si  Si16  1  0.216363  0.531006  0.062821  1
  Si  Si17  1  0.530879  0.215741  0.936465  1
  Si  Si18  1  0.781943  0.468017  0.563447  1
  Si  Si19  1  0.029438  0.277648  0.812183  1
  Si  Si20  1  0.965526  0.715804  0.316384  1
  Si  Si21  1  0.382701  0.302540  0.313026  1
  Si  Si22  1  0.616061  0.698209  0.813253  1
  Si  Si23  1  0.198782  0.882828  0.563300  1
  Si  Si24  1  0.117801  0.798395  0.934577  1
  Si  Si25  1  0.796883  0.120398  0.065183  1
  Si  Si26  1  0.882794  0.199266  0.436237  1
  Si  Si27  1  0.301656  0.384233  0.685961  1
  Si  Si28  1  0.697306  0.616927  0.187349  1
  Mo  Mo29  1  0.168640  0.001009  0.373771  1
  Mo  Mo30  1  0.825986  0.996990  0.879823  1
  Mo  Mo31  1  0.499527  0.671426  0.625543  1
  Mo  Mo32  1  0.329308  0.497329  0.873976  1
  Mo  Mo33  1  0.498341  0.329140  0.125208  1
  Mo  Mo34  1  0.670069  0.497978  0.374596  1
  Mo  Mo35  1  0.006319  0.174301  0.620956  1
