# generated using pymatgen
data_TbNd6Er3(In2Pd)4
_symmetry_space_group_name_H-M   'P 1'
_cell_length_a   8.31066095
_cell_length_b   18.43850380
_cell_length_c   3.73843000
_cell_angle_alpha   90.00000000
_cell_angle_beta   90.00000000
_cell_angle_gamma   90.09374547
_symmetry_Int_Tables_number   1
_chemical_formula_structural   TbNd6Er3(In2Pd)4
_chemical_formula_sum   'Tb1 Nd6 Er3 In8 Pd4'
_cell_volume   572.86186676
_cell_formula_units_Z   1
loop_
 _symmetry_equiv_pos_site_id
 _symmetry_equiv_pos_as_xyz
  1  'x, y, z'
loop_
 _atom_site_type_symbol
 _atom_site_label
 _atom_site_symmetry_multiplicity
 _atom_site_fract_x
 _atom_site_fract_y
 _atom_site_fract_z
 _atom_site_occupancy
  Tb  Tb0  1  0.118105  0.414524  0.000000  1
  Nd  Nd1  1  0.498627  0.500745  0.000000  1
  Nd  Nd2  1  0.000608  0.999769  0.000000  1
  Nd  Nd3  1  0.734315  0.286071  0.000000  1
  Nd  Nd4  1  0.266682  0.713331  0.000000  1
  Nd  Nd5  1  0.767053  0.787676  0.000000  1
  Nd  Nd6  1  0.233803  0.212577  0.000000  1
  Er  Er7  1  0.617713  0.085608  0.000000  1
  Er  Er8  1  0.382828  0.913898  0.000000  1
  Er  Er9  1  0.881040  0.586823  0.000000  1
  In  In10  1  0.693413  0.939227  0.500000  1
  In  In11  1  0.307237  0.061020  0.500000  1
  In  In12  1  0.803612  0.438817  0.500000  1
  In  In13  1  0.192147  0.562408  0.500000  1
  In  In14  1  0.593041  0.653509  0.500000  1
  In  In15  1  0.410075  0.346563  0.500000  1
  In  In16  1  0.906185  0.151972  0.500000  1
  In  In17  1  0.094309  0.847140  0.500000  1
  Pd  Pd18  1  0.523146  0.192488  0.500000  1
  Pd  Pd19  1  0.477317  0.806648  0.500000  1
  Pd  Pd20  1  0.975533  0.694300  0.500000  1
  Pd  Pd21  1  0.023214  0.304888  0.500000  1
