# generated using pymatgen
data_Tb4Lu4B24Ru3W
_symmetry_space_group_name_H-M   'P 1'
_cell_length_a   3.62001000
_cell_length_b   9.12012801
_cell_length_c   11.52569383
_cell_angle_alpha   89.85804991
_cell_angle_beta   90.00000000
_cell_angle_gamma   90.00000000
_symmetry_Int_Tables_number   1
_chemical_formula_structural   Tb4Lu4B24Ru3W
_chemical_formula_sum   'Tb4 Lu4 B24 Ru3 W1'
_cell_volume   380.51909059
_cell_formula_units_Z   1
loop_
 _symmetry_equiv_pos_site_id
 _symmetry_equiv_pos_as_xyz
  1  'x, y, z'
loop_
 _atom_site_type_symbol
 _atom_site_label
 _atom_site_symmetry_multiplicity
 _atom_site_fract_x
 _atom_site_fract_y
 _atom_site_fract_z
 _atom_site_occupancy
  Tb  Tb0  1  0.000000  0.320965  0.413810  1
  Tb  Tb1  1  0.000000  0.678130  0.585308  1
  Tb  Tb2  1  0.000000  0.820573  0.086288  1
  Tb  Tb3  1  0.000000  0.177358  0.914947  1
  Lu  Lu4  1  0.000000  0.946369  0.373056  1
  Lu  Lu5  1  0.000000  0.057382  0.628837  1
  Lu  Lu6  1  0.000000  0.442743  0.126250  1
  Lu  Lu7  1  0.000000  0.556538  0.870890  1
  B  B8  1  0.500000  0.550637  0.435957  1
  B  B9  1  0.500000  0.444916  0.569092  1
  B  B10  1  0.500000  0.055009  0.067340  1
  B  B11  1  0.500000  0.945338  0.932481  1
  B  B12  1  0.500000  0.753988  0.421457  1
  B  B13  1  0.500000  0.250008  0.582315  1
  B  B14  1  0.500000  0.249834  0.080799  1
  B  B15  1  0.500000  0.749853  0.918102  1
  B  B16  1  0.500000  0.796563  0.263819  1
  B  B17  1  0.500000  0.208029  0.734739  1
  B  B18  1  0.500000  0.290805  0.232870  1
  B  B19  1  0.500000  0.708824  0.765422  1
  B  B20  1  0.500000  0.630788  0.181131  1
  B  B21  1  0.500000  0.368919  0.815779  1
  B  B22  1  0.500000  0.130762  0.315001  1
  B  B23  1  0.500000  0.870264  0.684735  1
  B  B24  1  0.500000  0.984183  0.213216  1
  B  B25  1  0.500000  0.016871  0.787428  1
  B  B26  1  0.500000  0.476940  0.285524  1
  B  B27  1  0.500000  0.516216  0.713838  1
  B  B28  1  0.500000  0.602215  0.026090  1
  B  B29  1  0.500000  0.396716  0.970847  1
  B  B30  1  0.500000  0.103812  0.472617  1
  B  B31  1  0.500000  0.899985  0.529452  1
  Ru  Ru32  1  0.000000  0.360361  0.681389  1
  Ru  Ru33  1  0.000000  0.138651  0.179310  1
  Ru  Ru34  1  0.000000  0.861044  0.819463  1
  W  W35  1  0.000000  0.638410  0.320398  1
