# generated using pymatgen
data_UPa2(TiCl6)3
_symmetry_space_group_name_H-M   'P 1'
_cell_length_a   6.46413658
_cell_length_b   6.46560115
_cell_length_c   20.70724044
_cell_angle_alpha   89.98187789
_cell_angle_beta   90.03944523
_cell_angle_gamma   120.01575332
_symmetry_Int_Tables_number   1
_chemical_formula_structural   UPa2(TiCl6)3
_chemical_formula_sum   'U1 Pa2 Ti3 Cl18'
_cell_volume   749.38194791
_cell_formula_units_Z   1
loop_
 _symmetry_equiv_pos_site_id
 _symmetry_equiv_pos_as_xyz
  1  'x, y, z'
loop_
 _atom_site_type_symbol
 _atom_site_label
 _atom_site_symmetry_multiplicity
 _atom_site_fract_x
 _atom_site_fract_y
 _atom_site_fract_z
 _atom_site_occupancy
  U  U0  1  0.651209  0.984023  0.665518  1
  Pa  Pa1  1  0.348456  0.016010  0.334345  1
  Pa  Pa2  1  0.666833  0.333776  0.000093  1
  Ti  Ti3  1  0.016144  0.349010  0.334351  1
  Ti  Ti4  1  0.333697  0.665870  0.000120  1
  Ti  Ti5  1  0.983823  0.651192  0.665533  1
  Cl  Cl6  1  0.335753  0.978709  0.072137  1
  Cl  Cl7  1  0.327258  0.661873  0.262633  1
  Cl  Cl8  1  0.018589  0.040072  0.261822  1
  Cl  Cl9  1  0.325228  0.346228  0.406828  1
  Cl  Cl10  1  0.678257  0.652601  0.594000  1
  Cl  Cl11  1  0.643119  0.663566  0.072587  1
  Cl  Cl12  1  0.016818  0.661077  0.406196  1
  Cl  Cl13  1  0.703499  0.348027  0.262418  1
  Cl  Cl14  1  0.984309  0.344393  0.594728  1
  Cl  Cl15  1  0.703197  0.037512  0.406097  1
  Cl  Cl16  1  0.644127  0.979074  0.928211  1
  Cl  Cl17  1  0.021002  0.355940  0.072107  1
  Cl  Cl18  1  0.982492  0.956333  0.737059  1
  Cl  Cl19  1  0.676248  0.343399  0.736319  1
  Cl  Cl20  1  0.291308  0.958937  0.594802  1
  Cl  Cl21  1  0.021457  0.664453  0.928030  1
  Cl  Cl22  1  0.336132  0.356835  0.927684  1
  Cl  Cl23  1  0.291046  0.651091  0.736381  1
