# generated using pymatgen
data_TmNb8GaSe16
_symmetry_space_group_name_H-M   'P 1'
_cell_length_a   7.04069000
_cell_length_b   7.04069052
_cell_length_c   14.47760800
_cell_angle_alpha   90.00000000
_cell_angle_beta   90.00000000
_cell_angle_gamma   119.99999756
_symmetry_Int_Tables_number   1
_chemical_formula_structural   TmNb8GaSe16
_chemical_formula_sum   'Tm1 Nb8 Ga1 Se16'
_cell_volume   621.52404294
_cell_formula_units_Z   1
loop_
 _symmetry_equiv_pos_site_id
 _symmetry_equiv_pos_as_xyz
  1  'x, y, z'
loop_
 _atom_site_type_symbol
 _atom_site_label
 _atom_site_symmetry_multiplicity
 _atom_site_fract_x
 _atom_site_fract_y
 _atom_site_fract_z
 _atom_site_occupancy
  Tm  Tm0  1  0.000000  0.000000  0.500000  1
  Nb  Nb1  1  0.000000  0.000000  0.257025  1
  Nb  Nb2  1  0.000000  0.000000  0.742975  1
  Nb  Nb3  1  0.504791  0.009582  0.253074  1
  Nb  Nb4  1  0.990418  0.495209  0.253074  1
  Nb  Nb5  1  0.504791  0.495209  0.253074  1
  Nb  Nb6  1  0.495209  0.990418  0.746926  1
  Nb  Nb7  1  0.009582  0.504791  0.746926  1
  Nb  Nb8  1  0.495209  0.504791  0.746926  1
  Ga  Ga9  1  0.000000  0.000000  0.000000  1
  Se  Se10  1  0.333333  0.666667  0.863276  1
  Se  Se11  1  0.666667  0.333333  0.136724  1
  Se  Se12  1  0.666667  0.333333  0.370239  1
  Se  Se13  1  0.333333  0.666667  0.629761  1
  Se  Se14  1  0.170139  0.829861  0.369638  1
  Se  Se15  1  0.170139  0.340278  0.369638  1
  Se  Se16  1  0.659722  0.829861  0.369638  1
  Se  Se17  1  0.829861  0.170139  0.630362  1
  Se  Se18  1  0.829861  0.659722  0.630362  1
  Se  Se19  1  0.340278  0.170139  0.630362  1
  Se  Se20  1  0.834677  0.165323  0.858501  1
  Se  Se21  1  0.834677  0.669355  0.858501  1
  Se  Se22  1  0.330645  0.165323  0.858501  1
  Se  Se23  1  0.165323  0.834677  0.141499  1
  Se  Se24  1  0.165323  0.330645  0.141499  1
  Se  Se25  1  0.669355  0.834677  0.141499  1
