# generated using pymatgen
data_Ti8Os7Ru
_symmetry_space_group_name_H-M   'P 1'
_cell_length_a   4.38049500
_cell_length_b   12.37210500
_cell_length_c   4.37891500
_cell_angle_alpha   90.00000000
_cell_angle_beta   90.00000000
_cell_angle_gamma   90.00269948
_symmetry_Int_Tables_number   1
_chemical_formula_structural   Ti8Os7Ru
_chemical_formula_sum   'Ti8 Os7 Ru1'
_cell_volume   237.31943239
_cell_formula_units_Z   1
loop_
 _symmetry_equiv_pos_site_id
 _symmetry_equiv_pos_as_xyz
  1  'x, y, z'
loop_
 _atom_site_type_symbol
 _atom_site_label
 _atom_site_symmetry_multiplicity
 _atom_site_fract_x
 _atom_site_fract_y
 _atom_site_fract_z
 _atom_site_occupancy
  Ti  Ti0  1  0.917415  0.000092  0.000000  1
  Ti  Ti1  1  0.915949  0.249917  0.000000  1
  Ti  Ti2  1  0.915978  0.500067  0.000000  1
  Ti  Ti3  1  0.917387  0.749907  0.000000  1
  Ti  Ti4  1  0.417358  0.000095  0.500000  1
  Ti  Ti5  1  0.415925  0.249897  0.500000  1
  Ti  Ti6  1  0.415939  0.500088  0.500000  1
  Ti  Ti7  1  0.417347  0.749938  0.500000  1
  Os  Os8  1  0.415850  0.374713  0.000000  1
  Os  Os9  1  0.416678  0.625000  0.000000  1
  Os  Os10  1  0.417510  0.875285  0.000000  1
  Os  Os11  1  0.916642  0.125002  0.500000  1
  Os  Os12  1  0.915822  0.374865  0.500000  1
  Os  Os13  1  0.916646  0.624999  0.500000  1
  Os  Os14  1  0.917472  0.875134  0.500000  1
  Ru  Ru15  1  0.416670  0.125002  0.000000  1
