# generated using pymatgen
data_CaDyNiIr3
_symmetry_space_group_name_H-M   'P 1'
_cell_length_a   5.21415653
_cell_length_b   5.21415661
_cell_length_c   5.21415578
_cell_angle_alpha   61.91682493
_cell_angle_beta   61.91684379
_cell_angle_gamma   61.91682133
_symmetry_Int_Tables_number   1
_chemical_formula_structural   CaDyNiIr3
_chemical_formula_sum   'Ca1 Dy1 Ni1 Ir3'
_cell_volume   104.53941472
_cell_formula_units_Z   1
loop_
 _symmetry_equiv_pos_site_id
 _symmetry_equiv_pos_as_xyz
  1  'x, y, z'
loop_
 _atom_site_type_symbol
 _atom_site_label
 _atom_site_symmetry_multiplicity
 _atom_site_fract_x
 _atom_site_fract_y
 _atom_site_fract_z
 _atom_site_occupancy
  Ca  Ca0  1  0.999509  0.999509  0.999509  1
  Dy  Dy1  1  0.249157  0.249157  0.249157  1
  Ni  Ni2  1  0.625780  0.625780  0.625780  1
  Ir  Ir3  1  0.125306  0.625124  0.625124  1
  Ir  Ir4  1  0.625124  0.125306  0.625124  1
  Ir  Ir5  1  0.625124  0.625124  0.125306  1
