# generated using pymatgen
data_Tm3PaGe6Rh7
_symmetry_space_group_name_H-M   'P 1'
_cell_length_a   7.27252375
_cell_length_b   7.24351955
_cell_length_c   7.24351926
_cell_angle_alpha   109.38996751
_cell_angle_beta   109.55235636
_cell_angle_gamma   109.55235134
_symmetry_Int_Tables_number   1
_chemical_formula_structural   Tm3PaGe6Rh7
_chemical_formula_sum   'Tm3 Pa1 Ge6 Rh7'
_cell_volume   293.44496877
_cell_formula_units_Z   1
loop_
 _symmetry_equiv_pos_site_id
 _symmetry_equiv_pos_as_xyz
  1  'x, y, z'
loop_
 _atom_site_type_symbol
 _atom_site_label
 _atom_site_symmetry_multiplicity
 _atom_site_fract_x
 _atom_site_fract_y
 _atom_site_fract_z
 _atom_site_occupancy
  Tm  Tm0  1  0.500000  0.500000  0.500000  1
  Tm  Tm1  1  0.000000  0.500000  0.000000  1
  Tm  Tm2  1  0.000000  0.000000  0.500000  1
  Pa  Pa3  1  0.500000  0.000000  0.000000  1
  Ge  Ge4  1  0.685044  0.000000  0.679436  1
  Ge  Ge5  1  0.685044  0.679436  0.000000  1
  Ge  Ge6  1  0.314956  0.320564  0.000000  1
  Ge  Ge7  1  0.994392  0.679436  0.679436  1
  Ge  Ge8  1  0.005608  0.320564  0.320564  1
  Ge  Ge9  1  0.314956  0.000000  0.320564  1
  Rh  Rh10  1  0.747722  0.495443  0.247722  1
  Rh  Rh11  1  0.500000  0.247722  0.752278  1
  Rh  Rh12  1  0.747722  0.247722  0.495443  1
  Rh  Rh13  1  0.252278  0.752278  0.504557  1
  Rh  Rh14  1  0.252278  0.504557  0.752278  1
  Rh  Rh15  1  0.500000  0.752278  0.247722  1
  Rh  Rh16  1  0.000000  0.000000  0.000000  1
