# generated using pymatgen
data_Ca2HoPaN4
_symmetry_space_group_name_H-M   'P 1'
_cell_length_a   6.93353341
_cell_length_b   9.25190562
_cell_length_c   6.12567104
_cell_angle_alpha   29.05413701
_cell_angle_beta   55.53237275
_cell_angle_gamma   41.46011552
_symmetry_Int_Tables_number   1
_chemical_formula_structural   Ca2HoPaN4
_chemical_formula_sum   'Ca2 Ho1 Pa1 N4'
_cell_volume   121.39339862
_cell_formula_units_Z   1
loop_
 _symmetry_equiv_pos_site_id
 _symmetry_equiv_pos_as_xyz
  1  'x, y, z'
loop_
 _atom_site_type_symbol
 _atom_site_label
 _atom_site_symmetry_multiplicity
 _atom_site_fract_x
 _atom_site_fract_y
 _atom_site_fract_z
 _atom_site_occupancy
  Ca  Ca0  1  0.750000  0.500000  0.000000  1
  Ca  Ca1  1  0.500000  0.000000  0.000000  1
  Ho  Ho2  1  0.250000  0.500000  0.000000  1
  Pa  Pa3  1  0.000000  0.000000  0.000000  1
  N  N4  1  0.488322  0.500000  0.523357  1
  N  N5  1  0.218382  0.000000  0.563235  1
  N  N6  1  0.011678  0.500000  0.476643  1
  N  N7  1  0.781618  0.000000  0.436765  1
