# generated using pymatgen
data_La3Nd2Sn3Se
_symmetry_space_group_name_H-M   'P 1'
_cell_length_a   9.60915800
_cell_length_b   9.60915769
_cell_length_c   7.06992200
_cell_angle_alpha   90.00000000
_cell_angle_beta   90.00000000
_cell_angle_gamma   120.00000796
_symmetry_Int_Tables_number   1
_chemical_formula_structural   La3Nd2Sn3Se
_chemical_formula_sum   'La6 Nd4 Sn6 Se2'
_cell_volume   565.34801804
_cell_formula_units_Z   2
loop_
 _symmetry_equiv_pos_site_id
 _symmetry_equiv_pos_as_xyz
  1  'x, y, z'
loop_
 _atom_site_type_symbol
 _atom_site_label
 _atom_site_symmetry_multiplicity
 _atom_site_fract_x
 _atom_site_fract_y
 _atom_site_fract_z
 _atom_site_occupancy
  La  La0  1  0.747219  0.747219  0.750000  1
  La  La1  1  0.252781  0.000000  0.750000  1
  La  La2  1  0.000000  0.252781  0.750000  1
  La  La3  1  0.252781  0.252781  0.250000  1
  La  La4  1  0.747219  0.000000  0.250000  1
  La  La5  1  0.000000  0.747219  0.250000  1
  Nd  Nd6  1  0.666667  0.333333  0.000000  1
  Nd  Nd7  1  0.333333  0.666667  0.000000  1
  Nd  Nd8  1  0.333333  0.666667  0.500000  1
  Nd  Nd9  1  0.666667  0.333333  0.500000  1
  Sn  Sn10  1  0.396075  0.396075  0.750000  1
  Sn  Sn11  1  0.603925  0.000000  0.750000  1
  Sn  Sn12  1  0.000000  0.603925  0.750000  1
  Sn  Sn13  1  0.603925  0.603925  0.250000  1
  Sn  Sn14  1  0.396075  0.000000  0.250000  1
  Sn  Sn15  1  0.000000  0.396075  0.250000  1
  Se  Se16  1  0.000000  0.000000  0.000000  1
  Se  Se17  1  0.000000  0.000000  0.500000  1
