# generated using pymatgen
data_Dy8CrTc11Ge16
_symmetry_space_group_name_H-M   'P 1'
_cell_length_a   6.94048712
_cell_length_b   6.94295477
_cell_length_c   12.96483251
_cell_angle_alpha   90.01630512
_cell_angle_beta   89.91648954
_cell_angle_gamma   89.89216671
_symmetry_Int_Tables_number   1
_chemical_formula_structural   Dy8CrTc11Ge16
_chemical_formula_sum   'Dy8 Cr1 Tc11 Ge16'
_cell_volume   624.74091696
_cell_formula_units_Z   1
loop_
 _symmetry_equiv_pos_site_id
 _symmetry_equiv_pos_as_xyz
  1  'x, y, z'
loop_
 _atom_site_type_symbol
 _atom_site_label
 _atom_site_symmetry_multiplicity
 _atom_site_fract_x
 _atom_site_fract_y
 _atom_site_fract_z
 _atom_site_occupancy
  Dy  Dy0  1  0.012755  0.660731  0.028911  1
  Dy  Dy1  1  0.993903  0.338792  0.527903  1
  Dy  Dy2  1  0.663574  0.004940  0.973335  1
  Dy  Dy3  1  0.162267  0.494853  0.776677  1
  Dy  Dy4  1  0.840132  0.507260  0.277188  1
  Dy  Dy5  1  0.495540  0.161448  0.222464  1
  Dy  Dy6  1  0.507223  0.838071  0.720909  1
  Dy  Dy7  1  0.338865  0.992870  0.471566  1
  Cr  Cr8  1  0.682775  0.508951  0.873875  1
  Tc  Tc9  1  0.310494  0.475822  0.380309  1
  Tc  Tc10  1  0.809838  0.019468  0.372688  1
  Tc  Tc11  1  0.986759  0.186279  0.126417  1
  Tc  Tc12  1  0.016195  0.813523  0.628081  1
  Tc  Tc13  1  0.476266  0.316131  0.623886  1
  Tc  Tc14  1  0.183973  0.983313  0.874950  1
  Tc  Tc15  1  0.663378  0.663889  0.499620  1
  Tc  Tc16  1  0.835595  0.165921  0.751717  1
  Tc  Tc17  1  0.163015  0.835280  0.250459  1
  Tc  Tc18  1  0.338814  0.337410  0.998113  1
  Tc  Tc19  1  0.523470  0.691674  0.120814  1
  Ge  Ge20  1  0.015988  0.726581  0.434871  1
  Ge  Ge21  1  0.980489  0.279280  0.933415  1
  Ge  Ge22  1  0.724195  0.019891  0.565742  1
  Ge  Ge23  1  0.231470  0.482900  0.185716  1
  Ge  Ge24  1  0.772751  0.519510  0.683157  1
  Ge  Ge25  1  0.475750  0.220165  0.817093  1
  Ge  Ge26  1  0.515476  0.770243  0.314841  1
  Ge  Ge27  1  0.278798  0.981148  0.066177  1
  Ge  Ge28  1  0.813091  0.889033  0.183077  1
  Ge  Ge29  1  0.308686  0.614909  0.567656  1
  Ge  Ge30  1  0.690877  0.390746  0.065427  1
  Ge  Ge31  1  0.612973  0.311702  0.433182  1
  Ge  Ge32  1  0.391927  0.689805  0.930191  1
  Ge  Ge33  1  0.110961  0.187198  0.316941  1
  Ge  Ge34  1  0.187292  0.111197  0.684412  1
  Ge  Ge35  1  0.884445  0.809067  0.818219  1
