# generated using pymatgen
data_Th3Sb4Pt2Rh
_symmetry_space_group_name_H-M   'P 1'
_cell_length_a   8.58533917
_cell_length_b   8.58798662
_cell_length_c   8.58798703
_cell_angle_alpha   109.43380588
_cell_angle_beta   109.49762907
_cell_angle_gamma   109.49763922
_symmetry_Int_Tables_number   1
_chemical_formula_structural   Th3Sb4Pt2Rh
_chemical_formula_sum   'Th6 Sb8 Pt4 Rh2'
_cell_volume   487.34390291
_cell_formula_units_Z   2
loop_
 _symmetry_equiv_pos_site_id
 _symmetry_equiv_pos_as_xyz
  1  'x, y, z'
loop_
 _atom_site_type_symbol
 _atom_site_label
 _atom_site_symmetry_multiplicity
 _atom_site_fract_x
 _atom_site_fract_y
 _atom_site_fract_z
 _atom_site_occupancy
  Th  Th0  1  0.375066  0.249945  0.625196  1
  Th  Th1  1  0.124904  0.750149  0.874927  1
  Th  Th2  1  0.624904  0.374927  0.250149  1
  Th  Th3  1  0.875066  0.125196  0.749945  1
  Th  Th4  1  0.249993  0.624988  0.375048  1
  Th  Th5  1  0.749993  0.875048  0.124988  1
  Sb  Sb6  1  0.497659  0.000802  0.827467  1
  Sb  Sb7  1  0.826540  0.499063  0.996798  1
  Sb  Sb8  1  0.002438  0.829891  0.503237  1
  Sb  Sb9  1  0.673505  0.670294  0.672529  1
  Sb  Sb10  1  0.326540  0.496798  0.999063  1
  Sb  Sb11  1  0.502438  0.003237  0.329891  1
  Sb  Sb12  1  0.997659  0.327467  0.500802  1
  Sb  Sb13  1  0.173505  0.172529  0.170294  1
  Pt  Pt14  1  0.876065  0.249909  0.126058  1
  Pt  Pt15  1  0.623906  0.749950  0.373798  1
  Pt  Pt16  1  0.123906  0.873798  0.249950  1
  Pt  Pt17  1  0.376065  0.626058  0.749909  1
  Rh  Rh18  1  0.249925  0.125009  0.874942  1
  Rh  Rh19  1  0.749925  0.374942  0.625009  1
