# generated using pymatgen
data_TbGd6DyB20
_symmetry_space_group_name_H-M   'P 1'
_cell_length_a   7.14294798
_cell_length_b   7.14237143
_cell_length_c   7.17102767
_cell_angle_alpha   77.36512825
_cell_angle_beta   89.95608572
_cell_angle_gamma   90.04712679
_symmetry_Int_Tables_number   1
_chemical_formula_structural   TbGd6DyB20
_chemical_formula_sum   'Tb1 Gd6 Dy1 B20'
_cell_volume   356.98878714
_cell_formula_units_Z   1
loop_
 _symmetry_equiv_pos_site_id
 _symmetry_equiv_pos_as_xyz
  1  'x, y, z'
loop_
 _atom_site_type_symbol
 _atom_site_label
 _atom_site_symmetry_multiplicity
 _atom_site_fract_x
 _atom_site_fract_y
 _atom_site_fract_z
 _atom_site_occupancy
  Tb  Tb0  1  0.815131  0.243273  0.245210  1
  Gd  Gd1  1  0.684649  0.241071  0.745428  1
  Gd  Gd2  1  0.185188  0.759006  0.754656  1
  Gd  Gd3  1  0.692229  0.766971  0.629241  1
  Gd  Gd4  1  0.191558  0.233067  0.870756  1
  Gd  Gd5  1  0.307786  0.232360  0.370410  1
  Gd  Gd6  1  0.808075  0.766928  0.129591  1
  Dy  Dy7  1  0.315417  0.755432  0.254608  1
  B  B8  1  0.501568  0.314569  0.039560  1
  B  B9  1  0.002405  0.685398  0.460311  1
  B  B10  1  0.498146  0.684706  0.961294  1
  B  B11  1  0.998225  0.315199  0.538962  1
  B  B12  1  0.491293  0.922901  0.929916  1
  B  B13  1  0.991918  0.076773  0.570848  1
  B  B14  1  0.506951  0.075541  0.073215  1
  B  B15  1  0.008867  0.924109  0.427178  1
  B  B16  1  0.326361  0.496936  0.040061  1
  B  B17  1  0.826570  0.503236  0.459823  1
  B  B18  1  0.673626  0.502787  0.960483  1
  B  B19  1  0.173862  0.497462  0.539281  1
  B  B20  1  0.910497  0.499182  0.910531  1
  B  B21  1  0.410617  0.501673  0.589114  1
  B  B22  1  0.089459  0.500919  0.089667  1
  B  B23  1  0.589457  0.500105  0.410082  1
  B  B24  1  0.961660  0.497073  0.673785  1
  B  B25  1  0.461502  0.503099  0.826074  1
  B  B26  1  0.038582  0.503508  0.325663  1
  B  B27  1  0.538403  0.496714  0.174253  1
