# generated using pymatgen
data_Sr3La(Cd4Au3)2
_symmetry_space_group_name_H-M   'P 1'
_cell_length_a   15.40429329
_cell_length_b   15.40429481
_cell_length_c   4.52448100
_cell_angle_alpha   90.00000000
_cell_angle_beta   90.00000000
_cell_angle_gamma   120.37683112
_symmetry_Int_Tables_number   1
_chemical_formula_structural   Sr3La(Cd4Au3)2
_chemical_formula_sum   'Sr6 La2 Cd16 Au12'
_cell_volume   926.23532850
_cell_formula_units_Z   2
loop_
 _symmetry_equiv_pos_site_id
 _symmetry_equiv_pos_as_xyz
  1  'x, y, z'
loop_
 _atom_site_type_symbol
 _atom_site_label
 _atom_site_symmetry_multiplicity
 _atom_site_fract_x
 _atom_site_fract_y
 _atom_site_fract_z
 _atom_site_occupancy
  Sr  Sr0  1  0.546427  0.546427  0.000000  1
  Sr  Sr1  1  0.333023  0.667507  0.000000  1
  Sr  Sr2  1  0.667507  0.333023  0.000000  1
  Sr  Sr3  1  0.821268  0.000717  0.500000  1
  Sr  Sr4  1  0.000717  0.821268  0.500000  1
  Sr  Sr5  1  0.178953  0.178953  0.500000  1
  La  La6  1  0.452067  0.000699  0.000000  1
  La  La7  1  0.000699  0.452067  0.000000  1
  Cd  Cd8  1  0.179001  0.379357  0.000000  1
  Cd  Cd9  1  0.623090  0.801950  0.000000  1
  Cd  Cd10  1  0.379357  0.179001  0.000000  1
  Cd  Cd11  1  0.199198  0.819830  0.000000  1
  Cd  Cd12  1  0.801950  0.623090  0.000000  1
  Cd  Cd13  1  0.819830  0.199198  0.000000  1
  Cd  Cd14  1  0.281578  0.000311  0.500000  1
  Cd  Cd15  1  0.000311  0.281578  0.500000  1
  Cd  Cd16  1  0.716934  0.716934  0.500000  1
  Cd  Cd17  1  0.343900  0.469122  0.500000  1
  Cd  Cd18  1  0.530063  0.876530  0.500000  1
  Cd  Cd19  1  0.469122  0.343900  0.500000  1
  Cd  Cd20  1  0.126319  0.655821  0.500000  1
  Cd  Cd21  1  0.876530  0.530063  0.500000  1
  Cd  Cd22  1  0.655821  0.126319  0.500000  1
  Cd  Cd23  1  0.000628  0.000628  0.000000  1
  Au  Au24  1  0.165153  0.492402  0.500000  1
  Au  Au25  1  0.505813  0.676574  0.500000  1
  Au  Au26  1  0.492402  0.165153  0.500000  1
  Au  Au27  1  0.327130  0.835075  0.500000  1
  Au  Au28  1  0.676574  0.505813  0.500000  1
  Au  Au29  1  0.835075  0.327130  0.500000  1
  Au  Au30  1  0.175756  0.998698  0.000000  1
  Au  Au31  1  0.998698  0.175756  0.000000  1
  Au  Au32  1  0.823600  0.823600  0.000000  1
  Au  Au33  1  0.654147  0.000338  0.000000  1
  Au  Au34  1  0.000338  0.654147  0.000000  1
  Au  Au35  1  0.341021  0.341021  0.000000  1
