# generated using pymatgen
data_Dy20TcIrPt10
_symmetry_space_group_name_H-M   'P 1'
_cell_length_a   10.99528400
_cell_length_b   10.99528400
_cell_length_c   6.46633000
_cell_angle_alpha   90.00000000
_cell_angle_beta   90.00000000
_cell_angle_gamma   90.00000000
_symmetry_Int_Tables_number   1
_chemical_formula_structural   Dy20TcIrPt10
_chemical_formula_sum   'Dy20 Tc1 Ir1 Pt10'
_cell_volume   781.75517915
_cell_formula_units_Z   1
loop_
 _symmetry_equiv_pos_site_id
 _symmetry_equiv_pos_as_xyz
  1  'x, y, z'
loop_
 _atom_site_type_symbol
 _atom_site_label
 _atom_site_symmetry_multiplicity
 _atom_site_fract_x
 _atom_site_fract_y
 _atom_site_fract_z
 _atom_site_occupancy
  Dy  Dy0  1  0.292024  0.089376  0.375949  1
  Dy  Dy1  1  0.292463  0.911182  0.876622  1
  Dy  Dy2  1  0.707537  0.088818  0.876622  1
  Dy  Dy3  1  0.707976  0.910624  0.375949  1
  Dy  Dy4  1  0.588818  0.792463  0.876622  1
  Dy  Dy5  1  0.589376  0.207976  0.375949  1
  Dy  Dy6  1  0.410624  0.792024  0.375949  1
  Dy  Dy7  1  0.411182  0.207537  0.876622  1
  Dy  Dy8  1  0.203593  0.412747  0.626780  1
  Dy  Dy9  1  0.203053  0.586935  0.122637  1
  Dy  Dy10  1  0.796947  0.413065  0.122637  1
  Dy  Dy11  1  0.796407  0.587253  0.626780  1
  Dy  Dy12  1  0.913065  0.703053  0.122637  1
  Dy  Dy13  1  0.912747  0.296407  0.626780  1
  Dy  Dy14  1  0.087253  0.703593  0.626780  1
  Dy  Dy15  1  0.086935  0.296947  0.122637  1
  Dy  Dy16  1  0.000000  0.000000  0.501731  1
  Dy  Dy17  1  0.000000  0.000000  0.001287  1
  Dy  Dy18  1  0.500000  0.500000  0.001287  1
  Dy  Dy19  1  0.500000  0.500000  0.501731  1
  Tc  Tc20  1  0.000000  0.500000  0.872109  1
  Ir  Ir21  1  0.000000  0.500000  0.375725  1
  Pt  Pt22  1  0.844948  0.151626  0.250505  1
  Pt  Pt23  1  0.844955  0.847873  0.750063  1
  Pt  Pt24  1  0.155045  0.152127  0.750063  1
  Pt  Pt25  1  0.155052  0.848374  0.250505  1
  Pt  Pt26  1  0.652127  0.344955  0.750063  1
  Pt  Pt27  1  0.651626  0.655052  0.250505  1
  Pt  Pt28  1  0.348374  0.344948  0.250505  1
  Pt  Pt29  1  0.347873  0.655045  0.750063  1
  Pt  Pt30  1  0.500000  0.000000  0.118264  1
  Pt  Pt31  1  0.500000  0.000000  0.617648  1
