# generated using pymatgen
data_La5Ce2Pr(Si3Pd)4
_symmetry_space_group_name_H-M   'P 1'
_cell_length_a   8.25234200
_cell_length_b   8.25161694
_cell_length_c   8.50190800
_cell_angle_alpha   90.00000000
_cell_angle_beta   90.00000000
_cell_angle_gamma   120.00291472
_symmetry_Int_Tables_number   1
_chemical_formula_structural   La5Ce2Pr(Si3Pd)4
_chemical_formula_sum   'La5 Ce2 Pr1 Si12 Pd4'
_cell_volume   501.36100647
_cell_formula_units_Z   1
loop_
 _symmetry_equiv_pos_site_id
 _symmetry_equiv_pos_as_xyz
  1  'x, y, z'
loop_
 _atom_site_type_symbol
 _atom_site_label
 _atom_site_symmetry_multiplicity
 _atom_site_fract_x
 _atom_site_fract_y
 _atom_site_fract_z
 _atom_site_occupancy
  La  La0  1  0.499571  0.500263  0.750000  1
  La  La1  1  0.500164  0.499603  0.250000  1
  La  La2  1  0.000692  0.500263  0.750000  1
  La  La3  1  0.999439  0.499603  0.250000  1
  La  La4  1  0.499664  0.999328  0.750000  1
  Ce  Ce5  1  0.000021  0.000042  0.750000  1
  Ce  Ce6  1  0.000061  0.000121  0.250000  1
  Pr  Pr7  1  0.500363  0.000727  0.250000  1
  Si  Si8  1  0.836040  0.163365  0.000113  1
  Si  Si9  1  0.163930  0.836625  0.000528  1
  Si  Si10  1  0.327325  0.163365  0.000113  1
  Si  Si11  1  0.163930  0.836625  0.499472  1
  Si  Si12  1  0.672695  0.836625  0.000528  1
  Si  Si13  1  0.836040  0.163365  0.499887  1
  Si  Si14  1  0.836768  0.673537  0.000307  1
  Si  Si15  1  0.672695  0.836625  0.499472  1
  Si  Si16  1  0.163230  0.326461  0.000591  1
  Si  Si17  1  0.327325  0.163365  0.499887  1
  Si  Si18  1  0.163230  0.326461  0.499409  1
  Si  Si19  1  0.836768  0.673537  0.499693  1
  Pd  Pd20  1  0.666764  0.333526  0.998360  1
  Pd  Pd21  1  0.333261  0.666524  0.000534  1
  Pd  Pd22  1  0.333261  0.666524  0.499466  1
  Pd  Pd23  1  0.666764  0.333526  0.501640  1
