# generated using pymatgen
data_Hf5Zr(AsN)2
_symmetry_space_group_name_H-M   'P 1'
_cell_length_a   5.85986108
_cell_length_b   5.85986040
_cell_length_c   8.47628411
_cell_angle_alpha   89.98237366
_cell_angle_beta   90.01762776
_cell_angle_gamma   145.83782414
_symmetry_Int_Tables_number   1
_chemical_formula_structural   Hf5Zr(AsN)2
_chemical_formula_sum   'Hf5 Zr1 As2 N2'
_cell_volume   163.44011007
_cell_formula_units_Z   1
loop_
 _symmetry_equiv_pos_site_id
 _symmetry_equiv_pos_as_xyz
  1  'x, y, z'
loop_
 _atom_site_type_symbol
 _atom_site_label
 _atom_site_symmetry_multiplicity
 _atom_site_fract_x
 _atom_site_fract_y
 _atom_site_fract_z
 _atom_site_occupancy
  Hf  Hf0  1  0.368581  0.631419  0.445129  1
  Hf  Hf1  1  0.368790  0.631210  0.055618  1
  Hf  Hf2  1  0.631844  0.368156  0.554492  1
  Hf  Hf3  1  0.942947  0.057053  0.750060  1
  Hf  Hf4  1  0.056518  0.943482  0.249630  1
  Zr  Zr5  1  0.633228  0.366772  0.944264  1
  As  As6  1  0.258243  0.741757  0.747596  1
  As  As7  1  0.743298  0.256702  0.251559  1
  N  N8  1  0.996236  0.003764  0.001933  1
  N  N9  1  0.000314  0.999686  0.499719  1
