# generated using pymatgen
data_Ba2NdTh(ZnSn)4
_symmetry_space_group_name_H-M   'P 1'
_cell_length_a   4.61359800
_cell_length_b   4.61359707
_cell_length_c   18.62447000
_cell_angle_alpha   90.00000000
_cell_angle_beta   90.00000000
_cell_angle_gamma   120.00000665
_symmetry_Int_Tables_number   1
_chemical_formula_structural   Ba2NdTh(ZnSn)4
_chemical_formula_sum   'Ba2 Nd1 Th1 Zn4 Sn4'
_cell_volume   343.31591659
_cell_formula_units_Z   1
loop_
 _symmetry_equiv_pos_site_id
 _symmetry_equiv_pos_as_xyz
  1  'x, y, z'
loop_
 _atom_site_type_symbol
 _atom_site_label
 _atom_site_symmetry_multiplicity
 _atom_site_fract_x
 _atom_site_fract_y
 _atom_site_fract_z
 _atom_site_occupancy
  Ba  Ba0  1  0.000000  0.000000  0.501329  1
  Ba  Ba1  1  0.000000  0.000000  0.998671  1
  Nd  Nd2  1  0.000000  0.000000  0.750000  1
  Th  Th3  1  0.000000  0.000000  0.250000  1
  Zn  Zn4  1  0.333333  0.666667  0.334120  1
  Zn  Zn5  1  0.666667  0.333333  0.664067  1
  Zn  Zn6  1  0.666667  0.333333  0.835933  1
  Zn  Zn7  1  0.333333  0.666667  0.165880  1
  Sn  Sn8  1  0.333333  0.666667  0.868692  1
  Sn  Sn9  1  0.666667  0.333333  0.130829  1
  Sn  Sn10  1  0.666667  0.333333  0.369171  1
  Sn  Sn11  1  0.333333  0.666667  0.631308  1
