# generated using pymatgen
data_Lu10In5Sn3Ir4
_symmetry_space_group_name_H-M   'P 1'
_cell_length_a   3.51042600
_cell_length_b   8.06501143
_cell_length_c   17.92179896
_cell_angle_alpha   89.79638588
_cell_angle_beta   90.00000000
_cell_angle_gamma   90.00000000
_symmetry_Int_Tables_number   1
_chemical_formula_structural   Lu10In5Sn3Ir4
_chemical_formula_sum   'Lu10 In5 Sn3 Ir4'
_cell_volume   507.39206240
_cell_formula_units_Z   1
loop_
 _symmetry_equiv_pos_site_id
 _symmetry_equiv_pos_as_xyz
  1  'x, y, z'
loop_
 _atom_site_type_symbol
 _atom_site_label
 _atom_site_symmetry_multiplicity
 _atom_site_fract_x
 _atom_site_fract_y
 _atom_site_fract_z
 _atom_site_occupancy
  Lu  Lu0  1  0.000000  0.879665  0.085661  1
  Lu  Lu1  1  0.000000  0.759604  0.279336  1
  Lu  Lu2  1  0.000000  0.745048  0.777223  1
  Lu  Lu3  1  0.000000  0.384313  0.413137  1
  Lu  Lu4  1  0.000000  0.117120  0.914027  1
  Lu  Lu5  1  0.000000  0.241917  0.722420  1
  Lu  Lu6  1  0.000000  0.495902  0.002982  1
  Lu  Lu7  1  0.000000  0.258902  0.219783  1
  Lu  Lu8  1  0.000000  0.616211  0.587099  1
  Lu  Lu9  1  0.000000  0.999482  0.499319  1
  In  In10  1  0.500000  0.076897  0.350492  1
  In  In11  1  0.500000  0.928170  0.647956  1
  In  In12  1  0.500000  0.793933  0.932965  1
  In  In13  1  0.500000  0.705750  0.432631  1
  In  In14  1  0.500000  0.293039  0.567459  1
  Sn  Sn15  1  0.500000  0.198328  0.064784  1
  Sn  Sn16  1  0.500000  0.427455  0.853267  1
  Sn  Sn17  1  0.500000  0.581707  0.150268  1
  Ir  Ir18  1  0.500000  0.980210  0.193971  1
  Ir  Ir19  1  0.500000  0.018714  0.804926  1
  Ir  Ir20  1  0.500000  0.519055  0.698040  1
  Ir  Ir21  1  0.500000  0.478577  0.302253  1
