# generated using pymatgen
data_Tb16TmSc3Sn16
_symmetry_space_group_name_H-M   'P 1'
_cell_length_a   7.96553682
_cell_length_b   8.13238184
_cell_length_c   15.43093600
_cell_angle_alpha   90.00000000
_cell_angle_beta   90.00000000
_cell_angle_gamma   90.05207107
_symmetry_Int_Tables_number   1
_chemical_formula_structural   Tb16TmSc3Sn16
_chemical_formula_sum   'Tb16 Tm1 Sc3 Sn16'
_cell_volume   999.59690351
_cell_formula_units_Z   1
loop_
 _symmetry_equiv_pos_site_id
 _symmetry_equiv_pos_as_xyz
  1  'x, y, z'
loop_
 _atom_site_type_symbol
 _atom_site_label
 _atom_site_symmetry_multiplicity
 _atom_site_fract_x
 _atom_site_fract_y
 _atom_site_fract_z
 _atom_site_occupancy
  Tb  Tb0  1  0.366186  0.838127  0.876615  1
  Tb  Tb1  1  0.866322  0.661889  0.623086  1
  Tb  Tb2  1  0.634422  0.162601  0.377745  1
  Tb  Tb3  1  0.133277  0.338365  0.122498  1
  Tb  Tb4  1  0.634422  0.162601  0.122255  1
  Tb  Tb5  1  0.133277  0.338365  0.377502  1
  Tb  Tb6  1  0.366186  0.838127  0.623385  1
  Tb  Tb7  1  0.866322  0.661889  0.876914  1
  Tb  Tb8  1  0.520019  0.320219  0.902882  1
  Tb  Tb9  1  0.020227  0.179644  0.597363  1
  Tb  Tb10  1  0.480464  0.679001  0.403297  1
  Tb  Tb11  1  0.979608  0.819883  0.096789  1
  Tb  Tb12  1  0.480464  0.679001  0.096703  1
  Tb  Tb13  1  0.979608  0.819883  0.403211  1
  Tb  Tb14  1  0.520019  0.320219  0.597118  1
  Tb  Tb15  1  0.020227  0.179644  0.902637  1
  Tm  Tm16  1  0.302990  0.002754  0.250000  1
  Sc  Sc17  1  0.198188  0.502328  0.750000  1
  Sc  Sc18  1  0.698242  0.997422  0.750000  1
  Sc  Sc19  1  0.801569  0.497411  0.250000  1
  Sn  Sn20  1  0.293918  0.036209  0.042201  1
  Sn  Sn21  1  0.794017  0.464943  0.456079  1
  Sn  Sn22  1  0.706217  0.964595  0.544287  1
  Sn  Sn23  1  0.206095  0.535252  0.955732  1
  Sn  Sn24  1  0.706217  0.964595  0.955713  1
  Sn  Sn25  1  0.206095  0.535252  0.544268  1
  Sn  Sn26  1  0.293918  0.036209  0.457799  1
  Sn  Sn27  1  0.794017  0.464943  0.043921  1
  Sn  Sn28  1  0.559666  0.616602  0.750000  1
  Sn  Sn29  1  0.059617  0.883166  0.750000  1
  Sn  Sn30  1  0.441383  0.384877  0.250000  1
  Sn  Sn31  1  0.936029  0.119560  0.250000  1
  Sn  Sn32  1  0.329703  0.152239  0.750000  1
  Sn  Sn33  1  0.829484  0.347946  0.750000  1
  Sn  Sn34  1  0.673429  0.846504  0.250000  1
  Sn  Sn35  1  0.168155  0.647739  0.250000  1
