# generated using pymatgen
data_NpPa3(Al8Pt3)3
_symmetry_space_group_name_H-M   'P 1'
_cell_length_a   7.59827645
_cell_length_b   7.61307995
_cell_length_c   13.17569100
_cell_angle_alpha   84.48929669
_cell_angle_beta   78.96028641
_cell_angle_gamma   59.94783276
_symmetry_Int_Tables_number   1
_chemical_formula_structural   NpPa3(Al8Pt3)3
_chemical_formula_sum   'Np1 Pa3 Al24 Pt9'
_cell_volume   647.49873863
_cell_formula_units_Z   1
loop_
 _symmetry_equiv_pos_site_id
 _symmetry_equiv_pos_as_xyz
  1  'x, y, z'
loop_
 _atom_site_type_symbol
 _atom_site_label
 _atom_site_symmetry_multiplicity
 _atom_site_fract_x
 _atom_site_fract_y
 _atom_site_fract_z
 _atom_site_occupancy
  Np  Np0  1  0.396252  0.167028  0.804978  1
  Pa  Pa1  1  0.605710  0.831229  0.194726  1
  Pa  Pa2  1  0.734605  0.498772  0.804036  1
  Pa  Pa3  1  0.265145  0.502958  0.194644  1
  Al  Al4  1  0.681049  0.835938  0.945456  1
  Al  Al5  1  0.317054  0.166411  0.052509  1
  Al  Al6  1  0.145991  0.833522  0.561197  1
  Al  Al7  1  0.853942  0.166207  0.440073  1
  Al  Al8  1  0.481010  0.166730  0.559065  1
  Al  Al9  1  0.517817  0.833607  0.442501  1
  Al  Al10  1  0.213156  0.165760  0.331935  1
  Al  Al11  1  0.784115  0.835956  0.669280  1
  Al  Al12  1  0.435252  0.507231  0.669257  1
  Al  Al13  1  0.564502  0.490608  0.332161  1
  Al  Al14  1  0.112418  0.156790  0.668545  1
  Al  Al15  1  0.888734  0.843670  0.333296  1
  Al  Al16  1  0.353149  0.496155  0.945344  1
  Al  Al17  1  0.649035  0.500103  0.051990  1
  Al  Al18  1  0.019326  0.168281  0.949933  1
  Al  Al19  1  0.984099  0.832970  0.046838  1
  Al  Al20  1  0.186110  0.500220  0.442453  1
  Al  Al21  1  0.814138  0.499512  0.557889  1
  Al  Al22  1  0.734880  0.165221  0.182634  1
  Al  Al23  1  0.264929  0.836057  0.817826  1
  Al  Al24  1  0.061915  0.630076  0.816633  1
  Al  Al25  1  0.938284  0.368108  0.183451  1
  Al  Al26  1  0.854893  0.039786  0.817348  1
  Al  Al27  1  0.142604  0.961418  0.182695  1
  Pt  Pt28  1  0.119023  0.492392  0.639195  1
  Pt  Pt29  1  0.879898  0.508933  0.360354  1
  Pt  Pt30  1  0.660673  0.170457  0.000214  1
  Pt  Pt31  1  0.340764  0.828216  0.000847  1
  Pt  Pt32  1  0.536328  0.166974  0.361074  1
  Pt  Pt33  1  0.462868  0.831449  0.639229  1
  Pt  Pt34  1  0.779860  0.175497  0.638383  1
  Pt  Pt35  1  0.221438  0.825060  0.361522  1
  Pt  Pt36  1  0.999032  0.500701  0.000488  1
