# generated using pymatgen
data_Li2Sb2Pd2Pt
_symmetry_space_group_name_H-M   'P 1'
_cell_length_a   7.62209035
_cell_length_b   7.62209020
_cell_length_c   7.62208978
_cell_angle_alpha   34.14449167
_cell_angle_beta   34.14449484
_cell_angle_gamma   34.14449808
_symmetry_Int_Tables_number   1
_chemical_formula_structural   Li2Sb2Pd2Pt
_chemical_formula_sum   'Li2 Sb2 Pd2 Pt1'
_cell_volume   124.37982005
_cell_formula_units_Z   1
loop_
 _symmetry_equiv_pos_site_id
 _symmetry_equiv_pos_as_xyz
  1  'x, y, z'
loop_
 _atom_site_type_symbol
 _atom_site_label
 _atom_site_symmetry_multiplicity
 _atom_site_fract_x
 _atom_site_fract_y
 _atom_site_fract_z
 _atom_site_occupancy
  Li  Li0  1  0.240369  0.240369  0.240369  1
  Li  Li1  1  0.755447  0.755447  0.755447  1
  Sb  Sb2  1  0.005730  0.005730  0.005730  1
  Sb  Sb3  1  0.497535  0.497535  0.497535  1
  Pd  Pd4  1  0.625496  0.625496  0.625496  1
  Pd  Pd5  1  0.879044  0.879044  0.879044  1
  Pt  Pt6  1  0.371379  0.371379  0.371379  1
