# generated using pymatgen
data_Ba3CdRuO6
_symmetry_space_group_name_H-M   'P 1'
_cell_length_a   7.17262700
_cell_length_b   7.17262654
_cell_length_c   7.17262734
_cell_angle_alpha   91.64039506
_cell_angle_beta   91.64039283
_cell_angle_gamma   91.64039552
_symmetry_Int_Tables_number   1
_chemical_formula_structural   Ba3CdRuO6
_chemical_formula_sum   'Ba6 Cd2 Ru2 O12'
_cell_volume   368.54457774
_cell_formula_units_Z   2
loop_
 _symmetry_equiv_pos_site_id
 _symmetry_equiv_pos_as_xyz
  1  'x, y, z'
loop_
 _atom_site_type_symbol
 _atom_site_label
 _atom_site_symmetry_multiplicity
 _atom_site_fract_x
 _atom_site_fract_y
 _atom_site_fract_z
 _atom_site_occupancy
  Ba  Ba0  1  0.109176  0.750000  0.390824  1
  Ba  Ba1  1  0.390824  0.109176  0.750000  1
  Ba  Ba2  1  0.890824  0.250000  0.609176  1
  Ba  Ba3  1  0.609176  0.890824  0.250000  1
  Ba  Ba4  1  0.750000  0.390824  0.109176  1
  Ba  Ba5  1  0.250000  0.609176  0.890824  1
  Cd  Cd6  1  0.250000  0.250000  0.250000  1
  Cd  Cd7  1  0.750000  0.750000  0.750000  1
  Ru  Ru8  1  0.000000  0.000000  0.000000  1
  Ru  Ru9  1  0.500000  0.500000  0.500000  1
  O  O10  1  0.454546  0.769973  0.587280  1
  O  O11  1  0.587280  0.454546  0.769973  1
  O  O12  1  0.769973  0.587280  0.454546  1
  O  O13  1  0.045454  0.912720  0.730027  1
  O  O14  1  0.730027  0.045454  0.912720  1
  O  O15  1  0.912720  0.730027  0.045454  1
  O  O16  1  0.545454  0.230027  0.412720  1
  O  O17  1  0.412720  0.545454  0.230027  1
  O  O18  1  0.230027  0.412720  0.545454  1
  O  O19  1  0.954546  0.087280  0.269973  1
  O  O20  1  0.087280  0.269973  0.954546  1
  O  O21  1  0.269973  0.954546  0.087280  1
