# generated using pymatgen
data_Zr6Zn22PtC
_symmetry_space_group_name_H-M   'P 1'
_cell_length_a   8.70337402
_cell_length_b   8.70337319
_cell_length_c   8.70337300
_cell_angle_alpha   59.99999692
_cell_angle_beta   60.00000006
_cell_angle_gamma   59.99999470
_symmetry_Int_Tables_number   1
_chemical_formula_structural   Zr6Zn22PtC
_chemical_formula_sum   'Zr6 Zn22 Pt1 C1'
_cell_volume   466.17375999
_cell_formula_units_Z   1
loop_
 _symmetry_equiv_pos_site_id
 _symmetry_equiv_pos_as_xyz
  1  'x, y, z'
loop_
 _atom_site_type_symbol
 _atom_site_label
 _atom_site_symmetry_multiplicity
 _atom_site_fract_x
 _atom_site_fract_y
 _atom_site_fract_z
 _atom_site_occupancy
  Zr  Zr0  1  0.689338  0.310662  0.310662  1
  Zr  Zr1  1  0.310662  0.689338  0.689338  1
  Zr  Zr2  1  0.310662  0.689338  0.310662  1
  Zr  Zr3  1  0.689338  0.310662  0.689338  1
  Zr  Zr4  1  0.310662  0.310662  0.689338  1
  Zr  Zr5  1  0.689338  0.689338  0.310662  1
  Zn  Zn6  1  0.120351  0.120351  0.120351  1
  Zn  Zn7  1  0.879649  0.879649  0.879649  1
  Zn  Zn8  1  0.120351  0.120351  0.638950  1
  Zn  Zn9  1  0.120351  0.638950  0.120351  1
  Zn  Zn10  1  0.879649  0.879649  0.361050  1
  Zn  Zn11  1  0.879649  0.361050  0.879649  1
  Zn  Zn12  1  0.638950  0.120351  0.120351  1
  Zn  Zn13  1  0.361050  0.879649  0.879649  1
  Zn  Zn14  1  0.500000  0.000000  0.000000  1
  Zn  Zn15  1  0.000000  0.500000  0.500000  1
  Zn  Zn16  1  0.000000  0.500000  0.000000  1
  Zn  Zn17  1  0.500000  0.000000  0.500000  1
  Zn  Zn18  1  0.000000  0.000000  0.500000  1
  Zn  Zn19  1  0.500000  0.500000  0.000000  1
  Zn  Zn20  1  0.331012  0.331012  0.331012  1
  Zn  Zn21  1  0.668988  0.668988  0.668988  1
  Zn  Zn22  1  0.331012  0.331012  0.006964  1
  Zn  Zn23  1  0.331012  0.006964  0.331012  1
  Zn  Zn24  1  0.668988  0.668988  0.993036  1
  Zn  Zn25  1  0.668988  0.993036  0.668988  1
  Zn  Zn26  1  0.006964  0.331012  0.331012  1
  Zn  Zn27  1  0.993036  0.668988  0.668988  1
  Pt  Pt28  1  0.000000  0.000000  0.000000  1
  C  C29  1  0.500000  0.500000  0.500000  1
