# generated using pymatgen
data_Hf7Zr3CuSn6Sb
_symmetry_space_group_name_H-M   'P 1'
_cell_length_a   8.69131200
_cell_length_b   8.69131201
_cell_length_c   5.90284300
_cell_angle_alpha   90.00000000
_cell_angle_beta   90.00000000
_cell_angle_gamma   119.99999995
_symmetry_Int_Tables_number   1
_chemical_formula_structural   Hf7Zr3CuSn6Sb
_chemical_formula_sum   'Hf7 Zr3 Cu1 Sn6 Sb1'
_cell_volume   386.15578540
_cell_formula_units_Z   1
loop_
 _symmetry_equiv_pos_site_id
 _symmetry_equiv_pos_as_xyz
  1  'x, y, z'
loop_
 _atom_site_type_symbol
 _atom_site_label
 _atom_site_symmetry_multiplicity
 _atom_site_fract_x
 _atom_site_fract_y
 _atom_site_fract_z
 _atom_site_occupancy
  Hf  Hf0  1  0.666667  0.333333  0.498693  1
  Hf  Hf1  1  0.333333  0.666667  0.498693  1
  Hf  Hf2  1  0.333333  0.666667  0.000698  1
  Hf  Hf3  1  0.666667  0.333333  0.000698  1
  Hf  Hf4  1  0.724934  0.724934  0.233276  1
  Hf  Hf5  1  0.275066  0.000000  0.233276  1
  Hf  Hf6  1  0.000000  0.275066  0.233276  1
  Zr  Zr7  1  0.268081  0.268081  0.765160  1
  Zr  Zr8  1  0.731919  0.000000  0.765160  1
  Zr  Zr9  1  0.000000  0.731919  0.765160  1
  Cu  Cu10  1  0.000000  0.000000  0.014803  1
  Sn  Sn11  1  0.385965  0.385965  0.253806  1
  Sn  Sn12  1  0.614035  0.000000  0.253806  1
  Sn  Sn13  1  0.000000  0.614035  0.253806  1
  Sn  Sn14  1  0.610905  0.610905  0.745739  1
  Sn  Sn15  1  0.389095  0.000000  0.745739  1
  Sn  Sn16  1  0.000000  0.389095  0.745739  1
  Sb  Sb17  1  0.000000  0.000000  0.492471  1
