# generated using pymatgen
data_Rb2SiS4
_symmetry_space_group_name_H-M   'P 1'
_cell_length_a   8.03372947
_cell_length_b   8.03372948
_cell_length_c   9.64512776
_cell_angle_alpha   61.59898118
_cell_angle_beta   61.59898183
_cell_angle_gamma   53.71479487
_symmetry_Int_Tables_number   1
_chemical_formula_structural   Rb2SiS4
_chemical_formula_sum   'Rb4 Si2 S8'
_cell_volume   424.52433981
_cell_formula_units_Z   2
loop_
 _symmetry_equiv_pos_site_id
 _symmetry_equiv_pos_as_xyz
  1  'x, y, z'
loop_
 _atom_site_type_symbol
 _atom_site_label
 _atom_site_symmetry_multiplicity
 _atom_site_fract_x
 _atom_site_fract_y
 _atom_site_fract_z
 _atom_site_occupancy
  Rb  Rb0  1  0.160200  0.160200  0.707712  1
  Rb  Rb1  1  0.839800  0.839800  0.292288  1
  Rb  Rb2  1  0.407483  0.407483  0.857298  1
  Rb  Rb3  1  0.592517  0.592517  0.142702  1
  Si  Si4  1  0.155536  0.155536  0.295193  1
  Si  Si5  1  0.844464  0.844464  0.704807  1
  S  S6  1  0.845335  0.323117  0.460740  1
  S  S7  1  0.323117  0.845335  0.460740  1
  S  S8  1  0.154665  0.676883  0.539260  1
  S  S9  1  0.676883  0.154665  0.539260  1
  S  S10  1  0.124184  0.124184  0.109259  1
  S  S11  1  0.875816  0.875816  0.890741  1
  S  S12  1  0.312221  0.312221  0.259900  1
  S  S13  1  0.687779  0.687779  0.740100  1
