# generated using pymatgen
data_Pr4Sm(ThSe4)3
_symmetry_space_group_name_H-M   'P 1'
_cell_length_a   4.15485800
_cell_length_b   11.25003529
_cell_length_c   11.48270962
_cell_angle_alpha   90.23266847
_cell_angle_beta   90.00000000
_cell_angle_gamma   90.00000000
_symmetry_Int_Tables_number   1
_chemical_formula_structural   Pr4Sm(ThSe4)3
_chemical_formula_sum   'Pr4 Sm1 Th3 Se12'
_cell_volume   536.72382231
_cell_formula_units_Z   1
loop_
 _symmetry_equiv_pos_site_id
 _symmetry_equiv_pos_as_xyz
  1  'x, y, z'
loop_
 _atom_site_type_symbol
 _atom_site_label
 _atom_site_symmetry_multiplicity
 _atom_site_fract_x
 _atom_site_fract_y
 _atom_site_fract_z
 _atom_site_occupancy
  Pr  Pr0  1  0.250000  0.997212  0.694648  1
  Pr  Pr1  1  0.250000  0.505470  0.195903  1
  Pr  Pr2  1  0.250000  0.314224  0.514919  1
  Pr  Pr3  1  0.750000  0.812772  0.984265  1
  Sm  Sm4  1  0.250000  0.186058  0.014859  1
  Th  Th5  1  0.750000  0.999885  0.306785  1
  Th  Th6  1  0.750000  0.496383  0.808282  1
  Th  Th7  1  0.750000  0.686018  0.485209  1
  Se  Se8  1  0.750000  0.056520  0.880669  1
  Se  Se9  1  0.250000  0.947112  0.121801  1
  Se  Se10  1  0.250000  0.558181  0.623535  1
  Se  Se11  1  0.750000  0.445853  0.378153  1
  Se  Se12  1  0.250000  0.872822  0.449435  1
  Se  Se13  1  0.750000  0.122755  0.543138  1
  Se  Se14  1  0.750000  0.372372  0.044271  1
  Se  Se15  1  0.250000  0.622736  0.950248  1
  Se  Se16  1  0.250000  0.302791  0.777676  1
  Se  Se17  1  0.750000  0.708314  0.229296  1
  Se  Se18  1  0.750000  0.795407  0.722915  1
  Se  Se19  1  0.250000  0.197112  0.273991  1
