# generated using pymatgen
data_Pr3Y5(ErBi)12
_symmetry_space_group_name_H-M   'P 1'
_cell_length_a   8.31218256
_cell_length_b   9.49945000
_cell_length_c   12.14876281
_cell_angle_alpha   90.00000000
_cell_angle_beta   89.95810365
_cell_angle_gamma   90.00000000
_symmetry_Int_Tables_number   1
_chemical_formula_structural   Pr3Y5(ErBi)12
_chemical_formula_sum   'Pr3 Y5 Er12 Bi12'
_cell_volume   959.28017905
_cell_formula_units_Z   1
loop_
 _symmetry_equiv_pos_site_id
 _symmetry_equiv_pos_as_xyz
  1  'x, y, z'
loop_
 _atom_site_type_symbol
 _atom_site_label
 _atom_site_symmetry_multiplicity
 _atom_site_fract_x
 _atom_site_fract_y
 _atom_site_fract_z
 _atom_site_occupancy
  Pr  Pr0  1  0.184340  0.750000  0.720223  1
  Pr  Pr1  1  0.684527  0.750000  0.779622  1
  Pr  Pr2  1  0.815311  0.250000  0.280011  1
  Y  Y3  1  0.313875  0.250000  0.218712  1
  Y  Y4  1  0.352906  0.750000  0.216605  1
  Y  Y5  1  0.853643  0.750000  0.282886  1
  Y  Y6  1  0.646762  0.250000  0.783979  1
  Y  Y7  1  0.147331  0.250000  0.716301  1
  Er  Er8  1  0.025516  0.750000  0.989244  1
  Er  Er9  1  0.524505  0.750000  0.510942  1
  Er  Er10  1  0.974981  0.250000  0.012143  1
  Er  Er11  1  0.475038  0.250000  0.488597  1
  Er  Er12  1  0.306794  0.435397  0.940199  1
  Er  Er13  1  0.807539  0.064969  0.560017  1
  Er  Er14  1  0.693540  0.935308  0.060198  1
  Er  Er15  1  0.192686  0.564752  0.439322  1
  Er  Er16  1  0.693540  0.564692  0.060198  1
  Er  Er17  1  0.192686  0.935248  0.439322  1
  Er  Er18  1  0.306794  0.064603  0.940199  1
  Er  Er19  1  0.807539  0.435031  0.560017  1
  Bi  Bi20  1  0.434857  0.008562  0.671292  1
  Bi  Bi21  1  0.934580  0.491286  0.829179  1
  Bi  Bi22  1  0.562702  0.506361  0.327827  1
  Bi  Bi23  1  0.068840  0.994163  0.171854  1
  Bi  Bi24  1  0.562702  0.993639  0.327827  1
  Bi  Bi25  1  0.068840  0.505837  0.171854  1
  Bi  Bi26  1  0.434857  0.491438  0.671292  1
  Bi  Bi27  1  0.934580  0.008714  0.829179  1
  Bi  Bi28  1  0.406530  0.750000  0.962467  1
  Bi  Bi29  1  0.905968  0.750000  0.537406  1
  Bi  Bi30  1  0.589809  0.250000  0.040304  1
  Bi  Bi31  1  0.095887  0.250000  0.460780  1
