# generated using pymatgen
data_LuPuB6W
_symmetry_space_group_name_H-M   'P 1'
_cell_length_a   3.62519300
_cell_length_b   9.20634200
_cell_length_c   11.56210500
_cell_angle_alpha   90.00000000
_cell_angle_beta   90.00000000
_cell_angle_gamma   90.00000000
_symmetry_Int_Tables_number   1
_chemical_formula_structural   LuPuB6W
_chemical_formula_sum   'Lu4 Pu4 B24 W4'
_cell_volume   385.88255548
_cell_formula_units_Z   4
loop_
 _symmetry_equiv_pos_site_id
 _symmetry_equiv_pos_as_xyz
  1  'x, y, z'
loop_
 _atom_site_type_symbol
 _atom_site_label
 _atom_site_symmetry_multiplicity
 _atom_site_fract_x
 _atom_site_fract_y
 _atom_site_fract_z
 _atom_site_occupancy
  Lu  Lu0  1  0.000000  0.944415  0.372750  1
  Lu  Lu1  1  0.000000  0.055585  0.627250  1
  Lu  Lu2  1  0.000000  0.444415  0.127250  1
  Lu  Lu3  1  0.000000  0.555585  0.872750  1
  Pu  Pu4  1  0.000000  0.320752  0.413612  1
  Pu  Pu5  1  0.000000  0.679248  0.586388  1
  Pu  Pu6  1  0.000000  0.820752  0.086388  1
  Pu  Pu7  1  0.000000  0.179248  0.913612  1
  B  B8  1  0.500000  0.551729  0.434795  1
  B  B9  1  0.500000  0.448271  0.565205  1
  B  B10  1  0.500000  0.051729  0.065205  1
  B  B11  1  0.500000  0.948271  0.934795  1
  B  B12  1  0.500000  0.751694  0.421487  1
  B  B13  1  0.500000  0.248306  0.578513  1
  B  B14  1  0.500000  0.251694  0.078513  1
  B  B15  1  0.500000  0.748306  0.921487  1
  B  B16  1  0.500000  0.795086  0.263834  1
  B  B17  1  0.500000  0.204914  0.736166  1
  B  B18  1  0.500000  0.295086  0.236166  1
  B  B19  1  0.500000  0.704914  0.763834  1
  B  B20  1  0.500000  0.632043  0.182706  1
  B  B21  1  0.500000  0.367957  0.817294  1
  B  B22  1  0.500000  0.132043  0.317294  1
  B  B23  1  0.500000  0.867957  0.682706  1
  B  B24  1  0.500000  0.979005  0.212721  1
  B  B25  1  0.500000  0.020995  0.787279  1
  B  B26  1  0.500000  0.479005  0.287279  1
  B  B27  1  0.500000  0.520995  0.712721  1
  B  B28  1  0.500000  0.603255  0.028838  1
  B  B29  1  0.500000  0.396745  0.971162  1
  B  B30  1  0.500000  0.103255  0.471162  1
  B  B31  1  0.500000  0.896745  0.528838  1
  W  W32  1  0.000000  0.639187  0.321264  1
  W  W33  1  0.000000  0.360813  0.678736  1
  W  W34  1  0.000000  0.139187  0.178736  1
  W  W35  1  0.000000  0.860813  0.821264  1
