# generated using pymatgen
data_Ac(TiIr)2
_symmetry_space_group_name_H-M   'P 1'
_cell_length_a   6.32409971
_cell_length_b   6.32409944
_cell_length_c   6.32409942
_cell_angle_alpha   139.68760175
_cell_angle_beta   139.68758118
_cell_angle_gamma   58.32795247
_symmetry_Int_Tables_number   1
_chemical_formula_structural   Ac(TiIr)2
_chemical_formula_sum   'Ac1 Ti2 Ir2'
_cell_volume   104.89771569
_cell_formula_units_Z   1
loop_
 _symmetry_equiv_pos_site_id
 _symmetry_equiv_pos_as_xyz
  1  'x, y, z'
loop_
 _atom_site_type_symbol
 _atom_site_label
 _atom_site_symmetry_multiplicity
 _atom_site_fract_x
 _atom_site_fract_y
 _atom_site_fract_z
 _atom_site_occupancy
  Ac  Ac0  1  0.000000  0.000000  0.000000  1
  Ti  Ti1  1  0.250000  0.750000  0.500000  1
  Ti  Ti2  1  0.750000  0.250000  0.500000  1
  Ir  Ir3  1  0.626527  0.626527  0.000000  1
  Ir  Ir4  1  0.373473  0.373473  0.000000  1
