# generated using pymatgen
data_Pu8Si12Os3Pd
_symmetry_space_group_name_H-M   'P 1'
_cell_length_a   8.22823500
_cell_length_b   8.22823478
_cell_length_c   7.94909600
_cell_angle_alpha   90.00000000
_cell_angle_beta   90.00000000
_cell_angle_gamma   120.00000489
_symmetry_Int_Tables_number   1
_chemical_formula_structural   Pu8Si12Os3Pd
_chemical_formula_sum   'Pu8 Si12 Os3 Pd1'
_cell_volume   466.08133827
_cell_formula_units_Z   1
loop_
 _symmetry_equiv_pos_site_id
 _symmetry_equiv_pos_as_xyz
  1  'x, y, z'
loop_
 _atom_site_type_symbol
 _atom_site_label
 _atom_site_symmetry_multiplicity
 _atom_site_fract_x
 _atom_site_fract_y
 _atom_site_fract_z
 _atom_site_occupancy
  Pu  Pu0  1  0.000000  0.000000  0.250758  1
  Pu  Pu1  1  0.000000  0.000000  0.750044  1
  Pu  Pu2  1  0.504902  0.495098  0.243770  1
  Pu  Pu3  1  0.504902  0.009803  0.243770  1
  Pu  Pu4  1  0.990197  0.495098  0.243770  1
  Pu  Pu5  1  0.503850  0.496150  0.755985  1
  Pu  Pu6  1  0.503850  0.007700  0.755985  1
  Pu  Pu7  1  0.992300  0.496150  0.755985  1
  Si  Si8  1  0.164525  0.835475  0.501897  1
  Si  Si9  1  0.164525  0.329048  0.501897  1
  Si  Si10  1  0.670952  0.835475  0.501897  1
  Si  Si11  1  0.835669  0.164331  0.499967  1
  Si  Si12  1  0.835669  0.671340  0.499967  1
  Si  Si13  1  0.328660  0.164331  0.499967  1
  Si  Si14  1  0.836766  0.163234  0.999155  1
  Si  Si15  1  0.836766  0.673533  0.999155  1
  Si  Si16  1  0.326467  0.163234  0.999155  1
  Si  Si17  1  0.165145  0.834855  0.999800  1
  Si  Si18  1  0.165145  0.330289  0.999800  1
  Si  Si19  1  0.669711  0.834855  0.999800  1
  Os  Os20  1  0.666667  0.333333  0.501756  1
  Os  Os21  1  0.666667  0.333333  0.999598  1
  Os  Os22  1  0.333333  0.666667  0.000328  1
  Pd  Pd23  1  0.333333  0.666667  0.495797  1
