# generated using pymatgen
data_Ca2ErGa8Ag3
_symmetry_space_group_name_H-M   'P 1'
_cell_length_a   4.41455066
_cell_length_b   8.37439319
_cell_length_c   8.37439433
_cell_angle_alpha   70.98298628
_cell_angle_beta   74.71772835
_cell_angle_gamma   74.71772978
_symmetry_Int_Tables_number   1
_chemical_formula_structural   Ca2ErGa8Ag3
_chemical_formula_sum   'Ca2 Er1 Ga8 Ag3'
_cell_volume   276.93637743
_cell_formula_units_Z   1
loop_
 _symmetry_equiv_pos_site_id
 _symmetry_equiv_pos_as_xyz
  1  'x, y, z'
loop_
 _atom_site_type_symbol
 _atom_site_label
 _atom_site_symmetry_multiplicity
 _atom_site_fract_x
 _atom_site_fract_y
 _atom_site_fract_z
 _atom_site_occupancy
  Ca  Ca0  1  0.500134  0.499866  0.499866  1
  Ca  Ca1  1  0.201753  0.798247  0.798247  1
  Er  Er2  1  0.796229  0.203771  0.203771  1
  Ga  Ga3  1  0.357613  0.359021  0.925751  1
  Ga  Ga4  1  0.644130  0.635592  0.076149  1
  Ga  Ga5  1  0.357613  0.925751  0.359021  1
  Ga  Ga6  1  0.644130  0.076149  0.635592  1
  Ga  Ga7  1  0.159610  0.471144  0.209638  1
  Ga  Ga8  1  0.839919  0.526408  0.793752  1
  Ga  Ga9  1  0.159610  0.209638  0.471144  1
  Ga  Ga10  1  0.839919  0.793752  0.526408  1
  Ag  Ag11  1  0.499300  0.000700  0.000700  1
  Ag  Ag12  1  0.000019  0.810438  0.189525  1
  Ag  Ag13  1  0.000019  0.189525  0.810438  1
