# generated using pymatgen
data_Hf8Ti2ZnCu(SnSb)3
_symmetry_space_group_name_H-M   'P 1'
_cell_length_a   8.52968200
_cell_length_b   8.52968211
_cell_length_c   5.70825400
_cell_angle_alpha   90.00000000
_cell_angle_beta   90.00000000
_cell_angle_gamma   119.99999183
_symmetry_Int_Tables_number   1
_chemical_formula_structural   Hf8Ti2ZnCu(SnSb)3
_chemical_formula_sum   'Hf8 Ti2 Zn1 Cu1 Sn3 Sb3'
_cell_volume   359.66621385
_cell_formula_units_Z   1
loop_
 _symmetry_equiv_pos_site_id
 _symmetry_equiv_pos_as_xyz
  1  'x, y, z'
loop_
 _atom_site_type_symbol
 _atom_site_label
 _atom_site_symmetry_multiplicity
 _atom_site_fract_x
 _atom_site_fract_y
 _atom_site_fract_z
 _atom_site_occupancy
  Hf  Hf0  1  0.333333  0.666667  0.501023  1
  Hf  Hf1  1  0.666667  0.333333  0.501023  1
  Hf  Hf2  1  0.733411  0.733411  0.742583  1
  Hf  Hf3  1  0.266589  0.000000  0.742583  1
  Hf  Hf4  1  0.000000  0.266589  0.742583  1
  Hf  Hf5  1  0.263775  0.263775  0.257768  1
  Hf  Hf6  1  0.736225  0.000000  0.257768  1
  Hf  Hf7  1  0.000000  0.736225  0.257768  1
  Ti  Ti8  1  0.666667  0.333333  0.999992  1
  Ti  Ti9  1  0.333333  0.666667  0.999992  1
  Zn  Zn10  1  0.000000  0.000000  0.996053  1
  Cu  Cu11  1  0.000000  0.000000  0.503239  1
  Sn  Sn12  1  0.387313  0.387313  0.759327  1
  Sn  Sn13  1  0.612687  0.000000  0.759327  1
  Sn  Sn14  1  0.000000  0.612687  0.759327  1
  Sb  Sb15  1  0.610347  0.610347  0.239882  1
  Sb  Sb16  1  0.389653  0.000000  0.239882  1
  Sb  Sb17  1  0.000000  0.389653  0.239882  1
