# generated using pymatgen
data_La3Pd2RhPb3
_symmetry_space_group_name_H-M   'P 1'
_cell_length_a   7.87209700
_cell_length_b   7.87209640
_cell_length_c   4.20800800
_cell_angle_alpha   90.00000000
_cell_angle_beta   90.00000000
_cell_angle_gamma   120.00000673
_symmetry_Int_Tables_number   1
_chemical_formula_structural   La3Pd2RhPb3
_chemical_formula_sum   'La3 Pd2 Rh1 Pb3'
_cell_volume   225.83330978
_cell_formula_units_Z   1
loop_
 _symmetry_equiv_pos_site_id
 _symmetry_equiv_pos_as_xyz
  1  'x, y, z'
loop_
 _atom_site_type_symbol
 _atom_site_label
 _atom_site_symmetry_multiplicity
 _atom_site_fract_x
 _atom_site_fract_y
 _atom_site_fract_z
 _atom_site_occupancy
  La  La0  1  0.417126  0.409640  0.500000  1
  La  La1  1  0.590360  0.007486  0.500000  1
  La  La2  1  0.992514  0.582874  0.500000  1
  Pd  Pd3  1  0.333333  0.666667  0.000000  1
  Pd  Pd4  1  0.000000  0.000000  0.500000  1
  Rh  Rh5  1  0.666667  0.333333  0.000000  1
  Pb  Pb6  1  0.744869  0.743794  0.000000  1
  Pb  Pb7  1  0.256206  0.001074  0.000000  1
  Pb  Pb8  1  0.998926  0.255131  0.000000  1
