# generated using pymatgen
data_Rb3Er(TaSe4)2
_symmetry_space_group_name_H-M   'P 1'
_cell_length_a   9.59422607
_cell_length_b   10.81190346
_cell_length_c   11.61885700
_cell_angle_alpha   107.38217887
_cell_angle_beta   103.02161009
_cell_angle_gamma   113.76816769
_symmetry_Int_Tables_number   1
_chemical_formula_structural   Rb3Er(TaSe4)2
_chemical_formula_sum   'Rb6 Er2 Ta4 Se16'
_cell_volume   966.66846445
_cell_formula_units_Z   2
loop_
 _symmetry_equiv_pos_site_id
 _symmetry_equiv_pos_as_xyz
  1  'x, y, z'
loop_
 _atom_site_type_symbol
 _atom_site_label
 _atom_site_symmetry_multiplicity
 _atom_site_fract_x
 _atom_site_fract_y
 _atom_site_fract_z
 _atom_site_occupancy
  Rb  Rb0  1  0.000000  0.500000  0.000000  1
  Rb  Rb1  1  0.500000  0.500000  0.000000  1
  Rb  Rb2  1  0.260288  0.010415  0.020785  1
  Rb  Rb3  1  0.487560  0.737593  0.475152  1
  Rb  Rb4  1  0.512439  0.262405  0.524848  1
  Rb  Rb5  1  0.739712  0.989585  0.979214  1
  Er  Er6  1  0.994820  0.244888  0.489679  1
  Er  Er7  1  0.005181  0.755112  0.510321  1
  Ta  Ta8  1  0.757034  0.351637  0.259922  1
  Ta  Ta9  1  0.002960  0.908213  0.259956  1
  Ta  Ta10  1  0.997040  0.091788  0.740045  1
  Ta  Ta11  1  0.242965  0.648363  0.740078  1
  Se  Se12  1  0.646514  0.268648  0.027425  1
  Se  Se13  1  0.880915  0.758792  0.027448  1
  Se  Se14  1  0.129365  0.171113  0.300173  1
  Se  Se15  1  0.670955  0.129079  0.300284  1
  Se  Se16  1  0.053636  0.496011  0.355948  1
  Se  Se17  1  0.802163  0.859777  0.355816  1
  Se  Se18  1  0.206339  0.855198  0.362303  1
  Se  Se19  1  0.656004  0.506954  0.362234  1
  Se  Se20  1  0.343995  0.493045  0.637765  1
  Se  Se21  1  0.793660  0.144802  0.637696  1
  Se  Se22  1  0.197837  0.140222  0.644184  1
  Se  Se23  1  0.946363  0.503988  0.644052  1
  Se  Se24  1  0.329044  0.870920  0.699715  1
  Se  Se25  1  0.870635  0.828886  0.699826  1
  Se  Se26  1  0.119086  0.241208  0.972553  1
  Se  Se27  1  0.353485  0.731352  0.972576  1
