# generated using pymatgen
data_Pr2GaSn3Pt2
_symmetry_space_group_name_H-M   'P 1'
_cell_length_a   10.16130225
_cell_length_b   10.26649568
_cell_length_c   10.26649605
_cell_angle_alpha   154.03918196
_cell_angle_beta   124.53661615
_cell_angle_gamma   62.29095638
_symmetry_Int_Tables_number   1
_chemical_formula_structural   Pr2GaSn3Pt2
_chemical_formula_sum   'Pr4 Ga2 Sn6 Pt4'
_cell_volume   383.23050151
_cell_formula_units_Z   2
loop_
 _symmetry_equiv_pos_site_id
 _symmetry_equiv_pos_as_xyz
  1  'x, y, z'
loop_
 _atom_site_type_symbol
 _atom_site_label
 _atom_site_symmetry_multiplicity
 _atom_site_fract_x
 _atom_site_fract_y
 _atom_site_fract_z
 _atom_site_occupancy
  Pr  Pr0  1  0.734035  0.000888  0.733147  1
  Pr  Pr1  1  0.265965  0.999112  0.266853  1
  Pr  Pr2  1  0.284406  0.792799  0.491607  1
  Pr  Pr3  1  0.715594  0.207201  0.508393  1
  Ga  Ga4  1  0.035377  0.198258  0.837119  1
  Ga  Ga5  1  0.964623  0.801742  0.162881  1
  Sn  Sn6  1  0.922088  0.417732  0.504356  1
  Sn  Sn7  1  0.077912  0.582268  0.495644  1
  Sn  Sn8  1  0.417231  0.420551  0.996679  1
  Sn  Sn9  1  0.582769  0.579449  0.003321  1
  Sn  Sn10  1  0.347655  0.198389  0.149266  1
  Sn  Sn11  1  0.652345  0.801611  0.850734  1
  Pt  Pt12  1  0.600414  0.353620  0.246794  1
  Pt  Pt13  1  0.399586  0.646380  0.753206  1
  Pt  Pt14  1  0.094484  0.345703  0.748782  1
  Pt  Pt15  1  0.905516  0.654297  0.251218  1
