# generated using pymatgen
data_Nb8TlCrS16
_symmetry_space_group_name_H-M   'P 1'
_cell_length_a   6.65351306
_cell_length_b   6.65376651
_cell_length_c   14.41202400
_cell_angle_alpha   89.99144925
_cell_angle_beta   90.00752633
_cell_angle_gamma   119.99619031
_symmetry_Int_Tables_number   1
_chemical_formula_structural   Nb8TlCrS16
_chemical_formula_sum   'Nb8 Tl1 Cr1 S16'
_cell_volume   552.57450566
_cell_formula_units_Z   1
loop_
 _symmetry_equiv_pos_site_id
 _symmetry_equiv_pos_as_xyz
  1  'x, y, z'
loop_
 _atom_site_type_symbol
 _atom_site_label
 _atom_site_symmetry_multiplicity
 _atom_site_fract_x
 _atom_site_fract_y
 _atom_site_fract_z
 _atom_site_occupancy
  Nb  Nb0  1  0.999989  0.000037  0.211940  1
  Nb  Nb1  1  0.000011  0.999963  0.788060  1
  Nb  Nb2  1  0.504139  0.008320  0.209485  1
  Nb  Nb3  1  0.991709  0.495883  0.209482  1
  Nb  Nb4  1  0.504124  0.495886  0.209473  1
  Nb  Nb5  1  0.495861  0.991680  0.790515  1
  Nb  Nb6  1  0.008291  0.504117  0.790518  1
  Nb  Nb7  1  0.495876  0.504114  0.790527  1
  Tl  Tl8  1  0.000000  0.000000  0.500000  1
  Cr  Cr9  1  0.000000  0.000000  0.000000  1
  S  S10  1  0.333348  0.666634  0.900529  1
  S  S11  1  0.666652  0.333366  0.099471  1
  S  S12  1  0.666670  0.333359  0.320928  1
  S  S13  1  0.333330  0.666641  0.679072  1
  S  S14  1  0.167615  0.832393  0.318822  1
  S  S15  1  0.167633  0.335255  0.318788  1
  S  S16  1  0.664755  0.832372  0.318803  1
  S  S17  1  0.832385  0.167607  0.681178  1
  S  S18  1  0.832367  0.664745  0.681212  1
  S  S19  1  0.335245  0.167628  0.681197  1
  S  S20  1  0.834676  0.165280  0.899245  1
  S  S21  1  0.834723  0.669339  0.899250  1
  S  S22  1  0.330656  0.165260  0.899257  1
  S  S23  1  0.165324  0.834720  0.100755  1
  S  S24  1  0.165277  0.330661  0.100750  1
  S  S25  1  0.669344  0.834740  0.100743  1
