# generated using pymatgen
data_CsSb12(OsRu)2
_symmetry_space_group_name_H-M   'P 1'
_cell_length_a   8.20658093
_cell_length_b   8.20658173
_cell_length_c   8.21662963
_cell_angle_alpha   109.36360124
_cell_angle_beta   109.54647689
_cell_angle_gamma   109.45407334
_symmetry_Int_Tables_number   1
_chemical_formula_structural   CsSb12(OsRu)2
_chemical_formula_sum   'Cs1 Sb12 Os2 Ru2'
_cell_volume   426.24630575
_cell_formula_units_Z   1
loop_
 _symmetry_equiv_pos_site_id
 _symmetry_equiv_pos_as_xyz
  1  'x, y, z'
loop_
 _atom_site_type_symbol
 _atom_site_label
 _atom_site_symmetry_multiplicity
 _atom_site_fract_x
 _atom_site_fract_y
 _atom_site_fract_z
 _atom_site_occupancy
  Cs  Cs0  1  0.000000  0.000000  0.000000  1
  Sb  Sb1  1  0.161326  0.505448  0.344671  1
  Sb  Sb2  1  0.494207  0.655136  0.838580  1
  Sb  Sb3  1  0.344173  0.839306  0.183479  1
  Sb  Sb4  1  0.816555  0.655628  0.161420  1
  Sb  Sb5  1  0.654865  0.839381  0.494248  1
  Sb  Sb6  1  0.183445  0.344372  0.838580  1
  Sb  Sb7  1  0.655827  0.160694  0.816521  1
  Sb  Sb8  1  0.345135  0.160619  0.505752  1
  Sb  Sb9  1  0.505793  0.344864  0.161420  1
  Sb  Sb10  1  0.838674  0.494552  0.655329  1
  Sb  Sb11  1  0.839223  0.183345  0.344671  1
  Sb  Sb12  1  0.160777  0.816655  0.655329  1
  Os  Os13  1  0.500000  0.000000  0.000000  1
  Os  Os14  1  0.000000  0.500000  0.000000  1
  Ru  Ru15  1  0.500000  0.500000  0.500000  1
  Ru  Ru16  1  0.000000  0.000000  0.500000  1
