# generated using pymatgen
data_HfZr(TaBr9)2
_symmetry_space_group_name_H-M   'P 1'
_cell_length_a   12.92048400
_cell_length_b   7.52275965
_cell_length_c   10.10254436
_cell_angle_alpha   74.88345448
_cell_angle_beta   90.00000000
_cell_angle_gamma   90.00000000
_symmetry_Int_Tables_number   1
_chemical_formula_structural   HfZr(TaBr9)2
_chemical_formula_sum   'Hf1 Zr1 Ta2 Br18'
_cell_volume   947.96617974
_cell_formula_units_Z   1
loop_
 _symmetry_equiv_pos_site_id
 _symmetry_equiv_pos_as_xyz
  1  'x, y, z'
loop_
 _atom_site_type_symbol
 _atom_site_label
 _atom_site_symmetry_multiplicity
 _atom_site_fract_x
 _atom_site_fract_y
 _atom_site_fract_z
 _atom_site_occupancy
  Hf  Hf0  1  0.250000  0.755220  0.470947  1
  Zr  Zr1  1  0.750000  0.243775  0.532048  1
  Ta  Ta2  1  0.250000  0.645683  0.853373  1
  Ta  Ta3  1  0.750000  0.354426  0.146011  1
  Br  Br4  1  0.614941  0.436962  0.319870  1
  Br  Br5  1  0.115385  0.563216  0.678687  1
  Br  Br6  1  0.384615  0.563216  0.678687  1
  Br  Br7  1  0.885059  0.436962  0.319870  1
  Br  Br8  1  0.750000  0.675144  0.012030  1
  Br  Br9  1  0.250000  0.324851  0.986449  1
  Br  Br10  1  0.750000  0.515443  0.633286  1
  Br  Br11  1  0.250000  0.488706  0.367841  1
  Br  Br12  1  0.750000  0.033166  0.334541  1
  Br  Br13  1  0.250000  0.966273  0.664123  1
  Br  Br14  1  0.891117  0.249844  0.024569  1
  Br  Br15  1  0.391458  0.751103  0.973294  1
  Br  Br16  1  0.108542  0.751103  0.973294  1
  Br  Br17  1  0.608883  0.249844  0.024569  1
  Br  Br18  1  0.900123  0.060673  0.654834  1
  Br  Br19  1  0.398314  0.936858  0.348421  1
  Br  Br20  1  0.101686  0.936858  0.348421  1
  Br  Br21  1  0.599877  0.060673  0.654834  1
