# generated using pymatgen
data_Li2Pr3AlPd3
_symmetry_space_group_name_H-M   'P 1'
_cell_length_a   7.59654439
_cell_length_b   7.49541629
_cell_length_c   4.06892400
_cell_angle_alpha   90.00000000
_cell_angle_beta   90.00000000
_cell_angle_gamma   119.56059987
_symmetry_Int_Tables_number   1
_chemical_formula_structural   Li2Pr3AlPd3
_chemical_formula_sum   'Li2 Pr3 Al1 Pd3'
_cell_volume   201.52456366
_cell_formula_units_Z   1
loop_
 _symmetry_equiv_pos_site_id
 _symmetry_equiv_pos_as_xyz
  1  'x, y, z'
loop_
 _atom_site_type_symbol
 _atom_site_label
 _atom_site_symmetry_multiplicity
 _atom_site_fract_x
 _atom_site_fract_y
 _atom_site_fract_z
 _atom_site_occupancy
  Li  Li0  1  0.770456  0.769202  0.000000  1
  Li  Li1  1  0.229544  0.998745  0.000000  1
  Pr  Pr2  1  0.406218  0.411855  0.500000  1
  Pr  Pr3  1  0.593782  0.005637  0.500000  1
  Pr  Pr4  1  0.000000  0.578548  0.500000  1
  Al  Al5  1  0.000000  0.232646  0.000000  1
  Pd  Pd6  1  0.677595  0.330314  0.000000  1
  Pd  Pd7  1  0.322405  0.652721  0.000000  1
  Pd  Pd8  1  0.000000  0.020333  0.500000  1
