# generated using pymatgen
data_KTi(NbSe2)8
_symmetry_space_group_name_H-M   'P 1'
_cell_length_a   6.99295402
_cell_length_b   6.99315855
_cell_length_c   15.16881264
_cell_angle_alpha   89.96798195
_cell_angle_beta   90.00582738
_cell_angle_gamma   119.99221089
_symmetry_Int_Tables_number   1
_chemical_formula_structural   KTi(NbSe2)8
_chemical_formula_sum   'K1 Ti1 Nb8 Se16'
_cell_volume   642.46617974
_cell_formula_units_Z   1
loop_
 _symmetry_equiv_pos_site_id
 _symmetry_equiv_pos_as_xyz
  1  'x, y, z'
loop_
 _atom_site_type_symbol
 _atom_site_label
 _atom_site_symmetry_multiplicity
 _atom_site_fract_x
 _atom_site_fract_y
 _atom_site_fract_z
 _atom_site_occupancy
  K  K0  1  0.000000  0.000000  0.500000  1
  Ti  Ti1  1  0.000000  0.000000  0.000000  1
  Nb  Nb2  1  0.999902  0.999969  0.213242  1
  Nb  Nb3  1  0.000098  0.000031  0.786758  1
  Nb  Nb4  1  0.506261  0.012550  0.213419  1
  Nb  Nb5  1  0.987480  0.493797  0.213448  1
  Nb  Nb6  1  0.506324  0.493773  0.213482  1
  Nb  Nb7  1  0.493739  0.987450  0.786581  1
  Nb  Nb8  1  0.012520  0.506203  0.786552  1
  Nb  Nb9  1  0.493676  0.506227  0.786518  1
  Se  Se10  1  0.333240  0.666505  0.899240  1
  Se  Se11  1  0.666760  0.333495  0.100760  1
  Se  Se12  1  0.666576  0.333199  0.327450  1
  Se  Se13  1  0.333424  0.666801  0.672550  1
  Se  Se14  1  0.167568  0.832433  0.323019  1
  Se  Se15  1  0.167580  0.335126  0.323058  1
  Se  Se16  1  0.664825  0.832398  0.323055  1
  Se  Se17  1  0.832432  0.167567  0.676981  1
  Se  Se18  1  0.832420  0.664874  0.676942  1
  Se  Se19  1  0.335175  0.167602  0.676945  1
  Se  Se20  1  0.831904  0.168070  0.896858  1
  Se  Se21  1  0.831817  0.663607  0.896850  1
  Se  Se22  1  0.336241  0.168086  0.896932  1
  Se  Se23  1  0.168096  0.831930  0.103142  1
  Se  Se24  1  0.168183  0.336393  0.103150  1
  Se  Se25  1  0.663759  0.831914  0.103068  1
