# generated using pymatgen
data_La3AlSn2Pt3
_symmetry_space_group_name_H-M   'P 1'
_cell_length_a   7.64686525
_cell_length_b   7.64686557
_cell_length_c   4.23679500
_cell_angle_alpha   90.00000000
_cell_angle_beta   90.00000000
_cell_angle_gamma   120.96519187
_symmetry_Int_Tables_number   1
_chemical_formula_structural   La3AlSn2Pt3
_chemical_formula_sum   'La3 Al1 Sn2 Pt3'
_cell_volume   212.43612035
_cell_formula_units_Z   1
loop_
 _symmetry_equiv_pos_site_id
 _symmetry_equiv_pos_as_xyz
  1  'x, y, z'
loop_
 _atom_site_type_symbol
 _atom_site_label
 _atom_site_symmetry_multiplicity
 _atom_site_fract_x
 _atom_site_fract_y
 _atom_site_fract_z
 _atom_site_occupancy
  La  La0  1  0.994810  0.582601  0.000000  1
  La  La1  1  0.422845  0.422845  0.000000  1
  La  La2  1  0.582601  0.994810  0.000000  1
  Al  Al3  1  0.758368  0.758368  0.500000  1
  Sn  Sn4  1  0.996628  0.240930  0.500000  1
  Sn  Sn5  1  0.240930  0.996628  0.500000  1
  Pt  Pt6  1  0.671927  0.356850  0.500000  1
  Pt  Pt7  1  0.975042  0.975042  0.000000  1
  Pt  Pt8  1  0.356850  0.671927  0.500000  1
