# generated using pymatgen
data_Lu9Si4B16Os
_symmetry_space_group_name_H-M   'P 1'
_cell_length_a   7.04042300
_cell_length_b   7.04042300
_cell_length_c   7.60979500
_cell_angle_alpha   90.00000000
_cell_angle_beta   90.00000000
_cell_angle_gamma   90.00000000
_symmetry_Int_Tables_number   1
_chemical_formula_structural   Lu9Si4B16Os
_chemical_formula_sum   'Lu9 Si4 B16 Os1'
_cell_volume   377.19893996
_cell_formula_units_Z   1
loop_
 _symmetry_equiv_pos_site_id
 _symmetry_equiv_pos_as_xyz
  1  'x, y, z'
loop_
 _atom_site_type_symbol
 _atom_site_label
 _atom_site_symmetry_multiplicity
 _atom_site_fract_x
 _atom_site_fract_y
 _atom_site_fract_z
 _atom_site_occupancy
  Lu  Lu0  1  0.680382  0.178689  0.231563  1
  Lu  Lu1  1  0.319618  0.821311  0.768437  1
  Lu  Lu2  1  0.319618  0.821311  0.231563  1
  Lu  Lu3  1  0.821311  0.680382  0.231563  1
  Lu  Lu4  1  0.821311  0.680382  0.768437  1
  Lu  Lu5  1  0.680382  0.178689  0.768437  1
  Lu  Lu6  1  0.178689  0.319618  0.768437  1
  Lu  Lu7  1  0.178689  0.319618  0.231563  1
  Lu  Lu8  1  0.500000  0.500000  0.500000  1
  Si  Si9  1  0.112005  0.632221  0.500000  1
  Si  Si10  1  0.887995  0.367779  0.500000  1
  Si  Si11  1  0.367779  0.112005  0.500000  1
  Si  Si12  1  0.632221  0.887995  0.500000  1
  B  B13  1  0.173443  0.039160  0.000000  1
  B  B14  1  0.826557  0.960840  0.000000  1
  B  B15  1  0.960840  0.173443  0.000000  1
  B  B16  1  0.327538  0.540524  0.000000  1
  B  B17  1  0.039160  0.826557  0.000000  1
  B  B18  1  0.672462  0.459476  0.000000  1
  B  B19  1  0.540524  0.672462  0.000000  1
  B  B20  1  0.459476  0.327538  0.000000  1
  B  B21  1  0.089346  0.588923  0.000000  1
  B  B22  1  0.910654  0.411077  0.000000  1
  B  B23  1  0.411077  0.089346  0.000000  1
  B  B24  1  0.588923  0.910654  0.000000  1
  B  B25  1  0.000000  0.000000  0.176227  1
  B  B26  1  0.000000  0.000000  0.823773  1
  B  B27  1  0.500000  0.500000  0.829675  1
  B  B28  1  0.500000  0.500000  0.170325  1
  Os  Os29  1  0.000000  0.000000  0.500000  1
