# generated using pymatgen
data_Ca8P5Au
_symmetry_space_group_name_H-M   'P 1'
_cell_length_a   7.63337497
_cell_length_b   7.63337568
_cell_length_c   7.63337425
_cell_angle_alpha   109.06727694
_cell_angle_beta   109.06727949
_cell_angle_gamma   110.28216014
_symmetry_Int_Tables_number   1
_chemical_formula_structural   Ca8P5Au
_chemical_formula_sum   'Ca8 P5 Au1'
_cell_volume   342.34386208
_cell_formula_units_Z   1
loop_
 _symmetry_equiv_pos_site_id
 _symmetry_equiv_pos_as_xyz
  1  'x, y, z'
loop_
 _atom_site_type_symbol
 _atom_site_label
 _atom_site_symmetry_multiplicity
 _atom_site_fract_x
 _atom_site_fract_y
 _atom_site_fract_z
 _atom_site_occupancy
  Ca  Ca0  1  0.738983  0.363041  0.239634  1
  Ca  Ca1  1  0.974879  0.734302  0.093127  1
  Ca  Ca2  1  0.641176  0.881753  0.906873  1
  Ca  Ca3  1  0.123407  0.499349  0.760366  1
  Ca  Ca4  1  0.636959  0.876593  0.375943  1
  Ca  Ca5  1  0.500651  0.261017  0.624057  1
  Ca  Ca6  1  0.265698  0.358824  0.240577  1
  Ca  Ca7  1  0.118247  0.025121  0.759423  1
  P  P8  1  0.745078  0.633102  0.617394  1
  P  P9  1  0.366898  0.984293  0.111977  1
  P  P10  1  0.015707  0.127684  0.382606  1
  P  P11  1  0.500000  0.500000  0.000000  1
  P  P12  1  0.872316  0.254922  0.888023  1
  Au  Au13  1  0.250000  0.750000  0.500000  1
