# generated using pymatgen
data_ErCo2(PIr)3
_symmetry_space_group_name_H-M   'P 1'
_cell_length_a   3.85450300
_cell_length_b   10.58979800
_cell_length_c   12.17661200
_cell_angle_alpha   90.00000000
_cell_angle_beta   90.00000000
_cell_angle_gamma   90.00000000
_symmetry_Int_Tables_number   1
_chemical_formula_structural   ErCo2(PIr)3
_chemical_formula_sum   'Er4 Co8 P12 Ir12'
_cell_volume   497.02991863
_cell_formula_units_Z   4
loop_
 _symmetry_equiv_pos_site_id
 _symmetry_equiv_pos_as_xyz
  1  'x, y, z'
loop_
 _atom_site_type_symbol
 _atom_site_label
 _atom_site_symmetry_multiplicity
 _atom_site_fract_x
 _atom_site_fract_y
 _atom_site_fract_z
 _atom_site_occupancy
  Er  Er0  1  0.250000  0.584776  0.710535  1
  Er  Er1  1  0.250000  0.915224  0.210535  1
  Er  Er2  1  0.750000  0.415224  0.289465  1
  Er  Er3  1  0.750000  0.084776  0.789465  1
  Co  Co4  1  0.250000  0.884172  0.697266  1
  Co  Co5  1  0.250000  0.615828  0.197266  1
  Co  Co6  1  0.750000  0.115828  0.302734  1
  Co  Co7  1  0.750000  0.384172  0.802734  1
  Co  Co8  1  0.250000  0.464113  0.933497  1
  Co  Co9  1  0.250000  0.035887  0.433497  1
  Co  Co10  1  0.750000  0.535887  0.066503  1
  Co  Co11  1  0.750000  0.964113  0.566503  1
  P  P12  1  0.250000  0.432295  0.111192  1
  P  P13  1  0.250000  0.067705  0.611192  1
  P  P14  1  0.750000  0.567705  0.888808  1
  P  P15  1  0.750000  0.932295  0.388808  1
  P  P16  1  0.250000  0.274489  0.870467  1
  P  P17  1  0.250000  0.225511  0.370467  1
  P  P18  1  0.750000  0.725511  0.129533  1
  P  P19  1  0.750000  0.774489  0.629533  1
  P  P20  1  0.250000  0.597651  0.376570  1
  P  P21  1  0.250000  0.902349  0.876570  1
  P  P22  1  0.750000  0.402349  0.623430  1
  P  P23  1  0.750000  0.097651  0.123430  1
  Ir  Ir24  1  0.250000  0.723819  0.990837  1
  Ir  Ir25  1  0.250000  0.776181  0.490837  1
  Ir  Ir26  1  0.750000  0.276181  0.009163  1
  Ir  Ir27  1  0.750000  0.223819  0.509163  1
  Ir  Ir28  1  0.250000  0.410495  0.476098  1
  Ir  Ir29  1  0.250000  0.089505  0.976098  1
  Ir  Ir30  1  0.750000  0.589505  0.523902  1
  Ir  Ir31  1  0.750000  0.910495  0.023902  1
  Ir  Ir32  1  0.250000  0.227876  0.178769  1
  Ir  Ir33  1  0.250000  0.272124  0.678769  1
  Ir  Ir34  1  0.750000  0.772124  0.821231  1
  Ir  Ir35  1  0.750000  0.727876  0.321231  1
