# generated using pymatgen
data_NdY(Ga3Pd)2
_symmetry_space_group_name_H-M   'P 1'
_cell_length_a   6.07788836
_cell_length_b   6.07788817
_cell_length_c   5.84528400
_cell_angle_alpha   90.00000000
_cell_angle_beta   90.00000000
_cell_angle_gamma   116.45838604
_symmetry_Int_Tables_number   1
_chemical_formula_structural   NdY(Ga3Pd)2
_chemical_formula_sum   'Nd1 Y1 Ga6 Pd2'
_cell_volume   193.31223731
_cell_formula_units_Z   1
loop_
 _symmetry_equiv_pos_site_id
 _symmetry_equiv_pos_as_xyz
  1  'x, y, z'
loop_
 _atom_site_type_symbol
 _atom_site_label
 _atom_site_symmetry_multiplicity
 _atom_site_fract_x
 _atom_site_fract_y
 _atom_site_fract_z
 _atom_site_occupancy
  Nd  Nd0  1  0.235500  0.764500  0.750000  1
  Y  Y1  1  0.767149  0.232851  0.250000  1
  Ga  Ga2  1  0.666636  0.333364  0.750000  1
  Ga  Ga3  1  0.333182  0.666818  0.250000  1
  Ga  Ga4  1  0.715317  0.715679  0.999969  1
  Ga  Ga5  1  0.715317  0.715679  0.500031  1
  Ga  Ga6  1  0.284321  0.284683  0.999969  1
  Ga  Ga7  1  0.284321  0.284683  0.500031  1
  Pd  Pd8  1  0.903834  0.096166  0.750000  1
  Pd  Pd9  1  0.094423  0.905577  0.250000  1
