# generated using pymatgen
data_Sn16Pd3Pt
_symmetry_space_group_name_H-M   'P 1'
_cell_length_a   12.78910170
_cell_length_b   6.44763432
_cell_length_c   6.44763300
_cell_angle_alpha   89.98157539
_cell_angle_beta   104.60514377
_cell_angle_gamma   104.60514041
_symmetry_Int_Tables_number   1
_chemical_formula_structural   Sn16Pd3Pt
_chemical_formula_sum   'Sn16 Pd3 Pt1'
_cell_volume   496.72594805
_cell_formula_units_Z   1
loop_
 _symmetry_equiv_pos_site_id
 _symmetry_equiv_pos_as_xyz
  1  'x, y, z'
loop_
 _atom_site_type_symbol
 _atom_site_label
 _atom_site_symmetry_multiplicity
 _atom_site_fract_x
 _atom_site_fract_y
 _atom_site_fract_z
 _atom_site_occupancy
  Sn  Sn0  1  0.877342  0.266882  0.017483  1
  Sn  Sn1  1  0.377617  0.516902  0.111017  1
  Sn  Sn2  1  0.122383  0.233402  0.139286  1
  Sn  Sn3  1  0.622863  0.140525  0.233085  1
  Sn  Sn4  1  0.377317  0.016633  0.266064  1
  Sn  Sn5  1  0.877342  0.610459  0.359859  1
  Sn  Sn6  1  0.622658  0.640141  0.389542  1
  Sn  Sn7  1  0.122383  0.888983  0.483097  1
  Sn  Sn8  1  0.877137  0.110222  0.517661  1
  Sn  Sn9  1  0.377317  0.360683  0.611252  1
  Sn  Sn10  1  0.122683  0.388748  0.639317  1
  Sn  Sn11  1  0.622658  0.982518  0.733117  1
  Sn  Sn12  1  0.377617  0.860714  0.766599  1
  Sn  Sn13  1  0.877137  0.766916  0.859475  1
  Sn  Sn14  1  0.622863  0.482340  0.889777  1
  Sn  Sn15  1  0.122683  0.733937  0.983366  1
  Pd  Pd16  1  0.250000  0.625000  0.375001  1
  Pd  Pd17  1  0.750000  0.375000  0.625001  1
  Pd  Pd18  1  0.250000  0.125000  0.875000  1
  Pt  Pt19  1  0.750000  0.875000  0.124999  1
