# generated using pymatgen
data_LaPrY6(WO6)4
_symmetry_space_group_name_H-M   'P 1'
_cell_length_a   5.47501100
_cell_length_b   7.81075332
_cell_length_c   11.60635404
_cell_angle_alpha   75.63750745
_cell_angle_beta   90.00000000
_cell_angle_gamma   90.00000000
_symmetry_Int_Tables_number   1
_chemical_formula_structural   LaPrY6(WO6)4
_chemical_formula_sum   'La1 Pr1 Y6 W4 O24'
_cell_volume   480.82112902
_cell_formula_units_Z   1
loop_
 _symmetry_equiv_pos_site_id
 _symmetry_equiv_pos_as_xyz
  1  'x, y, z'
loop_
 _atom_site_type_symbol
 _atom_site_label
 _atom_site_symmetry_multiplicity
 _atom_site_fract_x
 _atom_site_fract_y
 _atom_site_fract_z
 _atom_site_occupancy
  La  La0  1  0.314045  0.500000  0.750000  1
  Pr  Pr1  1  0.685199  0.500000  0.250000  1
  Y  Y2  1  0.186731  0.796957  0.076923  1
  Y  Y3  1  0.258251  0.000000  0.750000  1
  Y  Y4  1  0.741752  0.000000  0.250000  1
  Y  Y5  1  0.186731  0.203043  0.423077  1
  Y  Y6  1  0.813177  0.202543  0.923417  1
  Y  Y7  1  0.813177  0.797457  0.576583  1
  W  W8  1  0.746573  0.728484  0.884368  1
  W  W9  1  0.253484  0.728269  0.383965  1
  W  W10  1  0.746573  0.271516  0.615632  1
  W  W11  1  0.253484  0.271731  0.116035  1
  O  O12  1  0.853243  0.357490  0.454922  1
  O  O13  1  0.467712  0.845841  0.930362  1
  O  O14  1  0.853243  0.642510  0.045078  1
  O  O15  1  0.012765  0.279647  0.729827  1
  O  O16  1  0.986415  0.280764  0.229672  1
  O  O17  1  0.145567  0.357361  0.955897  1
  O  O18  1  0.653448  0.494885  0.887508  1
  O  O19  1  0.531905  0.154183  0.069644  1
  O  O20  1  0.145567  0.642639  0.544103  1
  O  O21  1  0.012765  0.720353  0.770173  1
  O  O22  1  0.454993  0.205526  0.272311  1
  O  O23  1  0.043273  0.941084  0.395600  1
  O  O24  1  0.467712  0.154159  0.569638  1
  O  O25  1  0.986415  0.719236  0.270328  1
  O  O26  1  0.956981  0.059027  0.604145  1
  O  O27  1  0.545993  0.204862  0.772108  1
  O  O28  1  0.545993  0.795138  0.727892  1
  O  O29  1  0.043273  0.058916  0.104400  1
  O  O30  1  0.653448  0.505115  0.612492  1
  O  O31  1  0.348115  0.505203  0.112850  1
  O  O32  1  0.454993  0.794474  0.227689  1
  O  O33  1  0.348115  0.494797  0.387150  1
  O  O34  1  0.531905  0.845817  0.430356  1
  O  O35  1  0.956981  0.940973  0.895855  1
