# generated using pymatgen
data_TmLu3Th6(Ge5Rh2)4
_symmetry_space_group_name_H-M   'P 1'
_cell_length_a   13.08136401
_cell_length_b   13.08136401
_cell_length_c   4.36540500
_cell_angle_alpha   90.00000000
_cell_angle_beta   90.00000000
_cell_angle_gamma   90.00370544
_symmetry_Int_Tables_number   1
_chemical_formula_structural   TmLu3Th6(Ge5Rh2)4
_chemical_formula_sum   'Tm1 Lu3 Th6 Ge20 Rh8'
_cell_volume   747.01720076
_cell_formula_units_Z   1
loop_
 _symmetry_equiv_pos_site_id
 _symmetry_equiv_pos_as_xyz
  1  'x, y, z'
loop_
 _atom_site_type_symbol
 _atom_site_label
 _atom_site_symmetry_multiplicity
 _atom_site_fract_x
 _atom_site_fract_y
 _atom_site_fract_z
 _atom_site_occupancy
  Tm  Tm0  1  0.674422  0.174422  0.500000  1
  Lu  Lu1  1  0.325691  0.825691  0.500000  1
  Lu  Lu2  1  0.825691  0.674287  0.500000  1
  Lu  Lu3  1  0.174287  0.325691  0.500000  1
  Th  Th4  1  0.112737  0.612737  0.500000  1
  Th  Th5  1  0.612709  0.887243  0.500000  1
  Th  Th6  1  0.387243  0.112709  0.500000  1
  Th  Th7  1  0.887285  0.387285  0.500000  1
  Th  Th8  1  0.500002  0.500005  0.000000  1
  Th  Th9  1  0.000005  0.000002  0.000000  1
  Ge  Ge10  1  0.337641  0.495554  0.500000  1
  Ge  Ge11  1  0.662358  0.504432  0.500000  1
  Ge  Ge12  1  0.504347  0.337703  0.500000  1
  Ge  Ge13  1  0.495548  0.662364  0.500000  1
  Ge  Ge14  1  0.995554  0.837641  0.500000  1
  Ge  Ge15  1  0.837703  0.004347  0.500000  1
  Ge  Ge16  1  0.162364  0.995548  0.500000  1
  Ge  Ge17  1  0.004432  0.162358  0.500000  1
  Ge  Ge18  1  0.336862  0.300899  0.000000  1
  Ge  Ge19  1  0.663119  0.699107  0.000000  1
  Ge  Ge20  1  0.699180  0.337018  0.000000  1
  Ge  Ge21  1  0.300890  0.663127  0.000000  1
  Ge  Ge22  1  0.800899  0.836862  0.000000  1
  Ge  Ge23  1  0.837018  0.199180  0.000000  1
  Ge  Ge24  1  0.163127  0.800890  0.000000  1
  Ge  Ge25  1  0.199107  0.163119  0.000000  1
  Ge  Ge26  1  0.432892  0.932892  0.000000  1
  Ge  Ge27  1  0.932911  0.567081  0.000000  1
  Ge  Ge28  1  0.566933  0.066933  0.000000  1
  Ge  Ge29  1  0.067081  0.432911  0.000000  1
  Rh  Rh30  1  0.244660  0.977393  0.000000  1
  Rh  Rh31  1  0.755431  0.022459  0.000000  1
  Rh  Rh32  1  0.022665  0.244660  0.000000  1
  Rh  Rh33  1  0.977359  0.755335  0.000000  1
  Rh  Rh34  1  0.477393  0.744660  0.000000  1
  Rh  Rh35  1  0.744660  0.522665  0.000000  1
  Rh  Rh36  1  0.255335  0.477359  0.000000  1
  Rh  Rh37  1  0.522459  0.255431  0.000000  1
