# generated using pymatgen
data_TaBr35
_symmetry_space_group_name_H-M   'P 1'
_cell_length_a   15.98197694
_cell_length_b   11.40028128
_cell_length_c   10.79188300
_cell_angle_alpha   88.81408278
_cell_angle_beta   66.02770512
_cell_angle_gamma   92.31545406
_symmetry_Int_Tables_number   1
_chemical_formula_structural   TaBr35
_chemical_formula_sum   'Ta1 Br35'
_cell_volume   1793.71352310
_cell_formula_units_Z   1
loop_
 _symmetry_equiv_pos_site_id
 _symmetry_equiv_pos_as_xyz
  1  'x, y, z'
loop_
 _atom_site_type_symbol
 _atom_site_label
 _atom_site_symmetry_multiplicity
 _atom_site_fract_x
 _atom_site_fract_y
 _atom_site_fract_z
 _atom_site_occupancy
  Ta  Ta0  1  0.228609  0.443845  0.463591  1
  Br  Br1  1  0.520323  0.259316  0.517231  1
  Br  Br2  1  0.764269  0.578646  0.558610  1
  Br  Br3  1  0.488411  0.682936  0.747957  1
  Br  Br4  1  0.048592  0.886887  0.865894  1
  Br  Br5  1  0.889903  0.158848  0.006722  1
  Br  Br6  1  0.653711  0.317875  0.286452  1
  Br  Br7  1  0.623138  0.348323  0.835100  1
  Br  Br8  1  0.351752  0.755013  0.709274  1
  Br  Br9  1  0.335553  0.586257  0.227437  1
  Br  Br10  1  0.643160  0.143422  0.808741  1
  Br  Br11  1  0.904884  0.540317  0.357169  1
  Br  Br12  1  0.050147  0.950717  0.639090  1
  Br  Br13  1  0.897661  0.109579  0.241588  1
  Br  Br14  1  0.882935  0.213346  0.787383  1
  Br  Br15  1  0.646523  0.044743  0.230612  1
  Br  Br16  1  0.023168  0.817255  0.108992  1
  Br  Br17  1  0.370292  0.975539  0.724483  1
  Br  Br18  1  0.898019  0.318919  0.308004  1
  Br  Br19  1  0.868005  0.925230  0.719523  1
  Br  Br20  1  0.893408  0.659787  0.797239  1
  Br  Br21  1  0.313617  0.030719  0.297683  1
  Br  Br22  1  0.340983  0.320432  0.277710  1
  Br  Br23  1  0.624958  0.613576  0.791884  1
  Br  Br24  1  0.121073  0.414921  0.350776  1
  Br  Br25  1  0.700815  0.907547  0.797357  1
  Br  Br26  1  0.868670  0.451049  0.802611  1
  Br  Br27  1  0.484647  0.036536  0.265530  1
  Br  Br28  1  0.154303  0.290546  0.637833  1
  Br  Br29  1  0.674586  0.768829  0.269290  1
  Br  Br30  1  0.848083  0.796561  0.192841  1
  Br  Br31  1  0.386809  0.199507  0.737893  1
  Br  Br32  1  0.355579  0.488649  0.537033  1
  Br  Br33  1  0.657417  0.540792  0.268680  1
  Br  Br34  1  0.154689  0.622702  0.568131  1
  Br  Br35  1  0.331309  0.800836  0.263658  1
