# generated using pymatgen
data_TmLu5MnBi2
_symmetry_space_group_name_H-M   'P 1'
_cell_length_a   8.13870100
_cell_length_b   8.12996218
_cell_length_c   4.21643100
_cell_angle_alpha   90.00000000
_cell_angle_beta   90.00000000
_cell_angle_gamma   120.03556755
_symmetry_Int_Tables_number   1
_chemical_formula_structural   TmLu5MnBi2
_chemical_formula_sum   'Tm1 Lu5 Mn1 Bi2'
_cell_volume   241.52577510
_cell_formula_units_Z   1
loop_
 _symmetry_equiv_pos_site_id
 _symmetry_equiv_pos_as_xyz
  1  'x, y, z'
loop_
 _atom_site_type_symbol
 _atom_site_label
 _atom_site_symmetry_multiplicity
 _atom_site_fract_x
 _atom_site_fract_y
 _atom_site_fract_z
 _atom_site_occupancy
  Tm  Tm0  1  0.614174  0.000000  0.000000  1
  Lu  Lu1  1  0.231193  0.000000  0.500000  1
  Lu  Lu2  1  0.000283  0.231037  0.500000  1
  Lu  Lu3  1  0.769246  0.768963  0.500000  1
  Lu  Lu4  1  0.999610  0.615865  0.000000  1
  Lu  Lu5  1  0.383744  0.384135  0.000000  1
  Mn  Mn6  1  0.002563  0.000000  0.000000  1
  Bi  Bi7  1  0.332648  0.666109  0.500000  1
  Bi  Bi8  1  0.666540  0.333891  0.500000  1
