# generated using pymatgen
data_Er3Tm9(OsRu)2
_symmetry_space_group_name_H-M   'P 1'
_cell_length_a   7.33311739
_cell_length_b   8.95699300
_cell_length_c   6.23898101
_cell_angle_alpha   90.00000000
_cell_angle_beta   89.85140761
_cell_angle_gamma   90.00000000
_symmetry_Int_Tables_number   1
_chemical_formula_structural   Er3Tm9(OsRu)2
_chemical_formula_sum   'Er3 Tm9 Os2 Ru2'
_cell_volume   409.79162218
_cell_formula_units_Z   1
loop_
 _symmetry_equiv_pos_site_id
 _symmetry_equiv_pos_as_xyz
  1  'x, y, z'
loop_
 _atom_site_type_symbol
 _atom_site_label
 _atom_site_symmetry_multiplicity
 _atom_site_fract_x
 _atom_site_fract_y
 _atom_site_fract_z
 _atom_site_occupancy
  Er  Er0  1  0.040583  0.250000  0.629633  1
  Er  Er1  1  0.959399  0.750000  0.370554  1
  Er  Er2  1  0.460543  0.750000  0.131415  1
  Tm  Tm3  1  0.539655  0.250000  0.868526  1
  Tm  Tm4  1  0.174435  0.062271  0.165871  1
  Tm  Tm5  1  0.825516  0.937911  0.833998  1
  Tm  Tm6  1  0.324884  0.936402  0.667594  1
  Tm  Tm7  1  0.825516  0.562089  0.833998  1
  Tm  Tm8  1  0.675257  0.063938  0.332244  1
  Tm  Tm9  1  0.174435  0.437729  0.165871  1
  Tm  Tm10  1  0.675257  0.436062  0.332244  1
  Tm  Tm11  1  0.324884  0.563598  0.667594  1
  Os  Os12  1  0.117182  0.750000  0.959925  1
  Os  Os13  1  0.882315  0.250000  0.039646  1
  Ru  Ru14  1  0.383754  0.250000  0.462142  1
  Ru  Ru15  1  0.616389  0.750000  0.538745  1
