# generated using pymatgen
data_TmMg(AlPt)2
_symmetry_space_group_name_H-M   'P 1'
_cell_length_a   4.21131100
_cell_length_b   6.80865700
_cell_length_c   7.69119000
_cell_angle_alpha   90.00000000
_cell_angle_beta   90.00000000
_cell_angle_gamma   90.00000000
_symmetry_Int_Tables_number   1
_chemical_formula_structural   TmMg(AlPt)2
_chemical_formula_sum   'Tm2 Mg2 Al4 Pt4'
_cell_volume   220.53235291
_cell_formula_units_Z   2
loop_
 _symmetry_equiv_pos_site_id
 _symmetry_equiv_pos_as_xyz
  1  'x, y, z'
loop_
 _atom_site_type_symbol
 _atom_site_label
 _atom_site_symmetry_multiplicity
 _atom_site_fract_x
 _atom_site_fract_y
 _atom_site_fract_z
 _atom_site_occupancy
  Tm  Tm0  1  0.750000  0.974806  0.331834  1
  Tm  Tm1  1  0.750000  0.474806  0.168166  1
  Mg  Mg2  1  0.250000  0.025435  0.678631  1
  Mg  Mg3  1  0.250000  0.525435  0.821369  1
  Al  Al4  1  0.250000  0.143283  0.054362  1
  Al  Al5  1  0.250000  0.643283  0.445638  1
  Al  Al6  1  0.750000  0.859213  0.935776  1
  Al  Al7  1  0.750000  0.359213  0.564224  1
  Pt  Pt8  1  0.250000  0.273907  0.375933  1
  Pt  Pt9  1  0.250000  0.773907  0.124067  1
  Pt  Pt10  1  0.750000  0.723355  0.626641  1
  Pt  Pt11  1  0.750000  0.223355  0.873359  1
