# generated using pymatgen
data_K8HfBi4
_symmetry_space_group_name_H-M   'P 1'
_cell_length_a   11.85764183
_cell_length_b   11.85764094
_cell_length_c   11.85764100
_cell_angle_alpha   59.99999706
_cell_angle_beta   59.99999951
_cell_angle_gamma   59.99999883
_symmetry_Int_Tables_number   1
_chemical_formula_structural   K8HfBi4
_chemical_formula_sum   'K16 Hf2 Bi8'
_cell_volume   1178.90798162
_cell_formula_units_Z   2
loop_
 _symmetry_equiv_pos_site_id
 _symmetry_equiv_pos_as_xyz
  1  'x, y, z'
loop_
 _atom_site_type_symbol
 _atom_site_label
 _atom_site_symmetry_multiplicity
 _atom_site_fract_x
 _atom_site_fract_y
 _atom_site_fract_z
 _atom_site_occupancy
  K  K0  1  0.625000  0.125000  0.625000  1
  K  K1  1  0.625000  0.625000  0.125000  1
  K  K2  1  0.125000  0.625000  0.625000  1
  K  K3  1  0.625000  0.625000  0.625000  1
  K  K4  1  0.025640  0.025640  0.474360  1
  K  K5  1  0.775640  0.224360  0.224360  1
  K  K6  1  0.224360  0.775640  0.775640  1
  K  K7  1  0.775640  0.775640  0.224360  1
  K  K8  1  0.775640  0.224360  0.775640  1
  K  K9  1  0.224360  0.775640  0.224360  1
  K  K10  1  0.474360  0.025640  0.474360  1
  K  K11  1  0.474360  0.025640  0.025640  1
  K  K12  1  0.025640  0.474360  0.474360  1
  K  K13  1  0.025640  0.474360  0.025640  1
  K  K14  1  0.224360  0.224360  0.775640  1
  K  K15  1  0.474360  0.474360  0.025640  1
  Hf  Hf16  1  0.750000  0.750000  0.750000  1
  Hf  Hf17  1  0.500000  0.500000  0.500000  1
  Bi  Bi18  1  0.398473  0.804582  0.398473  1
  Bi  Bi19  1  0.851527  0.851527  0.445418  1
  Bi  Bi20  1  0.445418  0.851527  0.851527  1
  Bi  Bi21  1  0.851527  0.851527  0.851527  1
  Bi  Bi22  1  0.804582  0.398473  0.398473  1
  Bi  Bi23  1  0.398473  0.398473  0.398473  1
  Bi  Bi24  1  0.398473  0.398473  0.804582  1
  Bi  Bi25  1  0.851527  0.445418  0.851527  1
