# generated using pymatgen
data_Y8ErTm11Pt16
_symmetry_space_group_name_H-M   'P 1'
_cell_length_a   7.45017209
_cell_length_b   7.52416210
_cell_length_c   14.64255019
_cell_angle_alpha   89.97509275
_cell_angle_beta   89.99431734
_cell_angle_gamma   90.00001557
_symmetry_Int_Tables_number   1
_chemical_formula_structural   Y8ErTm11Pt16
_chemical_formula_sum   'Y8 Er1 Tm11 Pt16'
_cell_volume   820.80714077
_cell_formula_units_Z   1
loop_
 _symmetry_equiv_pos_site_id
 _symmetry_equiv_pos_as_xyz
  1  'x, y, z'
loop_
 _atom_site_type_symbol
 _atom_site_label
 _atom_site_symmetry_multiplicity
 _atom_site_fract_x
 _atom_site_fract_y
 _atom_site_fract_z
 _atom_site_occupancy
  Y  Y0  1  0.998803  0.820623  0.406920  1
  Y  Y1  1  0.498534  0.679117  0.093613  1
  Y  Y2  1  0.501186  0.320725  0.592765  1
  Y  Y3  1  0.001478  0.180014  0.907033  1
  Y  Y4  1  0.001146  0.179174  0.592890  1
  Y  Y5  1  0.501057  0.320800  0.907003  1
  Y  Y6  1  0.498696  0.679250  0.406913  1
  Y  Y7  1  0.998812  0.820588  0.093099  1
  Er  Er8  1  0.656169  0.832261  0.877880  1
  Tm  Tm9  1  0.681091  0.989885  0.250075  1
  Tm  Tm10  1  0.181077  0.510116  0.250113  1
  Tm  Tm11  1  0.819073  0.489648  0.749633  1
  Tm  Tm12  1  0.318812  0.010497  0.749677  1
  Tm  Tm13  1  0.656046  0.832475  0.622395  1
  Tm  Tm14  1  0.156241  0.667561  0.877399  1
  Tm  Tm15  1  0.843960  0.332557  0.377506  1
  Tm  Tm16  1  0.343779  0.167674  0.122652  1
  Tm  Tm17  1  0.343845  0.167498  0.377532  1
  Tm  Tm18  1  0.844190  0.332671  0.122909  1
  Tm  Tm19  1  0.156152  0.667499  0.622224  1
  Pt  Pt20  1  0.816406  0.641277  0.250096  1
  Pt  Pt21  1  0.316212  0.858780  0.250118  1
  Pt  Pt22  1  0.683835  0.141881  0.749281  1
  Pt  Pt23  1  0.183144  0.358421  0.749843  1
  Pt  Pt24  1  0.546321  0.383870  0.250151  1
  Pt  Pt25  1  0.046480  0.116189  0.250159  1
  Pt  Pt26  1  0.954531  0.884479  0.749209  1
  Pt  Pt27  1  0.453194  0.614871  0.749280  1
  Pt  Pt28  1  0.818112  0.534125  0.542046  1
  Pt  Pt29  1  0.316382  0.966452  0.958331  1
  Pt  Pt30  1  0.681886  0.034081  0.457849  1
  Pt  Pt31  1  0.182283  0.466011  0.042191  1
  Pt  Pt32  1  0.181871  0.465905  0.457820  1
  Pt  Pt33  1  0.681589  0.034936  0.043212  1
  Pt  Pt34  1  0.318163  0.965942  0.542034  1
  Pt  Pt35  1  0.819437  0.532147  0.958149  1
