# generated using pymatgen
data_SrNdBi2(Pt2O7)2
_symmetry_space_group_name_H-M   'P 1'
_cell_length_a   7.40367542
_cell_length_b   7.38513790
_cell_length_c   7.40367553
_cell_angle_alpha   60.66144471
_cell_angle_beta   60.95534509
_cell_angle_gamma   60.66144188
_symmetry_Int_Tables_number   1
_chemical_formula_structural   SrNdBi2(Pt2O7)2
_chemical_formula_sum   'Sr1 Nd1 Bi2 Pt4 O14'
_cell_volume   291.14461229
_cell_formula_units_Z   1
loop_
 _symmetry_equiv_pos_site_id
 _symmetry_equiv_pos_as_xyz
  1  'x, y, z'
loop_
 _atom_site_type_symbol
 _atom_site_label
 _atom_site_symmetry_multiplicity
 _atom_site_fract_x
 _atom_site_fract_y
 _atom_site_fract_z
 _atom_site_occupancy
  Sr  Sr0  1  0.125000  0.125000  0.125000  1
  Nd  Nd1  1  0.125000  0.625000  0.125000  1
  Bi  Bi2  1  0.125000  0.125000  0.625000  1
  Bi  Bi3  1  0.625000  0.125000  0.125000  1
  Pt  Pt4  1  0.625000  0.625000  0.125000  1
  Pt  Pt5  1  0.625000  0.125000  0.625000  1
  Pt  Pt6  1  0.125000  0.625000  0.625000  1
  Pt  Pt7  1  0.625000  0.625000  0.625000  1
  O  O8  1  0.258406  0.250954  0.258406  1
  O  O9  1  0.991594  0.999046  0.991594  1
  O  O10  1  0.544075  0.954601  0.544075  1
  O  O11  1  0.292268  0.700656  0.292268  1
  O  O12  1  0.540404  0.542776  0.956685  1
  O  O13  1  0.956685  0.542776  0.540404  1
  O  O14  1  0.548554  0.956249  0.955904  1
  O  O15  1  0.955904  0.956249  0.548554  1
  O  O16  1  0.957732  0.549344  0.957732  1
  O  O17  1  0.701446  0.293751  0.294096  1
  O  O18  1  0.293315  0.707224  0.709596  1
  O  O19  1  0.705925  0.295399  0.705925  1
  O  O20  1  0.294096  0.293751  0.701446  1
  O  O21  1  0.709596  0.707224  0.293315  1
