# generated using pymatgen
data_Sr4Ga3PdI2
_symmetry_space_group_name_H-M   'P 1'
_cell_length_a   4.47311000
_cell_length_b   4.47311009
_cell_length_c   18.23780500
_cell_angle_alpha   90.00000000
_cell_angle_beta   90.00000000
_cell_angle_gamma   119.99999932
_symmetry_Int_Tables_number   1
_chemical_formula_structural   Sr4Ga3PdI2
_chemical_formula_sum   'Sr4 Ga3 Pd1 I2'
_cell_volume   316.02567521
_cell_formula_units_Z   1
loop_
 _symmetry_equiv_pos_site_id
 _symmetry_equiv_pos_as_xyz
  1  'x, y, z'
loop_
 _atom_site_type_symbol
 _atom_site_label
 _atom_site_symmetry_multiplicity
 _atom_site_fract_x
 _atom_site_fract_y
 _atom_site_fract_z
 _atom_site_occupancy
  Sr  Sr0  1  0.000000  0.000000  0.389342  1
  Sr  Sr1  1  0.000000  0.000000  0.883642  1
  Sr  Sr2  1  0.000000  0.000000  0.611424  1
  Sr  Sr3  1  0.000000  0.000000  0.116055  1
  Ga  Ga4  1  0.333333  0.666667  0.989025  1
  Ga  Ga5  1  0.333333  0.666667  0.501090  1
  Ga  Ga6  1  0.666667  0.333333  0.010626  1
  Pd  Pd7  1  0.666667  0.333333  0.498765  1
  I  I8  1  0.333333  0.666667  0.247726  1
  I  I9  1  0.666667  0.333333  0.752304  1
