# generated using pymatgen
data_CsRb(Sc3Se5)2
_symmetry_space_group_name_H-M   'P 1'
_cell_length_a   3.93514600
_cell_length_b   11.93089535
_cell_length_c   21.09737904
_cell_angle_alpha   90.39620420
_cell_angle_beta   90.00000000
_cell_angle_gamma   90.00000000
_symmetry_Int_Tables_number   1
_chemical_formula_structural   CsRb(Sc3Se5)2
_chemical_formula_sum   'Cs2 Rb2 Sc12 Se20'
_cell_volume   990.49436307
_cell_formula_units_Z   2
loop_
 _symmetry_equiv_pos_site_id
 _symmetry_equiv_pos_as_xyz
  1  'x, y, z'
loop_
 _atom_site_type_symbol
 _atom_site_label
 _atom_site_symmetry_multiplicity
 _atom_site_fract_x
 _atom_site_fract_y
 _atom_site_fract_z
 _atom_site_occupancy
  Cs  Cs0  1  0.750000  0.358094  0.411757  1
  Cs  Cs1  1  0.250000  0.641906  0.588243  1
  Rb  Rb2  1  0.250000  0.853389  0.090520  1
  Rb  Rb3  1  0.750000  0.146611  0.909480  1
  Sc  Sc4  1  0.750000  0.796180  0.825240  1
  Sc  Sc5  1  0.250000  0.203820  0.174760  1
  Sc  Sc6  1  0.250000  0.294280  0.676441  1
  Sc  Sc7  1  0.750000  0.705720  0.323559  1
  Sc  Sc8  1  0.250000  0.956722  0.698760  1
  Sc  Sc9  1  0.750000  0.043278  0.301240  1
  Sc  Sc10  1  0.750000  0.455352  0.802507  1
  Sc  Sc11  1  0.250000  0.544648  0.197493  1
  Sc  Sc12  1  0.750000  0.393101  0.055416  1
  Sc  Sc13  1  0.250000  0.606899  0.944584  1
  Sc  Sc14  1  0.250000  0.893993  0.443998  1
  Sc  Sc15  1  0.750000  0.106007  0.556002  1
  Se  Se16  1  0.250000  0.947653  0.568839  1
  Se  Se17  1  0.750000  0.052347  0.431161  1
  Se  Se18  1  0.750000  0.447638  0.931359  1
  Se  Se19  1  0.250000  0.552362  0.068641  1
  Se  Se20  1  0.750000  0.763844  0.952580  1
  Se  Se21  1  0.250000  0.236156  0.047420  1
  Se  Se22  1  0.250000  0.262454  0.549593  1
  Se  Se23  1  0.750000  0.737546  0.450407  1
  Se  Se24  1  0.250000  0.948867  0.826767  1
  Se  Se25  1  0.750000  0.051133  0.173233  1
  Se  Se26  1  0.750000  0.445530  0.675428  1
  Se  Se27  1  0.250000  0.554470  0.324572  1
  Se  Se28  1  0.750000  0.124351  0.686695  1
  Se  Se29  1  0.250000  0.875649  0.313305  1
  Se  Se30  1  0.250000  0.624965  0.813931  1
  Se  Se31  1  0.750000  0.375035  0.186069  1
  Se  Se32  1  0.750000  0.695129  0.196459  1
  Se  Se33  1  0.250000  0.304871  0.803541  1
  Se  Se34  1  0.250000  0.193107  0.301888  1
  Se  Se35  1  0.750000  0.806893  0.698112  1
