# generated using pymatgen
data_Yb2InOsO6
_symmetry_space_group_name_H-M   'P 1'
_cell_length_a   5.44745012
_cell_length_b   5.73233900
_cell_length_c   9.53877319
_cell_angle_alpha   90.00000000
_cell_angle_beta   124.61211052
_cell_angle_gamma   90.00000000
_symmetry_Int_Tables_number   1
_chemical_formula_structural   Yb2InOsO6
_chemical_formula_sum   'Yb4 In2 Os2 O12'
_cell_volume   245.14672794
_cell_formula_units_Z   2
loop_
 _symmetry_equiv_pos_site_id
 _symmetry_equiv_pos_as_xyz
  1  'x, y, z'
loop_
 _atom_site_type_symbol
 _atom_site_label
 _atom_site_symmetry_multiplicity
 _atom_site_fract_x
 _atom_site_fract_y
 _atom_site_fract_z
 _atom_site_occupancy
  Yb  Yb0  1  0.229616  0.433630  0.750693  1
  Yb  Yb1  1  0.229616  0.066370  0.250693  1
  Yb  Yb2  1  0.770384  0.566370  0.249307  1
  Yb  Yb3  1  0.770384  0.933630  0.749307  1
  In  In4  1  0.500000  0.500000  0.500000  1
  In  In5  1  0.500000  0.000000  0.000000  1
  Os  Os6  1  0.000000  0.500000  0.000000  1
  Os  Os7  1  0.000000  0.000000  0.500000  1
  O  O8  1  0.763658  0.186532  0.558598  1
  O  O9  1  0.763658  0.313468  0.058598  1
  O  O10  1  0.236342  0.813468  0.441402  1
  O  O11  1  0.236342  0.686532  0.941402  1
  O  O12  1  0.885824  0.710228  0.564242  1
  O  O13  1  0.885824  0.789772  0.064242  1
  O  O14  1  0.114176  0.289772  0.435758  1
  O  O15  1  0.114176  0.210228  0.935758  1
  O  O16  1  0.355058  0.044828  0.736994  1
  O  O17  1  0.355058  0.455172  0.236994  1
  O  O18  1  0.644942  0.955172  0.263006  1
  O  O19  1  0.644942  0.544828  0.763006  1
