# generated using pymatgen
data_LaHo5FeBr10
_symmetry_space_group_name_H-M   'P 1'
_cell_length_a   7.40609276
_cell_length_b   9.33621925
_cell_length_c   9.04633727
_cell_angle_alpha   108.12434305
_cell_angle_beta   103.50851927
_cell_angle_gamma   96.74197137
_symmetry_Int_Tables_number   1
_chemical_formula_structural   LaHo5FeBr10
_chemical_formula_sum   'La1 Ho5 Fe1 Br10'
_cell_volume   565.66860626
_cell_formula_units_Z   1
loop_
 _symmetry_equiv_pos_site_id
 _symmetry_equiv_pos_as_xyz
  1  'x, y, z'
loop_
 _atom_site_type_symbol
 _atom_site_label
 _atom_site_symmetry_multiplicity
 _atom_site_fract_x
 _atom_site_fract_y
 _atom_site_fract_z
 _atom_site_occupancy
  La  La0  1  0.964374  0.083771  0.273621  1
  Ho  Ho1  1  0.354075  0.177000  0.127325  1
  Ho  Ho2  1  0.037309  0.918421  0.734064  1
  Ho  Ho3  1  0.120922  0.753035  0.049155  1
  Ho  Ho4  1  0.644740  0.823767  0.870394  1
  Ho  Ho5  1  0.873599  0.245690  0.951932  1
  Fe  Fe6  1  0.995303  0.005406  0.019817  1
  Br  Br7  1  0.447874  0.078481  0.815004  1
  Br  Br8  1  0.753811  0.544588  0.911159  1
  Br  Br9  1  0.240754  0.451161  0.074408  1
  Br  Br10  1  0.917677  0.166995  0.635349  1
  Br  Br11  1  0.673763  0.732902  0.558844  1
  Br  Br12  1  0.533390  0.910812  0.173598  1
  Br  Br13  1  0.097348  0.815688  0.371131  1
  Br  Br14  1  0.763362  0.352419  0.238909  1
  Br  Br15  1  0.218413  0.661667  0.748617  1
  Br  Br16  1  0.363285  0.278196  0.446671  1
