# generated using pymatgen
data_Pr3SnGeRh2
_symmetry_space_group_name_H-M   'P 1'
_cell_length_a   5.80335300
_cell_length_b   8.45191800
_cell_length_c   13.76265800
_cell_angle_alpha   90.00000000
_cell_angle_beta   90.00000000
_cell_angle_gamma   90.00000000
_symmetry_Int_Tables_number   1
_chemical_formula_structural   Pr3SnGeRh2
_chemical_formula_sum   'Pr12 Sn4 Ge4 Rh8'
_cell_volume   675.05099373
_cell_formula_units_Z   4
loop_
 _symmetry_equiv_pos_site_id
 _symmetry_equiv_pos_as_xyz
  1  'x, y, z'
loop_
 _atom_site_type_symbol
 _atom_site_label
 _atom_site_symmetry_multiplicity
 _atom_site_fract_x
 _atom_site_fract_y
 _atom_site_fract_z
 _atom_site_occupancy
  Pr  Pr0  1  0.644856  0.250689  0.250000  1
  Pr  Pr1  1  0.355144  0.749311  0.750000  1
  Pr  Pr2  1  0.355144  0.750689  0.250000  1
  Pr  Pr3  1  0.644856  0.249311  0.750000  1
  Pr  Pr4  1  0.155609  0.394236  0.101628  1
  Pr  Pr5  1  0.844391  0.605764  0.898372  1
  Pr  Pr6  1  0.844391  0.605764  0.601628  1
  Pr  Pr7  1  0.844391  0.894236  0.398372  1
  Pr  Pr8  1  0.155609  0.394236  0.398372  1
  Pr  Pr9  1  0.155609  0.105764  0.601628  1
  Pr  Pr10  1  0.155609  0.105764  0.898372  1
  Pr  Pr11  1  0.844391  0.894236  0.101628  1
  Sn  Sn12  1  0.655482  0.250000  0.000000  1
  Sn  Sn13  1  0.344518  0.750000  0.000000  1
  Sn  Sn14  1  0.344518  0.750000  0.500000  1
  Sn  Sn15  1  0.655482  0.250000  0.500000  1
  Ge  Ge16  1  0.145488  0.105045  0.250000  1
  Ge  Ge17  1  0.854512  0.894955  0.750000  1
  Ge  Ge18  1  0.854512  0.605045  0.250000  1
  Ge  Ge19  1  0.145488  0.394955  0.750000  1
  Rh  Rh20  1  0.374382  0.036597  0.097245  1
  Rh  Rh21  1  0.625618  0.963403  0.902755  1
  Rh  Rh22  1  0.625618  0.963403  0.597245  1
  Rh  Rh23  1  0.625618  0.536597  0.402755  1
  Rh  Rh24  1  0.374382  0.036597  0.402755  1
  Rh  Rh25  1  0.374382  0.463403  0.597245  1
  Rh  Rh26  1  0.374382  0.463403  0.902755  1
  Rh  Rh27  1  0.625618  0.536597  0.097245  1
