# generated using pymatgen
data_Sr4Nb2CrRhO12
_symmetry_space_group_name_H-M   'P 1'
_cell_length_a   5.66467580
_cell_length_b   5.66060014
_cell_length_c   8.03885001
_cell_angle_alpha   89.90066418
_cell_angle_beta   90.02988842
_cell_angle_gamma   90.00463015
_symmetry_Int_Tables_number   1
_chemical_formula_structural   Sr4Nb2CrRhO12
_chemical_formula_sum   'Sr4 Nb2 Cr1 Rh1 O12'
_cell_volume   257.76903729
_cell_formula_units_Z   1
loop_
 _symmetry_equiv_pos_site_id
 _symmetry_equiv_pos_as_xyz
  1  'x, y, z'
loop_
 _atom_site_type_symbol
 _atom_site_label
 _atom_site_symmetry_multiplicity
 _atom_site_fract_x
 _atom_site_fract_y
 _atom_site_fract_z
 _atom_site_occupancy
  Sr  Sr0  1  0.000667  0.982594  0.749224  1
  Sr  Sr1  1  0.498752  0.482688  0.748408  1
  Sr  Sr2  1  0.501248  0.517312  0.251592  1
  Sr  Sr3  1  0.999333  0.017406  0.250776  1
  Nb  Nb4  1  0.000000  0.500000  0.500000  1
  Nb  Nb5  1  0.500000  0.000000  0.000000  1
  Cr  Cr6  1  0.500000  0.000000  0.500000  1
  Rh  Rh7  1  0.000000  0.500000  0.000000  1
  O  O8  1  0.720003  0.281021  0.479495  1
  O  O9  1  0.778685  0.784114  0.021218  1
  O  O10  1  0.219039  0.219871  0.521077  1
  O  O11  1  0.284501  0.721066  0.978271  1
  O  O12  1  0.279997  0.718979  0.520505  1
  O  O13  1  0.221315  0.215886  0.978782  1
  O  O14  1  0.780961  0.780129  0.478923  1
  O  O15  1  0.715499  0.278934  0.021729  1
  O  O16  1  0.042139  0.494367  0.252854  1
  O  O17  1  0.458615  0.994214  0.250240  1
  O  O18  1  0.541385  0.005786  0.749760  1
  O  O19  1  0.957861  0.505633  0.747146  1
