# generated using pymatgen
data_Eu5Ge2BiH
_symmetry_space_group_name_H-M   'P 1'
_cell_length_a   9.47432342
_cell_length_b   9.47432248
_cell_length_c   9.47432300
_cell_angle_alpha   129.39202904
_cell_angle_beta   129.39203222
_cell_angle_gamma   74.38059085
_symmetry_Int_Tables_number   1
_chemical_formula_structural   Eu5Ge2BiH
_chemical_formula_sum   'Eu10 Ge4 Bi2 H2'
_cell_volume   495.07801723
_cell_formula_units_Z   2
loop_
 _symmetry_equiv_pos_site_id
 _symmetry_equiv_pos_as_xyz
  1  'x, y, z'
loop_
 _atom_site_type_symbol
 _atom_site_label
 _atom_site_symmetry_multiplicity
 _atom_site_fract_x
 _atom_site_fract_y
 _atom_site_fract_z
 _atom_site_occupancy
  Eu  Eu0  1  0.500000  0.500000  0.000000  1
  Eu  Eu1  1  0.000000  0.000000  0.000000  1
  Eu  Eu2  1  0.519811  0.019811  0.823374  1
  Eu  Eu3  1  0.196437  0.696437  0.176626  1
  Eu  Eu4  1  0.019811  0.196437  0.500000  1
  Eu  Eu5  1  0.696437  0.519811  0.500000  1
  Eu  Eu6  1  0.480189  0.980189  0.176626  1
  Eu  Eu7  1  0.803563  0.303563  0.823374  1
  Eu  Eu8  1  0.980189  0.803563  0.500000  1
  Eu  Eu9  1  0.303563  0.480189  0.500000  1
  Ge  Ge10  1  0.878523  0.378523  0.257047  1
  Ge  Ge11  1  0.121477  0.621477  0.742953  1
  Ge  Ge12  1  0.378523  0.121477  0.500000  1
  Ge  Ge13  1  0.621477  0.878523  0.500000  1
  Bi  Bi14  1  0.250000  0.250000  0.000000  1
  Bi  Bi15  1  0.750000  0.750000  0.000000  1
  H  H16  1  0.250000  0.750000  0.500000  1
  H  H17  1  0.750000  0.250000  0.500000  1
