# generated using pymatgen
data_ErLu5(Sc2Pb3)2
_symmetry_space_group_name_H-M   'P 1'
_cell_length_a   8.78920700
_cell_length_b   8.80843087
_cell_length_c   6.31531600
_cell_angle_alpha   90.00000000
_cell_angle_beta   90.00000000
_cell_angle_gamma   119.92783544
_symmetry_Int_Tables_number   1
_chemical_formula_structural   ErLu5(Sc2Pb3)2
_chemical_formula_sum   'Er1 Lu5 Sc4 Pb6'
_cell_volume   423.73009610
_cell_formula_units_Z   1
loop_
 _symmetry_equiv_pos_site_id
 _symmetry_equiv_pos_as_xyz
  1  'x, y, z'
loop_
 _atom_site_type_symbol
 _atom_site_label
 _atom_site_symmetry_multiplicity
 _atom_site_fract_x
 _atom_site_fract_y
 _atom_site_fract_z
 _atom_site_occupancy
  Er  Er0  1  0.236029  0.000000  0.250000  1
  Lu  Lu1  1  0.236262  0.236720  0.750000  1
  Lu  Lu2  1  0.999543  0.763280  0.750000  1
  Lu  Lu3  1  0.999877  0.236405  0.250000  1
  Lu  Lu4  1  0.763472  0.763595  0.250000  1
  Lu  Lu5  1  0.764708  0.000000  0.750000  1
  Sc  Sc6  1  0.333558  0.667050  0.999940  1
  Sc  Sc7  1  0.666509  0.332950  0.500060  1
  Sc  Sc8  1  0.666509  0.332950  0.999940  1
  Sc  Sc9  1  0.333558  0.667050  0.500060  1
  Pb  Pb10  1  0.602681  0.000000  0.250000  1
  Pb  Pb11  1  0.601698  0.601704  0.750000  1
  Pb  Pb12  1  0.999994  0.398296  0.750000  1
  Pb  Pb13  1  0.998781  0.600081  0.250000  1
  Pb  Pb14  1  0.398700  0.399919  0.250000  1
  Pb  Pb15  1  0.398121  0.000000  0.750000  1
