# generated using pymatgen
data_KYbH6Ir
_symmetry_space_group_name_H-M   'P 1'
_cell_length_a   7.57895700
_cell_length_b   7.57895700
_cell_length_c   7.57895700
_cell_angle_alpha   90.00000000
_cell_angle_beta   90.00000000
_cell_angle_gamma   90.00000000
_symmetry_Int_Tables_number   1
_chemical_formula_structural   KYbH6Ir
_chemical_formula_sum   'K4 Yb4 H24 Ir4'
_cell_volume   435.33975566
_cell_formula_units_Z   4
loop_
 _symmetry_equiv_pos_site_id
 _symmetry_equiv_pos_as_xyz
  1  'x, y, z'
loop_
 _atom_site_type_symbol
 _atom_site_label
 _atom_site_symmetry_multiplicity
 _atom_site_fract_x
 _atom_site_fract_y
 _atom_site_fract_z
 _atom_site_occupancy
  K  K0  1  0.000000  0.000000  0.500000  1
  K  K1  1  0.000000  0.500000  0.000000  1
  K  K2  1  0.500000  0.000000  0.000000  1
  K  K3  1  0.000000  0.000000  0.000000  1
  Yb  Yb4  1  0.500000  0.500000  0.500000  1
  Yb  Yb5  1  0.000000  0.500000  0.500000  1
  Yb  Yb6  1  0.500000  0.000000  0.500000  1
  Yb  Yb7  1  0.500000  0.500000  0.000000  1
  H  H8  1  0.733125  0.733125  0.494233  1
  H  H9  1  0.266875  0.266875  0.494233  1
  H  H10  1  0.049742  0.728314  0.728314  1
  H  H11  1  0.271686  0.950258  0.728314  1
  H  H12  1  0.728314  0.049742  0.728314  1
  H  H13  1  0.950258  0.271686  0.728314  1
  H  H14  1  0.733125  0.494233  0.733125  1
  H  H15  1  0.494233  0.733125  0.733125  1
  H  H16  1  0.505767  0.266875  0.733125  1
  H  H17  1  0.266875  0.505767  0.733125  1
  H  H18  1  0.271686  0.728314  0.950258  1
  H  H19  1  0.728314  0.271686  0.950258  1
  H  H20  1  0.728314  0.728314  0.049742  1
  H  H21  1  0.271686  0.271686  0.049742  1
  H  H22  1  0.266875  0.494233  0.266875  1
  H  H23  1  0.505767  0.733125  0.266875  1
  H  H24  1  0.494233  0.266875  0.266875  1
  H  H25  1  0.733125  0.505767  0.266875  1
  H  H26  1  0.950258  0.728314  0.271686  1
  H  H27  1  0.728314  0.950258  0.271686  1
  H  H28  1  0.271686  0.049742  0.271686  1
  H  H29  1  0.049742  0.271686  0.271686  1
  H  H30  1  0.266875  0.733125  0.505767  1
  H  H31  1  0.733125  0.266875  0.505767  1
  Ir  Ir32  1  0.272324  0.727676  0.727676  1
  Ir  Ir33  1  0.727676  0.272324  0.727676  1
  Ir  Ir34  1  0.727676  0.727676  0.272324  1
  Ir  Ir35  1  0.272324  0.272324  0.272324  1
