# generated using pymatgen
data_RbP5Ru3O19
_symmetry_space_group_name_H-M   'P 1'
_cell_length_a   8.54281809
_cell_length_b   8.54281700
_cell_length_c   6.40294602
_cell_angle_alpha   81.35980492
_cell_angle_beta   81.35981407
_cell_angle_gamma   112.72966965
_symmetry_Int_Tables_number   1
_chemical_formula_structural   RbP5Ru3O19
_chemical_formula_sum   'Rb1 P5 Ru3 O19'
_cell_volume   414.84034312
_cell_formula_units_Z   1
loop_
 _symmetry_equiv_pos_site_id
 _symmetry_equiv_pos_as_xyz
  1  'x, y, z'
loop_
 _atom_site_type_symbol
 _atom_site_label
 _atom_site_symmetry_multiplicity
 _atom_site_fract_x
 _atom_site_fract_y
 _atom_site_fract_z
 _atom_site_occupancy
  Rb  Rb0  1  0.093611  0.093611  0.466960  1
  P  P1  1  0.814553  0.185579  0.998794  1
  P  P2  1  0.185579  0.814553  0.998794  1
  P  P3  1  0.673258  0.673258  0.699950  1
  P  P4  1  0.605549  0.314561  0.273390  1
  P  P5  1  0.314561  0.605549  0.273390  1
  Ru  Ru6  1  0.244530  0.491408  0.822635  1
  Ru  Ru7  1  0.763511  0.763511  0.157296  1
  Ru  Ru8  1  0.491408  0.244530  0.822635  1
  O  O9  1  0.677394  0.492473  0.743917  1
  O  O10  1  0.225259  0.514735  0.509229  1
  O  O11  1  0.243737  0.464671  0.144561  1
  O  O12  1  0.678254  0.159798  0.859780  1
  O  O13  1  0.323924  0.989805  0.869877  1
  O  O14  1  0.785259  0.785259  0.840054  1
  O  O15  1  0.511331  0.708248  0.226303  1
  O  O16  1  0.777014  0.777014  0.464734  1
  O  O17  1  0.330122  0.330122  0.807993  1
  O  O18  1  0.708248  0.511331  0.226303  1
  O  O19  1  0.159798  0.678254  0.859780  1
  O  O20  1  0.245245  0.752932  0.212140  1
  O  O21  1  0.020818  0.832849  0.094186  1
  O  O22  1  0.464671  0.243737  0.144561  1
  O  O23  1  0.514735  0.225259  0.509229  1
  O  O24  1  0.492473  0.677394  0.743917  1
  O  O25  1  0.989805  0.323924  0.869877  1
  O  O26  1  0.832849  0.020818  0.094186  1
  O  O27  1  0.752932  0.245245  0.212140  1
