# generated using pymatgen
data_Bi9Te7Pb3I5
_symmetry_space_group_name_H-M   'P 1'
_cell_length_a   23.79458893
_cell_length_b   23.79458828
_cell_length_c   6.63641432
_cell_angle_alpha   74.22211270
_cell_angle_beta   74.22211265
_cell_angle_gamma   14.10392339
_symmetry_Int_Tables_number   1
_chemical_formula_structural   Bi9Te7Pb3I5
_chemical_formula_sum   'Bi9 Te7 Pb3 I5'
_cell_volume   880.57778281
_cell_formula_units_Z   1
loop_
 _symmetry_equiv_pos_site_id
 _symmetry_equiv_pos_as_xyz
  1  'x, y, z'
loop_
 _atom_site_type_symbol
 _atom_site_label
 _atom_site_symmetry_multiplicity
 _atom_site_fract_x
 _atom_site_fract_y
 _atom_site_fract_z
 _atom_site_occupancy
  Bi  Bi0  1  0.037783  0.037783  0.682668  1
  Bi  Bi1  1  0.747925  0.747925  0.982616  1
  Bi  Bi2  1  0.247871  0.247871  0.484799  1
  Bi  Bi3  1  0.247728  0.247728  0.001814  1
  Bi  Bi4  1  0.748352  0.748352  0.498788  1
  Bi  Bi5  1  0.823289  0.823289  0.636210  1
  Bi  Bi6  1  0.324671  0.324671  0.130199  1
  Bi  Bi7  1  0.175042  0.175042  0.358716  1
  Bi  Bi8  1  0.674217  0.674217  0.862317  1
  Te  Te9  1  0.962558  0.962558  0.819997  1
  Te  Te10  1  0.537861  0.537861  0.683529  1
  Te  Te11  1  0.036243  0.036243  0.186423  1
  Te  Te12  1  0.323928  0.323928  0.628581  1
  Te  Te13  1  0.824223  0.824223  0.126643  1
  Te  Te14  1  0.172924  0.172924  0.870132  1
  Te  Te15  1  0.673009  0.673009  0.370643  1
  Pb  Pb16  1  0.958922  0.958922  0.326377  1
  Pb  Pb17  1  0.462881  0.462881  0.819612  1
  Pb  Pb18  1  0.538590  0.538590  0.183078  1
  I  I19  1  0.103911  0.103911  0.571857  1
  I  I20  1  0.607254  0.607254  0.072111  1
  I  I21  1  0.890505  0.890505  0.429660  1
  I  I22  1  0.391246  0.391246  0.942800  1
  I  I23  1  0.457152  0.457152  0.330431  1
