# generated using pymatgen
data_BaLiLaSe3
_symmetry_space_group_name_H-M   'P 1'
_cell_length_a   11.93965200
_cell_length_b   4.52973700
_cell_length_c   12.29296100
_cell_angle_alpha   90.00000000
_cell_angle_beta   90.00000000
_cell_angle_gamma   90.00000000
_symmetry_Int_Tables_number   1
_chemical_formula_structural   BaLiLaSe3
_chemical_formula_sum   'Ba4 Li4 La4 Se12'
_cell_volume   664.84615257
_cell_formula_units_Z   4
loop_
 _symmetry_equiv_pos_site_id
 _symmetry_equiv_pos_as_xyz
  1  'x, y, z'
loop_
 _atom_site_type_symbol
 _atom_site_label
 _atom_site_symmetry_multiplicity
 _atom_site_fract_x
 _atom_site_fract_y
 _atom_site_fract_z
 _atom_site_occupancy
  Ba  Ba0  1  0.683330  0.749999  0.003373  1
  Ba  Ba1  1  0.183331  0.749999  0.496628  1
  Ba  Ba2  1  0.816670  0.250000  0.503373  1
  Ba  Ba3  1  0.316669  0.250000  0.996627  1
  Li  Li4  1  0.250018  0.749999  0.209971  1
  Li  Li5  1  0.750018  0.749999  0.290028  1
  Li  Li6  1  0.249982  0.250000  0.709971  1
  Li  Li7  1  0.749982  0.250000  0.790029  1
  La  La8  1  0.990811  0.250000  0.180396  1
  La  La9  1  0.490812  0.250000  0.319605  1
  La  La10  1  0.509189  0.749999  0.680395  1
  La  La11  1  0.009188  0.749999  0.819605  1
  Se  Se12  1  0.109279  0.749999  0.056302  1
  Se  Se13  1  0.452485  0.749999  0.151850  1
  Se  Se14  1  0.728173  0.250000  0.203985  1
  Se  Se15  1  0.228174  0.250000  0.296015  1
  Se  Se16  1  0.952485  0.749999  0.348149  1
  Se  Se17  1  0.609280  0.749999  0.443699  1
  Se  Se18  1  0.390720  0.250000  0.556301  1
  Se  Se19  1  0.047515  0.250000  0.651851  1
  Se  Se20  1  0.771827  0.749999  0.703986  1
  Se  Se21  1  0.271826  0.749999  0.796014  1
  Se  Se22  1  0.547515  0.250000  0.848149  1
  Se  Se23  1  0.890720  0.250000  0.943699  1
