# generated using pymatgen
data_PrNd2TmAu2
_symmetry_space_group_name_H-M   'P 1'
_cell_length_a   5.02502200
_cell_length_b   7.33161800
_cell_length_c   9.21129300
_cell_angle_alpha   90.00000000
_cell_angle_beta   90.00000000
_cell_angle_gamma   90.00000000
_symmetry_Int_Tables_number   1
_chemical_formula_structural   PrNd2TmAu2
_chemical_formula_sum   'Pr2 Nd4 Tm2 Au4'
_cell_volume   339.35823559
_cell_formula_units_Z   2
loop_
 _symmetry_equiv_pos_site_id
 _symmetry_equiv_pos_as_xyz
  1  'x, y, z'
loop_
 _atom_site_type_symbol
 _atom_site_label
 _atom_site_symmetry_multiplicity
 _atom_site_fract_x
 _atom_site_fract_y
 _atom_site_fract_z
 _atom_site_occupancy
  Pr  Pr0  1  0.250000  0.493456  0.174719  1
  Pr  Pr1  1  0.250000  0.993456  0.325281  1
  Nd  Nd2  1  0.750000  0.152662  0.083018  1
  Nd  Nd3  1  0.750000  0.652662  0.416982  1
  Nd  Nd4  1  0.750000  0.510651  0.820402  1
  Nd  Nd5  1  0.750000  0.010651  0.679598  1
  Tm  Tm6  1  0.250000  0.850475  0.918252  1
  Tm  Tm7  1  0.250000  0.350475  0.581748  1
  Au  Au8  1  0.250000  0.244384  0.890505  1
  Au  Au9  1  0.250000  0.744384  0.609495  1
  Au  Au10  1  0.750000  0.748372  0.087537  1
  Au  Au11  1  0.750000  0.248372  0.412463  1
