# generated using pymatgen
data_Lu3V(Co4As3)2
_symmetry_space_group_name_H-M   'P 1'
_cell_length_a   3.76630900
_cell_length_b   10.89770400
_cell_length_c   12.60360700
_cell_angle_alpha   90.00000000
_cell_angle_beta   90.00000000
_cell_angle_gamma   90.00000000
_symmetry_Int_Tables_number   1
_chemical_formula_structural   Lu3V(Co4As3)2
_chemical_formula_sum   'Lu6 V2 Co16 As12'
_cell_volume   517.30396639
_cell_formula_units_Z   2
loop_
 _symmetry_equiv_pos_site_id
 _symmetry_equiv_pos_as_xyz
  1  'x, y, z'
loop_
 _atom_site_type_symbol
 _atom_site_label
 _atom_site_symmetry_multiplicity
 _atom_site_fract_x
 _atom_site_fract_y
 _atom_site_fract_z
 _atom_site_occupancy
  Lu  Lu0  1  0.000000  0.500000  0.526813  1
  Lu  Lu1  1  0.500000  0.000000  0.473187  1
  Lu  Lu2  1  0.500000  0.820709  0.204740  1
  Lu  Lu3  1  0.500000  0.179291  0.204740  1
  Lu  Lu4  1  0.000000  0.679291  0.795260  1
  Lu  Lu5  1  0.000000  0.320709  0.795260  1
  V  V6  1  0.500000  0.500000  0.153760  1
  V  V7  1  0.000000  0.000000  0.846240  1
  Co  Co8  1  0.500000  0.500000  0.700881  1
  Co  Co9  1  0.000000  0.000000  0.299119  1
  Co  Co10  1  0.000000  0.500000  0.987739  1
  Co  Co11  1  0.500000  0.000000  0.012261  1
  Co  Co12  1  0.500000  0.332697  0.994259  1
  Co  Co13  1  0.500000  0.667303  0.994259  1
  Co  Co14  1  0.000000  0.167303  0.005741  1
  Co  Co15  1  0.000000  0.832697  0.005741  1
  Co  Co16  1  0.500000  0.297798  0.431481  1
  Co  Co17  1  0.500000  0.702202  0.431481  1
  Co  Co18  1  0.000000  0.202202  0.568519  1
  Co  Co19  1  0.000000  0.797798  0.568519  1
  Co  Co20  1  0.500000  0.878385  0.705477  1
  Co  Co21  1  0.500000  0.121615  0.705477  1
  Co  Co22  1  0.000000  0.621615  0.294523  1
  Co  Co23  1  0.000000  0.378385  0.294523  1
  As  As24  1  0.500000  0.500000  0.879511  1
  As  As25  1  0.000000  0.000000  0.120489  1
  As  As26  1  0.500000  0.500000  0.352186  1
  As  As27  1  0.000000  0.000000  0.647814  1
  As  As28  1  0.500000  0.314108  0.616816  1
  As  As29  1  0.500000  0.685892  0.616816  1
  As  As30  1  0.000000  0.185892  0.383184  1
  As  As31  1  0.000000  0.814108  0.383184  1
  As  As32  1  0.500000  0.843501  0.888014  1
  As  As33  1  0.500000  0.156499  0.888014  1
  As  As34  1  0.000000  0.656499  0.111986  1
  As  As35  1  0.000000  0.343501  0.111986  1
