# generated using pymatgen
data_K6Li4TiSi(AsP2)2
_symmetry_space_group_name_H-M   'P 1'
_cell_length_a   9.83277707
_cell_length_b   9.83107284
_cell_length_c   14.90439952
_cell_angle_alpha   89.98677193
_cell_angle_beta   89.99396996
_cell_angle_gamma   142.76522099
_symmetry_Int_Tables_number   1
_chemical_formula_structural   K6Li4TiSi(AsP2)2
_chemical_formula_sum   'K12 Li8 Ti2 Si2 As4 P8'
_cell_volume   871.77844064
_cell_formula_units_Z   2
loop_
 _symmetry_equiv_pos_site_id
 _symmetry_equiv_pos_as_xyz
  1  'x, y, z'
loop_
 _atom_site_type_symbol
 _atom_site_label
 _atom_site_symmetry_multiplicity
 _atom_site_fract_x
 _atom_site_fract_y
 _atom_site_fract_z
 _atom_site_occupancy
  K  K0  1  0.106042  0.448069  0.671900  1
  K  K1  1  0.719532  0.716297  0.680096  1
  K  K2  1  0.214455  0.220593  0.819786  1
  K  K3  1  0.779662  0.785802  0.179961  1
  K  K4  1  0.949188  0.604051  0.829976  1
  K  K5  1  0.550121  0.894058  0.329535  1
  K  K6  1  0.395171  0.050887  0.171233  1
  K  K7  1  0.060761  0.395502  0.169947  1
  K  K8  1  0.896509  0.559401  0.332002  1
  K  K9  1  0.438767  0.103520  0.669444  1
  K  K10  1  0.603768  0.939152  0.831224  1
  K  K11  1  0.284997  0.281380  0.319592  1
  Li  Li12  1  0.915954  0.084045  0.000112  1
  Li  Li13  1  0.579294  0.413371  0.498715  1
  Li  Li14  1  0.078074  0.921923  0.000152  1
  Li  Li15  1  0.418623  0.577487  0.498765  1
  Li  Li16  1  0.754536  0.245488  0.000272  1
  Li  Li17  1  0.748575  0.252677  0.498432  1
  Li  Li18  1  0.252083  0.747868  0.000237  1
  Li  Li19  1  0.250428  0.749755  0.498286  1
  Ti  Ti20  1  0.921929  0.085687  0.498045  1
  Ti  Ti21  1  0.580283  0.419697  0.000187  1
  Si  Si22  1  0.089177  0.921967  0.497797  1
  Si  Si23  1  0.414326  0.585465  0.000316  1
  As  As24  1  0.885933  0.566990  0.093999  1
  As  As25  1  0.432383  0.113843  0.906818  1
  As  As26  1  0.614590  0.933409  0.592700  1
  As  As27  1  0.934710  0.619845  0.590835  1
  P  P28  1  0.126681  0.437642  0.913246  1
  P  P29  1  0.562061  0.873397  0.087454  1
  P  P30  1  0.373388  0.062312  0.411297  1
  P  P31  1  0.218579  0.211731  0.582951  1
  P  P32  1  0.708610  0.717956  0.916104  1
  P  P33  1  0.281894  0.291087  0.084312  1
  P  P34  1  0.066697  0.382957  0.409595  1
  P  P35  1  0.792218  0.784689  0.414677  1
