# generated using pymatgen
data_Er20Cd6TcPd
_symmetry_space_group_name_H-M   'P 1'
_cell_length_a   9.53584000
_cell_length_b   9.53583881
_cell_length_c   9.78190700
_cell_angle_alpha   90.00000000
_cell_angle_beta   90.00000000
_cell_angle_gamma   120.00003189
_symmetry_Int_Tables_number   1
_chemical_formula_structural   Er20Cd6TcPd
_chemical_formula_sum   'Er20 Cd6 Tc1 Pd1'
_cell_volume   770.32124991
_cell_formula_units_Z   1
loop_
 _symmetry_equiv_pos_site_id
 _symmetry_equiv_pos_as_xyz
  1  'x, y, z'
loop_
 _atom_site_type_symbol
 _atom_site_label
 _atom_site_symmetry_multiplicity
 _atom_site_fract_x
 _atom_site_fract_y
 _atom_site_fract_z
 _atom_site_occupancy
  Er  Er0  1  0.209388  0.790612  0.940455  1
  Er  Er1  1  0.209388  0.418776  0.940454  1
  Er  Er2  1  0.581224  0.790612  0.940454  1
  Er  Er3  1  0.792070  0.207930  0.057258  1
  Er  Er4  1  0.792070  0.584139  0.057258  1
  Er  Er5  1  0.415861  0.207930  0.057258  1
  Er  Er6  1  0.792070  0.207930  0.442742  1
  Er  Er7  1  0.792070  0.584139  0.442742  1
  Er  Er8  1  0.415861  0.207930  0.442742  1
  Er  Er9  1  0.209388  0.790612  0.559545  1
  Er  Er10  1  0.209388  0.418776  0.559546  1
  Er  Er11  1  0.581224  0.790612  0.559546  1
  Er  Er12  1  0.540129  0.459871  0.750000  1
  Er  Er13  1  0.540129  0.080259  0.750000  1
  Er  Er14  1  0.919741  0.459871  0.750000  1
  Er  Er15  1  0.456973  0.543027  0.250000  1
  Er  Er16  1  0.456974  0.913945  0.250000  1
  Er  Er17  1  0.086054  0.543026  0.250000  1
  Er  Er18  1  0.000000  0.000000  0.001228  1
  Er  Er19  1  0.000000  0.000000  0.498772  1
  Cd  Cd20  1  0.884936  0.115065  0.750000  1
  Cd  Cd21  1  0.884935  0.769872  0.750000  1
  Cd  Cd22  1  0.230128  0.115065  0.750000  1
  Cd  Cd23  1  0.115009  0.884991  0.250000  1
  Cd  Cd24  1  0.115009  0.230017  0.250000  1
  Cd  Cd25  1  0.769983  0.884991  0.250000  1
  Tc  Tc26  1  0.333333  0.666667  0.750000  1
  Pd  Pd27  1  0.666666  0.333333  0.250000  1
