# generated using pymatgen
data_PrHo2Sc7(Si5Ir2)4
_symmetry_space_group_name_H-M   'P 1'
_cell_length_a   12.48406474
_cell_length_b   12.48313734
_cell_length_c   4.15634200
_cell_angle_alpha   90.00000000
_cell_angle_beta   90.00000000
_cell_angle_gamma   90.20953517
_symmetry_Int_Tables_number   1
_chemical_formula_structural   PrHo2Sc7(Si5Ir2)4
_chemical_formula_sum   'Pr1 Ho2 Sc7 Si20 Ir8'
_cell_volume   647.72123057
_cell_formula_units_Z   1
loop_
 _symmetry_equiv_pos_site_id
 _symmetry_equiv_pos_as_xyz
  1  'x, y, z'
loop_
 _atom_site_type_symbol
 _atom_site_label
 _atom_site_symmetry_multiplicity
 _atom_site_fract_x
 _atom_site_fract_y
 _atom_site_fract_z
 _atom_site_occupancy
  Pr  Pr0  1  0.115629  0.615517  0.500000  1
  Ho  Ho1  1  0.884029  0.383971  0.500000  1
  Ho  Ho2  1  0.615390  0.884662  0.500000  1
  Sc  Sc3  1  0.384507  0.115530  0.500000  1
  Sc  Sc4  1  0.673221  0.174121  0.500000  1
  Sc  Sc5  1  0.326538  0.827460  0.500000  1
  Sc  Sc6  1  0.174767  0.324506  0.500000  1
  Sc  Sc7  1  0.825258  0.674014  0.500000  1
  Sc  Sc8  1  0.000283  0.000497  0.000000  1
  Sc  Sc9  1  0.500461  0.499603  0.000000  1
  Si  Si10  1  0.566198  0.067645  0.000000  1
  Si  Si11  1  0.432456  0.933905  0.000000  1
  Si  Si12  1  0.067712  0.430593  0.000000  1
  Si  Si13  1  0.930900  0.567367  0.000000  1
  Si  Si14  1  0.200939  0.165096  0.000000  1
  Si  Si15  1  0.799503  0.834895  0.000000  1
  Si  Si16  1  0.166107  0.802649  0.000000  1
  Si  Si17  1  0.698845  0.333810  0.000000  1
  Si  Si18  1  0.833918  0.199697  0.000000  1
  Si  Si19  1  0.301828  0.665988  0.000000  1
  Si  Si20  1  0.665417  0.699648  0.000000  1
  Si  Si21  1  0.335197  0.298201  0.000000  1
  Si  Si22  1  0.007514  0.150650  0.500000  1
  Si  Si23  1  0.992362  0.850521  0.500000  1
  Si  Si24  1  0.152520  0.993995  0.500000  1
  Si  Si25  1  0.506270  0.347489  0.500000  1
  Si  Si26  1  0.848833  0.008109  0.500000  1
  Si  Si27  1  0.492113  0.651172  0.500000  1
  Si  Si28  1  0.650579  0.507123  0.500000  1
  Si  Si29  1  0.350446  0.491998  0.500000  1
  Ir  Ir30  1  0.020520  0.243089  0.000000  1
  Ir  Ir31  1  0.977818  0.758258  0.000000  1
  Ir  Ir32  1  0.246502  0.981502  0.000000  1
  Ir  Ir33  1  0.519131  0.253579  0.000000  1
  Ir  Ir34  1  0.754421  0.020360  0.000000  1
  Ir  Ir35  1  0.480305  0.745644  0.000000  1
  Ir  Ir36  1  0.743196  0.519956  0.000000  1
  Ir  Ir37  1  0.258367  0.477182  0.000000  1
