# generated using pymatgen
data_Tm4Ga4RuPt3
_symmetry_space_group_name_H-M   'P 1'
_cell_length_a   4.40751600
_cell_length_b   6.76703090
_cell_length_c   7.68308355
_cell_angle_alpha   89.62722791
_cell_angle_beta   90.00000000
_cell_angle_gamma   90.00000000
_symmetry_Int_Tables_number   1
_chemical_formula_structural   Tm4Ga4RuPt3
_chemical_formula_sum   'Tm4 Ga4 Ru1 Pt3'
_cell_volume   229.14923993
_cell_formula_units_Z   1
loop_
 _symmetry_equiv_pos_site_id
 _symmetry_equiv_pos_as_xyz
  1  'x, y, z'
loop_
 _atom_site_type_symbol
 _atom_site_label
 _atom_site_symmetry_multiplicity
 _atom_site_fract_x
 _atom_site_fract_y
 _atom_site_fract_z
 _atom_site_occupancy
  Tm  Tm0  1  0.250000  0.981005  0.306749  1
  Tm  Tm1  1  0.250000  0.478829  0.190174  1
  Tm  Tm2  1  0.750000  0.017438  0.698583  1
  Tm  Tm3  1  0.750000  0.513932  0.804627  1
  Ga  Ga4  1  0.250000  0.328113  0.574832  1
  Ga  Ga5  1  0.250000  0.839344  0.926476  1
  Ga  Ga6  1  0.750000  0.668268  0.427882  1
  Ga  Ga7  1  0.750000  0.172436  0.069862  1
  Ru  Ru8  1  0.250000  0.231290  0.898303  1
  Pt  Pt9  1  0.250000  0.725048  0.603033  1
  Pt  Pt10  1  0.750000  0.772313  0.102144  1
  Pt  Pt11  1  0.750000  0.271984  0.397336  1
