# generated using pymatgen
data_Mn13Al4Si2(WO14)2
_symmetry_space_group_name_H-M   'P 1'
_cell_length_a   5.64416983
_cell_length_b   9.17370990
_cell_length_c   12.01226792
_cell_angle_alpha   92.46233311
_cell_angle_beta   76.41125693
_cell_angle_gamma   100.53495964
_symmetry_Int_Tables_number   1
_chemical_formula_structural   Mn13Al4Si2(WO14)2
_chemical_formula_sum   'Mn13 Al4 Si2 W2 O28'
_cell_volume   594.36945833
_cell_formula_units_Z   1
loop_
 _symmetry_equiv_pos_site_id
 _symmetry_equiv_pos_as_xyz
  1  'x, y, z'
loop_
 _atom_site_type_symbol
 _atom_site_label
 _atom_site_symmetry_multiplicity
 _atom_site_fract_x
 _atom_site_fract_y
 _atom_site_fract_z
 _atom_site_occupancy
  Mn  Mn0  1  0.999988  0.999946  0.000005  1
  Mn  Mn1  1  0.206678  0.348562  0.140819  1
  Mn  Mn2  1  0.652501  0.651426  0.140829  1
  Mn  Mn3  1  0.428271  0.000038  0.143507  1
  Mn  Mn4  1  0.636224  0.356571  0.293709  1
  Mn  Mn5  1  0.070067  0.643400  0.293734  1
  Mn  Mn6  1  0.285249  0.999988  0.429494  1
  Mn  Mn7  1  0.714735  0.000010  0.570511  1
  Mn  Mn8  1  0.929944  0.356612  0.706262  1
  Mn  Mn9  1  0.363775  0.643431  0.706284  1
  Mn  Mn10  1  0.571734  0.999974  0.856492  1
  Mn  Mn11  1  0.347512  0.348566  0.859168  1
  Mn  Mn12  1  0.793314  0.651431  0.859178  1
  Al  Al13  1  0.049655  0.318663  0.430650  1
  Al  Al14  1  0.519710  0.681323  0.430670  1
  Al  Al15  1  0.480293  0.318678  0.569329  1
  Al  Al16  1  0.950347  0.681345  0.569349  1
  Si  Si17  1  0.764902  0.311756  0.999978  1
  Si  Si18  1  0.235105  0.688240  0.000021  1
  W  W19  1  0.859433  0.999968  0.281159  1
  W  W20  1  0.140567  0.000039  0.718845  1
  O  O21  1  0.684245  0.129076  0.999980  1
  O  O22  1  0.058947  0.350424  0.999990  1
  O  O23  1  0.941060  0.649591  0.000006  1
  O  O24  1  0.315756  0.870922  0.000020  1
  O  O25  1  0.598333  0.380319  0.117396  1
  O  O26  1  0.284253  0.619653  0.117421  1
  O  O27  1  0.115580  0.113836  0.154169  1
  O  O28  1  0.730115  0.886130  0.154199  1
  O  O29  1  0.595588  0.118659  0.290568  1
  O  O30  1  0.113842  0.881301  0.290546  1
  O  O31  1  0.019969  0.399966  0.304171  1
  O  O32  1  0.675873  0.600029  0.304169  1
  O  O33  1  0.981398  0.119461  0.416360  1
  O  O34  1  0.602341  0.880521  0.416386  1
  O  O35  1  0.358227  0.354423  0.451185  1
  O  O36  1  0.190586  0.645622  0.451205  1
  O  O37  1  0.809416  0.354382  0.548795  1
  O  O38  1  0.641775  0.645580  0.548813  1
  O  O39  1  0.397654  0.119482  0.583620  1
  O  O40  1  0.018600  0.880545  0.583643  1
  O  O41  1  0.324131  0.399974  0.695830  1
  O  O42  1  0.980032  0.600040  0.695827  1
  O  O43  1  0.886155  0.118702  0.709458  1
  O  O44  1  0.404411  0.881343  0.709433  1
  O  O45  1  0.269874  0.113861  0.845809  1
  O  O46  1  0.884406  0.886158  0.845832  1
  O  O47  1  0.715750  0.380351  0.882579  1
  O  O48  1  0.401668  0.619684  0.882602  1
