# generated using pymatgen
data_YbDyCoIr3
_symmetry_space_group_name_H-M   'P 1'
_cell_length_a   5.16375611
_cell_length_b   5.16375549
_cell_length_c   5.16375568
_cell_angle_alpha   62.68980747
_cell_angle_beta   62.68980982
_cell_angle_gamma   62.68981862
_symmetry_Int_Tables_number   1
_chemical_formula_structural   YbDyCoIr3
_chemical_formula_sum   'Yb1 Dy1 Co1 Ir3'
_cell_volume   103.18807787
_cell_formula_units_Z   1
loop_
 _symmetry_equiv_pos_site_id
 _symmetry_equiv_pos_as_xyz
  1  'x, y, z'
loop_
 _atom_site_type_symbol
 _atom_site_label
 _atom_site_symmetry_multiplicity
 _atom_site_fract_x
 _atom_site_fract_y
 _atom_site_fract_z
 _atom_site_occupancy
  Yb  Yb0  1  0.999517  0.999517  0.999517  1
  Dy  Dy1  1  0.249894  0.249894  0.249894  1
  Co  Co2  1  0.624971  0.624971  0.624971  1
  Ir  Ir3  1  0.625622  0.625622  0.124374  1
  Ir  Ir4  1  0.625622  0.124374  0.625622  1
  Ir  Ir5  1  0.124374  0.625622  0.625622  1
