# generated using pymatgen
data_CaLaB4RuRh3
_symmetry_space_group_name_H-M   'P 1'
_cell_length_a   7.01297448
_cell_length_b   6.08703884
_cell_length_c   5.57085144
_cell_angle_alpha   73.81456911
_cell_angle_beta   56.46682594
_cell_angle_gamma   49.67175352
_symmetry_Int_Tables_number   1
_chemical_formula_structural   CaLaB4RuRh3
_chemical_formula_sum   'Ca1 La1 B4 Ru1 Rh3'
_cell_volume   149.95552768
_cell_formula_units_Z   1
loop_
 _symmetry_equiv_pos_site_id
 _symmetry_equiv_pos_as_xyz
  1  'x, y, z'
loop_
 _atom_site_type_symbol
 _atom_site_label
 _atom_site_symmetry_multiplicity
 _atom_site_fract_x
 _atom_site_fract_y
 _atom_site_fract_z
 _atom_site_occupancy
  Ca  Ca0  1  0.751466  0.751466  0.748534  1
  La  La1  1  0.499422  0.499422  0.500578  1
  B  B2  1  0.823424  0.185394  0.834370  1
  B  B3  1  0.063218  0.430976  0.071410  1
  B  B4  1  0.185394  0.823424  0.156813  1
  B  B5  1  0.430976  0.063218  0.434396  1
  Ru  Ru6  1  0.134113  0.134113  0.865887  1
  Rh  Rh7  1  0.378472  0.378472  0.121528  1
  Rh  Rh8  1  0.117465  0.117465  0.382535  1
  Rh  Rh9  1  0.866052  0.866052  0.133948  1
