# generated using pymatgen
data_Lu4Ga4Ir2PtRh
_symmetry_space_group_name_H-M   'P 1'
_cell_length_a   4.28563000
_cell_length_b   6.68246937
_cell_length_c   7.79575515
_cell_angle_alpha   89.81720293
_cell_angle_beta   90.00000000
_cell_angle_gamma   90.00000000
_symmetry_Int_Tables_number   1
_chemical_formula_structural   Lu4Ga4Ir2PtRh
_chemical_formula_sum   'Lu4 Ga4 Ir2 Pt1 Rh1'
_cell_volume   223.25830869
_cell_formula_units_Z   1
loop_
 _symmetry_equiv_pos_site_id
 _symmetry_equiv_pos_as_xyz
  1  'x, y, z'
loop_
 _atom_site_type_symbol
 _atom_site_label
 _atom_site_symmetry_multiplicity
 _atom_site_fract_x
 _atom_site_fract_y
 _atom_site_fract_z
 _atom_site_occupancy
  Lu  Lu0  1  0.250000  0.966376  0.317047  1
  Lu  Lu1  1  0.250000  0.473211  0.179903  1
  Lu  Lu2  1  0.750000  0.026571  0.684780  1
  Lu  Lu3  1  0.750000  0.530576  0.819203  1
  Ga  Ga4  1  0.250000  0.353533  0.563165  1
  Ga  Ga5  1  0.250000  0.852099  0.937615  1
  Ga  Ga6  1  0.750000  0.651248  0.438792  1
  Ga  Ga7  1  0.750000  0.146942  0.058615  1
  Ir  Ir8  1  0.250000  0.737761  0.621706  1
  Ir  Ir9  1  0.750000  0.761703  0.122437  1
  Pt  Pt10  1  0.750000  0.261975  0.377862  1
  Rh  Rh11  1  0.250000  0.238005  0.878878  1
