# generated using pymatgen
data_Hf8Zr(CuP2)2
_symmetry_space_group_name_H-M   'P 1'
_cell_length_a   12.01086700
_cell_length_b   12.01019700
_cell_length_c   3.65245900
_cell_angle_alpha   90.00000000
_cell_angle_beta   90.00000000
_cell_angle_gamma   90.00000000
_symmetry_Int_Tables_number   1
_chemical_formula_structural   Hf8Zr(CuP2)2
_chemical_formula_sum   'Hf16 Zr2 Cu4 P8'
_cell_volume   526.87772549
_cell_formula_units_Z   2
loop_
 _symmetry_equiv_pos_site_id
 _symmetry_equiv_pos_as_xyz
  1  'x, y, z'
loop_
 _atom_site_type_symbol
 _atom_site_label
 _atom_site_symmetry_multiplicity
 _atom_site_fract_x
 _atom_site_fract_y
 _atom_site_fract_z
 _atom_site_occupancy
  Hf  Hf0  1  0.000128  0.000002  0.000000  1
  Hf  Hf1  1  0.499872  0.500002  0.000000  1
  Hf  Hf2  1  0.101721  0.180569  0.500000  1
  Hf  Hf3  1  0.181261  0.898787  0.500000  1
  Hf  Hf4  1  0.819676  0.101620  0.500000  1
  Hf  Hf5  1  0.898833  0.818988  0.500000  1
  Hf  Hf6  1  0.398279  0.680569  0.500000  1
  Hf  Hf7  1  0.601167  0.318988  0.500000  1
  Hf  Hf8  1  0.680324  0.601620  0.500000  1
  Hf  Hf9  1  0.318739  0.398787  0.500000  1
  Hf  Hf10  1  0.095151  0.405773  0.000000  1
  Hf  Hf11  1  0.404849  0.905773  0.000000  1
  Hf  Hf12  1  0.594293  0.095240  0.000000  1
  Hf  Hf13  1  0.905707  0.595240  0.000000  1
  Hf  Hf14  1  0.382749  0.117205  0.500000  1
  Hf  Hf15  1  0.117251  0.617205  0.500000  1
  Zr  Zr16  1  0.883052  0.383008  0.500000  1
  Zr  Zr17  1  0.616948  0.883008  0.500000  1
  Cu  Cu18  1  0.254149  0.245906  0.000000  1
  Cu  Cu19  1  0.245851  0.745906  0.000000  1
  Cu  Cu20  1  0.753509  0.253561  0.000000  1
  Cu  Cu21  1  0.746491  0.753561  0.000000  1
  P  P22  1  0.223806  0.053407  0.000000  1
  P  P23  1  0.053554  0.776261  0.000000  1
  P  P24  1  0.947084  0.222742  0.000000  1
  P  P25  1  0.777318  0.946930  0.000000  1
  P  P26  1  0.276194  0.553407  0.000000  1
  P  P27  1  0.722682  0.446930  0.000000  1
  P  P28  1  0.552916  0.722742  0.000000  1
  P  P29  1  0.446446  0.276261  0.000000  1
