# generated using pymatgen
data_Lu3Zn3Ag2Ir
_symmetry_space_group_name_H-M   'P 1'
_cell_length_a   7.49737700
_cell_length_b   7.49737716
_cell_length_c   3.68094900
_cell_angle_alpha   90.00000000
_cell_angle_beta   90.00000000
_cell_angle_gamma   119.99999368
_symmetry_Int_Tables_number   1
_chemical_formula_structural   Lu3Zn3Ag2Ir
_chemical_formula_sum   'Lu3 Zn3 Ag2 Ir1'
_cell_volume   179.18810158
_cell_formula_units_Z   1
loop_
 _symmetry_equiv_pos_site_id
 _symmetry_equiv_pos_as_xyz
  1  'x, y, z'
loop_
 _atom_site_type_symbol
 _atom_site_label
 _atom_site_symmetry_multiplicity
 _atom_site_fract_x
 _atom_site_fract_y
 _atom_site_fract_z
 _atom_site_occupancy
  Lu  Lu0  1  0.605650  0.579190  0.000000  1
  Lu  Lu1  1  0.420810  0.026460  0.000000  1
  Lu  Lu2  1  0.973540  0.394350  0.000000  1
  Zn  Zn3  1  0.268931  0.264364  0.500000  1
  Zn  Zn4  1  0.735636  0.004568  0.500000  1
  Zn  Zn5  1  0.995432  0.731069  0.500000  1
  Ag  Ag6  1  0.000000  0.000000  0.000000  1
  Ag  Ag7  1  0.333333  0.666667  0.500000  1
  Ir  Ir8  1  0.666667  0.333333  0.500000  1
