# generated using pymatgen
data_Pa3Ni3As4
_symmetry_space_group_name_H-M   'P 1'
_cell_length_a   7.77922437
_cell_length_b   7.77922492
_cell_length_c   7.77922500
_cell_angle_alpha   109.47122084
_cell_angle_beta   109.47122227
_cell_angle_gamma   109.47121388
_symmetry_Int_Tables_number   1
_chemical_formula_structural   Pa3Ni3As4
_chemical_formula_sum   'Pa6 Ni6 As8'
_cell_volume   362.39908683
_cell_formula_units_Z   2
loop_
 _symmetry_equiv_pos_site_id
 _symmetry_equiv_pos_as_xyz
  1  'x, y, z'
loop_
 _atom_site_type_symbol
 _atom_site_label
 _atom_site_symmetry_multiplicity
 _atom_site_fract_x
 _atom_site_fract_y
 _atom_site_fract_z
 _atom_site_occupancy
  Pa  Pa0  1  0.749999  0.874999  0.125000  1
  Pa  Pa1  1  0.625000  0.375001  0.250000  1
  Pa  Pa2  1  0.250000  0.625000  0.375001  1
  Pa  Pa3  1  0.375001  0.250000  0.625000  1
  Pa  Pa4  1  0.875000  0.125000  0.749999  1
  Pa  Pa5  1  0.125000  0.749999  0.874999  1
  Ni  Ni6  1  0.875000  0.250001  0.125000  1
  Ni  Ni7  1  0.125000  0.875000  0.250000  1
  Ni  Ni8  1  0.625002  0.750000  0.375000  1
  Ni  Ni9  1  0.750000  0.375001  0.625001  1
  Ni  Ni10  1  0.375000  0.625001  0.750001  1
  Ni  Ni11  1  0.250000  0.125000  0.875001  1
  As  As12  1  0.833608  0.499999  0.000000  1
  As  As13  1  0.333609  0.500001  0.000000  1
  As  As14  1  0.166392  0.166392  0.166392  1
  As  As15  1  0.500001  0.000000  0.333609  1
  As  As16  1  0.000000  0.833609  0.499999  1
  As  As17  1  0.000000  0.333609  0.500001  1
  As  As18  1  0.666390  0.666390  0.666390  1
  As  As19  1  0.500000  0.000000  0.833608  1
