# generated using pymatgen
data_FeCo3MoP4W3
_symmetry_space_group_name_H-M   'P 1'
_cell_length_a   3.75617000
_cell_length_b   5.82368405
_cell_length_c   6.73470902
_cell_angle_alpha   90.15076298
_cell_angle_beta   90.00000000
_cell_angle_gamma   90.00000000
_symmetry_Int_Tables_number   1
_chemical_formula_structural   FeCo3MoP4W3
_chemical_formula_sum   'Fe1 Co3 Mo1 P4 W3'
_cell_volume   147.31954798
_cell_formula_units_Z   1
loop_
 _symmetry_equiv_pos_site_id
 _symmetry_equiv_pos_as_xyz
  1  'x, y, z'
loop_
 _atom_site_type_symbol
 _atom_site_label
 _atom_site_symmetry_multiplicity
 _atom_site_fract_x
 _atom_site_fract_y
 _atom_site_fract_z
 _atom_site_occupancy
  Fe  Fe0  1  0.750000  0.639657  0.432584  1
  Co  Co1  1  0.250000  0.861215  0.931748  1
  Co  Co2  1  0.250000  0.358502  0.567573  1
  Co  Co3  1  0.750000  0.138613  0.067728  1
  Mo  Mo4  1  0.750000  0.533936  0.829287  1
  P  P5  1  0.250000  0.233691  0.879693  1
  P  P6  1  0.250000  0.730050  0.621343  1
  P  P7  1  0.750000  0.765551  0.121282  1
  P  P8  1  0.750000  0.269492  0.377689  1
  W  W9  1  0.250000  0.967793  0.332136  1
  W  W10  1  0.250000  0.468662  0.171455  1
  W  W11  1  0.750000  0.032839  0.667481  1
