# generated using pymatgen
data_Tm3Pa3(Al3Ru)8
_symmetry_space_group_name_H-M   'P 1'
_cell_length_a   8.74924500
_cell_length_b   8.74680711
_cell_length_c   9.57396800
_cell_angle_alpha   90.00000000
_cell_angle_beta   90.00000000
_cell_angle_gamma   120.02823566
_symmetry_Int_Tables_number   1
_chemical_formula_structural   Tm3Pa3(Al3Ru)8
_chemical_formula_sum   'Tm3 Pa3 Al24 Ru8'
_cell_volume   634.33561256
_cell_formula_units_Z   1
loop_
 _symmetry_equiv_pos_site_id
 _symmetry_equiv_pos_as_xyz
  1  'x, y, z'
loop_
 _atom_site_type_symbol
 _atom_site_label
 _atom_site_symmetry_multiplicity
 _atom_site_fract_x
 _atom_site_fract_y
 _atom_site_fract_z
 _atom_site_occupancy
  Tm  Tm0  1  0.610239  0.806225  0.250000  1
  Tm  Tm1  1  0.801870  0.605606  0.750000  1
  Tm  Tm2  1  0.194048  0.391663  0.250000  1
  Pa  Pa3  1  0.802537  0.193350  0.750000  1
  Pa  Pa4  1  0.193294  0.804364  0.250000  1
  Pa  Pa5  1  0.393559  0.196260  0.750000  1
  Al  Al6  1  0.670758  0.337461  0.980360  1
  Al  Al7  1  0.337008  0.665944  0.024153  1
  Al  Al8  1  0.337008  0.665944  0.475847  1
  Al  Al9  1  0.670758  0.337461  0.519640  1
  Al  Al10  1  0.837459  0.162186  0.422124  1
  Al  Al11  1  0.161154  0.836307  0.578103  1
  Al  Al12  1  0.325395  0.163938  0.419781  1
  Al  Al13  1  0.161154  0.836307  0.921897  1
  Al  Al14  1  0.674435  0.836155  0.576910  1
  Al  Al15  1  0.837459  0.162186  0.077876  1
  Al  Al16  1  0.835292  0.674171  0.421093  1
  Al  Al17  1  0.674435  0.836155  0.923090  1
  Al  Al18  1  0.162155  0.325652  0.578886  1
  Al  Al19  1  0.325395  0.163938  0.080219  1
  Al  Al20  1  0.162155  0.325652  0.921114  1
  Al  Al21  1  0.835292  0.674171  0.078907  1
  Al  Al22  1  0.438375  0.564122  0.750000  1
  Al  Al23  1  0.559632  0.440713  0.250000  1
  Al  Al24  1  0.122754  0.562308  0.750000  1
  Al  Al25  1  0.874922  0.436132  0.250000  1
  Al  Al26  1  0.435243  0.870465  0.750000  1
  Al  Al27  1  0.562939  0.123364  0.250000  1
  Al  Al28  1  0.999821  0.999287  0.750000  1
  Al  Al29  1  0.999147  0.000623  0.250000  1
  Ru  Ru30  1  0.499641  0.496496  0.995574  1
  Ru  Ru31  1  0.002576  0.501650  0.000843  1
  Ru  Ru32  1  0.499641  0.496496  0.504426  1
  Ru  Ru33  1  0.500434  0.002989  0.996176  1
  Ru  Ru34  1  0.002576  0.501650  0.499157  1
  Ru  Ru35  1  0.500434  0.002989  0.503824  1
  Ru  Ru36  1  0.999503  0.999810  0.000272  1
  Ru  Ru37  1  0.999503  0.999810  0.499728  1
