# generated using pymatgen
data_Li5Mn(FeRh2)6
_symmetry_space_group_name_H-M   'P 1'
_cell_length_a   4.19211600
_cell_length_b   5.97470600
_cell_length_c   12.54872700
_cell_angle_alpha   90.00000000
_cell_angle_beta   89.99854508
_cell_angle_gamma   90.00000000
_symmetry_Int_Tables_number   1
_chemical_formula_structural   Li5Mn(FeRh2)6
_chemical_formula_sum   'Li5 Mn1 Fe6 Rh12'
_cell_volume   314.30370630
_cell_formula_units_Z   1
loop_
 _symmetry_equiv_pos_site_id
 _symmetry_equiv_pos_as_xyz
  1  'x, y, z'
loop_
 _atom_site_type_symbol
 _atom_site_label
 _atom_site_symmetry_multiplicity
 _atom_site_fract_x
 _atom_site_fract_y
 _atom_site_fract_z
 _atom_site_occupancy
  Li  Li0  1  0.499624  0.500000  0.167661  1
  Li  Li1  1  0.999703  0.000000  0.333664  1
  Li  Li2  1  0.500001  0.500000  0.500000  1
  Li  Li3  1  0.000296  0.000000  0.666337  1
  Li  Li4  1  0.500375  0.500000  0.832340  1
  Mn  Mn5  1  0.000000  0.000000  0.000000  1
  Fe  Fe6  1  0.000000  0.500000  0.000000  1
  Fe  Fe7  1  0.499845  0.000000  0.170662  1
  Fe  Fe8  1  0.999811  0.500000  0.335725  1
  Fe  Fe9  1  0.500001  0.000000  0.500000  1
  Fe  Fe10  1  0.000188  0.500000  0.664276  1
  Fe  Fe11  1  0.500154  0.000000  0.829338  1
  Rh  Rh12  1  0.500001  0.250739  0.000000  1
  Rh  Rh13  1  0.500001  0.749260  0.000000  1
  Rh  Rh14  1  0.999825  0.252370  0.167110  1
  Rh  Rh15  1  0.999825  0.747631  0.167110  1
  Rh  Rh16  1  0.499805  0.251094  0.334553  1
  Rh  Rh17  1  0.499805  0.748906  0.334553  1
  Rh  Rh18  1  0.000000  0.250210  0.500000  1
  Rh  Rh19  1  0.000000  0.749789  0.500000  1
  Rh  Rh20  1  0.500194  0.251094  0.665446  1
  Rh  Rh21  1  0.500194  0.748906  0.665446  1
  Rh  Rh22  1  0.000175  0.252370  0.832890  1
  Rh  Rh23  1  0.000175  0.747631  0.832890  1
