# generated using pymatgen
data_Pa3Be(Al6Fe)2
_symmetry_space_group_name_H-M   'P 1'
_cell_length_a   9.28732700
_cell_length_b   9.28732628
_cell_length_c   4.02785700
_cell_angle_alpha   90.00000000
_cell_angle_beta   90.00000000
_cell_angle_gamma   120.00000611
_symmetry_Int_Tables_number   1
_chemical_formula_structural   Pa3Be(Al6Fe)2
_chemical_formula_sum   'Pa3 Be1 Al12 Fe2'
_cell_volume   300.87499011
_cell_formula_units_Z   1
loop_
 _symmetry_equiv_pos_site_id
 _symmetry_equiv_pos_as_xyz
  1  'x, y, z'
loop_
 _atom_site_type_symbol
 _atom_site_label
 _atom_site_symmetry_multiplicity
 _atom_site_fract_x
 _atom_site_fract_y
 _atom_site_fract_z
 _atom_site_occupancy
  Pa  Pa0  1  0.003459  0.410515  0.000000  1
  Pa  Pa1  1  0.589485  0.592944  0.000000  1
  Pa  Pa2  1  0.407056  0.996541  0.000000  1
  Be  Be3  1  0.666667  0.333333  0.000000  1
  Al  Al4  1  0.999485  0.744710  0.000000  1
  Al  Al5  1  0.255290  0.254776  0.000000  1
  Al  Al6  1  0.745224  0.000515  0.000000  1
  Al  Al7  1  0.000654  0.165729  0.500000  1
  Al  Al8  1  0.834271  0.834926  0.500000  1
  Al  Al9  1  0.165074  0.999346  0.500000  1
  Al  Al10  1  0.294567  0.481309  0.500000  1
  Al  Al11  1  0.186744  0.705433  0.500000  1
  Al  Al12  1  0.518691  0.813256  0.500000  1
  Al  Al13  1  0.816795  0.520881  0.500000  1
  Al  Al14  1  0.704085  0.183205  0.500000  1
  Al  Al15  1  0.479119  0.295915  0.500000  1
  Fe  Fe16  1  0.333333  0.666667  0.000000  1
  Fe  Fe17  1  0.000000  0.000000  0.000000  1
