# generated using pymatgen
data_Cs3Tm3(PS4)4
_symmetry_space_group_name_H-M   'P 1'
_cell_length_a   9.29834267
_cell_length_b   16.33360200
_cell_length_c   18.58064500
_cell_angle_alpha   90.00000000
_cell_angle_beta   95.28439694
_cell_angle_gamma   90.00000000
_symmetry_Int_Tables_number   1
_chemical_formula_structural   Cs3Tm3(PS4)4
_chemical_formula_sum   'Cs12 Tm12 P16 S64'
_cell_volume   2809.94964030
_cell_formula_units_Z   4
loop_
 _symmetry_equiv_pos_site_id
 _symmetry_equiv_pos_as_xyz
  1  'x, y, z'
loop_
 _atom_site_type_symbol
 _atom_site_label
 _atom_site_symmetry_multiplicity
 _atom_site_fract_x
 _atom_site_fract_y
 _atom_site_fract_z
 _atom_site_occupancy
  Cs  Cs0  1  0.094546  0.032994  0.271447  1
  Cs  Cs1  1  0.785898  0.896263  0.067549  1
  Cs  Cs2  1  0.203977  0.494777  0.920165  1
  Cs  Cs3  1  0.714102  0.396263  0.432451  1
  Cs  Cs4  1  0.905454  0.967006  0.728553  1
  Cs  Cs5  1  0.214102  0.103737  0.932451  1
  Cs  Cs6  1  0.594546  0.467006  0.771447  1
  Cs  Cs7  1  0.285898  0.603737  0.567549  1
  Cs  Cs8  1  0.405454  0.532994  0.228553  1
  Cs  Cs9  1  0.703977  0.005223  0.420165  1
  Cs  Cs10  1  0.796023  0.505223  0.079835  1
  Cs  Cs11  1  0.296023  0.994777  0.579835  1
  Tm  Tm12  1  0.313522  0.760172  0.817973  1
  Tm  Tm13  1  0.288957  0.771885  0.336022  1
  Tm  Tm14  1  0.815133  0.725351  0.586741  1
  Tm  Tm15  1  0.813522  0.739828  0.317973  1
  Tm  Tm16  1  0.184867  0.274649  0.413259  1
  Tm  Tm17  1  0.186478  0.260172  0.682027  1
  Tm  Tm18  1  0.788957  0.728115  0.836022  1
  Tm  Tm19  1  0.686478  0.239828  0.182027  1
  Tm  Tm20  1  0.684867  0.225351  0.913259  1
  Tm  Tm21  1  0.211043  0.271885  0.163978  1
  Tm  Tm22  1  0.315133  0.774649  0.086741  1
  Tm  Tm23  1  0.711043  0.228115  0.663978  1
  P  P24  1  0.417891  0.354117  0.582233  1
  P  P25  1  0.941024  0.191214  0.531997  1
  P  P26  1  0.582109  0.645883  0.417767  1
  P  P27  1  0.082109  0.854117  0.917767  1
  P  P28  1  0.058976  0.808786  0.468003  1
  P  P29  1  0.036914  0.705157  0.190158  1
  P  P30  1  0.463086  0.205157  0.309842  1
  P  P31  1  0.441024  0.308786  0.031997  1
  P  P32  1  0.536914  0.794843  0.690158  1
  P  P33  1  0.014195  0.626247  0.731762  1
  P  P34  1  0.917891  0.145883  0.082233  1
  P  P35  1  0.558976  0.691214  0.968003  1
  P  P36  1  0.514195  0.873753  0.231762  1
  P  P37  1  0.963086  0.294843  0.809842  1
  P  P38  1  0.985805  0.373753  0.268238  1
  P  P39  1  0.485805  0.126247  0.768238  1
  S  S40  1  0.979300  0.753009  0.725224  1
  S  S41  1  0.817992  0.705025  0.173357  1
  S  S42  1  0.778277  0.691753  0.981248  1
  S  S43  1  0.369612  0.619420  0.389214  1
  S  S44  1  0.099794  0.728285  0.908891  1
  S  S45  1  0.540425  0.369277  0.953844  1
  S  S46  1  0.144191  0.894230  0.019984  1
  S  S47  1  0.869370  0.179972  0.803968  1
  S  S48  1  0.130388  0.119420  0.110786  1
  S  S49  1  0.959575  0.869277  0.546156  1
  S  S50  1  0.363347  0.145440  0.388581  1
  S  S51  1  0.355809  0.394230  0.480016  1
  S  S52  1  0.040425  0.130723  0.453844  1
  S  S53  1  0.599794  0.771715  0.408891  1
  S  S54  1  0.630630  0.679972  0.696032  1
  S  S55  1  0.130630  0.820028  0.196032  1
  S  S56  1  0.459575  0.630723  0.046156  1
  S  S57  1  0.771328  0.392611  0.239057  1
  S  S58  1  0.706722  0.591479  0.345226  1
  S  S59  1  0.036551  0.305197  0.537608  1
  S  S60  1  0.019108  0.856873  0.364716  1
  S  S61  1  0.636653  0.854560  0.611419  1
  S  S62  1  0.924219  0.344585  0.707712  1
  S  S63  1  0.075781  0.655415  0.292288  1
  S  S64  1  0.721723  0.191753  0.518752  1
  S  S65  1  0.400755  0.921465  0.311974  1
  S  S66  1  0.463449  0.805197  0.962392  1
  S  S67  1  0.424219  0.155415  0.207712  1
  S  S68  1  0.644191  0.605770  0.519984  1
  S  S69  1  0.020700  0.246991  0.274776  1
  S  S70  1  0.400206  0.228285  0.591109  1
  S  S71  1  0.575781  0.844585  0.792288  1
  S  S72  1  0.369370  0.320028  0.303968  1
  S  S73  1  0.271328  0.107389  0.739057  1
  S  S74  1  0.863347  0.354560  0.888581  1
  S  S75  1  0.278277  0.808247  0.481248  1
  S  S76  1  0.536551  0.194803  0.037608  1
  S  S77  1  0.728672  0.892611  0.260943  1
  S  S78  1  0.221723  0.308247  0.018752  1
  S  S79  1  0.943333  0.580907  0.633195  1
  S  S80  1  0.317992  0.794975  0.673357  1
  S  S81  1  0.519108  0.643127  0.864716  1
  S  S82  1  0.855809  0.105770  0.980016  1
  S  S83  1  0.599245  0.078535  0.688025  1
  S  S84  1  0.963449  0.694803  0.462392  1
  S  S85  1  0.980892  0.143127  0.635284  1
  S  S86  1  0.056667  0.419093  0.366805  1
  S  S87  1  0.520700  0.253009  0.774776  1
  S  S88  1  0.556667  0.080907  0.866805  1
  S  S89  1  0.900755  0.578535  0.811975  1
  S  S90  1  0.793278  0.091479  0.154774  1
  S  S91  1  0.443333  0.919093  0.133195  1
  S  S92  1  0.869612  0.880580  0.889214  1
  S  S93  1  0.206722  0.908521  0.845226  1
  S  S94  1  0.099245  0.421465  0.188026  1
  S  S95  1  0.228672  0.607389  0.760943  1
  S  S96  1  0.136653  0.645440  0.111419  1
  S  S97  1  0.630388  0.380580  0.610786  1
  S  S98  1  0.900206  0.271715  0.091109  1
  S  S99  1  0.480892  0.356873  0.135284  1
  S  S100  1  0.182008  0.294975  0.826643  1
  S  S101  1  0.479300  0.746991  0.225224  1
  S  S102  1  0.682008  0.205025  0.326643  1
  S  S103  1  0.293278  0.408521  0.654774  1
