# generated using pymatgen
data_Ta3AlGaNiC
_symmetry_space_group_name_H-M   'P 1'
_cell_length_a   8.22351982
_cell_length_b   8.22351921
_cell_length_c   8.22351804
_cell_angle_alpha   60.03322998
_cell_angle_beta   60.03323145
_cell_angle_gamma   60.03322953
_symmetry_Int_Tables_number   1
_chemical_formula_structural   Ta3AlGaNiC
_chemical_formula_sum   'Ta12 Al4 Ga4 Ni4 C4'
_cell_volume   393.53659027
_cell_formula_units_Z   4
loop_
 _symmetry_equiv_pos_site_id
 _symmetry_equiv_pos_as_xyz
  1  'x, y, z'
loop_
 _atom_site_type_symbol
 _atom_site_label
 _atom_site_symmetry_multiplicity
 _atom_site_fract_x
 _atom_site_fract_y
 _atom_site_fract_z
 _atom_site_occupancy
  Ta  Ta0  1  0.563962  0.936191  0.563962  1
  Ta  Ta1  1  0.313926  0.686379  0.686379  1
  Ta  Ta2  1  0.685344  0.313973  0.313973  1
  Ta  Ta3  1  0.313973  0.685344  0.313973  1
  Ta  Ta4  1  0.686379  0.686379  0.313926  1
  Ta  Ta5  1  0.313973  0.313973  0.685344  1
  Ta  Ta6  1  0.563962  0.563962  0.936191  1
  Ta  Ta7  1  0.936191  0.563962  0.563962  1
  Ta  Ta8  1  0.563089  0.936510  0.936510  1
  Ta  Ta9  1  0.936510  0.936510  0.563089  1
  Ta  Ta10  1  0.686379  0.313926  0.686379  1
  Ta  Ta11  1  0.936510  0.563089  0.936510  1
  Al  Al12  1  0.917381  0.247239  0.917381  1
  Al  Al13  1  0.917381  0.917381  0.247239  1
  Al  Al14  1  0.247239  0.917381  0.917381  1
  Al  Al15  1  0.332059  0.332059  0.332059  1
  Ga  Ga16  1  0.916798  0.916798  0.916798  1
  Ga  Ga17  1  0.999054  0.333705  0.333705  1
  Ga  Ga18  1  0.333705  0.999054  0.333705  1
  Ga  Ga19  1  0.333705  0.333705  0.999054  1
  Ni  Ni20  1  0.123377  0.123377  0.123377  1
  Ni  Ni21  1  0.625167  0.126498  0.126498  1
  Ni  Ni22  1  0.126498  0.625167  0.126498  1
  Ni  Ni23  1  0.126498  0.126498  0.625167  1
  C  C24  1  0.624862  0.624862  0.624862  1
  C  C25  1  0.124719  0.625678  0.625678  1
  C  C26  1  0.625678  0.124719  0.625678  1
  C  C27  1  0.625678  0.625678  0.124719  1
