# generated using pymatgen
data_Dy4Er8Fe2I17
_symmetry_space_group_name_H-M   'P 1'
_cell_length_a   9.71112222
_cell_length_b   11.63379849
_cell_length_c   11.66909609
_cell_angle_alpha   93.63066985
_cell_angle_beta   104.79360506
_cell_angle_gamma   114.04011943
_symmetry_Int_Tables_number   1
_chemical_formula_structural   Dy4Er8Fe2I17
_chemical_formula_sum   'Dy4 Er8 Fe2 I17'
_cell_volume   1142.98318029
_cell_formula_units_Z   1
loop_
 _symmetry_equiv_pos_site_id
 _symmetry_equiv_pos_as_xyz
  1  'x, y, z'
loop_
 _atom_site_type_symbol
 _atom_site_label
 _atom_site_symmetry_multiplicity
 _atom_site_fract_x
 _atom_site_fract_y
 _atom_site_fract_z
 _atom_site_occupancy
  Dy  Dy0  1  0.052132  0.503103  0.319301  1
  Dy  Dy1  1  0.992447  0.807627  0.590387  1
  Dy  Dy2  1  0.657134  0.241457  0.279228  1
  Dy  Dy3  1  0.008727  0.191064  0.411902  1
  Er  Er4  1  0.217002  0.672560  0.979097  1
  Er  Er5  1  0.252682  0.974742  0.887872  1
  Er  Er6  1  0.343200  0.758039  0.720097  1
  Er  Er7  1  0.950773  0.500700  0.682377  1
  Er  Er8  1  0.746780  0.023825  0.111460  1
  Er  Er9  1  0.135807  0.285616  0.153814  1
  Er  Er10  1  0.781618  0.327387  0.018151  1
  Er  Er11  1  0.860467  0.713755  0.846583  1
  Fe  Fe12  1  0.103931  0.738157  0.785914  1
  Fe  Fe13  1  0.895521  0.261766  0.214142  1
  I  I14  1  0.784615  0.527943  0.418086  1
  I  I15  1  0.647812  0.420271  0.764291  1
  I  I16  1  0.843681  0.896365  0.326503  1
  I  I17  1  0.326718  0.214708  0.366358  1
  I  I18  1  0.156287  0.103265  0.673497  1
  I  I19  1  0.584605  0.052857  0.843494  1
  I  I20  1  0.760699  0.191489  0.539279  1
  I  I21  1  0.552276  0.713282  0.954316  1
  I  I22  1  0.352467  0.578651  0.234688  1
  I  I23  1  0.215574  0.471607  0.582660  1
  I  I24  1  0.056233  0.368129  0.897794  1
  I  I25  1  0.447720  0.286925  0.044786  1
  I  I26  1  0.000705  0.000810  0.000341  1
  I  I27  1  0.241507  0.809970  0.462060  1
  I  I28  1  0.415763  0.946893  0.155967  1
  I  I29  1  0.671828  0.785246  0.633398  1
  I  I30  1  0.943290  0.631790  0.102158  1
