# generated using pymatgen
data_DyHo3(PbO4)3
_symmetry_space_group_name_H-M   'P 1'
_cell_length_a   6.46047234
_cell_length_b   6.54074811
_cell_length_c   6.73136324
_cell_angle_alpha   100.49469222
_cell_angle_beta   98.35968999
_cell_angle_gamma   99.62943832
_symmetry_Int_Tables_number   1
_chemical_formula_structural   DyHo3(PbO4)3
_chemical_formula_sum   'Dy1 Ho3 Pb3 O12'
_cell_volume   271.16883764
_cell_formula_units_Z   1
loop_
 _symmetry_equiv_pos_site_id
 _symmetry_equiv_pos_as_xyz
  1  'x, y, z'
loop_
 _atom_site_type_symbol
 _atom_site_label
 _atom_site_symmetry_multiplicity
 _atom_site_fract_x
 _atom_site_fract_y
 _atom_site_fract_z
 _atom_site_occupancy
  Dy  Dy0  1  0.394176  0.699579  0.862935  1
  Ho  Ho1  1  0.694737  0.868833  0.389122  1
  Ho  Ho2  1  0.605975  0.300254  0.137233  1
  Ho  Ho3  1  0.305416  0.131250  0.610792  1
  Pb  Pb4  1  0.000135  0.000246  0.000099  1
  Pb  Pb5  1  0.849683  0.398348  0.673866  1
  Pb  Pb6  1  0.150041  0.601377  0.325871  1
  O  O7  1  0.043572  0.676214  0.890937  1
  O  O8  1  0.680773  0.935451  0.064397  1
  O  O9  1  0.922002  0.076002  0.685763  1
  O  O10  1  0.955354  0.323829  0.109107  1
  O  O11  1  0.319847  0.065818  0.936381  1
  O  O12  1  0.078035  0.923915  0.314226  1
  O  O13  1  0.576583  0.183612  0.427089  1
  O  O14  1  0.176672  0.423040  0.580055  1
  O  O15  1  0.423806  0.585232  0.175637  1
  O  O16  1  0.423443  0.816936  0.571887  1
  O  O17  1  0.823001  0.576501  0.419456  1
  O  O18  1  0.576749  0.413564  0.825146  1
