# generated using pymatgen
data_Sc19PaTc6
_symmetry_space_group_name_H-M   'P 1'
_cell_length_a   8.86689400
_cell_length_b   8.86689397
_cell_length_c   8.14501400
_cell_angle_alpha   90.00000000
_cell_angle_beta   90.00000000
_cell_angle_gamma   119.99999265
_symmetry_Int_Tables_number   1
_chemical_formula_structural   Sc19PaTc6
_chemical_formula_sum   'Sc19 Pa1 Tc6'
_cell_volume   554.58169519
_cell_formula_units_Z   1
loop_
 _symmetry_equiv_pos_site_id
 _symmetry_equiv_pos_as_xyz
  1  'x, y, z'
loop_
 _atom_site_type_symbol
 _atom_site_label
 _atom_site_symmetry_multiplicity
 _atom_site_fract_x
 _atom_site_fract_y
 _atom_site_fract_z
 _atom_site_occupancy
  Sc  Sc0  1  0.409776  0.204888  0.054783  1
  Sc  Sc1  1  0.795112  0.204888  0.054783  1
  Sc  Sc2  1  0.795111  0.590223  0.054783  1
  Sc  Sc3  1  0.095587  0.547793  0.249030  1
  Sc  Sc4  1  0.452207  0.547793  0.249030  1
  Sc  Sc5  1  0.452207  0.904414  0.249030  1
  Sc  Sc6  1  0.404072  0.202036  0.445321  1
  Sc  Sc7  1  0.797964  0.202036  0.445321  1
  Sc  Sc8  1  0.797963  0.595927  0.445321  1
  Sc  Sc9  1  0.000000  0.000000  0.500000  1
  Sc  Sc10  1  0.202036  0.404073  0.554680  1
  Sc  Sc11  1  0.202035  0.797964  0.554680  1
  Sc  Sc12  1  0.595928  0.797964  0.554680  1
  Sc  Sc13  1  0.547792  0.095586  0.750971  1
  Sc  Sc14  1  0.547793  0.452207  0.750971  1
  Sc  Sc15  1  0.904414  0.452207  0.750971  1
  Sc  Sc16  1  0.204888  0.409777  0.945216  1
  Sc  Sc17  1  0.204887  0.795112  0.945216  1
  Sc  Sc18  1  0.590224  0.795112  0.945216  1
  Pa  Pa19  1  0.000000  0.000000  0.000000  1
  Tc  Tc20  1  0.116613  0.233225  0.248003  1
  Tc  Tc21  1  0.116612  0.883387  0.248003  1
  Tc  Tc22  1  0.766776  0.883387  0.248003  1
  Tc  Tc23  1  0.233225  0.116613  0.751998  1
  Tc  Tc24  1  0.883387  0.116613  0.751998  1
  Tc  Tc25  1  0.883386  0.766775  0.751998  1
