# generated using pymatgen
data_Ho5Er11In4NiRh3
_symmetry_space_group_name_H-M   'P 1'
_cell_length_a   9.56937188
_cell_length_b   9.57329133
_cell_length_c   9.57236236
_cell_angle_alpha   59.98819180
_cell_angle_beta   60.01078927
_cell_angle_gamma   60.03230612
_symmetry_Int_Tables_number   1
_chemical_formula_structural   Ho5Er11In4NiRh3
_chemical_formula_sum   'Ho5 Er11 In4 Ni1 Rh3'
_cell_volume   620.22802078
_cell_formula_units_Z   1
loop_
 _symmetry_equiv_pos_site_id
 _symmetry_equiv_pos_as_xyz
  1  'x, y, z'
loop_
 _atom_site_type_symbol
 _atom_site_label
 _atom_site_symmetry_multiplicity
 _atom_site_fract_x
 _atom_site_fract_y
 _atom_site_fract_z
 _atom_site_occupancy
  Ho  Ho0  1  0.186544  0.190659  0.811303  1
  Ho  Ho1  1  0.438794  0.060831  0.061892  1
  Ho  Ho2  1  0.438569  0.061317  0.438100  1
  Ho  Ho3  1  0.062156  0.438232  0.062780  1
  Ho  Ho4  1  0.650326  0.050851  0.648863  1
  Er  Er5  1  0.188905  0.811228  0.810761  1
  Er  Er6  1  0.061713  0.061079  0.438446  1
  Er  Er7  1  0.811193  0.190132  0.187263  1
  Er  Er8  1  0.810889  0.811281  0.189263  1
  Er  Er9  1  0.652163  0.647652  0.048028  1
  Er  Er10  1  0.652761  0.648225  0.652012  1
  Er  Er11  1  0.062429  0.438408  0.436589  1
  Er  Er12  1  0.046945  0.648529  0.651871  1
  Er  Er13  1  0.811294  0.190604  0.811307  1
  Er  Er14  1  0.437169  0.438405  0.062451  1
  Er  Er15  1  0.188596  0.811058  0.189493  1
  In  In16  1  0.417434  0.747403  0.417576  1
  In  In17  1  0.416209  0.418186  0.749629  1
  In  In18  1  0.750333  0.417909  0.416027  1
  In  In19  1  0.415795  0.418055  0.415863  1
  Ni  Ni20  1  0.857261  0.427362  0.857785  1
  Rh  Rh21  1  0.857515  0.857648  0.427501  1
  Rh  Rh22  1  0.427536  0.857301  0.857687  1
  Rh  Rh23  1  0.857474  0.857643  0.857512  1
