# generated using pymatgen
data_TbY2TmAu2
_symmetry_space_group_name_H-M   'P 1'
_cell_length_a   4.95119800
_cell_length_b   7.17322247
_cell_length_c   8.97492900
_cell_angle_alpha   90.15268834
_cell_angle_beta   90.00000000
_cell_angle_gamma   90.00000000
_symmetry_Int_Tables_number   1
_chemical_formula_structural   TbY2TmAu2
_chemical_formula_sum   'Tb2 Y4 Tm2 Au4'
_cell_volume   318.75284816
_cell_formula_units_Z   2
loop_
 _symmetry_equiv_pos_site_id
 _symmetry_equiv_pos_as_xyz
  1  'x, y, z'
loop_
 _atom_site_type_symbol
 _atom_site_label
 _atom_site_symmetry_multiplicity
 _atom_site_fract_x
 _atom_site_fract_y
 _atom_site_fract_z
 _atom_site_occupancy
  Tb  Tb0  1  0.750000  0.647927  0.418149  1
  Tb  Tb1  1  0.250000  0.352073  0.581851  1
  Y  Y2  1  0.250000  0.486052  0.175547  1
  Y  Y3  1  0.750000  0.513948  0.824453  1
  Y  Y4  1  0.250000  0.987352  0.322997  1
  Y  Y5  1  0.750000  0.012648  0.677003  1
  Tm  Tm6  1  0.750000  0.148165  0.078672  1
  Tm  Tm7  1  0.250000  0.851835  0.921328  1
  Au  Au8  1  0.250000  0.251096  0.903133  1
  Au  Au9  1  0.750000  0.748904  0.096867  1
  Au  Au10  1  0.250000  0.757237  0.603099  1
  Au  Au11  1  0.750000  0.242763  0.396901  1
