# generated using pymatgen
data_Hf12TaAl4Rh7
_symmetry_space_group_name_H-M   'P 1'
_cell_length_a   8.54548694
_cell_length_b   8.54548635
_cell_length_c   8.54548703
_cell_angle_alpha   59.87663764
_cell_angle_beta   59.87664201
_cell_angle_gamma   59.87664459
_symmetry_Int_Tables_number   1
_chemical_formula_structural   Hf12TaAl4Rh7
_chemical_formula_sum   'Hf12 Ta1 Al4 Rh7'
_cell_volume   440.02578023
_cell_formula_units_Z   1
loop_
 _symmetry_equiv_pos_site_id
 _symmetry_equiv_pos_as_xyz
  1  'x, y, z'
loop_
 _atom_site_type_symbol
 _atom_site_label
 _atom_site_symmetry_multiplicity
 _atom_site_fract_x
 _atom_site_fract_y
 _atom_site_fract_z
 _atom_site_occupancy
  Hf  Hf0  1  0.806651  0.806651  0.186707  1
  Hf  Hf1  1  0.192720  0.192720  0.807060  1
  Hf  Hf2  1  0.806651  0.186707  0.806651  1
  Hf  Hf3  1  0.192720  0.807060  0.192720  1
  Hf  Hf4  1  0.186707  0.806651  0.806651  1
  Hf  Hf5  1  0.807060  0.192720  0.192720  1
  Hf  Hf6  1  0.445667  0.445667  0.053967  1
  Hf  Hf7  1  0.057997  0.057997  0.444564  1
  Hf  Hf8  1  0.445667  0.053967  0.445667  1
  Hf  Hf9  1  0.057997  0.444564  0.057997  1
  Hf  Hf10  1  0.053967  0.445667  0.445667  1
  Hf  Hf11  1  0.444564  0.057997  0.057997  1
  Ta  Ta12  1  0.829019  0.829019  0.829019  1
  Al  Al13  1  0.140093  0.617893  0.617893  1
  Al  Al14  1  0.617893  0.140093  0.617893  1
  Al  Al15  1  0.617893  0.617893  0.140093  1
  Al  Al16  1  0.626719  0.626719  0.626719  1
  Rh  Rh17  1  0.770555  0.412890  0.412890  1
  Rh  Rh18  1  0.412890  0.770555  0.412890  1
  Rh  Rh19  1  0.412890  0.412890  0.770555  1
  Rh  Rh20  1  0.409376  0.409376  0.409376  1
  Rh  Rh21  1  0.480068  0.842117  0.842117  1
  Rh  Rh22  1  0.842117  0.480068  0.842117  1
  Rh  Rh23  1  0.842117  0.842117  0.480068  1
