# generated using pymatgen
data_Tb4Pr2Al24Os5Pt3
_symmetry_space_group_name_H-M   'P 1'
_cell_length_a   8.88725504
_cell_length_b   8.89354259
_cell_length_c   9.58898944
_cell_angle_alpha   89.96382494
_cell_angle_beta   89.75843561
_cell_angle_gamma   119.71063338
_symmetry_Int_Tables_number   1
_chemical_formula_structural   Tb4Pr2Al24Os5Pt3
_chemical_formula_sum   'Tb4 Pr2 Al24 Os5 Pt3'
_cell_volume   658.26214553
_cell_formula_units_Z   1
loop_
 _symmetry_equiv_pos_site_id
 _symmetry_equiv_pos_as_xyz
  1  'x, y, z'
loop_
 _atom_site_type_symbol
 _atom_site_label
 _atom_site_symmetry_multiplicity
 _atom_site_fract_x
 _atom_site_fract_y
 _atom_site_fract_z
 _atom_site_occupancy
  Tb  Tb0  1  0.615023  0.814610  0.252068  1
  Tb  Tb1  1  0.384977  0.185390  0.747932  1
  Tb  Tb2  1  0.193821  0.810718  0.250777  1
  Tb  Tb3  1  0.806179  0.189282  0.749223  1
  Pr  Pr4  1  0.186799  0.378760  0.250535  1
  Pr  Pr5  1  0.813201  0.621240  0.749465  1
  Al  Al6  1  0.336303  0.672206  0.027041  1
  Al  Al7  1  0.663697  0.327794  0.972959  1
  Al  Al8  1  0.669081  0.330475  0.524761  1
  Al  Al9  1  0.330919  0.669525  0.475239  1
  Al  Al10  1  0.158403  0.324885  0.576149  1
  Al  Al11  1  0.841597  0.675115  0.423851  1
  Al  Al12  1  0.673770  0.841764  0.574393  1
  Al  Al13  1  0.837342  0.676898  0.078729  1
  Al  Al14  1  0.326230  0.158236  0.425607  1
  Al  Al15  1  0.162658  0.323102  0.921271  1
  Al  Al16  1  0.165713  0.836599  0.573748  1
  Al  Al17  1  0.326011  0.157993  0.074168  1
  Al  Al18  1  0.834287  0.163401  0.426252  1
  Al  Al19  1  0.673989  0.842007  0.925832  1
  Al  Al20  1  0.831054  0.158442  0.075132  1
  Al  Al21  1  0.168946  0.841558  0.924868  1
  Al  Al22  1  0.560346  0.123986  0.249320  1
  Al  Al23  1  0.439654  0.876014  0.750680  1
  Al  Al24  1  0.872966  0.438674  0.253178  1
  Al  Al25  1  0.127034  0.561326  0.746822  1
  Al  Al26  1  0.564610  0.437555  0.249315  1
  Al  Al27  1  0.435390  0.562445  0.750685  1
  Al  Al28  1  0.996329  0.998303  0.250298  1
  Al  Al29  1  0.003671  0.001697  0.749702  1
  Os  Os30  1  0.500000  0.000000  0.000000  1
  Os  Os31  1  0.500000  0.000000  0.500000  1
  Os  Os32  1  0.000000  0.500000  0.500000  1
  Os  Os33  1  0.000000  0.000000  0.000000  1
  Os  Os34  1  0.000000  0.000000  0.500000  1
  Pt  Pt35  1  0.000000  0.500000  0.000000  1
  Pt  Pt36  1  0.500000  0.500000  0.000000  1
  Pt  Pt37  1  0.500000  0.500000  0.500000  1
