# generated using pymatgen
data_Dy5HgBiOs
_symmetry_space_group_name_H-M   'P 1'
_cell_length_a   7.85825396
_cell_length_b   9.04657983
_cell_length_c   12.34114374
_cell_angle_alpha   90.45006799
_cell_angle_beta   90.68984155
_cell_angle_gamma   90.06848382
_symmetry_Int_Tables_number   1
_chemical_formula_structural   Dy5HgBiOs
_chemical_formula_sum   'Dy20 Hg4 Bi4 Os4'
_cell_volume   877.24449545
_cell_formula_units_Z   4
loop_
 _symmetry_equiv_pos_site_id
 _symmetry_equiv_pos_as_xyz
  1  'x, y, z'
loop_
 _atom_site_type_symbol
 _atom_site_label
 _atom_site_symmetry_multiplicity
 _atom_site_fract_x
 _atom_site_fract_y
 _atom_site_fract_z
 _atom_site_occupancy
  Dy  Dy0  1  0.841393  0.741542  0.784576  1
  Dy  Dy1  1  0.162986  0.244882  0.216876  1
  Dy  Dy2  1  0.348677  0.260644  0.715250  1
  Dy  Dy3  1  0.644041  0.750628  0.286734  1
  Dy  Dy4  1  0.374292  0.741789  0.690472  1
  Dy  Dy5  1  0.609123  0.248563  0.304795  1
  Dy  Dy6  1  0.884655  0.256277  0.806650  1
  Dy  Dy7  1  0.130153  0.752282  0.192296  1
  Dy  Dy8  1  0.950613  0.745503  0.504517  1
  Dy  Dy9  1  0.049858  0.258220  0.502145  1
  Dy  Dy10  1  0.452780  0.251273  0.002262  1
  Dy  Dy11  1  0.548416  0.747604  0.004023  1
  Dy  Dy12  1  0.671866  0.038857  0.567876  1
  Dy  Dy13  1  0.321502  0.962154  0.427934  1
  Dy  Dy14  1  0.174573  0.961523  0.933240  1
  Dy  Dy15  1  0.325681  0.540713  0.425659  1
  Dy  Dy16  1  0.824471  0.035483  0.067965  1
  Dy  Dy17  1  0.675655  0.460916  0.573985  1
  Dy  Dy18  1  0.831043  0.462581  0.069261  1
  Dy  Dy19  1  0.177247  0.537479  0.922389  1
  Hg  Hg20  1  0.581875  0.490314  0.837989  1
  Hg  Hg21  1  0.423529  0.507459  0.166775  1
  Hg  Hg22  1  0.076783  0.509404  0.667033  1
  Hg  Hg23  1  0.426124  0.991414  0.165533  1
  Bi  Bi24  1  0.923346  0.492682  0.326568  1
  Bi  Bi25  1  0.573628  0.007803  0.828513  1
  Bi  Bi26  1  0.919965  0.007329  0.332596  1
  Bi  Bi27  1  0.074381  0.994613  0.671649  1
  Os  Os28  1  0.576681  0.749200  0.509073  1
  Os  Os29  1  0.420449  0.251341  0.493879  1
  Os  Os30  1  0.078814  0.250672  0.995594  1
  Os  Os31  1  0.925402  0.748854  0.005894  1
