# generated using pymatgen
data_Hf8BeNb12Si14Ge
_symmetry_space_group_name_H-M   'P 1'
_cell_length_a   6.68487136
_cell_length_b   6.85811757
_cell_length_c   13.15352800
_cell_angle_alpha   89.92509401
_cell_angle_beta   89.96343627
_cell_angle_gamma   89.91401834
_symmetry_Int_Tables_number   1
_chemical_formula_structural   Hf8BeNb12Si14Ge
_chemical_formula_sum   'Hf8 Be1 Nb12 Si14 Ge1'
_cell_volume   603.03051102
_cell_formula_units_Z   1
loop_
 _symmetry_equiv_pos_site_id
 _symmetry_equiv_pos_as_xyz
  1  'x, y, z'
loop_
 _atom_site_type_symbol
 _atom_site_label
 _atom_site_symmetry_multiplicity
 _atom_site_fract_x
 _atom_site_fract_y
 _atom_site_fract_z
 _atom_site_occupancy
  Hf  Hf0  1  0.498034  0.673451  0.593744  1
  Hf  Hf1  1  0.997053  0.826863  0.907105  1
  Hf  Hf2  1  0.500581  0.325940  0.093370  1
  Hf  Hf3  1  0.999581  0.165810  0.411506  1
  Hf  Hf4  1  0.502729  0.328215  0.409189  1
  Hf  Hf5  1  0.003865  0.171080  0.091955  1
  Hf  Hf6  1  0.495242  0.673012  0.906639  1
  Hf  Hf7  1  0.000531  0.827113  0.593477  1
  Be  Be8  1  0.662992  0.967648  0.462822  1
  Nb  Nb9  1  0.667342  0.170403  0.622196  1
  Nb  Nb10  1  0.163929  0.330836  0.875597  1
  Nb  Nb11  1  0.334644  0.829669  0.122879  1
  Nb  Nb12  1  0.831991  0.680416  0.377933  1
  Nb  Nb13  1  0.336728  0.829592  0.376021  1
  Nb  Nb14  1  0.836526  0.671979  0.123151  1
  Nb  Nb15  1  0.664805  0.170577  0.875853  1
  Nb  Nb16  1  0.164189  0.327830  0.622722  1
  Nb  Nb17  1  0.837883  0.496937  0.749311  1
  Nb  Nb18  1  0.338343  0.003265  0.749179  1
  Nb  Nb19  1  0.163450  0.504208  0.249435  1
  Nb  Nb20  1  0.661229  0.991774  0.248946  1
  Si  Si21  1  0.171202  0.535712  0.038299  1
  Si  Si22  1  0.328467  0.037582  0.961177  1
  Si  Si23  1  0.827658  0.465960  0.537322  1
  Si  Si24  1  0.340391  0.033565  0.537234  1
  Si  Si25  1  0.827581  0.463157  0.961656  1
  Si  Si26  1  0.670727  0.963639  0.037768  1
  Si  Si27  1  0.169466  0.536015  0.460720  1
  Si  Si28  1  0.462641  0.386322  0.748313  1
  Si  Si29  1  0.962258  0.112563  0.749694  1
  Si  Si30  1  0.536882  0.614725  0.250612  1
  Si  Si31  1  0.038805  0.888211  0.250757  1
  Si  Si32  1  0.704362  0.860453  0.749186  1
  Si  Si33  1  0.204305  0.639658  0.749610  1
  Si  Si34  1  0.296123  0.140498  0.252206  1
  Ge  Ge35  1  0.797462  0.355319  0.252414  1
