# generated using pymatgen
data_Yb3As4Pd7
_symmetry_space_group_name_H-M   'P 1'
_cell_length_a   8.15664369
_cell_length_b   8.15664320
_cell_length_c   9.57676282
_cell_angle_alpha   55.81508238
_cell_angle_beta   55.81508670
_cell_angle_gamma   29.48331362
_symmetry_Int_Tables_number   1
_chemical_formula_structural   Yb3As4Pd7
_chemical_formula_sum   'Yb3 As4 Pd7'
_cell_volume   255.23111416
_cell_formula_units_Z   1
loop_
 _symmetry_equiv_pos_site_id
 _symmetry_equiv_pos_as_xyz
  1  'x, y, z'
loop_
 _atom_site_type_symbol
 _atom_site_label
 _atom_site_symmetry_multiplicity
 _atom_site_fract_x
 _atom_site_fract_y
 _atom_site_fract_z
 _atom_site_occupancy
  Yb  Yb0  1  0.500000  0.500000  0.500000  1
  Yb  Yb1  1  0.828509  0.828509  0.167172  1
  Yb  Yb2  1  0.171491  0.171491  0.832828  1
  As  As3  1  0.393905  0.393905  0.323010  1
  As  As4  1  0.606095  0.606095  0.676990  1
  As  As5  1  0.835537  0.835537  0.763075  1
  As  As6  1  0.164463  0.164463  0.236925  1
  Pd  Pd7  1  0.673649  0.673649  0.076534  1
  Pd  Pd8  1  0.011457  0.011457  0.214285  1
  Pd  Pd9  1  0.988543  0.988543  0.785715  1
  Pd  Pd10  1  0.500000  0.500000  0.000000  1
  Pd  Pd11  1  0.196637  0.196637  0.468779  1
  Pd  Pd12  1  0.803363  0.803363  0.531221  1
  Pd  Pd13  1  0.326351  0.326351  0.923466  1
