# generated using pymatgen
data_Eu4Nb3NiO14
_symmetry_space_group_name_H-M   'P 1'
_cell_length_a   7.54635710
_cell_length_b   7.54635666
_cell_length_c   7.42794068
_cell_angle_alpha   59.47122227
_cell_angle_beta   59.47121455
_cell_angle_gamma   60.00000414
_symmetry_Int_Tables_number   1
_chemical_formula_structural   Eu4Nb3NiO14
_chemical_formula_sum   'Eu4 Nb3 Ni1 O14'
_cell_volume   296.69509884
_cell_formula_units_Z   1
loop_
 _symmetry_equiv_pos_site_id
 _symmetry_equiv_pos_as_xyz
  1  'x, y, z'
loop_
 _atom_site_type_symbol
 _atom_site_label
 _atom_site_symmetry_multiplicity
 _atom_site_fract_x
 _atom_site_fract_y
 _atom_site_fract_z
 _atom_site_occupancy
  Eu  Eu0  1  0.125000  0.625000  0.125000  1
  Eu  Eu1  1  0.125000  0.125000  0.625000  1
  Eu  Eu2  1  0.625000  0.125000  0.125000  1
  Eu  Eu3  1  0.125000  0.125000  0.125000  1
  Nb  Nb4  1  0.625000  0.625000  0.625000  1
  Nb  Nb5  1  0.125000  0.625000  0.625000  1
  Nb  Nb6  1  0.625000  0.125000  0.625000  1
  Ni  Ni7  1  0.625000  0.625000  0.125000  1
  O  O8  1  0.302782  0.702994  0.691444  1
  O  O9  1  0.542884  0.965268  0.948965  1
  O  O10  1  0.707116  0.707116  0.301035  1
  O  O11  1  0.302782  0.302782  0.691444  1
  O  O12  1  0.000412  0.000412  0.998766  1
  O  O13  1  0.284732  0.707116  0.301035  1
  O  O14  1  0.702994  0.302782  0.691444  1
  O  O15  1  0.965268  0.542884  0.948965  1
  O  O16  1  0.542884  0.542884  0.948965  1
  O  O17  1  0.947218  0.947218  0.558556  1
  O  O18  1  0.249588  0.249588  0.251234  1
  O  O19  1  0.547006  0.947218  0.558556  1
  O  O20  1  0.707116  0.284732  0.301035  1
  O  O21  1  0.947218  0.547006  0.558556  1
