# generated using pymatgen
data_Nd4MoOsRu6
_symmetry_space_group_name_H-M   'P 1'
_cell_length_a   5.22804438
_cell_length_b   5.22804492
_cell_length_c   9.25158700
_cell_angle_alpha   90.00000000
_cell_angle_beta   90.00000000
_cell_angle_gamma   114.68319298
_symmetry_Int_Tables_number   1
_chemical_formula_structural   Nd4MoOsRu6
_chemical_formula_sum   'Nd4 Mo1 Os1 Ru6'
_cell_volume   229.76412857
_cell_formula_units_Z   1
loop_
 _symmetry_equiv_pos_site_id
 _symmetry_equiv_pos_as_xyz
  1  'x, y, z'
loop_
 _atom_site_type_symbol
 _atom_site_label
 _atom_site_symmetry_multiplicity
 _atom_site_fract_x
 _atom_site_fract_y
 _atom_site_fract_z
 _atom_site_occupancy
  Nd  Nd0  1  0.335648  0.664352  0.432162  1
  Nd  Nd1  1  0.669511  0.330489  0.564154  1
  Nd  Nd2  1  0.669511  0.330489  0.935846  1
  Nd  Nd3  1  0.335648  0.664352  0.067838  1
  Mo  Mo4  1  0.153796  0.846204  0.750000  1
  Os  Os5  1  0.835256  0.164744  0.250000  1
  Ru  Ru6  1  0.002504  0.997496  0.498722  1
  Ru  Ru7  1  0.002504  0.997496  0.001278  1
  Ru  Ru8  1  0.838292  0.659624  0.250000  1
  Ru  Ru9  1  0.340376  0.161708  0.250000  1
  Ru  Ru10  1  0.167495  0.350543  0.750000  1
  Ru  Ru11  1  0.649457  0.832505  0.750000  1
