# generated using pymatgen
data_Zr6Zn16GaPd7
_symmetry_space_group_name_H-M   'P 1'
_cell_length_a   8.84363512
_cell_length_b   8.84363510
_cell_length_c   8.84363500
_cell_angle_alpha   60.00000411
_cell_angle_beta   60.00000419
_cell_angle_gamma   60.00000055
_symmetry_Int_Tables_number   1
_chemical_formula_structural   Zr6Zn16GaPd7
_chemical_formula_sum   'Zr6 Zn16 Ga1 Pd7'
_cell_volume   489.07726115
_cell_formula_units_Z   1
loop_
 _symmetry_equiv_pos_site_id
 _symmetry_equiv_pos_as_xyz
  1  'x, y, z'
loop_
 _atom_site_type_symbol
 _atom_site_label
 _atom_site_symmetry_multiplicity
 _atom_site_fract_x
 _atom_site_fract_y
 _atom_site_fract_z
 _atom_site_occupancy
  Zr  Zr0  1  0.722030  0.277970  0.277970  1
  Zr  Zr1  1  0.277970  0.722030  0.722030  1
  Zr  Zr2  1  0.277970  0.722030  0.277970  1
  Zr  Zr3  1  0.722030  0.277970  0.722030  1
  Zr  Zr4  1  0.277970  0.277970  0.722030  1
  Zr  Zr5  1  0.722030  0.722030  0.277970  1
  Zn  Zn6  1  0.123772  0.123772  0.123772  1
  Zn  Zn7  1  0.876228  0.876228  0.876228  1
  Zn  Zn8  1  0.123772  0.123772  0.628683  1
  Zn  Zn9  1  0.123772  0.628683  0.123772  1
  Zn  Zn10  1  0.876228  0.876228  0.371317  1
  Zn  Zn11  1  0.876228  0.371317  0.876228  1
  Zn  Zn12  1  0.628683  0.123772  0.123772  1
  Zn  Zn13  1  0.371317  0.876228  0.876228  1
  Zn  Zn14  1  0.344051  0.344051  0.344051  1
  Zn  Zn15  1  0.655949  0.655949  0.655949  1
  Zn  Zn16  1  0.344051  0.344051  0.967848  1
  Zn  Zn17  1  0.344051  0.967848  0.344051  1
  Zn  Zn18  1  0.655949  0.655949  0.032152  1
  Zn  Zn19  1  0.655949  0.032152  0.655949  1
  Zn  Zn20  1  0.967848  0.344051  0.344051  1
  Zn  Zn21  1  0.032152  0.655949  0.655949  1
  Ga  Ga22  1  0.500000  0.500000  0.500000  1
  Pd  Pd23  1  0.500000  0.000000  0.000000  1
  Pd  Pd24  1  0.000000  0.500000  0.500000  1
  Pd  Pd25  1  0.000000  0.500000  0.000000  1
  Pd  Pd26  1  0.500000  0.000000  0.500000  1
  Pd  Pd27  1  0.000000  0.000000  0.500000  1
  Pd  Pd28  1  0.500000  0.500000  0.000000  1
  Pd  Pd29  1  0.000000  0.000000  0.000000  1
