# generated using pymatgen
data_DyInCu3Ir
_symmetry_space_group_name_H-M   'P 1'
_cell_length_a   5.09635397
_cell_length_b   5.09635359
_cell_length_c   5.22081107
_cell_angle_alpha   60.78549170
_cell_angle_beta   60.78550191
_cell_angle_gamma   59.99999365
_symmetry_Int_Tables_number   1
_chemical_formula_structural   DyInCu3Ir
_chemical_formula_sum   'Dy1 In1 Cu3 Ir1'
_cell_volume   97.00578006
_cell_formula_units_Z   1
loop_
 _symmetry_equiv_pos_site_id
 _symmetry_equiv_pos_as_xyz
  1  'x, y, z'
loop_
 _atom_site_type_symbol
 _atom_site_label
 _atom_site_symmetry_multiplicity
 _atom_site_fract_x
 _atom_site_fract_y
 _atom_site_fract_z
 _atom_site_occupancy
  Dy  Dy0  1  0.998362  0.998362  0.004914  1
  In  In1  1  0.252239  0.252239  0.243282  1
  Cu  Cu2  1  0.625515  0.124635  0.624335  1
  Cu  Cu3  1  0.124635  0.625515  0.624335  1
  Cu  Cu4  1  0.625515  0.625515  0.624335  1
  Ir  Ir5  1  0.623734  0.623734  0.128798  1
