# generated using pymatgen
data_Y3Pa(HgPt2)2
_symmetry_space_group_name_H-M   'P 1'
_cell_length_a   7.82233505
_cell_length_b   7.82233505
_cell_length_c   3.66363300
_cell_angle_alpha   90.00000000
_cell_angle_beta   90.00000000
_cell_angle_gamma   88.09486156
_symmetry_Int_Tables_number   1
_chemical_formula_structural   Y3Pa(HgPt2)2
_chemical_formula_sum   'Y3 Pa1 Hg2 Pt4'
_cell_volume   224.04985234
_cell_formula_units_Z   1
loop_
 _symmetry_equiv_pos_site_id
 _symmetry_equiv_pos_as_xyz
  1  'x, y, z'
loop_
 _atom_site_type_symbol
 _atom_site_label
 _atom_site_symmetry_multiplicity
 _atom_site_fract_x
 _atom_site_fract_y
 _atom_site_fract_z
 _atom_site_occupancy
  Y  Y0  1  0.325493  0.174507  0.500000  1
  Y  Y1  1  0.831457  0.327768  0.500000  1
  Y  Y2  1  0.172232  0.668543  0.500000  1
  Pa  Pa3  1  0.668084  0.831916  0.500000  1
  Hg  Hg4  1  0.006580  0.001089  0.000000  1
  Hg  Hg5  1  0.498911  0.493420  0.000000  1
  Pt  Pt6  1  0.634042  0.116299  0.000000  1
  Pt  Pt7  1  0.120470  0.379530  0.000000  1
  Pt  Pt8  1  0.859030  0.640970  0.000000  1
  Pt  Pt9  1  0.383701  0.865958  0.000000  1
