# generated using pymatgen
data_Ho10Bi4IrRh
_symmetry_space_group_name_H-M   'P 1'
_cell_length_a   7.99072641
_cell_length_b   8.98815800
_cell_length_c   12.46723338
_cell_angle_alpha   90.00000000
_cell_angle_beta   89.89381129
_cell_angle_gamma   90.00000000
_symmetry_Int_Tables_number   1
_chemical_formula_structural   Ho10Bi4IrRh
_chemical_formula_sum   'Ho20 Bi8 Ir2 Rh2'
_cell_volume   895.41899514
_cell_formula_units_Z   2
loop_
 _symmetry_equiv_pos_site_id
 _symmetry_equiv_pos_as_xyz
  1  'x, y, z'
loop_
 _atom_site_type_symbol
 _atom_site_label
 _atom_site_symmetry_multiplicity
 _atom_site_fract_x
 _atom_site_fract_y
 _atom_site_fract_z
 _atom_site_occupancy
  Ho  Ho0  1  0.839378  0.750000  0.793939  1
  Ho  Ho1  1  0.160622  0.250000  0.206061  1
  Ho  Ho2  1  0.338927  0.250000  0.706421  1
  Ho  Ho3  1  0.661073  0.750000  0.293579  1
  Ho  Ho4  1  0.375381  0.750000  0.690999  1
  Ho  Ho5  1  0.624619  0.250000  0.309001  1
  Ho  Ho6  1  0.875872  0.250000  0.808465  1
  Ho  Ho7  1  0.124128  0.750000  0.191535  1
  Ho  Ho8  1  0.950395  0.750000  0.501506  1
  Ho  Ho9  1  0.049605  0.250000  0.498494  1
  Ho  Ho10  1  0.447053  0.250000  0.998342  1
  Ho  Ho11  1  0.552947  0.750000  0.001658  1
  Ho  Ho12  1  0.676821  0.042447  0.566345  1
  Ho  Ho13  1  0.323179  0.957553  0.433655  1
  Ho  Ho14  1  0.175849  0.957865  0.933774  1
  Ho  Ho15  1  0.323179  0.542447  0.433655  1
  Ho  Ho16  1  0.824151  0.042135  0.066226  1
  Ho  Ho17  1  0.676821  0.457553  0.566345  1
  Ho  Ho18  1  0.824151  0.457865  0.066226  1
  Ho  Ho19  1  0.175849  0.542135  0.933774  1
  Bi  Bi20  1  0.566617  0.491425  0.826485  1
  Bi  Bi21  1  0.433383  0.508575  0.173515  1
  Bi  Bi22  1  0.066812  0.508441  0.673260  1
  Bi  Bi23  1  0.433383  0.991425  0.173515  1
  Bi  Bi24  1  0.933188  0.491559  0.326740  1
  Bi  Bi25  1  0.566617  0.008575  0.826485  1
  Bi  Bi26  1  0.933188  0.008441  0.326740  1
  Bi  Bi27  1  0.066812  0.991559  0.673260  1
  Ir  Ir28  1  0.071784  0.250000  0.991227  1
  Ir  Ir29  1  0.928216  0.750000  0.008773  1
  Rh  Rh30  1  0.571548  0.750000  0.509286  1
  Rh  Rh31  1  0.428452  0.250000  0.490714  1
