# generated using pymatgen
data_La2ErIr9
_symmetry_space_group_name_H-M   'P 1'
_cell_length_a   5.38189900
_cell_length_b   5.38189903
_cell_length_c   17.61491000
_cell_angle_alpha   90.00000000
_cell_angle_beta   90.00000000
_cell_angle_gamma   120.00000597
_symmetry_Int_Tables_number   1
_chemical_formula_structural   La2ErIr9
_chemical_formula_sum   'La4 Er2 Ir18'
_cell_volume   441.85739019
_cell_formula_units_Z   2
loop_
 _symmetry_equiv_pos_site_id
 _symmetry_equiv_pos_as_xyz
  1  'x, y, z'
loop_
 _atom_site_type_symbol
 _atom_site_label
 _atom_site_symmetry_multiplicity
 _atom_site_fract_x
 _atom_site_fract_y
 _atom_site_fract_z
 _atom_site_occupancy
  La  La0  1  0.333333  0.666667  0.959266  1
  La  La1  1  0.666667  0.333333  0.040734  1
  La  La2  1  0.333333  0.666667  0.748826  1
  La  La3  1  0.666667  0.333333  0.251174  1
  Er  Er4  1  0.666667  0.333333  0.459691  1
  Er  Er5  1  0.333333  0.666667  0.540309  1
  Ir  Ir6  1  0.167593  0.832407  0.376101  1
  Ir  Ir7  1  0.167593  0.335186  0.376101  1
  Ir  Ir8  1  0.664814  0.832407  0.376101  1
  Ir  Ir9  1  0.832407  0.167593  0.623899  1
  Ir  Ir10  1  0.832407  0.664814  0.623899  1
  Ir  Ir11  1  0.335186  0.167593  0.623899  1
  Ir  Ir12  1  0.833948  0.166052  0.869713  1
  Ir  Ir13  1  0.833948  0.667895  0.869713  1
  Ir  Ir14  1  0.332105  0.166052  0.869713  1
  Ir  Ir15  1  0.166052  0.833948  0.130287  1
  Ir  Ir16  1  0.166052  0.332105  0.130287  1
  Ir  Ir17  1  0.667895  0.833948  0.130287  1
  Ir  Ir18  1  0.333333  0.666667  0.251944  1
  Ir  Ir19  1  0.666667  0.333333  0.748056  1
  Ir  Ir20  1  0.000000  0.000000  0.253555  1
  Ir  Ir21  1  0.000000  0.000000  0.746445  1
  Ir  Ir22  1  0.000000  0.000000  0.500000  1
  Ir  Ir23  1  0.000000  0.000000  0.000000  1
