# generated using pymatgen
data_Tm3ZnNiSn3Ir
_symmetry_space_group_name_H-M   'P 1'
_cell_length_a   7.37688000
_cell_length_b   7.37688008
_cell_length_c   3.95050600
_cell_angle_alpha   90.00000000
_cell_angle_beta   90.00000000
_cell_angle_gamma   120.00000859
_symmetry_Int_Tables_number   1
_chemical_formula_structural   Tm3ZnNiSn3Ir
_chemical_formula_sum   'Tm3 Zn1 Ni1 Sn3 Ir1'
_cell_volume   186.17817224
_cell_formula_units_Z   1
loop_
 _symmetry_equiv_pos_site_id
 _symmetry_equiv_pos_as_xyz
  1  'x, y, z'
loop_
 _atom_site_type_symbol
 _atom_site_label
 _atom_site_symmetry_multiplicity
 _atom_site_fract_x
 _atom_site_fract_y
 _atom_site_fract_z
 _atom_site_occupancy
  Tm  Tm0  1  0.983335  0.391986  0.500000  1
  Tm  Tm1  1  0.608014  0.591349  0.500000  1
  Tm  Tm2  1  0.408651  0.016665  0.500000  1
  Zn  Zn3  1  0.333333  0.666667  0.000000  1
  Ni  Ni4  1  0.000000  0.000000  0.500000  1
  Sn  Sn5  1  0.004908  0.750151  0.000000  1
  Sn  Sn6  1  0.249849  0.254757  0.000000  1
  Sn  Sn7  1  0.745243  0.995092  0.000000  1
  Ir  Ir8  1  0.666667  0.333333  0.000000  1
