# generated using pymatgen
data_Li4La2SmPb4
_symmetry_space_group_name_H-M   'P 1'
_cell_length_a   4.80164446
_cell_length_b   7.32014107
_cell_length_c   9.00900200
_cell_angle_alpha   113.97061893
_cell_angle_beta   105.45559145
_cell_angle_gamma   90.00000164
_symmetry_Int_Tables_number   1
_chemical_formula_structural   Li4La2SmPb4
_chemical_formula_sum   'Li4 La2 Sm1 Pb4'
_cell_volume   276.76584796
_cell_formula_units_Z   1
loop_
 _symmetry_equiv_pos_site_id
 _symmetry_equiv_pos_as_xyz
  1  'x, y, z'
loop_
 _atom_site_type_symbol
 _atom_site_label
 _atom_site_symmetry_multiplicity
 _atom_site_fract_x
 _atom_site_fract_y
 _atom_site_fract_z
 _atom_site_occupancy
  Li  Li0  1  0.672328  0.982351  0.344658  1
  Li  Li1  1  0.327672  0.017649  0.655342  1
  Li  Li2  1  0.327672  0.637693  0.655342  1
  Li  Li3  1  0.672328  0.362307  0.344658  1
  La  La4  1  0.130235  0.630235  0.260469  1
  La  La5  1  0.869765  0.369765  0.739531  1
  Sm  Sm6  1  0.000000  0.000000  0.000000  1
  Pb  Pb7  1  0.500000  0.707457  0.000000  1
  Pb  Pb8  1  0.500000  0.292543  0.000000  1
  Pb  Pb9  1  0.787862  0.787862  0.575724  1
  Pb  Pb10  1  0.212138  0.212138  0.424276  1
