# generated using pymatgen
data_Er6Fe2CoSi6Ru
_symmetry_space_group_name_H-M   'P 1'
_cell_length_a   5.61299940
_cell_length_b   5.61299915
_cell_length_c   13.52467982
_cell_angle_alpha   89.99430436
_cell_angle_beta   90.00569607
_cell_angle_gamma   137.16293298
_symmetry_Int_Tables_number   1
_chemical_formula_structural   Er6Fe2CoSi6Ru
_chemical_formula_sum   'Er6 Fe2 Co1 Si6 Ru1'
_cell_volume   289.71576190
_cell_formula_units_Z   1
loop_
 _symmetry_equiv_pos_site_id
 _symmetry_equiv_pos_as_xyz
  1  'x, y, z'
loop_
 _atom_site_type_symbol
 _atom_site_label
 _atom_site_symmetry_multiplicity
 _atom_site_fract_x
 _atom_site_fract_y
 _atom_site_fract_z
 _atom_site_occupancy
  Er  Er0  1  0.638040  0.361960  0.248269  1
  Er  Er1  1  0.362538  0.637462  0.750711  1
  Er  Er2  1  0.919080  0.080920  0.111963  1
  Er  Er3  1  0.078717  0.921283  0.889921  1
  Er  Er4  1  0.081258  0.918742  0.613739  1
  Er  Er5  1  0.923427  0.076573  0.383614  1
  Fe  Fe6  1  0.212541  0.787459  0.081645  1
  Fe  Fe7  1  0.783492  0.216508  0.921084  1
  Co  Co8  1  0.214158  0.785842  0.420564  1
  Si  Si9  1  0.328005  0.671995  0.249342  1
  Si  Si10  1  0.672311  0.327689  0.754572  1
  Si  Si11  1  0.622398  0.377602  0.039897  1
  Si  Si12  1  0.373430  0.626570  0.960952  1
  Si  Si13  1  0.385224  0.614776  0.535584  1
  Si  Si14  1  0.618225  0.381775  0.457802  1
  Ru  Ru15  1  0.787158  0.212842  0.580342  1
