# generated using pymatgen
data_Eu4Ga18Ir4PdRh
_symmetry_space_group_name_H-M   'P 1'
_cell_length_a   7.63630257
_cell_length_b   7.63630230
_cell_length_c   9.78524463
_cell_angle_alpha   89.99155679
_cell_angle_beta   89.99156712
_cell_angle_gamma   119.31026492
_symmetry_Int_Tables_number   1
_chemical_formula_structural   Eu4Ga18Ir4PdRh
_chemical_formula_sum   'Eu4 Ga18 Ir4 Pd1 Rh1'
_cell_volume   497.55972732
_cell_formula_units_Z   1
loop_
 _symmetry_equiv_pos_site_id
 _symmetry_equiv_pos_as_xyz
  1  'x, y, z'
loop_
 _atom_site_type_symbol
 _atom_site_label
 _atom_site_symmetry_multiplicity
 _atom_site_fract_x
 _atom_site_fract_y
 _atom_site_fract_z
 _atom_site_occupancy
  Eu  Eu0  1  0.002107  0.329292  0.750558  1
  Eu  Eu1  1  0.997893  0.670708  0.249442  1
  Eu  Eu2  1  0.329292  0.002107  0.750558  1
  Eu  Eu3  1  0.670708  0.997893  0.249442  1
  Ga  Ga4  1  0.661842  0.661842  0.439226  1
  Ga  Ga5  1  0.333840  0.333840  0.941335  1
  Ga  Ga6  1  0.666160  0.666160  0.058665  1
  Ga  Ga7  1  0.338158  0.338158  0.560774  1
  Ga  Ga8  1  0.002264  0.338172  0.423589  1
  Ga  Ga9  1  0.998498  0.665174  0.925668  1
  Ga  Ga10  1  0.334826  0.001502  0.074332  1
  Ga  Ga11  1  0.661828  0.997736  0.576411  1
  Ga  Ga12  1  0.997736  0.661828  0.576411  1
  Ga  Ga13  1  0.001502  0.334826  0.074332  1
  Ga  Ga14  1  0.665174  0.998498  0.925668  1
  Ga  Ga15  1  0.338172  0.002264  0.423589  1
  Ga  Ga16  1  0.130836  0.130836  0.247715  1
  Ga  Ga17  1  0.869164  0.869164  0.752285  1
  Ga  Ga18  1  0.663148  0.455658  0.750084  1
  Ga  Ga19  1  0.336852  0.544342  0.249916  1
  Ga  Ga20  1  0.455658  0.663148  0.750084  1
  Ga  Ga21  1  0.544342  0.336852  0.249916  1
  Ir  Ir22  1  0.670775  0.329225  0.500000  1
  Ir  Ir23  1  0.329784  0.670216  0.000000  1
  Ir  Ir24  1  0.329225  0.670775  0.500000  1
  Ir  Ir25  1  0.670216  0.329784  0.000000  1
  Pd  Pd26  1  0.000000  0.000000  0.500000  1
  Rh  Rh27  1  0.000000  0.000000  0.000000  1
