# generated using pymatgen
data_Nd5ZnRuO12
_symmetry_space_group_name_H-M   'P 1'
_cell_length_a   7.04315880
_cell_length_b   7.04315917
_cell_length_c   7.57303810
_cell_angle_alpha   74.41796805
_cell_angle_beta   74.41796485
_cell_angle_gamma   51.68456013
_symmetry_Int_Tables_number   1
_chemical_formula_structural   Nd5ZnRuO12
_chemical_formula_sum   'Nd5 Zn1 Ru1 O12'
_cell_volume   281.31855356
_cell_formula_units_Z   1
loop_
 _symmetry_equiv_pos_site_id
 _symmetry_equiv_pos_as_xyz
  1  'x, y, z'
loop_
 _atom_site_type_symbol
 _atom_site_label
 _atom_site_symmetry_multiplicity
 _atom_site_fract_x
 _atom_site_fract_y
 _atom_site_fract_z
 _atom_site_occupancy
  Nd  Nd0  1  0.313617  0.298335  0.356566  1
  Nd  Nd1  1  0.701665  0.686383  0.643434  1
  Nd  Nd2  1  0.692968  0.692952  0.165426  1
  Nd  Nd3  1  0.307048  0.307032  0.834574  1
  Nd  Nd4  1  0.006763  0.993237  0.500000  1
  Zn  Zn5  1  0.750804  0.249196  0.000000  1
  Ru  Ru6  1  0.237174  0.762826  0.000000  1
  O  O7  1  0.099515  0.593731  0.575226  1
  O  O8  1  0.021590  0.976436  0.177227  1
  O  O9  1  0.406269  0.900485  0.424774  1
  O  O10  1  0.469403  0.532286  0.178185  1
  O  O11  1  0.100865  0.579896  0.080084  1
  O  O12  1  0.908102  0.399374  0.421844  1
  O  O13  1  0.023564  0.978410  0.822773  1
  O  O14  1  0.600626  0.091897  0.578156  1
  O  O15  1  0.467714  0.530597  0.821815  1
  O  O16  1  0.575164  0.102956  0.078638  1
  O  O17  1  0.420104  0.899135  0.919916  1
  O  O18  1  0.897044  0.424836  0.921362  1
