# generated using pymatgen
data_Tb(ErSe2)2
_symmetry_space_group_name_H-M   'P 1'
_cell_length_a   4.04710800
_cell_length_b   6.98604995
_cell_length_c   6.99932131
_cell_angle_alpha   71.79452846
_cell_angle_beta   90.00000000
_cell_angle_gamma   90.00000000
_symmetry_Int_Tables_number   1
_chemical_formula_structural   Tb(ErSe2)2
_chemical_formula_sum   'Tb1 Er2 Se4'
_cell_volume   187.98777234
_cell_formula_units_Z   1
loop_
 _symmetry_equiv_pos_site_id
 _symmetry_equiv_pos_as_xyz
  1  'x, y, z'
loop_
 _atom_site_type_symbol
 _atom_site_label
 _atom_site_symmetry_multiplicity
 _atom_site_fract_x
 _atom_site_fract_y
 _atom_site_fract_z
 _atom_site_occupancy
  Tb  Tb0  1  0.000000  0.500000  0.500000  1
  Er  Er1  1  0.000000  0.000000  0.000000  1
  Er  Er2  1  0.500000  0.500000  0.000000  1
  Se  Se3  1  0.500000  0.756743  0.251579  1
  Se  Se4  1  0.000000  0.254730  0.243084  1
  Se  Se5  1  0.500000  0.243257  0.748421  1
  Se  Se6  1  0.000000  0.745270  0.756916  1
