# generated using pymatgen
data_HoEr3MoOs7
_symmetry_space_group_name_H-M   'P 1'
_cell_length_a   5.27424536
_cell_length_b   5.27424575
_cell_length_c   8.85480500
_cell_angle_alpha   89.99699921
_cell_angle_beta   90.00300133
_cell_angle_gamma   117.87694007
_symmetry_Int_Tables_number   1
_chemical_formula_structural   HoEr3MoOs7
_chemical_formula_sum   'Ho1 Er3 Mo1 Os7'
_cell_volume   217.73552982
_cell_formula_units_Z   1
loop_
 _symmetry_equiv_pos_site_id
 _symmetry_equiv_pos_as_xyz
  1  'x, y, z'
loop_
 _atom_site_type_symbol
 _atom_site_label
 _atom_site_symmetry_multiplicity
 _atom_site_fract_x
 _atom_site_fract_y
 _atom_site_fract_z
 _atom_site_occupancy
  Ho  Ho0  1  0.329877  0.670123  0.437516  1
  Er  Er1  1  0.666626  0.333374  0.566210  1
  Er  Er2  1  0.666623  0.333377  0.933829  1
  Er  Er3  1  0.329802  0.670198  0.062489  1
  Mo  Mo4  1  0.832135  0.167865  0.249860  1
  Os  Os5  1  0.994590  0.005410  0.502130  1
  Os  Os6  1  0.994635  0.005365  0.997937  1
  Os  Os7  1  0.826636  0.653063  0.249788  1
  Os  Os8  1  0.346937  0.173364  0.249788  1
  Os  Os9  1  0.177959  0.822041  0.750178  1
  Os  Os10  1  0.172897  0.338713  0.750137  1
  Os  Os11  1  0.661287  0.827103  0.750137  1
