# generated using pymatgen
data_Ac3Si4
_symmetry_space_group_name_H-M   'P 1'
_cell_length_a   9.89362380
_cell_length_b   9.89362380
_cell_length_c   9.89362263
_cell_angle_alpha   155.85807786
_cell_angle_beta   152.42049993
_cell_angle_gamma   36.97438732
_symmetry_Int_Tables_number   1
_chemical_formula_structural   Ac3Si4
_chemical_formula_sum   'Ac3 Si4'
_cell_volume   183.12590314
_cell_formula_units_Z   1
loop_
 _symmetry_equiv_pos_site_id
 _symmetry_equiv_pos_as_xyz
  1  'x, y, z'
loop_
 _atom_site_type_symbol
 _atom_site_label
 _atom_site_symmetry_multiplicity
 _atom_site_fract_x
 _atom_site_fract_y
 _atom_site_fract_z
 _atom_site_occupancy
  Ac  Ac0  1  0.991620  0.000000  0.991620  1
  Ac  Ac1  1  0.812861  0.318053  0.494808  1
  Ac  Ac2  1  0.176756  0.681947  0.494808  1
  Si  Si3  1  0.632217  0.136609  0.495609  1
  Si  Si4  1  0.358999  0.863391  0.495609  1
  Si  Si5  1  0.426928  0.435154  0.991774  1
  Si  Si6  1  0.556619  0.564846  0.991774  1
