# generated using pymatgen
data_Yb20CuRh3
_symmetry_space_group_name_H-M   'P 1'
_cell_length_a   7.39364844
_cell_length_b   16.00957100
_cell_length_c   6.72689016
_cell_angle_alpha   90.00000000
_cell_angle_beta   90.29599122
_cell_angle_gamma   90.00000000
_symmetry_Int_Tables_number   1
_chemical_formula_structural   Yb20CuRh3
_chemical_formula_sum   'Yb20 Cu1 Rh3'
_cell_volume   796.24557600
_cell_formula_units_Z   1
loop_
 _symmetry_equiv_pos_site_id
 _symmetry_equiv_pos_as_xyz
  1  'x, y, z'
loop_
 _atom_site_type_symbol
 _atom_site_label
 _atom_site_symmetry_multiplicity
 _atom_site_fract_x
 _atom_site_fract_y
 _atom_site_fract_z
 _atom_site_occupancy
  Yb  Yb0  1  0.311650  0.067199  0.142136  1
  Yb  Yb1  1  0.311650  0.432801  0.142136  1
  Yb  Yb2  1  0.596038  0.250000  0.152944  1
  Yb  Yb3  1  0.047091  0.643042  0.175030  1
  Yb  Yb4  1  0.047091  0.856958  0.175030  1
  Yb  Yb5  1  0.531265  0.643132  0.332106  1
  Yb  Yb6  1  0.531265  0.856868  0.332106  1
  Yb  Yb7  1  0.094357  0.250000  0.345249  1
  Yb  Yb8  1  0.810810  0.066437  0.355675  1
  Yb  Yb9  1  0.810810  0.433563  0.355675  1
  Yb  Yb10  1  0.185996  0.564085  0.647181  1
  Yb  Yb11  1  0.185996  0.935916  0.647181  1
  Yb  Yb12  1  0.907168  0.750000  0.646516  1
  Yb  Yb13  1  0.463283  0.147274  0.674451  1
  Yb  Yb14  1  0.463283  0.352726  0.674451  1
  Yb  Yb15  1  0.964075  0.147435  0.823684  1
  Yb  Yb16  1  0.964075  0.352565  0.823684  1
  Yb  Yb17  1  0.400438  0.750000  0.839028  1
  Yb  Yb18  1  0.687293  0.558653  0.853549  1
  Yb  Yb19  1  0.687293  0.941348  0.853549  1
  Cu  Cu20  1  0.741975  0.750000  0.048568  1
  Rh  Rh21  1  0.238940  0.750000  0.460220  1
  Rh  Rh22  1  0.759056  0.250000  0.533038  1
  Rh  Rh23  1  0.259103  0.250000  0.966814  1
