# generated using pymatgen
data_Dy2Ho3Lu3Pt4
_symmetry_space_group_name_H-M   'P 1'
_cell_length_a   4.74293800
_cell_length_b   7.09870382
_cell_length_c   8.67520201
_cell_angle_alpha   89.96932282
_cell_angle_beta   90.00000000
_cell_angle_gamma   90.00000000
_symmetry_Int_Tables_number   1
_chemical_formula_structural   Dy2Ho3Lu3Pt4
_chemical_formula_sum   'Dy2 Ho3 Lu3 Pt4'
_cell_volume   292.08283704
_cell_formula_units_Z   1
loop_
 _symmetry_equiv_pos_site_id
 _symmetry_equiv_pos_as_xyz
  1  'x, y, z'
loop_
 _atom_site_type_symbol
 _atom_site_label
 _atom_site_symmetry_multiplicity
 _atom_site_fract_x
 _atom_site_fract_y
 _atom_site_fract_z
 _atom_site_occupancy
  Dy  Dy0  1  0.250000  0.990676  0.330294  1
  Dy  Dy1  1  0.250000  0.488797  0.168660  1
  Ho  Ho2  1  0.750000  0.643881  0.420806  1
  Ho  Ho3  1  0.750000  0.011601  0.670545  1
  Ho  Ho4  1  0.750000  0.510071  0.830449  1
  Lu  Lu5  1  0.250000  0.856862  0.921241  1
  Lu  Lu6  1  0.250000  0.355790  0.579610  1
  Lu  Lu7  1  0.750000  0.143038  0.078505  1
  Pt  Pt8  1  0.250000  0.255118  0.906535  1
  Pt  Pt9  1  0.250000  0.756453  0.595219  1
  Pt  Pt10  1  0.750000  0.745053  0.090972  1
  Pt  Pt11  1  0.750000  0.242661  0.407165  1
