# generated using pymatgen
data_Tb2Ir3Os
_symmetry_space_group_name_H-M   'P 1'
_cell_length_a   5.39676900
_cell_length_b   5.39676870
_cell_length_c   8.66966200
_cell_angle_alpha   90.00000000
_cell_angle_beta   90.00000000
_cell_angle_gamma   119.99999568
_symmetry_Int_Tables_number   1
_chemical_formula_structural   Tb2Ir3Os
_chemical_formula_sum   'Tb4 Ir6 Os2'
_cell_volume   218.67566272
_cell_formula_units_Z   2
loop_
 _symmetry_equiv_pos_site_id
 _symmetry_equiv_pos_as_xyz
  1  'x, y, z'
loop_
 _atom_site_type_symbol
 _atom_site_label
 _atom_site_symmetry_multiplicity
 _atom_site_fract_x
 _atom_site_fract_y
 _atom_site_fract_z
 _atom_site_occupancy
  Tb  Tb0  1  0.666667  0.333333  0.064846  1
  Tb  Tb1  1  0.666667  0.333333  0.435154  1
  Tb  Tb2  1  0.333333  0.666666  0.564846  1
  Tb  Tb3  1  0.333333  0.666666  0.935155  1
  Ir  Ir4  1  0.168970  0.337940  0.250000  1
  Ir  Ir5  1  0.168970  0.831030  0.250000  1
  Ir  Ir6  1  0.662059  0.831030  0.250000  1
  Ir  Ir7  1  0.337940  0.168970  0.750000  1
  Ir  Ir8  1  0.831030  0.168970  0.750000  1
  Ir  Ir9  1  0.831030  0.662059  0.750000  1
  Os  Os10  1  0.000000  0.000000  0.000000  1
  Os  Os11  1  0.000000  0.000000  0.500000  1
