# generated using pymatgen
data_Nd8CoHg2Os
_symmetry_space_group_name_H-M   'P 1'
_cell_length_a   9.86057322
_cell_length_b   9.78902728
_cell_length_c   9.86057224
_cell_angle_alpha   60.23972602
_cell_angle_beta   60.60571971
_cell_angle_gamma   60.23972793
_symmetry_Int_Tables_number   1
_chemical_formula_structural   Nd8CoHg2Os
_chemical_formula_sum   'Nd16 Co2 Hg4 Os2'
_cell_volume   678.50987106
_cell_formula_units_Z   2
loop_
 _symmetry_equiv_pos_site_id
 _symmetry_equiv_pos_as_xyz
  1  'x, y, z'
loop_
 _atom_site_type_symbol
 _atom_site_label
 _atom_site_symmetry_multiplicity
 _atom_site_fract_x
 _atom_site_fract_y
 _atom_site_fract_z
 _atom_site_occupancy
  Nd  Nd0  1  0.936672  0.943865  0.559128  1
  Nd  Nd1  1  0.562071  0.937929  0.562071  1
  Nd  Nd2  1  0.559128  0.943865  0.936672  1
  Nd  Nd3  1  0.687113  0.694205  0.308570  1
  Nd  Nd4  1  0.157152  0.150089  0.542669  1
  Nd  Nd5  1  0.308570  0.694205  0.687113  1
  Nd  Nd6  1  0.154678  0.147228  0.154678  1
  Nd  Nd7  1  0.542669  0.150089  0.157152  1
  Nd  Nd8  1  0.309034  0.690966  0.309034  1
  Nd  Nd9  1  0.308570  0.310113  0.687113  1
  Nd  Nd10  1  0.691101  0.308899  0.691101  1
  Nd  Nd11  1  0.936672  0.560335  0.559128  1
  Nd  Nd12  1  0.559128  0.560335  0.936672  1
  Nd  Nd13  1  0.154678  0.543414  0.154678  1
  Nd  Nd14  1  0.687113  0.310113  0.308570  1
  Nd  Nd15  1  0.942032  0.557968  0.942032  1
  Co  Co16  1  0.361694  0.917401  0.361694  1
  Co  Co17  1  0.361694  0.359210  0.361694  1
  Hg  Hg18  1  0.250103  0.917114  0.915667  1
  Hg  Hg19  1  0.916952  0.917946  0.916952  1
  Hg  Hg20  1  0.915667  0.917114  0.250103  1
  Hg  Hg21  1  0.916952  0.248148  0.916952  1
  Os  Os22  1  0.918930  0.359723  0.361624  1
  Os  Os23  1  0.361624  0.359723  0.918930  1
