# generated using pymatgen
data_Na2Ni12As7
_symmetry_space_group_name_H-M   'P 1'
_cell_length_a   9.39372200
_cell_length_b   9.39372296
_cell_length_c   3.75832600
_cell_angle_alpha   90.00000000
_cell_angle_beta   90.00000000
_cell_angle_gamma   119.99999661
_symmetry_Int_Tables_number   1
_chemical_formula_structural   Na2Ni12As7
_chemical_formula_sum   'Na2 Ni12 As7'
_cell_volume   287.21065428
_cell_formula_units_Z   1
loop_
 _symmetry_equiv_pos_site_id
 _symmetry_equiv_pos_as_xyz
  1  'x, y, z'
loop_
 _atom_site_type_symbol
 _atom_site_label
 _atom_site_symmetry_multiplicity
 _atom_site_fract_x
 _atom_site_fract_y
 _atom_site_fract_z
 _atom_site_occupancy
  Na  Na0  1  0.666667  0.333333  0.000000  1
  Na  Na1  1  0.000000  0.000000  0.500000  1
  Ni  Ni2  1  0.711395  0.090122  0.500000  1
  Ni  Ni3  1  0.909878  0.621273  0.500000  1
  Ni  Ni4  1  0.378727  0.288605  0.500000  1
  Ni  Ni5  1  0.769241  0.717780  0.000000  1
  Ni  Ni6  1  0.282220  0.051461  0.000000  1
  Ni  Ni7  1  0.948539  0.230759  0.000000  1
  Ni  Ni8  1  0.538944  0.757770  0.500000  1
  Ni  Ni9  1  0.242230  0.781174  0.500000  1
  Ni  Ni10  1  0.218826  0.461056  0.500000  1
  Ni  Ni11  1  0.490397  0.947106  0.000000  1
  Ni  Ni12  1  0.052894  0.543291  0.000000  1
  Ni  Ni13  1  0.456709  0.509603  0.000000  1
  As  As14  1  0.333333  0.666667  0.000000  1
  As  As15  1  0.445258  0.075010  0.500000  1
  As  As16  1  0.924990  0.370247  0.500000  1
  As  As17  1  0.629753  0.554742  0.500000  1
  As  As18  1  0.742452  0.951835  0.000000  1
  As  As19  1  0.048165  0.790617  0.000000  1
  As  As20  1  0.209383  0.257548  0.000000  1
