# generated using pymatgen
data_Ni2MoPt6
_symmetry_space_group_name_H-M   'P 1'
_cell_length_a   6.19538666
_cell_length_b   6.19538716
_cell_length_c   6.17590214
_cell_angle_alpha   95.69975224
_cell_angle_beta   95.69975772
_cell_angle_gamma   143.32092926
_symmetry_Int_Tables_number   1
_chemical_formula_structural   Ni2MoPt6
_chemical_formula_sum   'Ni2 Mo1 Pt6'
_cell_volume   134.35814235
_cell_formula_units_Z   1
loop_
 _symmetry_equiv_pos_site_id
 _symmetry_equiv_pos_as_xyz
  1  'x, y, z'
loop_
 _atom_site_type_symbol
 _atom_site_label
 _atom_site_symmetry_multiplicity
 _atom_site_fract_x
 _atom_site_fract_y
 _atom_site_fract_z
 _atom_site_occupancy
  Ni  Ni0  1  0.338953  0.338953  0.677905  1
  Ni  Ni1  1  0.661047  0.661047  0.322095  1
  Mo  Mo2  1  0.000000  0.000000  0.000000  1
  Pt  Pt3  1  0.657811  0.342189  0.000000  1
  Pt  Pt4  1  0.342189  0.657811  0.000000  1
  Pt  Pt5  1  0.010492  0.324654  0.335146  1
  Pt  Pt6  1  0.989508  0.675346  0.664854  1
  Pt  Pt7  1  0.675346  0.989508  0.664854  1
  Pt  Pt8  1  0.324654  0.010492  0.335146  1
