# generated using pymatgen
data_Tb3Er5CdHgPt2
_symmetry_space_group_name_H-M   'P 1'
_cell_length_a   9.63134931
_cell_length_b   9.63134858
_cell_length_c   9.61873400
_cell_angle_alpha   60.04331647
_cell_angle_beta   60.04331895
_cell_angle_gamma   60.19228068
_symmetry_Int_Tables_number   1
_chemical_formula_structural   Tb3Er5CdHgPt2
_chemical_formula_sum   'Tb6 Er10 Cd2 Hg2 Pt4'
_cell_volume   632.25045611
_cell_formula_units_Z   2
loop_
 _symmetry_equiv_pos_site_id
 _symmetry_equiv_pos_as_xyz
  1  'x, y, z'
loop_
 _atom_site_type_symbol
 _atom_site_label
 _atom_site_symmetry_multiplicity
 _atom_site_fract_x
 _atom_site_fract_y
 _atom_site_fract_z
 _atom_site_occupancy
  Tb  Tb0  1  0.935868  0.562624  0.563817  1
  Tb  Tb1  1  0.562624  0.935868  0.937691  1
  Tb  Tb2  1  0.562624  0.935868  0.563817  1
  Tb  Tb3  1  0.935868  0.562624  0.937691  1
  Tb  Tb4  1  0.563404  0.563404  0.936596  1
  Tb  Tb5  1  0.937342  0.937342  0.562658  1
  Er  Er6  1  0.352328  0.352328  0.350362  1
  Er  Er7  1  0.352328  0.352328  0.944983  1
  Er  Er8  1  0.355029  0.939102  0.352934  1
  Er  Er9  1  0.939102  0.355029  0.352934  1
  Er  Er10  1  0.811341  0.188527  0.189688  1
  Er  Er11  1  0.188527  0.811341  0.810443  1
  Er  Er12  1  0.188527  0.811341  0.189688  1
  Er  Er13  1  0.811341  0.188527  0.810443  1
  Er  Er14  1  0.189164  0.189164  0.810836  1
  Er  Er15  1  0.810637  0.810637  0.189363  1
  Cd  Cd16  1  0.581067  0.255657  0.581637  1
  Cd  Cd17  1  0.255657  0.581067  0.581637  1
  Hg  Hg18  1  0.584145  0.584145  0.585902  1
  Hg  Hg19  1  0.584145  0.584145  0.245807  1
  Pt  Pt20  1  0.142952  0.142952  0.144974  1
  Pt  Pt21  1  0.142952  0.142952  0.569122  1
  Pt  Pt22  1  0.142012  0.571014  0.143487  1
  Pt  Pt23  1  0.571014  0.142012  0.143487  1
