# generated using pymatgen
data_DyHo2Er2Si3
_symmetry_space_group_name_H-M   'P 1'
_cell_length_a   8.40097221
_cell_length_b   8.39774295
_cell_length_c   6.30457600
_cell_angle_alpha   90.00000000
_cell_angle_beta   90.00000000
_cell_angle_gamma   119.98728353
_symmetry_Int_Tables_number   1
_chemical_formula_structural   DyHo2Er2Si3
_chemical_formula_sum   'Dy2 Ho4 Er4 Si6'
_cell_volume   385.24257486
_cell_formula_units_Z   2
loop_
 _symmetry_equiv_pos_site_id
 _symmetry_equiv_pos_as_xyz
  1  'x, y, z'
loop_
 _atom_site_type_symbol
 _atom_site_label
 _atom_site_symmetry_multiplicity
 _atom_site_fract_x
 _atom_site_fract_y
 _atom_site_fract_z
 _atom_site_occupancy
  Dy  Dy0  1  0.000000  0.757345  0.750000  1
  Dy  Dy1  1  0.000000  0.242655  0.250000  1
  Ho  Ho2  1  0.757154  0.757192  0.250000  1
  Ho  Ho3  1  0.757154  0.999963  0.750000  1
  Ho  Ho4  1  0.242846  0.242808  0.750000  1
  Ho  Ho5  1  0.242846  0.000037  0.250000  1
  Er  Er6  1  0.333401  0.666701  0.500000  1
  Er  Er7  1  0.666599  0.333299  0.000000  1
  Er  Er8  1  0.666599  0.333299  0.500000  1
  Er  Er9  1  0.333401  0.666701  0.000000  1
  Si  Si10  1  0.394774  0.000086  0.750000  1
  Si  Si11  1  0.394774  0.394688  0.250000  1
  Si  Si12  1  0.000000  0.605478  0.250000  1
  Si  Si13  1  0.000000  0.394522  0.750000  1
  Si  Si14  1  0.605226  0.605312  0.750000  1
  Si  Si15  1  0.605226  0.999914  0.250000  1
