# generated using pymatgen
data_Ca3Ga2GeIr2
_symmetry_space_group_name_H-M   'P 1'
_cell_length_a   5.75669400
_cell_length_b   8.08727300
_cell_length_c   14.99431600
_cell_angle_alpha   90.00000000
_cell_angle_beta   90.00000000
_cell_angle_gamma   90.00000000
_symmetry_Int_Tables_number   1
_chemical_formula_structural   Ca3Ga2GeIr2
_chemical_formula_sum   'Ca12 Ga8 Ge4 Ir8'
_cell_volume   698.07471528
_cell_formula_units_Z   4
loop_
 _symmetry_equiv_pos_site_id
 _symmetry_equiv_pos_as_xyz
  1  'x, y, z'
loop_
 _atom_site_type_symbol
 _atom_site_label
 _atom_site_symmetry_multiplicity
 _atom_site_fract_x
 _atom_site_fract_y
 _atom_site_fract_z
 _atom_site_occupancy
  Ca  Ca0  1  0.888903  0.454313  0.110174  1
  Ca  Ca1  1  0.388903  0.045687  0.889826  1
  Ca  Ca2  1  0.611097  0.954313  0.389826  1
  Ca  Ca3  1  0.111097  0.545687  0.610174  1
  Ca  Ca4  1  0.111097  0.545687  0.889826  1
  Ca  Ca5  1  0.611097  0.954313  0.110174  1
  Ca  Ca6  1  0.388903  0.045687  0.610174  1
  Ca  Ca7  1  0.888903  0.454313  0.389826  1
  Ca  Ca8  1  0.380597  0.299034  0.250000  1
  Ca  Ca9  1  0.880597  0.200966  0.750000  1
  Ca  Ca10  1  0.119403  0.799034  0.250000  1
  Ca  Ca11  1  0.619403  0.700966  0.750000  1
  Ga  Ga12  1  0.378628  0.326071  0.037871  1
  Ga  Ga13  1  0.878628  0.173929  0.962129  1
  Ga  Ga14  1  0.121372  0.826071  0.462129  1
  Ga  Ga15  1  0.621372  0.673929  0.537871  1
  Ga  Ga16  1  0.621372  0.673929  0.962129  1
  Ga  Ga17  1  0.121372  0.826071  0.037871  1
  Ga  Ga18  1  0.878628  0.173929  0.537871  1
  Ga  Ga19  1  0.378628  0.326071  0.462129  1
  Ge  Ge20  1  0.907653  0.145053  0.250000  1
  Ge  Ge21  1  0.407653  0.354947  0.750000  1
  Ge  Ge22  1  0.592347  0.645053  0.250000  1
  Ge  Ge23  1  0.092347  0.854947  0.750000  1
  Ir  Ir24  1  0.114417  0.112439  0.102206  1
  Ir  Ir25  1  0.614417  0.387561  0.897794  1
  Ir  Ir26  1  0.385583  0.612439  0.397794  1
  Ir  Ir27  1  0.885583  0.887561  0.602206  1
  Ir  Ir28  1  0.885583  0.887561  0.897794  1
  Ir  Ir29  1  0.385583  0.612439  0.102206  1
  Ir  Ir30  1  0.614417  0.387561  0.602206  1
  Ir  Ir31  1  0.114417  0.112439  0.397794  1
