# generated using pymatgen
data_Er8Ta9Ti3Ge16
_symmetry_space_group_name_H-M   'P 1'
_cell_length_a   6.99460984
_cell_length_b   7.12433212
_cell_length_c   13.48364649
_cell_angle_alpha   89.90241412
_cell_angle_beta   89.96711303
_cell_angle_gamma   89.95456095
_symmetry_Int_Tables_number   1
_chemical_formula_structural   Er8Ta9Ti3Ge16
_chemical_formula_sum   'Er8 Ta9 Ti3 Ge16'
_cell_volume   671.91474460
_cell_formula_units_Z   1
loop_
 _symmetry_equiv_pos_site_id
 _symmetry_equiv_pos_as_xyz
  1  'x, y, z'
loop_
 _atom_site_type_symbol
 _atom_site_label
 _atom_site_symmetry_multiplicity
 _atom_site_fract_x
 _atom_site_fract_y
 _atom_site_fract_z
 _atom_site_occupancy
  Er  Er0  1  0.496334  0.325699  0.096065  1
  Er  Er1  1  0.995334  0.172398  0.404183  1
  Er  Er2  1  0.503768  0.675323  0.595311  1
  Er  Er3  1  0.003125  0.825509  0.903856  1
  Er  Er4  1  0.505959  0.672865  0.905196  1
  Er  Er5  1  0.005748  0.827117  0.594749  1
  Er  Er6  1  0.493741  0.326538  0.405206  1
  Er  Er7  1  0.994607  0.173063  0.094857  1
  Ta  Ta8  1  0.665972  0.012343  0.750266  1
  Ta  Ta9  1  0.165542  0.486844  0.749952  1
  Ta  Ta10  1  0.336146  0.986688  0.250574  1
  Ta  Ta11  1  0.834017  0.514310  0.250697  1
  Ta  Ta12  1  0.661136  0.827781  0.373396  1
  Ta  Ta13  1  0.156468  0.672718  0.373013  1
  Ta  Ta14  1  0.659014  0.828674  0.127074  1
  Ta  Ta15  1  0.842080  0.327232  0.872634  1
  Ta  Ta16  1  0.342296  0.172844  0.627712  1
  Ti  Ti17  1  0.839219  0.327972  0.626327  1
  Ti  Ti18  1  0.337620  0.172100  0.873857  1
  Ti  Ti19  1  0.161355  0.671349  0.126032  1
  Ge  Ge20  1  0.805881  0.638969  0.748462  1
  Ge  Ge21  1  0.305957  0.861061  0.751538  1
  Ge  Ge22  1  0.193440  0.361100  0.248992  1
  Ge  Ge23  1  0.694715  0.141223  0.250728  1
  Ge  Ge24  1  0.541141  0.376967  0.751516  1
  Ge  Ge25  1  0.040432  0.122744  0.748596  1
  Ge  Ge26  1  0.456876  0.620816  0.249366  1
  Ge  Ge27  1  0.962127  0.878324  0.247176  1
  Ge  Ge28  1  0.677807  0.040559  0.542050  1
  Ge  Ge29  1  0.176430  0.461699  0.958505  1
  Ge  Ge30  1  0.323580  0.960793  0.041747  1
  Ge  Ge31  1  0.822944  0.535049  0.459899  1
  Ge  Ge32  1  0.325460  0.962241  0.458296  1
  Ge  Ge33  1  0.825771  0.538230  0.042078  1
  Ge  Ge34  1  0.673622  0.038134  0.957830  1
  Ge  Ge35  1  0.174335  0.462726  0.542263  1
