# generated using pymatgen
data_Dy7Ho7Au20
_symmetry_space_group_name_H-M   'P 1'
_cell_length_a   8.72342656
_cell_length_b   8.72342787
_cell_length_c   10.38611402
_cell_angle_alpha   90.00639745
_cell_angle_beta   89.99360246
_cell_angle_gamma   107.16849654
_symmetry_Int_Tables_number   1
_chemical_formula_structural   Dy7Ho7Au20
_chemical_formula_sum   'Dy7 Ho7 Au20'
_cell_volume   755.14639436
_cell_formula_units_Z   1
loop_
 _symmetry_equiv_pos_site_id
 _symmetry_equiv_pos_as_xyz
  1  'x, y, z'
loop_
 _atom_site_type_symbol
 _atom_site_label
 _atom_site_symmetry_multiplicity
 _atom_site_fract_x
 _atom_site_fract_y
 _atom_site_fract_z
 _atom_site_occupancy
  Dy  Dy0  1  0.000029  0.000053  0.999906  1
  Dy  Dy1  1  0.500053  0.500029  0.500094  1
  Dy  Dy2  1  0.502554  0.002554  0.250000  1
  Dy  Dy3  1  0.312591  0.312839  0.188056  1
  Dy  Dy4  1  0.687453  0.687345  0.811787  1
  Dy  Dy5  1  0.187345  0.187453  0.688213  1
  Dy  Dy6  1  0.812839  0.812591  0.311944  1
  Ho  Ho7  1  0.694035  0.306164  0.999886  1
  Ho  Ho8  1  0.305960  0.693817  0.999871  1
  Ho  Ho9  1  0.806164  0.194035  0.500114  1
  Ho  Ho10  1  0.193817  0.805960  0.500129  1
  Ho  Ho11  1  0.002702  0.502702  0.250000  1
  Ho  Ho12  1  0.997304  0.497304  0.750000  1
  Ho  Ho13  1  0.497301  0.997301  0.750000  1
  Au  Au14  1  0.860278  0.149744  0.209742  1
  Au  Au15  1  0.140286  0.850443  0.790183  1
  Au  Au16  1  0.640340  0.350498  0.709837  1
  Au  Au17  1  0.649744  0.360278  0.290258  1
  Au  Au18  1  0.359363  0.648859  0.290332  1
  Au  Au19  1  0.350443  0.640286  0.709817  1
  Au  Au20  1  0.850498  0.140340  0.790163  1
  Au  Au21  1  0.148859  0.859363  0.209668  1
  Au  Au22  1  0.937499  0.644111  0.002247  1
  Au  Au23  1  0.062432  0.355842  0.997619  1
  Au  Au24  1  0.562489  0.855589  0.502698  1
  Au  Au25  1  0.144111  0.437499  0.497753  1
  Au  Au26  1  0.437518  0.144336  0.498224  1
  Au  Au27  1  0.855842  0.562432  0.502381  1
  Au  Au28  1  0.355589  0.062489  0.997302  1
  Au  Au29  1  0.644336  0.937518  0.001776  1
  Au  Au30  1  0.105591  0.105410  0.397567  1
  Au  Au31  1  0.894614  0.894610  0.602466  1
  Au  Au32  1  0.394610  0.394614  0.897534  1
  Au  Au33  1  0.605410  0.605591  0.102433  1
