# generated using pymatgen
data_Dy7ErSb20
_symmetry_space_group_name_H-M   'P 1'
_cell_length_a   4.23471200
_cell_length_b   13.16398467
_cell_length_c   14.67813544
_cell_angle_alpha   77.65018750
_cell_angle_beta   90.00000000
_cell_angle_gamma   90.00000000
_symmetry_Int_Tables_number   1
_chemical_formula_structural   Dy7ErSb20
_chemical_formula_sum   'Dy7 Er1 Sb20'
_cell_volume   799.30856055
_cell_formula_units_Z   1
loop_
 _symmetry_equiv_pos_site_id
 _symmetry_equiv_pos_as_xyz
  1  'x, y, z'
loop_
 _atom_site_type_symbol
 _atom_site_label
 _atom_site_symmetry_multiplicity
 _atom_site_fract_x
 _atom_site_fract_y
 _atom_site_fract_z
 _atom_site_occupancy
  Dy  Dy0  1  0.750000  0.606447  0.228883  1
  Dy  Dy1  1  0.250000  0.662791  0.855573  1
  Dy  Dy2  1  0.750000  0.337105  0.144167  1
  Dy  Dy3  1  0.250000  0.669338  0.577506  1
  Dy  Dy4  1  0.750000  0.330605  0.422739  1
  Dy  Dy5  1  0.250000  0.952768  0.360792  1
  Dy  Dy6  1  0.750000  0.047394  0.639270  1
  Er  Er7  1  0.250000  0.393840  0.770904  1
  Sb  Sb8  1  0.250000  0.142745  0.779307  1
  Sb  Sb9  1  0.750000  0.857708  0.220770  1
  Sb  Sb10  1  0.250000  0.143080  0.482397  1
  Sb  Sb11  1  0.750000  0.856885  0.517620  1
  Sb  Sb12  1  0.250000  0.152053  0.172696  1
  Sb  Sb13  1  0.750000  0.847891  0.827284  1
  Sb  Sb14  1  0.250000  0.420111  0.975103  1
  Sb  Sb15  1  0.750000  0.579859  0.024276  1
  Sb  Sb16  1  0.750000  0.030173  0.906141  1
  Sb  Sb17  1  0.250000  0.969966  0.093830  1
  Sb  Sb18  1  0.750000  0.138702  0.322154  1
  Sb  Sb19  1  0.250000  0.861359  0.677857  1
  Sb  Sb20  1  0.750000  0.279404  0.937916  1
  Sb  Sb21  1  0.250000  0.720660  0.061561  1
  Sb  Sb22  1  0.750000  0.286697  0.653349  1
  Sb  Sb23  1  0.250000  0.713503  0.347119  1
  Sb  Sb24  1  0.750000  0.574726  0.734850  1
  Sb  Sb25  1  0.250000  0.424189  0.265436  1
  Sb  Sb26  1  0.750000  0.575209  0.447516  1
  Sb  Sb27  1  0.250000  0.424790  0.552983  1
