# generated using pymatgen
data_YErGa4PdAu
_symmetry_space_group_name_H-M   'P 1'
_cell_length_a   5.56829575
_cell_length_b   5.56829556
_cell_length_c   6.63671100
_cell_angle_alpha   90.00000000
_cell_angle_beta   90.00000000
_cell_angle_gamma   132.63448316
_symmetry_Int_Tables_number   1
_chemical_formula_structural   YErGa4PdAu
_chemical_formula_sum   'Y1 Er1 Ga4 Pd1 Au1'
_cell_volume   151.38822060
_cell_formula_units_Z   1
loop_
 _symmetry_equiv_pos_site_id
 _symmetry_equiv_pos_as_xyz
  1  'x, y, z'
loop_
 _atom_site_type_symbol
 _atom_site_label
 _atom_site_symmetry_multiplicity
 _atom_site_fract_x
 _atom_site_fract_y
 _atom_site_fract_z
 _atom_site_occupancy
  Y  Y0  1  0.589983  0.410017  0.250000  1
  Er  Er1  1  0.412407  0.587593  0.750000  1
  Ga  Ga2  1  0.874549  0.125451  0.454658  1
  Ga  Ga3  1  0.124482  0.875518  0.556058  1
  Ga  Ga4  1  0.874549  0.125451  0.045342  1
  Ga  Ga5  1  0.124482  0.875518  0.943942  1
  Pd  Pd6  1  0.700225  0.299775  0.750000  1
  Au  Au7  1  0.299322  0.700678  0.250000  1
