# generated using pymatgen
data_Zr16Co4ReOs3
_symmetry_space_group_name_H-M   'P 1'
_cell_length_a   8.70734480
_cell_length_b   8.70678082
_cell_length_c   8.70660700
_cell_angle_alpha   59.97275833
_cell_angle_beta   59.97465246
_cell_angle_gamma   59.97443536
_symmetry_Int_Tables_number   1
_chemical_formula_structural   Zr16Co4ReOs3
_chemical_formula_sum   'Zr16 Co4 Re1 Os3'
_cell_volume   466.46672013
_cell_formula_units_Z   1
loop_
 _symmetry_equiv_pos_site_id
 _symmetry_equiv_pos_as_xyz
  1  'x, y, z'
loop_
 _atom_site_type_symbol
 _atom_site_label
 _atom_site_symmetry_multiplicity
 _atom_site_fract_x
 _atom_site_fract_y
 _atom_site_fract_z
 _atom_site_occupancy
  Zr  Zr0  1  0.050560  0.649670  0.649742  1
  Zr  Zr1  1  0.649585  0.050327  0.649899  1
  Zr  Zr2  1  0.649659  0.649899  0.050166  1
  Zr  Zr3  1  0.648884  0.649132  0.649208  1
  Zr  Zr4  1  0.795642  0.795678  0.204176  1
  Zr  Zr5  1  0.203481  0.203193  0.796671  1
  Zr  Zr6  1  0.795691  0.204139  0.795755  1
  Zr  Zr7  1  0.203579  0.796591  0.203213  1
  Zr  Zr8  1  0.204188  0.795791  0.795821  1
  Zr  Zr9  1  0.796498  0.203512  0.203434  1
  Zr  Zr10  1  0.435207  0.435259  0.066540  1
  Zr  Zr11  1  0.064620  0.064606  0.435706  1
  Zr  Zr12  1  0.435201  0.066538  0.435290  1
  Zr  Zr13  1  0.064633  0.435688  0.064619  1
  Zr  Zr14  1  0.066571  0.435214  0.435249  1
  Zr  Zr15  1  0.435667  0.064626  0.064623  1
  Co  Co16  1  0.419145  0.859973  0.859922  1
  Co  Co17  1  0.860013  0.419098  0.859925  1
  Co  Co18  1  0.860013  0.859973  0.419074  1
  Co  Co19  1  0.860550  0.860510  0.860462  1
  Re  Re20  1  0.419406  0.419391  0.419378  1
  Os  Os21  1  0.745849  0.417670  0.417651  1
  Os  Os22  1  0.417678  0.745851  0.417648  1
  Os  Os23  1  0.417680  0.417671  0.745829  1
