# generated using pymatgen
data_Dy3Er(Ge4Mo3)2
_symmetry_space_group_name_H-M   'P 1'
_cell_length_a   7.05890516
_cell_length_b   6.91332898
_cell_length_c   6.99935238
_cell_angle_alpha   70.58329122
_cell_angle_beta   90.01289020
_cell_angle_gamma   89.98504031
_symmetry_Int_Tables_number   1
_chemical_formula_structural   Dy3Er(Ge4Mo3)2
_chemical_formula_sum   'Dy3 Er1 Ge8 Mo6'
_cell_volume   322.14544437
_cell_formula_units_Z   1
loop_
 _symmetry_equiv_pos_site_id
 _symmetry_equiv_pos_as_xyz
  1  'x, y, z'
loop_
 _atom_site_type_symbol
 _atom_site_label
 _atom_site_symmetry_multiplicity
 _atom_site_fract_x
 _atom_site_fract_y
 _atom_site_fract_z
 _atom_site_occupancy
  Dy  Dy0  1  0.328564  0.556228  0.809438  1
  Dy  Dy1  1  0.828863  0.943834  0.190425  1
  Dy  Dy2  1  0.671363  0.443683  0.190588  1
  Er  Er3  1  0.171757  0.056104  0.808913  1
  Ge  Ge4  1  0.546123  0.859101  0.907686  1
  Ge  Ge5  1  0.047184  0.642053  0.091576  1
  Ge  Ge6  1  0.452609  0.141323  0.091506  1
  Ge  Ge7  1  0.953635  0.357664  0.907534  1
  Ge  Ge8  1  0.137110  0.868093  0.495672  1
  Ge  Ge9  1  0.637021  0.632374  0.505132  1
  Ge  Ge10  1  0.863522  0.132345  0.505601  1
  Ge  Ge11  1  0.362387  0.366796  0.495677  1
  Mo  Mo12  1  0.499804  0.000137  0.500192  1
  Mo  Mo13  1  0.000142  0.499585  0.500215  1
  Mo  Mo14  1  0.842853  0.747615  0.751180  1
  Mo  Mo15  1  0.342047  0.753180  0.248896  1
  Mo  Mo16  1  0.157616  0.252719  0.248847  1
  Mo  Mo17  1  0.657399  0.247165  0.750922  1
