# generated using pymatgen
data_Tb7Y2Lu3In20
_symmetry_space_group_name_H-M   'P 1'
_cell_length_a   6.52517313
_cell_length_b   10.41982093
_cell_length_c   12.28199200
_cell_angle_alpha   89.98049601
_cell_angle_beta   90.03376191
_cell_angle_gamma   90.01436318
_symmetry_Int_Tables_number   1
_chemical_formula_structural   Tb7Y2Lu3In20
_chemical_formula_sum   'Tb7 Y2 Lu3 In20'
_cell_volume   835.06636377
_cell_formula_units_Z   1
loop_
 _symmetry_equiv_pos_site_id
 _symmetry_equiv_pos_as_xyz
  1  'x, y, z'
loop_
 _atom_site_type_symbol
 _atom_site_label
 _atom_site_symmetry_multiplicity
 _atom_site_fract_x
 _atom_site_fract_y
 _atom_site_fract_z
 _atom_site_occupancy
  Tb  Tb0  1  0.889983  0.491530  0.141799  1
  Tb  Tb1  1  0.609261  0.007519  0.642444  1
  Tb  Tb2  1  0.110235  0.991258  0.858565  1
  Tb  Tb3  1  0.389507  0.507877  0.358375  1
  Tb  Tb4  1  0.110214  0.508836  0.858495  1
  Tb  Tb5  1  0.389638  0.992132  0.358521  1
  Tb  Tb6  1  0.889994  0.008414  0.141792  1
  Y  Y7  1  0.851159  0.249978  0.444093  1
  Y  Y8  1  0.609576  0.492299  0.642269  1
  Lu  Lu9  1  0.349726  0.749938  0.054825  1
  Lu  Lu10  1  0.150691  0.750187  0.555083  1
  Lu  Lu11  1  0.650470  0.250014  0.945324  1
  In  In12  1  0.613344  0.749931  0.505041  1
  In  In13  1  0.886899  0.750031  0.004977  1
  In  In14  1  0.383416  0.250067  0.495881  1
  In  In15  1  0.113512  0.249987  0.994438  1
  In  In16  1  0.650000  0.749953  0.243497  1
  In  In17  1  0.849753  0.750033  0.743644  1
  In  In18  1  0.349686  0.249977  0.756883  1
  In  In19  1  0.152989  0.249975  0.254394  1
  In  In20  1  0.123855  0.750061  0.282154  1
  In  In21  1  0.376956  0.750075  0.782545  1
  In  In22  1  0.876342  0.250011  0.718498  1
  In  In23  1  0.622732  0.249965  0.215882  1
  In  In24  1  0.874580  0.544864  0.401375  1
  In  In25  1  0.625308  0.957008  0.901441  1
  In  In26  1  0.125070  0.042560  0.599140  1
  In  In27  1  0.374814  0.457166  0.098342  1
  In  In28  1  0.125498  0.457525  0.599027  1
  In  In29  1  0.374795  0.042734  0.098360  1
  In  In30  1  0.874660  0.955073  0.401438  1
  In  In31  1  0.625335  0.543024  0.901457  1
