# generated using pymatgen
data_Tb3NdDy(FeB3)2
_symmetry_space_group_name_H-M   'P 1'
_cell_length_a   8.36621795
_cell_length_b   8.36621866
_cell_length_c   8.36621705
_cell_angle_alpha   37.89696704
_cell_angle_beta   37.89695898
_cell_angle_gamma   37.89696801
_symmetry_Int_Tables_number   1
_chemical_formula_structural   Tb3NdDy(FeB3)2
_chemical_formula_sum   'Tb3 Nd1 Dy1 Fe2 B6'
_cell_volume   198.28549992
_cell_formula_units_Z   1
loop_
 _symmetry_equiv_pos_site_id
 _symmetry_equiv_pos_as_xyz
  1  'x, y, z'
loop_
 _atom_site_type_symbol
 _atom_site_label
 _atom_site_symmetry_multiplicity
 _atom_site_fract_x
 _atom_site_fract_y
 _atom_site_fract_z
 _atom_site_occupancy
  Tb  Tb0  1  0.582742  0.582742  0.582742  1
  Tb  Tb1  1  0.417283  0.417283  0.417283  1
  Tb  Tb2  1  0.749718  0.749718  0.749718  1
  Nd  Nd3  1  0.999894  0.999894  0.999894  1
  Dy  Dy4  1  0.249919  0.249919  0.249919  1
  Fe  Fe5  1  0.882573  0.882573  0.882573  1
  Fe  Fe6  1  0.117455  0.117455  0.117455  1
  B  B7  1  0.499918  0.832553  0.167737  1
  B  B8  1  0.167737  0.499918  0.832553  1
  B  B9  1  0.832553  0.167737  0.499918  1
  B  B10  1  0.499918  0.167737  0.832553  1
  B  B11  1  0.832553  0.499918  0.167737  1
  B  B12  1  0.167737  0.832553  0.499918  1
