# generated using pymatgen
data_Y5Tm3Sc12Si15Au
_symmetry_space_group_name_H-M   'P 1'
_cell_length_a   7.10813338
_cell_length_b   7.36867945
_cell_length_c   14.04366427
_cell_angle_alpha   89.89017905
_cell_angle_beta   89.69976457
_cell_angle_gamma   90.24012503
_symmetry_Int_Tables_number   1
_chemical_formula_structural   Y5Tm3Sc12Si15Au
_chemical_formula_sum   'Y5 Tm3 Sc12 Si15 Au1'
_cell_volume   735.55487582
_cell_formula_units_Z   1
loop_
 _symmetry_equiv_pos_site_id
 _symmetry_equiv_pos_as_xyz
  1  'x, y, z'
loop_
 _atom_site_type_symbol
 _atom_site_label
 _atom_site_symmetry_multiplicity
 _atom_site_fract_x
 _atom_site_fract_y
 _atom_site_fract_z
 _atom_site_occupancy
  Y  Y0  1  0.011724  0.175242  0.097255  1
  Y  Y1  1  0.988153  0.825393  0.903657  1
  Y  Y2  1  0.487757  0.676495  0.903885  1
  Y  Y3  1  0.988489  0.828256  0.597029  1
  Y  Y4  1  0.511584  0.324062  0.096341  1
  Tm  Tm5  1  0.010750  0.175449  0.399537  1
  Tm  Tm6  1  0.509257  0.323839  0.400954  1
  Tm  Tm7  1  0.490866  0.676325  0.598816  1
  Sc  Sc8  1  0.163062  0.501383  0.750842  1
  Sc  Sc9  1  0.837207  0.498151  0.251380  1
  Sc  Sc10  1  0.337860  0.000789  0.249922  1
  Sc  Sc11  1  0.663737  0.996470  0.750570  1
  Sc  Sc12  1  0.338964  0.176657  0.625503  1
  Sc  Sc13  1  0.666228  0.823369  0.373805  1
  Sc  Sc14  1  0.169024  0.672874  0.373378  1
  Sc  Sc15  1  0.670108  0.824325  0.125810  1
  Sc  Sc16  1  0.828452  0.325764  0.625063  1
  Sc  Sc17  1  0.329000  0.175228  0.875641  1
  Sc  Sc18  1  0.830250  0.322832  0.875567  1
  Sc  Sc19  1  0.169295  0.676452  0.125699  1
  Si  Si20  1  0.035366  0.119152  0.750437  1
  Si  Si21  1  0.966546  0.884953  0.249963  1
  Si  Si22  1  0.466703  0.614355  0.248900  1
  Si  Si23  1  0.534975  0.385823  0.751877  1
  Si  Si24  1  0.285979  0.873655  0.749985  1
  Si  Si25  1  0.713113  0.128740  0.250377  1
  Si  Si26  1  0.214409  0.370092  0.249190  1
  Si  Si27  1  0.786135  0.627237  0.751875  1
  Si  Si28  1  0.833691  0.535042  0.459079  1
  Si  Si29  1  0.340138  0.963987  0.459840  1
  Si  Si30  1  0.843904  0.535994  0.039026  1
  Si  Si31  1  0.657290  0.036335  0.537462  1
  Si  Si32  1  0.155510  0.463981  0.961680  1
  Si  Si33  1  0.656842  0.035292  0.961170  1
  Si  Si34  1  0.343258  0.963916  0.039378  1
  Au  Au35  1  0.164372  0.462095  0.539105  1
