# generated using pymatgen
data_Rb3TbV2O8
_symmetry_space_group_name_H-M   'P 1'
_cell_length_a   6.10472900
_cell_length_b   6.10472977
_cell_length_c   7.98735500
_cell_angle_alpha   90.00000000
_cell_angle_beta   90.00000000
_cell_angle_gamma   120.00000124
_symmetry_Int_Tables_number   1
_chemical_formula_structural   Rb3TbV2O8
_chemical_formula_sum   'Rb3 Tb1 V2 O8'
_cell_volume   257.79022619
_cell_formula_units_Z   1
loop_
 _symmetry_equiv_pos_site_id
 _symmetry_equiv_pos_as_xyz
  1  'x, y, z'
loop_
 _atom_site_type_symbol
 _atom_site_label
 _atom_site_symmetry_multiplicity
 _atom_site_fract_x
 _atom_site_fract_y
 _atom_site_fract_z
 _atom_site_occupancy
  Rb  Rb0  1  0.333333  0.666667  0.699565  1
  Rb  Rb1  1  0.666667  0.333333  0.300435  1
  Rb  Rb2  1  0.000000  0.000000  0.000000  1
  Tb  Tb3  1  0.000000  0.000000  0.500000  1
  V  V4  1  0.333333  0.666667  0.256236  1
  V  V5  1  0.666667  0.333333  0.743764  1
  O  O6  1  0.333333  0.666667  0.045539  1
  O  O7  1  0.666667  0.333333  0.954461  1
  O  O8  1  0.175521  0.824479  0.331030  1
  O  O9  1  0.648958  0.824479  0.331030  1
  O  O10  1  0.175521  0.351042  0.331030  1
  O  O11  1  0.824479  0.175521  0.668970  1
  O  O12  1  0.351042  0.175521  0.668970  1
  O  O13  1  0.824479  0.648958  0.668970  1
