# generated using pymatgen
data_Ca2Nd8Ga5Si
_symmetry_space_group_name_H-M   'P 1'
_cell_length_a   7.91783337
_cell_length_b   7.91783394
_cell_length_c   9.19152600
_cell_angle_alpha   115.42777484
_cell_angle_beta   115.42777680
_cell_angle_gamma   90.17836557
_symmetry_Int_Tables_number   1
_chemical_formula_structural   Ca2Nd8Ga5Si
_chemical_formula_sum   'Ca2 Nd8 Ga5 Si1'
_cell_volume   457.41671961
_cell_formula_units_Z   1
loop_
 _symmetry_equiv_pos_site_id
 _symmetry_equiv_pos_as_xyz
  1  'x, y, z'
loop_
 _atom_site_type_symbol
 _atom_site_label
 _atom_site_symmetry_multiplicity
 _atom_site_fract_x
 _atom_site_fract_y
 _atom_site_fract_z
 _atom_site_occupancy
  Ca  Ca0  1  0.497318  0.500734  0.000000  1
  Ca  Ca1  1  0.000734  0.997318  0.000000  1
  Nd  Nd2  1  0.976753  0.820283  0.293746  1
  Nd  Nd3  1  0.320283  0.476753  0.293746  1
  Nd  Nd4  1  0.823111  0.323111  0.296035  1
  Nd  Nd5  1  0.469041  0.969041  0.292579  1
  Nd  Nd6  1  0.026539  0.183007  0.706254  1
  Nd  Nd7  1  0.683007  0.526539  0.706254  1
  Nd  Nd8  1  0.176461  0.676461  0.707421  1
  Nd  Nd9  1  0.527076  0.027076  0.703965  1
  Ga  Ga10  1  0.750166  0.750166  0.500000  1
  Ga  Ga11  1  0.250166  0.250166  0.500000  1
  Ga  Ga12  1  0.616754  0.882888  0.000000  1
  Ga  Ga13  1  0.382888  0.116754  0.000000  1
  Ga  Ga14  1  0.884923  0.384923  0.000000  1
  Si  Si15  1  0.114785  0.614785  0.000000  1
