# generated using pymatgen
data_Tb4Ho8TcNi4Sn
_symmetry_space_group_name_H-M   'P 1'
_cell_length_a   8.29274415
_cell_length_b   8.29274477
_cell_length_c   8.29274375
_cell_angle_alpha   107.22046547
_cell_angle_beta   109.67395855
_cell_angle_gamma   111.54817774
_symmetry_Int_Tables_number   1
_chemical_formula_structural   Tb4Ho8TcNi4Sn
_chemical_formula_sum   'Tb4 Ho8 Tc1 Ni4 Sn1'
_cell_volume   438.38051661
_cell_formula_units_Z   1
loop_
 _symmetry_equiv_pos_site_id
 _symmetry_equiv_pos_as_xyz
  1  'x, y, z'
loop_
 _atom_site_type_symbol
 _atom_site_label
 _atom_site_symmetry_multiplicity
 _atom_site_fract_x
 _atom_site_fract_y
 _atom_site_fract_z
 _atom_site_occupancy
  Tb  Tb0  1  0.604227  0.785601  0.818626  1
  Tb  Tb1  1  0.966978  0.785601  0.181374  1
  Tb  Tb2  1  0.033022  0.214399  0.818626  1
  Tb  Tb3  1  0.395773  0.214399  0.181374  1
  Ho  Ho4  1  0.690676  0.281068  0.971744  1
  Ho  Ho5  1  0.309324  0.718932  0.028256  1
  Ho  Ho6  1  0.690676  0.718932  0.409608  1
  Ho  Ho7  1  0.309324  0.281068  0.590392  1
  Ho  Ho8  1  0.806212  0.126487  0.320275  1
  Ho  Ho9  1  0.806212  0.485936  0.679725  1
  Ho  Ho10  1  0.193788  0.873513  0.679725  1
  Ho  Ho11  1  0.193788  0.514064  0.320275  1
  Tc  Tc12  1  0.500000  0.500000  0.000000  1
  Ni  Ni13  1  0.861252  0.500000  0.361252  1
  Ni  Ni14  1  0.138748  0.500000  0.638748  1
  Ni  Ni15  1  0.000000  0.122435  0.122435  1
  Ni  Ni16  1  0.000000  0.877565  0.877565  1
  Sn  Sn17  1  0.500000  0.000000  0.500000  1
