# generated using pymatgen
data_Ho10Tm10FeCo3Bi8
_symmetry_space_group_name_H-M   'P 1'
_cell_length_a   7.91131246
_cell_length_b   8.87032700
_cell_length_c   12.33717891
_cell_angle_alpha   90.00000000
_cell_angle_beta   90.06515601
_cell_angle_gamma   90.00000000
_symmetry_Int_Tables_number   1
_chemical_formula_structural   Ho10Tm10FeCo3Bi8
_chemical_formula_sum   'Ho10 Tm10 Fe1 Co3 Bi8'
_cell_volume   865.77242567
_cell_formula_units_Z   1
loop_
 _symmetry_equiv_pos_site_id
 _symmetry_equiv_pos_as_xyz
  1  'x, y, z'
loop_
 _atom_site_type_symbol
 _atom_site_label
 _atom_site_symmetry_multiplicity
 _atom_site_fract_x
 _atom_site_fract_y
 _atom_site_fract_z
 _atom_site_occupancy
  Ho  Ho0  1  0.847953  0.250000  0.800154  1
  Ho  Ho1  1  0.151339  0.750000  0.199200  1
  Ho  Ho2  1  0.887371  0.750000  0.812306  1
  Ho  Ho3  1  0.113809  0.250000  0.188337  1
  Ho  Ho4  1  0.385807  0.250000  0.687774  1
  Ho  Ho5  1  0.613643  0.750000  0.312929  1
  Ho  Ho6  1  0.054198  0.750000  0.497167  1
  Ho  Ho7  1  0.946291  0.250000  0.502451  1
  Ho  Ho8  1  0.554800  0.250000  0.002936  1
  Ho  Ho9  1  0.444876  0.750000  0.996478  1
  Tm  Tm10  1  0.347422  0.750000  0.699944  1
  Tm  Tm11  1  0.651745  0.250000  0.301246  1
  Tm  Tm12  1  0.673652  0.537398  0.563153  1
  Tm  Tm13  1  0.326297  0.461378  0.436940  1
  Tm  Tm14  1  0.172962  0.464216  0.937603  1
  Tm  Tm15  1  0.326297  0.038622  0.436940  1
  Tm  Tm16  1  0.825834  0.538647  0.062625  1
  Tm  Tm17  1  0.673652  0.962602  0.563153  1
  Tm  Tm18  1  0.825834  0.961353  0.062625  1
  Tm  Tm19  1  0.172962  0.035784  0.937603  1
  Fe  Fe20  1  0.068364  0.750000  0.991385  1
  Co  Co21  1  0.933325  0.250000  0.008093  1
  Co  Co22  1  0.565810  0.250000  0.507753  1
  Co  Co23  1  0.434438  0.750000  0.492922  1
  Bi  Bi24  1  0.571297  0.509561  0.826320  1
  Bi  Bi25  1  0.429583  0.490510  0.173243  1
  Bi  Bi26  1  0.071875  0.491304  0.673034  1
  Bi  Bi27  1  0.429583  0.009490  0.173243  1
  Bi  Bi28  1  0.927906  0.508970  0.326543  1
  Bi  Bi29  1  0.571297  0.990439  0.826320  1
  Bi  Bi30  1  0.927906  0.991030  0.326543  1
  Bi  Bi31  1  0.071875  0.008696  0.673034  1
