# generated using pymatgen
data_PrNdP7Ru12
_symmetry_space_group_name_H-M   'P 1'
_cell_length_a   9.47728100
_cell_length_b   9.47727929
_cell_length_c   3.98659600
_cell_angle_alpha   90.00000000
_cell_angle_beta   90.00000000
_cell_angle_gamma   119.99999549
_symmetry_Int_Tables_number   1
_chemical_formula_structural   PrNdP7Ru12
_chemical_formula_sum   'Pr1 Nd1 P7 Ru12'
_cell_volume   310.09896382
_cell_formula_units_Z   1
loop_
 _symmetry_equiv_pos_site_id
 _symmetry_equiv_pos_as_xyz
  1  'x, y, z'
loop_
 _atom_site_type_symbol
 _atom_site_label
 _atom_site_symmetry_multiplicity
 _atom_site_fract_x
 _atom_site_fract_y
 _atom_site_fract_z
 _atom_site_occupancy
  Pr  Pr0  1  0.333333  0.666667  0.000000  1
  Nd  Nd1  1  0.666667  0.333333  0.500000  1
  P  P2  1  0.605444  0.717841  0.500000  1
  P  P3  1  0.000000  0.000000  0.000000  1
  P  P4  1  0.282159  0.887603  0.500000  1
  P  P5  1  0.112397  0.394556  0.500000  1
  P  P6  1  0.889770  0.575209  0.000000  1
  P  P7  1  0.424791  0.314562  0.000000  1
  P  P8  1  0.685438  0.110230  0.000000  1
  Ru  Ru9  1  0.559388  0.952575  0.500000  1
  Ru  Ru10  1  0.393188  0.440612  0.500000  1
  Ru  Ru11  1  0.914613  0.119655  0.500000  1
  Ru  Ru12  1  0.205041  0.085387  0.500000  1
  Ru  Ru13  1  0.880345  0.794959  0.500000  1
  Ru  Ru14  1  0.730021  0.892944  0.000000  1
  Ru  Ru15  1  0.107056  0.837076  0.000000  1
  Ru  Ru16  1  0.162924  0.269979  0.000000  1
  Ru  Ru17  1  0.420004  0.065407  0.000000  1
  Ru  Ru18  1  0.934593  0.354598  0.000000  1
  Ru  Ru19  1  0.645402  0.579996  0.000000  1
  Ru  Ru20  1  0.047425  0.606812  0.500000  1
