# generated using pymatgen
data_Y2Sc2ReB12Ir
_symmetry_space_group_name_H-M   'P 1'
_cell_length_a   3.58417700
_cell_length_b   8.98658495
_cell_length_c   11.39833118
_cell_angle_alpha   90.10758532
_cell_angle_beta   90.00000000
_cell_angle_gamma   90.00000000
_symmetry_Int_Tables_number   1
_chemical_formula_structural   Y2Sc2ReB12Ir
_chemical_formula_sum   'Y4 Sc4 Re2 B24 Ir2'
_cell_volume   367.13402732
_cell_formula_units_Z   2
loop_
 _symmetry_equiv_pos_site_id
 _symmetry_equiv_pos_as_xyz
  1  'x, y, z'
loop_
 _atom_site_type_symbol
 _atom_site_label
 _atom_site_symmetry_multiplicity
 _atom_site_fract_x
 _atom_site_fract_y
 _atom_site_fract_z
 _atom_site_occupancy
  Y  Y0  1  0.500000  0.316191  0.411496  1
  Y  Y1  1  0.500000  0.683809  0.588504  1
  Y  Y2  1  0.500000  0.177321  0.916723  1
  Y  Y3  1  0.500000  0.822679  0.083277  1
  Sc  Sc4  1  0.500000  0.441863  0.124465  1
  Sc  Sc5  1  0.500000  0.558137  0.875535  1
  Sc  Sc6  1  0.500000  0.051744  0.626649  1
  Sc  Sc7  1  0.500000  0.948256  0.373351  1
  Re  Re8  1  0.500000  0.140546  0.182602  1
  Re  Re9  1  0.500000  0.859454  0.817398  1
  B  B10  1  0.000000  0.099609  0.473522  1
  B  B11  1  0.000000  0.900391  0.526478  1
  B  B12  1  0.000000  0.400716  0.972648  1
  B  B13  1  0.000000  0.599284  0.027352  1
  B  B14  1  0.000000  0.128637  0.317077  1
  B  B15  1  0.000000  0.871363  0.682923  1
  B  B16  1  0.000000  0.371660  0.818294  1
  B  B17  1  0.000000  0.628340  0.181706  1
  B  B18  1  0.000000  0.054075  0.067673  1
  B  B19  1  0.000000  0.945925  0.932327  1
  B  B20  1  0.000000  0.444771  0.566502  1
  B  B21  1  0.000000  0.555229  0.433498  1
  B  B22  1  0.000000  0.481339  0.285594  1
  B  B23  1  0.000000  0.518661  0.714406  1
  B  B24  1  0.000000  0.019212  0.785082  1
  B  B25  1  0.000000  0.980788  0.214918  1
  B  B26  1  0.000000  0.252475  0.081294  1
  B  B27  1  0.000000  0.747525  0.918706  1
  B  B28  1  0.000000  0.245870  0.580019  1
  B  B29  1  0.000000  0.754130  0.419981  1
  B  B30  1  0.000000  0.294527  0.234699  1
  B  B31  1  0.000000  0.705473  0.765301  1
  B  B32  1  0.000000  0.207100  0.734478  1
  B  B33  1  0.000000  0.792900  0.265522  1
  Ir  Ir34  1  0.500000  0.360572  0.680582  1
  Ir  Ir35  1  0.500000  0.639428  0.319418  1
