# generated using pymatgen
data_SrHgPt4(PbO7)2
_symmetry_space_group_name_H-M   'P 1'
_cell_length_a   7.39145528
_cell_length_b   7.22160331
_cell_length_c   7.39145541
_cell_angle_alpha   60.48468669
_cell_angle_beta   60.71000844
_cell_angle_gamma   60.48469575
_symmetry_Int_Tables_number   1
_chemical_formula_structural   SrHgPt4(PbO7)2
_chemical_formula_sum   'Sr1 Hg1 Pt4 Pb2 O14'
_cell_volume   282.50878603
_cell_formula_units_Z   1
loop_
 _symmetry_equiv_pos_site_id
 _symmetry_equiv_pos_as_xyz
  1  'x, y, z'
loop_
 _atom_site_type_symbol
 _atom_site_label
 _atom_site_symmetry_multiplicity
 _atom_site_fract_x
 _atom_site_fract_y
 _atom_site_fract_z
 _atom_site_occupancy
  Sr  Sr0  1  0.125000  0.125000  0.125000  1
  Hg  Hg1  1  0.125000  0.625000  0.125000  1
  Pt  Pt2  1  0.625000  0.625000  0.125000  1
  Pt  Pt3  1  0.625000  0.625000  0.625000  1
  Pt  Pt4  1  0.625000  0.125000  0.625000  1
  Pt  Pt5  1  0.125000  0.625000  0.625000  1
  Pb  Pb6  1  0.625000  0.125000  0.125000  1
  Pb  Pb7  1  0.125000  0.125000  0.625000  1
  O  O8  1  0.702113  0.288524  0.293087  1
  O  O9  1  0.707375  0.292221  0.707375  1
  O  O10  1  0.982212  0.004003  0.982212  1
  O  O11  1  0.295278  0.701098  0.295278  1
  O  O12  1  0.700258  0.713212  0.295135  1
  O  O13  1  0.954865  0.536788  0.549742  1
  O  O14  1  0.295135  0.713212  0.700258  1
  O  O15  1  0.267788  0.245997  0.267788  1
  O  O16  1  0.954722  0.548902  0.954722  1
  O  O17  1  0.542625  0.957779  0.542625  1
  O  O18  1  0.549742  0.536788  0.954865  1
  O  O19  1  0.956913  0.961476  0.547887  1
  O  O20  1  0.547887  0.961476  0.956913  1
  O  O21  1  0.293087  0.288524  0.702113  1
