# generated using pymatgen
data_HoUTcB6
_symmetry_space_group_name_H-M   'P 1'
_cell_length_a   3.62777900
_cell_length_b   9.28784800
_cell_length_c   11.40558200
_cell_angle_alpha   90.00000000
_cell_angle_beta   90.00000000
_cell_angle_gamma   90.00000000
_symmetry_Int_Tables_number   1
_chemical_formula_structural   HoUTcB6
_chemical_formula_sum   'Ho4 U4 Tc4 B24'
_cell_volume   384.30264456
_cell_formula_units_Z   4
loop_
 _symmetry_equiv_pos_site_id
 _symmetry_equiv_pos_as_xyz
  1  'x, y, z'
loop_
 _atom_site_type_symbol
 _atom_site_label
 _atom_site_symmetry_multiplicity
 _atom_site_fract_x
 _atom_site_fract_y
 _atom_site_fract_z
 _atom_site_occupancy
  Ho  Ho0  1  0.000000  0.337279  0.407590  1
  Ho  Ho1  1  0.000000  0.662721  0.592410  1
  Ho  Ho2  1  0.000000  0.837279  0.092410  1
  Ho  Ho3  1  0.000000  0.162721  0.907590  1
  U  U4  1  0.000000  0.956416  0.396329  1
  U  U5  1  0.000000  0.043584  0.603671  1
  U  U6  1  0.000000  0.456416  0.103671  1
  U  U7  1  0.000000  0.543584  0.896329  1
  Tc  Tc8  1  0.000000  0.645416  0.318761  1
  Tc  Tc9  1  0.000000  0.354584  0.681239  1
  Tc  Tc10  1  0.000000  0.145416  0.181239  1
  Tc  Tc11  1  0.000000  0.854584  0.818761  1
  B  B12  1  0.500000  0.551514  0.431074  1
  B  B13  1  0.500000  0.448486  0.568926  1
  B  B14  1  0.500000  0.051514  0.068926  1
  B  B15  1  0.500000  0.948486  0.931074  1
  B  B16  1  0.500000  0.742436  0.423418  1
  B  B17  1  0.500000  0.257564  0.576582  1
  B  B18  1  0.500000  0.242436  0.076582  1
  B  B19  1  0.500000  0.757564  0.923418  1
  B  B20  1  0.500000  0.802024  0.275319  1
  B  B21  1  0.500000  0.197976  0.724681  1
  B  B22  1  0.500000  0.302024  0.224681  1
  B  B23  1  0.500000  0.697976  0.775319  1
  B  B24  1  0.500000  0.644325  0.188914  1
  B  B25  1  0.500000  0.355675  0.811086  1
  B  B26  1  0.500000  0.144325  0.311086  1
  B  B27  1  0.500000  0.855675  0.688914  1
  B  B28  1  0.500000  0.988907  0.219383  1
  B  B29  1  0.500000  0.011093  0.780617  1
  B  B30  1  0.500000  0.488907  0.280617  1
  B  B31  1  0.500000  0.511093  0.719383  1
  B  B32  1  0.500000  0.641268  0.039368  1
  B  B33  1  0.500000  0.358732  0.960632  1
  B  B34  1  0.500000  0.141268  0.460632  1
  B  B35  1  0.500000  0.858732  0.539368  1
