# generated using pymatgen
data_Zr9TiSiSn6Au
_symmetry_space_group_name_H-M   'P 1'
_cell_length_a   8.71453900
_cell_length_b   8.71453861
_cell_length_c   5.87877000
_cell_angle_alpha   90.00000000
_cell_angle_beta   90.00000000
_cell_angle_gamma   119.99999767
_symmetry_Int_Tables_number   1
_chemical_formula_structural   Zr9TiSiSn6Au
_chemical_formula_sum   'Zr9 Ti1 Si1 Sn6 Au1'
_cell_volume   386.63923926
_cell_formula_units_Z   1
loop_
 _symmetry_equiv_pos_site_id
 _symmetry_equiv_pos_as_xyz
  1  'x, y, z'
loop_
 _atom_site_type_symbol
 _atom_site_label
 _atom_site_symmetry_multiplicity
 _atom_site_fract_x
 _atom_site_fract_y
 _atom_site_fract_z
 _atom_site_occupancy
  Zr  Zr0  1  0.333333  0.666667  0.000000  1
  Zr  Zr1  1  0.333333  0.666667  0.500000  1
  Zr  Zr2  1  0.666667  0.333333  0.500000  1
  Zr  Zr3  1  0.731352  0.731786  0.733478  1
  Zr  Zr4  1  0.268214  0.999566  0.733478  1
  Zr  Zr5  1  0.000434  0.268648  0.733478  1
  Zr  Zr6  1  0.268214  0.268648  0.266522  1
  Zr  Zr7  1  0.731352  0.999566  0.266522  1
  Zr  Zr8  1  0.000434  0.731786  0.266522  1
  Ti  Ti9  1  0.666667  0.333333  0.000000  1
  Si  Si10  1  0.000000  0.000000  0.500000  1
  Sn  Sn11  1  0.391052  0.386824  0.760575  1
  Sn  Sn12  1  0.613176  0.004227  0.760575  1
  Sn  Sn13  1  0.995773  0.608948  0.760575  1
  Sn  Sn14  1  0.613176  0.608948  0.239425  1
  Sn  Sn15  1  0.391052  0.004227  0.239425  1
  Sn  Sn16  1  0.995773  0.386824  0.239425  1
  Au  Au17  1  0.000000  0.000000  0.000000  1
