# generated using pymatgen
data_DyTh7(MnSi3)4
_symmetry_space_group_name_H-M   'P 1'
_cell_length_a   8.23566204
_cell_length_b   8.23535183
_cell_length_c   8.22817400
_cell_angle_alpha   90.00000000
_cell_angle_beta   90.00000000
_cell_angle_gamma   120.01312594
_symmetry_Int_Tables_number   1
_chemical_formula_structural   DyTh7(MnSi3)4
_chemical_formula_sum   'Dy1 Th7 Mn4 Si12'
_cell_volume   483.23381369
_cell_formula_units_Z   1
loop_
 _symmetry_equiv_pos_site_id
 _symmetry_equiv_pos_as_xyz
  1  'x, y, z'
loop_
 _atom_site_type_symbol
 _atom_site_label
 _atom_site_symmetry_multiplicity
 _atom_site_fract_x
 _atom_site_fract_y
 _atom_site_fract_z
 _atom_site_occupancy
  Dy  Dy0  1  0.000000  0.000002  0.750000  1
  Th  Th1  1  0.500450  0.000903  0.250000  1
  Th  Th2  1  0.499550  0.999101  0.750000  1
  Th  Th3  1  0.999102  0.499552  0.250000  1
  Th  Th4  1  0.000901  0.500452  0.750000  1
  Th  Th5  1  0.500452  0.499547  0.250000  1
  Th  Th6  1  0.499547  0.500450  0.750000  1
  Th  Th7  1  0.999999  0.000003  0.250000  1
  Mn  Mn8  1  0.333325  0.666662  0.002736  1
  Mn  Mn9  1  0.666681  0.333326  0.999580  1
  Mn  Mn10  1  0.666681  0.333326  0.500420  1
  Mn  Mn11  1  0.333325  0.666662  0.497264  1
  Si  Si12  1  0.167942  0.335912  0.998271  1
  Si  Si13  1  0.832084  0.664145  0.997031  1
  Si  Si14  1  0.664096  0.832058  0.998272  1
  Si  Si15  1  0.832084  0.664145  0.502969  1
  Si  Si16  1  0.335848  0.167917  0.997034  1
  Si  Si17  1  0.167942  0.335912  0.501729  1
  Si  Si18  1  0.167920  0.832073  0.998275  1
  Si  Si19  1  0.335848  0.167917  0.502966  1
  Si  Si20  1  0.832104  0.167903  0.997033  1
  Si  Si21  1  0.664096  0.832058  0.501728  1
  Si  Si22  1  0.832104  0.167903  0.502967  1
  Si  Si23  1  0.167920  0.832073  0.501725  1
