# generated using pymatgen
data_Y9Er(Ga2Ru3)2
_symmetry_space_group_name_H-M   'P 1'
_cell_length_a   8.33505240
_cell_length_b   8.33722383
_cell_length_c   8.33505204
_cell_angle_alpha   109.47649484
_cell_angle_beta   109.46593536
_cell_angle_gamma   109.47650348
_symmetry_Int_Tables_number   1
_chemical_formula_structural   Y9Er(Ga2Ru3)2
_chemical_formula_sum   'Y9 Er1 Ga4 Ru6'
_cell_volume   445.84916532
_cell_formula_units_Z   1
loop_
 _symmetry_equiv_pos_site_id
 _symmetry_equiv_pos_as_xyz
  1  'x, y, z'
loop_
 _atom_site_type_symbol
 _atom_site_label
 _atom_site_symmetry_multiplicity
 _atom_site_fract_x
 _atom_site_fract_y
 _atom_site_fract_z
 _atom_site_occupancy
  Y  Y0  1  0.750303  0.432585  0.182672  1
  Y  Y1  1  0.432369  0.682284  0.249697  1
  Y  Y2  1  0.249823  0.067294  0.316973  1
  Y  Y3  1  0.216815  0.499714  0.499474  1
  Y  Y4  1  0.817328  0.249914  0.567631  1
  Y  Y5  1  0.500527  0.000240  0.717342  1
  Y  Y6  1  0.067148  0.817471  0.750177  1
  Y  Y7  1  0.282658  0.282898  0.783186  1
  Y  Y8  1  0.683029  0.750322  0.932852  1
  Er  Er9  1  0.000000  0.215616  0.000000  1
  Ga  Ga10  1  0.000000  0.586753  0.000000  1
  Ga  Ga11  1  0.500028  0.000104  0.087273  1
  Ga  Ga12  1  0.912727  0.912830  0.412755  1
  Ga  Ga13  1  0.587245  0.500076  0.499972  1
  Ru  Ru14  1  0.374755  0.249808  0.125876  1
  Ru  Ru15  1  0.874125  0.123933  0.248879  1
  Ru  Ru16  1  0.123608  0.750141  0.373707  1
  Ru  Ru17  1  0.751120  0.875054  0.625246  1
  Ru  Ru18  1  0.626292  0.376434  0.749900  1
  Ru  Ru19  1  0.250100  0.626533  0.876393  1
