# generated using pymatgen
data_TbDy15Cd4TcPt3
_symmetry_space_group_name_H-M   'P 1'
_cell_length_a   9.71739470
_cell_length_b   9.71739413
_cell_length_c   9.71715634
_cell_angle_alpha   59.47884395
_cell_angle_beta   59.47885166
_cell_angle_gamma   59.47148585
_symmetry_Int_Tables_number   1
_chemical_formula_structural   TbDy15Cd4TcPt3
_chemical_formula_sum   'Tb1 Dy15 Cd4 Tc1 Pt3'
_cell_volume   641.09204848
_cell_formula_units_Z   1
loop_
 _symmetry_equiv_pos_site_id
 _symmetry_equiv_pos_as_xyz
  1  'x, y, z'
loop_
 _atom_site_type_symbol
 _atom_site_label
 _atom_site_symmetry_multiplicity
 _atom_site_fract_x
 _atom_site_fract_y
 _atom_site_fract_z
 _atom_site_occupancy
  Tb  Tb0  1  0.937610  0.937610  0.557009  1
  Dy  Dy1  1  0.351625  0.351625  0.351615  1
  Dy  Dy2  1  0.350191  0.350191  0.948819  1
  Dy  Dy3  1  0.350302  0.948804  0.350107  1
  Dy  Dy4  1  0.948804  0.350302  0.350107  1
  Dy  Dy5  1  0.815230  0.188538  0.188329  1
  Dy  Dy6  1  0.189280  0.809373  0.809451  1
  Dy  Dy7  1  0.188538  0.815230  0.188329  1
  Dy  Dy8  1  0.809373  0.189280  0.809451  1
  Dy  Dy9  1  0.188443  0.188443  0.815299  1
  Dy  Dy10  1  0.809398  0.809398  0.189186  1
  Dy  Dy11  1  0.935635  0.564765  0.564914  1
  Dy  Dy12  1  0.556823  0.937668  0.937787  1
  Dy  Dy13  1  0.564765  0.935635  0.564914  1
  Dy  Dy14  1  0.937668  0.556823  0.937787  1
  Dy  Dy15  1  0.564893  0.564893  0.935665  1
  Cd  Cd16  1  0.580075  0.580075  0.580049  1
  Cd  Cd17  1  0.581032  0.581032  0.254190  1
  Cd  Cd18  1  0.580901  0.254330  0.581018  1
  Cd  Cd19  1  0.254330  0.580901  0.581018  1
  Tc  Tc20  1  0.143629  0.143629  0.143496  1
  Pt  Pt21  1  0.144291  0.144291  0.572926  1
  Pt  Pt22  1  0.144272  0.572893  0.144266  1
  Pt  Pt23  1  0.572893  0.144272  0.144266  1
