# generated using pymatgen
data_Co3Te12Rh
_symmetry_space_group_name_H-M   'P 1'
_cell_length_a   11.31788800
_cell_length_b   8.12340401
_cell_length_c   11.22644647
_cell_angle_alpha   62.69992698
_cell_angle_beta   90.00000000
_cell_angle_gamma   90.00000000
_symmetry_Int_Tables_number   1
_chemical_formula_structural   Co3Te12Rh
_chemical_formula_sum   'Co6 Te24 Rh2'
_cell_volume   917.19187832
_cell_formula_units_Z   2
loop_
 _symmetry_equiv_pos_site_id
 _symmetry_equiv_pos_as_xyz
  1  'x, y, z'
loop_
 _atom_site_type_symbol
 _atom_site_label
 _atom_site_symmetry_multiplicity
 _atom_site_fract_x
 _atom_site_fract_y
 _atom_site_fract_z
 _atom_site_occupancy
  Co  Co0  1  0.997747  0.994766  0.321481  1
  Co  Co1  1  0.497747  0.005234  0.178519  1
  Co  Co2  1  0.997629  0.992046  0.682673  1
  Co  Co3  1  0.497629  0.007954  0.817327  1
  Co  Co4  1  0.715195  0.052660  0.482461  1
  Co  Co5  1  0.215195  0.947340  0.017539  1
  Te  Te6  1  0.094348  0.173530  0.442752  1
  Te  Te7  1  0.594348  0.826470  0.057248  1
  Te  Te8  1  0.895059  0.826301  0.557279  1
  Te  Te9  1  0.395059  0.173699  0.942721  1
  Te  Te10  1  0.662501  0.244466  0.762904  1
  Te  Te11  1  0.162501  0.755534  0.737096  1
  Te  Te12  1  0.334984  0.766395  0.231804  1
  Te  Te13  1  0.834984  0.233605  0.268196  1
  Te  Te14  1  0.836476  0.233134  0.576212  1
  Te  Te15  1  0.336476  0.766866  0.923788  1
  Te  Te16  1  0.160974  0.755534  0.425793  1
  Te  Te17  1  0.660974  0.244466  0.074207  1
  Te  Te18  1  0.381615  0.185142  0.602906  1
  Te  Te19  1  0.881615  0.814858  0.897094  1
  Te  Te20  1  0.621486  0.839789  0.390113  1
  Te  Te21  1  0.121486  0.160211  0.109887  1
  Te  Te22  1  0.564828  0.304116  0.398714  1
  Te  Te23  1  0.064828  0.695884  0.101286  1
  Te  Te24  1  0.447523  0.695734  0.601943  1
  Te  Te25  1  0.947523  0.304266  0.898057  1
  Te  Te26  1  0.381828  0.183111  0.274494  1
  Te  Te27  1  0.881828  0.816889  0.225506  1
  Te  Te28  1  0.621536  0.842209  0.715893  1
  Te  Te29  1  0.121536  0.157791  0.784107  1
  Rh  Rh30  1  0.286271  0.953771  0.515352  1
  Rh  Rh31  1  0.786271  0.046229  0.984648  1
