# generated using pymatgen
data_Sc6Al8Si8IrOs6
_symmetry_space_group_name_H-M   'P 1'
_cell_length_a   8.60635433
_cell_length_b   8.60635552
_cell_length_c   8.60635500
_cell_angle_alpha   59.99999814
_cell_angle_beta   59.99999358
_cell_angle_gamma   60.00000250
_symmetry_Int_Tables_number   1
_chemical_formula_structural   Sc6Al8Si8IrOs6
_chemical_formula_sum   'Sc6 Al8 Si8 Ir1 Os6'
_cell_volume   450.75727395
_cell_formula_units_Z   1
loop_
 _symmetry_equiv_pos_site_id
 _symmetry_equiv_pos_as_xyz
  1  'x, y, z'
loop_
 _atom_site_type_symbol
 _atom_site_label
 _atom_site_symmetry_multiplicity
 _atom_site_fract_x
 _atom_site_fract_y
 _atom_site_fract_z
 _atom_site_occupancy
  Sc  Sc0  1  0.200360  0.799640  0.799640  1
  Sc  Sc1  1  0.799640  0.200360  0.200360  1
  Sc  Sc2  1  0.799640  0.200360  0.799640  1
  Sc  Sc3  1  0.799640  0.799640  0.200360  1
  Sc  Sc4  1  0.200360  0.799640  0.200360  1
  Sc  Sc5  1  0.200360  0.200360  0.799640  1
  Al  Al6  1  0.622620  0.622620  0.622620  1
  Al  Al7  1  0.622620  0.622620  0.132139  1
  Al  Al8  1  0.132139  0.622620  0.622620  1
  Al  Al9  1  0.622620  0.132139  0.622620  1
  Al  Al10  1  0.377380  0.377380  0.377380  1
  Al  Al11  1  0.377380  0.377380  0.867861  1
  Al  Al12  1  0.377380  0.867861  0.377380  1
  Al  Al13  1  0.867861  0.377380  0.377380  1
  Si  Si14  1  0.842932  0.842932  0.842932  1
  Si  Si15  1  0.842932  0.842932  0.471207  1
  Si  Si16  1  0.471207  0.842932  0.842932  1
  Si  Si17  1  0.842932  0.471207  0.842932  1
  Si  Si18  1  0.157068  0.157068  0.157068  1
  Si  Si19  1  0.157068  0.157068  0.528793  1
  Si  Si20  1  0.157068  0.528793  0.157068  1
  Si  Si21  1  0.528793  0.157068  0.157068  1
  Ir  Ir22  1  0.500000  0.500000  0.500000  1
  Os  Os23  1  0.000000  0.500000  0.500000  1
  Os  Os24  1  0.500000  0.000000  0.000000  1
  Os  Os25  1  0.500000  0.000000  0.500000  1
  Os  Os26  1  0.500000  0.500000  0.000000  1
  Os  Os27  1  0.000000  0.500000  0.000000  1
  Os  Os28  1  0.000000  0.000000  0.500000  1
