# generated using pymatgen
data_Ho4Re3TcOs4
_symmetry_space_group_name_H-M   'P 1'
_cell_length_a   5.42436733
_cell_length_b   5.20389589
_cell_length_c   8.96222500
_cell_angle_alpha   90.00000000
_cell_angle_beta   90.00000000
_cell_angle_gamma   119.67575102
_symmetry_Int_Tables_number   1
_chemical_formula_structural   Ho4Re3TcOs4
_chemical_formula_sum   'Ho4 Re3 Tc1 Os4'
_cell_volume   219.80314567
_cell_formula_units_Z   1
loop_
 _symmetry_equiv_pos_site_id
 _symmetry_equiv_pos_as_xyz
  1  'x, y, z'
loop_
 _atom_site_type_symbol
 _atom_site_label
 _atom_site_symmetry_multiplicity
 _atom_site_fract_x
 _atom_site_fract_y
 _atom_site_fract_z
 _atom_site_occupancy
  Ho  Ho0  1  0.329206  0.663581  0.436537  1
  Ho  Ho1  1  0.671317  0.336425  0.563694  1
  Ho  Ho2  1  0.671317  0.336425  0.936306  1
  Ho  Ho3  1  0.329206  0.663581  0.063463  1
  Re  Re4  1  0.831202  0.664090  0.250000  1
  Re  Re5  1  0.167628  0.827535  0.750000  1
  Re  Re6  1  0.166756  0.336298  0.750000  1
  Tc  Tc7  1  0.829588  0.174309  0.250000  1
  Os  Os8  1  0.003083  0.998246  0.499417  1
  Os  Os9  1  0.003083  0.998246  0.000583  1
  Os  Os10  1  0.348589  0.176718  0.250000  1
  Os  Os11  1  0.649028  0.824546  0.750000  1
