# generated using pymatgen
data_HoLuV(Fe3P2)3
_symmetry_space_group_name_H-M   'P 1'
_cell_length_a   3.64375700
_cell_length_b   10.31184500
_cell_length_c   11.84262100
_cell_angle_alpha   90.00000000
_cell_angle_beta   90.00000000
_cell_angle_gamma   90.00000000
_symmetry_Int_Tables_number   1
_chemical_formula_structural   HoLuV(Fe3P2)3
_chemical_formula_sum   'Ho2 Lu2 V2 Fe18 P12'
_cell_volume   444.97295272
_cell_formula_units_Z   2
loop_
 _symmetry_equiv_pos_site_id
 _symmetry_equiv_pos_as_xyz
  1  'x, y, z'
loop_
 _atom_site_type_symbol
 _atom_site_label
 _atom_site_symmetry_multiplicity
 _atom_site_fract_x
 _atom_site_fract_y
 _atom_site_fract_z
 _atom_site_occupancy
  Ho  Ho0  1  0.250000  0.575999  0.703475  1
  Ho  Ho1  1  0.250000  0.924001  0.203475  1
  Lu  Lu2  1  0.750000  0.416499  0.294725  1
  Lu  Lu3  1  0.750000  0.083501  0.794725  1
  V  V4  1  0.250000  0.703111  0.988885  1
  V  V5  1  0.250000  0.796889  0.488885  1
  Fe  Fe6  1  0.750000  0.296525  0.011495  1
  Fe  Fe7  1  0.750000  0.203475  0.511495  1
  Fe  Fe8  1  0.250000  0.399556  0.490226  1
  Fe  Fe9  1  0.250000  0.100444  0.990226  1
  Fe  Fe10  1  0.750000  0.588286  0.508777  1
  Fe  Fe11  1  0.750000  0.911714  0.008777  1
  Fe  Fe12  1  0.250000  0.224007  0.175914  1
  Fe  Fe13  1  0.250000  0.275993  0.675914  1
  Fe  Fe14  1  0.750000  0.784470  0.821943  1
  Fe  Fe15  1  0.750000  0.715530  0.321943  1
  Fe  Fe16  1  0.250000  0.874196  0.703342  1
  Fe  Fe17  1  0.250000  0.625804  0.203342  1
  Fe  Fe18  1  0.750000  0.123587  0.300801  1
  Fe  Fe19  1  0.750000  0.376413  0.800801  1
  Fe  Fe20  1  0.250000  0.462502  0.934167  1
  Fe  Fe21  1  0.250000  0.037498  0.434167  1
  Fe  Fe22  1  0.750000  0.536076  0.067728  1
  Fe  Fe23  1  0.750000  0.963924  0.567728  1
  P  P24  1  0.250000  0.423601  0.114354  1
  P  P25  1  0.250000  0.076399  0.614354  1
  P  P26  1  0.750000  0.575550  0.885447  1
  P  P27  1  0.750000  0.924450  0.385447  1
  P  P28  1  0.250000  0.265816  0.868515  1
  P  P29  1  0.250000  0.234184  0.368515  1
  P  P30  1  0.750000  0.738163  0.128368  1
  P  P31  1  0.750000  0.761837  0.628368  1
  P  P32  1  0.250000  0.588562  0.395490  1
  P  P33  1  0.250000  0.911438  0.895490  1
  P  P34  1  0.750000  0.391827  0.606350  1
  P  P35  1  0.750000  0.108173  0.106350  1
