# generated using pymatgen
data_SmY3Tc3Os5
_symmetry_space_group_name_H-M   'P 1'
_cell_length_a   5.28773790
_cell_length_b   5.31068549
_cell_length_c   9.14076949
_cell_angle_alpha   89.99999926
_cell_angle_beta   90.03241419
_cell_angle_gamma   120.14366269
_symmetry_Int_Tables_number   1
_chemical_formula_structural   SmY3Tc3Os5
_chemical_formula_sum   'Sm1 Y3 Tc3 Os5'
_cell_volume   221.97459625
_cell_formula_units_Z   1
loop_
 _symmetry_equiv_pos_site_id
 _symmetry_equiv_pos_as_xyz
  1  'x, y, z'
loop_
 _atom_site_type_symbol
 _atom_site_label
 _atom_site_symmetry_multiplicity
 _atom_site_fract_x
 _atom_site_fract_y
 _atom_site_fract_z
 _atom_site_occupancy
  Sm  Sm0  1  0.337985  0.668993  0.063522  1
  Y  Y1  1  0.337994  0.668998  0.435952  1
  Y  Y2  1  0.669186  0.334592  0.562585  1
  Y  Y3  1  0.669338  0.334668  0.937065  1
  Tc  Tc4  1  0.164545  0.332384  0.749092  1
  Tc  Tc5  1  0.164545  0.832160  0.749092  1
  Tc  Tc6  1  0.324259  0.162130  0.250990  1
  Os  Os7  1  0.825371  0.653600  0.251331  1
  Os  Os8  1  0.652077  0.826038  0.749029  1
  Os  Os9  1  0.014889  0.007445  0.001407  1
  Os  Os10  1  0.825371  0.171771  0.251331  1
  Os  Os11  1  0.014441  0.007220  0.498603  1
