# generated using pymatgen
data_YHo23Ru14
_symmetry_space_group_name_H-M   'P 1'
_cell_length_a   11.28010102
_cell_length_b   8.34739462
_cell_length_c   11.20213242
_cell_angle_alpha   56.47915495
_cell_angle_beta   90.00492429
_cell_angle_gamma   90.00656369
_symmetry_Int_Tables_number   1
_chemical_formula_structural   YHo23Ru14
_chemical_formula_sum   'Y1 Ho23 Ru14'
_cell_volume   879.35978778
_cell_formula_units_Z   1
loop_
 _symmetry_equiv_pos_site_id
 _symmetry_equiv_pos_as_xyz
  1  'x, y, z'
loop_
 _atom_site_type_symbol
 _atom_site_label
 _atom_site_symmetry_multiplicity
 _atom_site_fract_x
 _atom_site_fract_y
 _atom_site_fract_z
 _atom_site_occupancy
  Y  Y0  1  0.705502  0.240502  0.532346  1
  Ho  Ho1  1  0.206012  0.759148  0.968344  1
  Ho  Ho2  1  0.844889  0.507238  0.655319  1
  Ho  Ho3  1  0.344751  0.492832  0.844780  1
  Ho  Ho4  1  0.155274  0.492941  0.344737  1
  Ho  Ho5  1  0.655171  0.507147  0.155057  1
  Ho  Ho6  1  0.006457  0.852495  0.361407  1
  Ho  Ho7  1  0.506351  0.147604  0.138492  1
  Ho  Ho8  1  0.993815  0.147588  0.638563  1
  Ho  Ho9  1  0.493532  0.852312  0.861549  1
  Ho  Ho10  1  0.794033  0.240908  0.031712  1
  Ho  Ho11  1  0.293958  0.759096  0.468315  1
  Ho  Ho12  1  0.931263  0.776955  0.090018  1
  Ho  Ho13  1  0.430916  0.223028  0.409882  1
  Ho  Ho14  1  0.068846  0.222930  0.910103  1
  Ho  Ho15  1  0.568795  0.776881  0.589981  1
  Ho  Ho16  1  0.301622  0.242708  0.674910  1
  Ho  Ho17  1  0.801688  0.757058  0.825249  1
  Ho  Ho18  1  0.698408  0.757448  0.325132  1
  Ho  Ho19  1  0.198398  0.242713  0.174829  1
  Ho  Ho20  1  0.925535  0.279559  0.293436  1
  Ho  Ho21  1  0.425434  0.720402  0.206498  1
  Ho  Ho22  1  0.074562  0.720319  0.706546  1
  Ho  Ho23  1  0.574373  0.279648  0.793709  1
  Ru  Ru24  1  0.499440  0.500653  0.499958  1
  Ru  Ru25  1  0.000013  0.499999  0.999993  1
  Ru  Ru26  1  0.648288  0.923569  0.033730  1
  Ru  Ru27  1  0.148241  0.076493  0.466211  1
  Ru  Ru28  1  0.351709  0.076483  0.966268  1
  Ru  Ru29  1  0.851973  0.922990  0.533704  1
  Ru  Ru30  1  0.398130  0.485185  0.102963  1
  Ru  Ru31  1  0.898903  0.515820  0.396553  1
  Ru  Ru32  1  0.601843  0.514807  0.897027  1
  Ru  Ru33  1  0.101845  0.485216  0.602971  1
  Ru  Ru34  1  0.820573  0.098250  0.849206  1
  Ru  Ru35  1  0.320542  0.901605  0.651094  1
  Ru  Ru36  1  0.179447  0.901571  0.151114  1
  Ru  Ru37  1  0.679467  0.097898  0.348293  1
