# generated using pymatgen
data_Eu2SnPdRh2
_symmetry_space_group_name_H-M   'P 1'
_cell_length_a   5.41052588
_cell_length_b   5.47597274
_cell_length_c   5.41052386
_cell_angle_alpha   64.39992235
_cell_angle_beta   65.54327640
_cell_angle_gamma   64.39993864
_symmetry_Int_Tables_number   1
_chemical_formula_structural   Eu2SnPdRh2
_chemical_formula_sum   'Eu2 Sn1 Pd1 Rh2'
_cell_volume   125.17864638
_cell_formula_units_Z   1
loop_
 _symmetry_equiv_pos_site_id
 _symmetry_equiv_pos_as_xyz
  1  'x, y, z'
loop_
 _atom_site_type_symbol
 _atom_site_label
 _atom_site_symmetry_multiplicity
 _atom_site_fract_x
 _atom_site_fract_y
 _atom_site_fract_z
 _atom_site_occupancy
  Eu  Eu0  1  0.377618  0.363318  0.377618  1
  Eu  Eu1  1  0.622382  0.636682  0.622382  1
  Sn  Sn2  1  0.000000  0.000000  0.000000  1
  Pd  Pd3  1  0.000000  0.500000  0.000000  1
  Rh  Rh4  1  0.500000  0.000000  0.000000  1
  Rh  Rh5  1  0.000000  0.000000  0.500000  1
