# generated using pymatgen
data_U4Mn2Ni3Ge2Ru
_symmetry_space_group_name_H-M   'P 1'
_cell_length_a   5.12043672
_cell_length_b   5.24452719
_cell_length_c   7.83262900
_cell_angle_alpha   90.00000000
_cell_angle_beta   90.00000000
_cell_angle_gamma   117.49780260
_symmetry_Int_Tables_number   1
_chemical_formula_structural   U4Mn2Ni3Ge2Ru
_chemical_formula_sum   'U4 Mn2 Ni3 Ge2 Ru1'
_cell_volume   186.57716738
_cell_formula_units_Z   1
loop_
 _symmetry_equiv_pos_site_id
 _symmetry_equiv_pos_as_xyz
  1  'x, y, z'
loop_
 _atom_site_type_symbol
 _atom_site_label
 _atom_site_symmetry_multiplicity
 _atom_site_fract_x
 _atom_site_fract_y
 _atom_site_fract_z
 _atom_site_occupancy
  U  U0  1  0.662914  0.347610  0.417694  1
  U  U1  1  0.339896  0.655377  0.574019  1
  U  U2  1  0.339896  0.655377  0.925981  1
  U  U3  1  0.662914  0.347610  0.082306  1
  Mn  Mn4  1  0.650710  0.833388  0.250000  1
  Mn  Mn5  1  0.166182  0.348350  0.250000  1
  Ni  Ni6  1  0.826822  0.155902  0.750000  1
  Ni  Ni7  1  0.166185  0.835160  0.250000  1
  Ni  Ni8  1  0.339616  0.156504  0.750000  1
  Ge  Ge9  1  0.003301  0.008172  0.002436  1
  Ge  Ge10  1  0.003301  0.008172  0.497564  1
  Ru  Ru11  1  0.838263  0.648377  0.750000  1
