# generated using pymatgen
data_Tm2Sc4(WO6)3
_symmetry_space_group_name_H-M   'P 1'
_cell_length_a   8.92623461
_cell_length_b   8.92169257
_cell_length_c   4.93983216
_cell_angle_alpha   90.00000313
_cell_angle_beta   89.97438283
_cell_angle_gamma   119.98317433
_symmetry_Int_Tables_number   1
_chemical_formula_structural   Tm2Sc4(WO6)3
_chemical_formula_sum   'Tm2 Sc4 W3 O18'
_cell_volume   340.74691046
_cell_formula_units_Z   1
loop_
 _symmetry_equiv_pos_site_id
 _symmetry_equiv_pos_as_xyz
  1  'x, y, z'
loop_
 _atom_site_type_symbol
 _atom_site_label
 _atom_site_symmetry_multiplicity
 _atom_site_fract_x
 _atom_site_fract_y
 _atom_site_fract_z
 _atom_site_occupancy
  Tm  Tm0  1  0.629278  0.999603  0.999778  1
  Tm  Tm1  1  0.370723  0.370325  0.000222  1
  Sc  Sc2  1  0.000000  0.633414  0.000000  1
  Sc  Sc3  1  0.295350  0.999864  0.499800  1
  Sc  Sc4  1  0.000000  0.296307  0.500001  1
  Sc  Sc5  1  0.704650  0.704513  0.500202  1
  W  W6  1  0.000000  0.997155  0.000000  1
  W  W7  1  0.670073  0.336386  0.500270  1
  W  W8  1  0.329928  0.666313  0.499729  1
  O  O9  1  0.885615  0.090640  0.223709  1
  O  O10  1  0.207311  0.113667  0.221984  1
  O  O11  1  0.907758  0.786846  0.218315  1
  O  O12  1  0.227708  0.455148  0.283871  1
  O  O13  1  0.222293  0.766551  0.272437  1
  O  O14  1  0.541537  0.771615  0.279566  1
  O  O15  1  0.540342  0.128778  0.281034  1
  O  O16  1  0.876253  0.420354  0.272934  1
  O  O17  1  0.588014  0.462876  0.285715  1
  O  O18  1  0.123747  0.544101  0.727065  1
  O  O19  1  0.459658  0.588436  0.718965  1
  O  O20  1  0.411986  0.874862  0.714284  1
  O  O21  1  0.772293  0.227441  0.716128  1
  O  O22  1  0.458462  0.230077  0.720433  1
  O  O23  1  0.777707  0.544258  0.727562  1
  O  O24  1  0.114384  0.205026  0.776291  1
  O  O25  1  0.092243  0.879090  0.781685  1
  O  O26  1  0.792689  0.906358  0.778016  1
