# generated using pymatgen
data_Sc2Sn2Ir3
_symmetry_space_group_name_H-M   'P 1'
_cell_length_a   7.80852746
_cell_length_b   7.80852697
_cell_length_c   7.80852755
_cell_angle_alpha   33.82470853
_cell_angle_beta   33.82471486
_cell_angle_gamma   33.82470526
_symmetry_Int_Tables_number   1
_chemical_formula_structural   Sc2Sn2Ir3
_chemical_formula_sum   'Sc2 Sn2 Ir3'
_cell_volume   131.46573505
_cell_formula_units_Z   1
loop_
 _symmetry_equiv_pos_site_id
 _symmetry_equiv_pos_as_xyz
  1  'x, y, z'
loop_
 _atom_site_type_symbol
 _atom_site_label
 _atom_site_symmetry_multiplicity
 _atom_site_fract_x
 _atom_site_fract_y
 _atom_site_fract_z
 _atom_site_occupancy
  Sc  Sc0  1  0.243628  0.243628  0.243628  1
  Sc  Sc1  1  0.754412  0.754412  0.754412  1
  Sn  Sn2  1  0.005515  0.005515  0.005515  1
  Sn  Sn3  1  0.496672  0.496672  0.496672  1
  Ir  Ir4  1  0.371080  0.371080  0.371080  1
  Ir  Ir5  1  0.625718  0.625718  0.625718  1
  Ir  Ir6  1  0.877976  0.877976  0.877976  1
