# generated using pymatgen
data_Dy9Ho11(Bi2Ir)4
_symmetry_space_group_name_H-M   'P 1'
_cell_length_a   7.98377104
_cell_length_b   8.99567600
_cell_length_c   12.50363907
_cell_angle_alpha   90.00000000
_cell_angle_beta   89.98802109
_cell_angle_gamma   90.00000000
_symmetry_Int_Tables_number   1
_chemical_formula_structural   Dy9Ho11(Bi2Ir)4
_chemical_formula_sum   'Dy9 Ho11 Bi8 Ir4'
_cell_volume   898.00405572
_cell_formula_units_Z   1
loop_
 _symmetry_equiv_pos_site_id
 _symmetry_equiv_pos_as_xyz
  1  'x, y, z'
loop_
 _atom_site_type_symbol
 _atom_site_label
 _atom_site_symmetry_multiplicity
 _atom_site_fract_x
 _atom_site_fract_y
 _atom_site_fract_z
 _atom_site_occupancy
  Dy  Dy0  1  0.839206  0.750000  0.794161  1
  Dy  Dy1  1  0.160792  0.250000  0.205914  1
  Dy  Dy2  1  0.339187  0.250000  0.705928  1
  Dy  Dy3  1  0.660722  0.750000  0.294021  1
  Dy  Dy4  1  0.375427  0.750000  0.691108  1
  Dy  Dy5  1  0.624554  0.250000  0.308909  1
  Dy  Dy6  1  0.875463  0.250000  0.808936  1
  Dy  Dy7  1  0.124550  0.750000  0.191062  1
  Dy  Dy8  1  0.948006  0.750000  0.501739  1
  Ho  Ho9  1  0.052205  0.250000  0.498225  1
  Ho  Ho10  1  0.447755  0.250000  0.998225  1
  Ho  Ho11  1  0.552186  0.750000  0.001794  1
  Ho  Ho12  1  0.675846  0.041811  0.566069  1
  Ho  Ho13  1  0.324117  0.958285  0.433934  1
  Ho  Ho14  1  0.175943  0.958295  0.933966  1
  Ho  Ho15  1  0.324117  0.541715  0.433934  1
  Ho  Ho16  1  0.824096  0.041807  0.066027  1
  Ho  Ho17  1  0.675846  0.458189  0.566069  1
  Ho  Ho18  1  0.824096  0.458193  0.066027  1
  Ho  Ho19  1  0.175943  0.541705  0.933966  1
  Bi  Bi20  1  0.566390  0.491656  0.826717  1
  Bi  Bi21  1  0.433602  0.508320  0.173290  1
  Bi  Bi22  1  0.066482  0.508216  0.673396  1
  Bi  Bi23  1  0.433602  0.991680  0.173290  1
  Bi  Bi24  1  0.933599  0.491555  0.326596  1
  Bi  Bi25  1  0.566390  0.008344  0.826717  1
  Bi  Bi26  1  0.933599  0.008445  0.326596  1
  Bi  Bi27  1  0.066482  0.991784  0.673396  1
  Ir  Ir28  1  0.571271  0.750000  0.508683  1
  Ir  Ir29  1  0.428518  0.250000  0.491296  1
  Ir  Ir30  1  0.071501  0.250000  0.991312  1
  Ir  Ir31  1  0.928508  0.750000  0.008698  1
