# generated using pymatgen
data_Dy3Ho2Co11(P3Ru2)4
_symmetry_space_group_name_H-M   'P 1'
_cell_length_a   12.20609900
_cell_length_b   12.22882310
_cell_length_c   3.73238300
_cell_angle_alpha   90.00000000
_cell_angle_beta   90.00000000
_cell_angle_gamma   119.91996650
_symmetry_Int_Tables_number   1
_chemical_formula_structural   Dy3Ho2Co11(P3Ru2)4
_chemical_formula_sum   'Dy3 Ho2 Co11 P12 Ru8'
_cell_volume   482.86760053
_cell_formula_units_Z   1
loop_
 _symmetry_equiv_pos_site_id
 _symmetry_equiv_pos_as_xyz
  1  'x, y, z'
loop_
 _atom_site_type_symbol
 _atom_site_label
 _atom_site_symmetry_multiplicity
 _atom_site_fract_x
 _atom_site_fract_y
 _atom_site_fract_z
 _atom_site_occupancy
  Dy  Dy0  1  0.667149  0.333259  0.000000  1
  Dy  Dy1  1  0.328691  0.663038  0.000000  1
  Dy  Dy2  1  0.819229  0.818960  0.500000  1
  Ho  Ho3  1  0.180280  0.000278  0.500000  1
  Ho  Ho4  1  0.000087  0.181415  0.500000  1
  Co  Co5  1  0.128394  0.481533  0.500000  1
  Co  Co6  1  0.803853  0.172594  0.000000  1
  Co  Co7  1  0.829259  0.630231  0.000000  1
  Co  Co8  1  0.367932  0.197195  0.000000  1
  Co  Co9  1  0.172242  0.802798  0.000000  1
  Co  Co10  1  0.630930  0.827538  0.000000  1
  Co  Co11  1  0.194580  0.372392  0.000000  1
  Co  Co12  1  0.279308  0.281925  0.500000  1
  Co  Co13  1  0.719214  0.999919  0.500000  1
  Co  Co14  1  0.000970  0.718346  0.500000  1
  Co  Co15  1  0.000275  0.999669  0.000000  1
  P  P16  1  0.686461  0.161868  0.500000  1
  P  P17  1  0.840869  0.524082  0.500000  1
  P  P18  1  0.475180  0.316231  0.500000  1
  P  P19  1  0.159590  0.680363  0.500000  1
  P  P20  1  0.523633  0.839445  0.500000  1
  P  P21  1  0.309581  0.475793  0.500000  1
  P  P22  1  0.176985  0.178804  0.000000  1
  P  P23  1  0.822307  0.999865  0.000000  1
  P  P24  1  0.000333  0.821697  0.000000  1
  P  P25  1  0.637133  0.637844  0.000000  1
  P  P26  1  0.361408  0.999627  0.000000  1
  P  P27  1  0.004177  0.363139  0.000000  1
  Ru  Ru28  1  0.877449  0.354571  0.500000  1
  Ru  Ru29  1  0.648064  0.519616  0.500000  1
  Ru  Ru30  1  0.481162  0.129061  0.500000  1
  Ru  Ru31  1  0.351374  0.870018  0.500000  1
  Ru  Ru32  1  0.515648  0.646347  0.500000  1
  Ru  Ru33  1  0.444226  0.445133  0.000000  1
  Ru  Ru34  1  0.554914  0.999884  0.000000  1
  Ru  Ru35  1  0.007111  0.555526  0.000000  1
