# generated using pymatgen
data_VCd(Ni7B2)3
_symmetry_space_group_name_H-M   'P 1'
_cell_length_a   7.42112991
_cell_length_b   7.42112986
_cell_length_c   7.42113000
_cell_angle_alpha   59.99999940
_cell_angle_beta   59.99999960
_cell_angle_gamma   59.99999696
_symmetry_Int_Tables_number   1
_chemical_formula_structural   VCd(Ni7B2)3
_chemical_formula_sum   'V1 Cd1 Ni21 B6'
_cell_volume   288.99817079
_cell_formula_units_Z   1
loop_
 _symmetry_equiv_pos_site_id
 _symmetry_equiv_pos_as_xyz
  1  'x, y, z'
loop_
 _atom_site_type_symbol
 _atom_site_label
 _atom_site_symmetry_multiplicity
 _atom_site_fract_x
 _atom_site_fract_y
 _atom_site_fract_z
 _atom_site_occupancy
  V  V0  1  0.750000  0.750000  0.750000  1
  Cd  Cd1  1  0.250000  0.250000  0.250000  1
  Ni  Ni2  1  0.340756  0.997614  0.997614  1
  Ni  Ni3  1  0.664017  0.997614  0.997614  1
  Ni  Ni4  1  0.997614  0.340756  0.664017  1
  Ni  Ni5  1  0.997614  0.664017  0.340756  1
  Ni  Ni6  1  0.997614  0.340756  0.997614  1
  Ni  Ni7  1  0.664017  0.997614  0.340756  1
  Ni  Ni8  1  0.997614  0.664017  0.997614  1
  Ni  Ni9  1  0.340756  0.997614  0.664017  1
  Ni  Ni10  1  0.997614  0.997614  0.340756  1
  Ni  Ni11  1  0.997614  0.997614  0.664017  1
  Ni  Ni12  1  0.664017  0.340756  0.997614  1
  Ni  Ni13  1  0.340756  0.664017  0.997614  1
  Ni  Ni14  1  0.390516  0.390516  0.390516  1
  Ni  Ni15  1  0.621903  0.621903  0.621903  1
  Ni  Ni16  1  0.390516  0.390516  0.828454  1
  Ni  Ni17  1  0.390516  0.828454  0.390516  1
  Ni  Ni18  1  0.621903  0.621903  0.134291  1
  Ni  Ni19  1  0.621903  0.134291  0.621903  1
  Ni  Ni20  1  0.828454  0.390516  0.390516  1
  Ni  Ni21  1  0.134291  0.621903  0.621903  1
  Ni  Ni22  1  0.000000  0.000000  0.000000  1
  B  B23  1  0.729704  0.270296  0.270296  1
  B  B24  1  0.270296  0.729704  0.729704  1
  B  B25  1  0.270296  0.729704  0.270296  1
  B  B26  1  0.729704  0.270296  0.729704  1
  B  B27  1  0.270296  0.270296  0.729704  1
  B  B28  1  0.729704  0.729704  0.270296  1
