# generated using pymatgen
data_Nb3Re2Ge2BMo
_symmetry_space_group_name_H-M   'P 1'
_cell_length_a   6.90365400
_cell_length_b   6.86417317
_cell_length_c   3.25872800
_cell_angle_alpha   90.00000000
_cell_angle_beta   90.00000000
_cell_angle_gamma   120.19043895
_symmetry_Int_Tables_number   1
_chemical_formula_structural   Nb3Re2Ge2BMo
_chemical_formula_sum   'Nb3 Re2 Ge2 B1 Mo1'
_cell_volume   133.47790549
_cell_formula_units_Z   1
loop_
 _symmetry_equiv_pos_site_id
 _symmetry_equiv_pos_as_xyz
  1  'x, y, z'
loop_
 _atom_site_type_symbol
 _atom_site_label
 _atom_site_symmetry_multiplicity
 _atom_site_fract_x
 _atom_site_fract_y
 _atom_site_fract_z
 _atom_site_occupancy
  Nb  Nb0  1  0.389749  0.000000  0.500000  1
  Nb  Nb1  1  0.995891  0.385141  0.500000  1
  Nb  Nb2  1  0.610750  0.614859  0.500000  1
  Re  Re3  1  0.000849  0.761342  0.000000  1
  Re  Re4  1  0.239507  0.238658  0.000000  1
  Ge  Ge5  1  0.330330  0.664195  0.000000  1
  Ge  Ge6  1  0.666136  0.335805  0.000000  1
  B  B7  1  0.004704  0.000000  0.500000  1
  Mo  Mo8  1  0.762086  0.000000  0.000000  1
