# generated using pymatgen
data_Tb7DyTc3B24Os
_symmetry_space_group_name_H-M   'P 1'
_cell_length_a   3.69579900
_cell_length_b   9.18771270
_cell_length_c   11.58097605
_cell_angle_alpha   89.96124422
_cell_angle_beta   90.00000000
_cell_angle_gamma   90.00000000
_symmetry_Int_Tables_number   1
_chemical_formula_structural   Tb7DyTc3B24Os
_chemical_formula_sum   'Tb7 Dy1 Tc3 B24 Os1'
_cell_volume   393.24283082
_cell_formula_units_Z   1
loop_
 _symmetry_equiv_pos_site_id
 _symmetry_equiv_pos_as_xyz
  1  'x, y, z'
loop_
 _atom_site_type_symbol
 _atom_site_label
 _atom_site_symmetry_multiplicity
 _atom_site_fract_x
 _atom_site_fract_y
 _atom_site_fract_z
 _atom_site_occupancy
  Tb  Tb0  1  0.000000  0.323937  0.413902  1
  Tb  Tb1  1  0.000000  0.675324  0.584510  1
  Tb  Tb2  1  0.000000  0.823104  0.087136  1
  Tb  Tb3  1  0.000000  0.177798  0.914487  1
  Tb  Tb4  1  0.000000  0.942367  0.369854  1
  Tb  Tb5  1  0.000000  0.058496  0.630265  1
  Tb  Tb6  1  0.000000  0.442687  0.130324  1
  Dy  Dy7  1  0.000000  0.557205  0.869108  1
  Tc  Tc8  1  0.000000  0.638199  0.320710  1
  Tc  Tc9  1  0.000000  0.362036  0.679968  1
  Tc  Tc10  1  0.000000  0.137694  0.178139  1
  B  B11  1  0.500000  0.553266  0.432666  1
  B  B12  1  0.500000  0.446718  0.567147  1
  B  B13  1  0.500000  0.053229  0.067199  1
  B  B14  1  0.500000  0.946071  0.932623  1
  B  B15  1  0.500000  0.747821  0.418326  1
  B  B16  1  0.500000  0.251906  0.581703  1
  B  B17  1  0.500000  0.248379  0.081729  1
  B  B18  1  0.500000  0.751653  0.917976  1
  B  B19  1  0.500000  0.790928  0.265693  1
  B  B20  1  0.500000  0.209409  0.734816  1
  B  B21  1  0.500000  0.290836  0.234512  1
  B  B22  1  0.500000  0.709568  0.765602  1
  B  B23  1  0.500000  0.631137  0.186099  1
  B  B24  1  0.500000  0.369041  0.814522  1
  B  B25  1  0.500000  0.130722  0.313598  1
  B  B26  1  0.500000  0.868802  0.686291  1
  B  B27  1  0.500000  0.982570  0.211599  1
  B  B28  1  0.500000  0.016239  0.788431  1
  B  B29  1  0.500000  0.482886  0.288253  1
  B  B30  1  0.500000  0.517022  0.711751  1
  B  B31  1  0.500000  0.602123  0.027943  1
  B  B32  1  0.500000  0.399087  0.971361  1
  B  B33  1  0.500000  0.102198  0.471626  1
  B  B34  1  0.500000  0.897871  0.528827  1
  Os  Os35  1  0.000000  0.861670  0.821306  1
