# generated using pymatgen
data_Hf(TaC)5
_symmetry_space_group_name_H-M   'P 1'
_cell_length_a   5.50693937
_cell_length_b   5.50693970
_cell_length_c   5.49366018
_cell_angle_alpha   80.55230213
_cell_angle_beta   80.55228860
_cell_angle_gamma   120.16740433
_symmetry_Int_Tables_number   1
_chemical_formula_structural   Hf(TaC)5
_chemical_formula_sum   'Hf1 Ta5 C5'
_cell_volume   136.01325448
_cell_formula_units_Z   1
loop_
 _symmetry_equiv_pos_site_id
 _symmetry_equiv_pos_as_xyz
  1  'x, y, z'
loop_
 _atom_site_type_symbol
 _atom_site_label
 _atom_site_symmetry_multiplicity
 _atom_site_fract_x
 _atom_site_fract_y
 _atom_site_fract_z
 _atom_site_occupancy
  Hf  Hf0  1  0.743053  0.743053  0.741852  1
  Ta  Ta1  1  0.260714  0.260714  0.261099  1
  Ta  Ta2  1  0.082724  0.435501  0.746493  1
  Ta  Ta3  1  0.565319  0.915815  0.252667  1
  Ta  Ta4  1  0.915815  0.565319  0.252667  1
  Ta  Ta5  1  0.435501  0.082724  0.746493  1
  C  C6  1  0.497736  0.497736  0.498956  1
  C  C7  1  0.663689  0.329744  0.003162  1
  C  C8  1  0.329744  0.663689  0.003162  1
  C  C9  1  0.834270  0.171437  0.496725  1
  C  C10  1  0.171437  0.834270  0.496725  1
