# generated using pymatgen
data_Y4Co8P12Ir7Rh5
_symmetry_space_group_name_H-M   'P 1'
_cell_length_a   3.84795100
_cell_length_b   10.58361327
_cell_length_c   12.26039430
_cell_angle_alpha   90.02560450
_cell_angle_beta   90.00000000
_cell_angle_gamma   90.00000000
_symmetry_Int_Tables_number   1
_chemical_formula_structural   Y4Co8P12Ir7Rh5
_chemical_formula_sum   'Y4 Co8 P12 Ir7 Rh5'
_cell_volume   499.30726983
_cell_formula_units_Z   1
loop_
 _symmetry_equiv_pos_site_id
 _symmetry_equiv_pos_as_xyz
  1  'x, y, z'
loop_
 _atom_site_type_symbol
 _atom_site_label
 _atom_site_symmetry_multiplicity
 _atom_site_fract_x
 _atom_site_fract_y
 _atom_site_fract_z
 _atom_site_occupancy
  Y  Y0  1  0.250000  0.917332  0.210274  1
  Y  Y1  1  0.750000  0.083035  0.789717  1
  Y  Y2  1  0.750000  0.417298  0.289199  1
  Y  Y3  1  0.250000  0.583022  0.710639  1
  Co  Co4  1  0.250000  0.617598  0.196032  1
  Co  Co5  1  0.750000  0.383197  0.803649  1
  Co  Co6  1  0.750000  0.117489  0.303770  1
  Co  Co7  1  0.250000  0.882378  0.696439  1
  Co  Co8  1  0.250000  0.036708  0.433802  1
  Co  Co9  1  0.750000  0.963316  0.566816  1
  Co  Co10  1  0.750000  0.536590  0.066483  1
  Co  Co11  1  0.250000  0.463655  0.933228  1
  P  P12  1  0.250000  0.068240  0.610665  1
  P  P13  1  0.750000  0.931807  0.389915  1
  P  P14  1  0.750000  0.568526  0.889977  1
  P  P15  1  0.250000  0.431157  0.109932  1
  P  P16  1  0.250000  0.225886  0.370027  1
  P  P17  1  0.750000  0.773899  0.629949  1
  P  P18  1  0.750000  0.726092  0.129733  1
  P  P19  1  0.250000  0.273766  0.870821  1
  P  P20  1  0.250000  0.900085  0.879209  1
  P  P21  1  0.750000  0.100058  0.120531  1
  P  P22  1  0.750000  0.400176  0.621614  1
  P  P23  1  0.250000  0.599915  0.378281  1
  Ir  Ir24  1  0.750000  0.909130  0.023435  1
  Ir  Ir25  1  0.750000  0.590267  0.524255  1
  Ir  Ir26  1  0.250000  0.409553  0.475653  1
  Ir  Ir27  1  0.250000  0.274559  0.679491  1
  Ir  Ir28  1  0.750000  0.725589  0.320683  1
  Ir  Ir29  1  0.750000  0.774365  0.820922  1
  Ir  Ir30  1  0.250000  0.225272  0.179420  1
  Rh  Rh31  1  0.250000  0.780191  0.489077  1
  Rh  Rh32  1  0.750000  0.219876  0.510768  1
  Rh  Rh33  1  0.750000  0.280857  0.009583  1
  Rh  Rh34  1  0.250000  0.719136  0.989405  1
  Rh  Rh35  1  0.250000  0.089978  0.976605  1
