# generated using pymatgen
data_SrAc(Cd9Ag2)2
_symmetry_space_group_name_H-M   'P 1'
_cell_length_a   9.31052021
_cell_length_b   9.30985990
_cell_length_c   9.31158600
_cell_angle_alpha   99.58578373
_cell_angle_beta   99.54033371
_cell_angle_gamma   131.89907287
_symmetry_Int_Tables_number   1
_chemical_formula_structural   SrAc(Cd9Ag2)2
_chemical_formula_sum   'Sr1 Ac1 Cd18 Ag4'
_cell_volume   548.57864966
_cell_formula_units_Z   1
loop_
 _symmetry_equiv_pos_site_id
 _symmetry_equiv_pos_as_xyz
  1  'x, y, z'
loop_
 _atom_site_type_symbol
 _atom_site_label
 _atom_site_symmetry_multiplicity
 _atom_site_fract_x
 _atom_site_fract_y
 _atom_site_fract_z
 _atom_site_occupancy
  Sr  Sr0  1  0.499842  0.499838  0.999982  1
  Ac  Ac1  1  0.749997  0.249963  0.499973  1
  Cd  Cd2  1  0.994802  0.318437  0.918726  1
  Cd  Cd3  1  0.681549  0.600251  0.676436  1
  Cd  Cd4  1  0.400039  0.318575  0.323801  1
  Cd  Cd5  1  0.681697  0.005061  0.081086  1
  Cd  Cd6  1  0.854216  0.432236  0.179958  1
  Cd  Cd7  1  0.399740  0.076052  0.081344  1
  Cd  Cd8  1  0.999863  0.999806  0.000009  1
  Cd  Cd9  1  0.854514  0.674539  0.422045  1
  Cd  Cd10  1  0.249862  0.749903  0.499999  1
  Cd  Cd11  1  0.325665  0.747739  0.180066  1
  Cd  Cd12  1  0.252317  0.432395  0.577945  1
  Cd  Cd13  1  0.567567  0.747791  0.422139  1
  Cd  Cd14  1  0.994734  0.076186  0.676267  1
  Cd  Cd15  1  0.923872  0.005126  0.323484  1
  Cd  Cd16  1  0.325415  0.145329  0.577895  1
  Cd  Cd17  1  0.252377  0.674364  0.820095  1
  Cd  Cd18  1  0.567662  0.145628  0.819935  1
  Cd  Cd19  1  0.924012  0.600534  0.918822  1
  Ag  Ag20  1  0.127389  0.880861  0.753471  1
  Ag  Ag21  1  0.119375  0.872726  0.246656  1
  Ag  Ag22  1  0.626050  0.872709  0.753315  1
  Ag  Ag23  1  0.127446  0.373954  0.246552  1
