# generated using pymatgen
data_KSb3(SO7)2
_symmetry_space_group_name_H-M   'P 1'
_cell_length_a   7.97517611
_cell_length_b   7.97517572
_cell_length_c   7.97517778
_cell_angle_alpha   53.25145818
_cell_angle_beta   53.25146108
_cell_angle_gamma   53.25146366
_symmetry_Int_Tables_number   1
_chemical_formula_structural   KSb3(SO7)2
_chemical_formula_sum   'K1 Sb3 S2 O14'
_cell_volume   301.99138489
_cell_formula_units_Z   1
loop_
 _symmetry_equiv_pos_site_id
 _symmetry_equiv_pos_as_xyz
  1  'x, y, z'
loop_
 _atom_site_type_symbol
 _atom_site_label
 _atom_site_symmetry_multiplicity
 _atom_site_fract_x
 _atom_site_fract_y
 _atom_site_fract_z
 _atom_site_occupancy
  K  K0  1  0.000364  0.000364  0.000364  1
  Sb  Sb1  1  0.999990  0.500011  0.999990  1
  Sb  Sb2  1  0.999990  0.999990  0.500011  1
  Sb  Sb3  1  0.500011  0.999990  0.999990  1
  S  S4  1  0.706926  0.706926  0.706926  1
  S  S5  1  0.293066  0.293066  0.293066  1
  O  O6  1  0.637443  0.637443  0.637443  1
  O  O7  1  0.362545  0.362545  0.362545  1
  O  O8  1  0.848633  0.504596  0.848633  1
  O  O9  1  0.848633  0.848633  0.504596  1
  O  O10  1  0.504596  0.848633  0.848633  1
  O  O11  1  0.151354  0.495402  0.151354  1
  O  O12  1  0.151354  0.151354  0.495402  1
  O  O13  1  0.495402  0.151354  0.151354  1
  O  O14  1  0.728878  0.123576  0.728878  1
  O  O15  1  0.728878  0.728878  0.123576  1
  O  O16  1  0.123576  0.728878  0.728878  1
  O  O17  1  0.270994  0.876472  0.270994  1
  O  O18  1  0.270994  0.270994  0.876472  1
  O  O19  1  0.876472  0.270994  0.270994  1
