# generated using pymatgen
data_LiYb3Th5Pd24
_symmetry_space_group_name_H-M   'P 1'
_cell_length_a   8.44085215
_cell_length_b   8.44085255
_cell_length_c   8.44085200
_cell_angle_alpha   89.69685036
_cell_angle_beta   89.69685034
_cell_angle_gamma   90.30315018
_symmetry_Int_Tables_number   1
_chemical_formula_structural   LiYb3Th5Pd24
_chemical_formula_sum   'Li1 Yb3 Th5 Pd24'
_cell_volume   601.36838266
_cell_formula_units_Z   1
loop_
 _symmetry_equiv_pos_site_id
 _symmetry_equiv_pos_as_xyz
  1  'x, y, z'
loop_
 _atom_site_type_symbol
 _atom_site_label
 _atom_site_symmetry_multiplicity
 _atom_site_fract_x
 _atom_site_fract_y
 _atom_site_fract_z
 _atom_site_occupancy
  Li  Li0  1  0.999892  0.999892  0.000108  1
  Yb  Yb1  1  0.748563  0.251065  0.748935  1
  Yb  Yb2  1  0.251065  0.748563  0.748935  1
  Yb  Yb3  1  0.251065  0.251065  0.251437  1
  Th  Th4  1  0.250823  0.250823  0.749177  1
  Th  Th5  1  0.250701  0.749478  0.250522  1
  Th  Th6  1  0.749478  0.250701  0.250522  1
  Th  Th7  1  0.749478  0.749478  0.749299  1
  Th  Th8  1  0.749197  0.749197  0.250803  1
  Pd  Pd9  1  0.500914  0.500914  0.747684  1
  Pd  Pd10  1  0.500914  0.252316  0.499086  1
  Pd  Pd11  1  0.252316  0.500914  0.499086  1
  Pd  Pd12  1  0.499090  0.499090  0.252894  1
  Pd  Pd13  1  0.499090  0.747106  0.500910  1
  Pd  Pd14  1  0.747106  0.499090  0.500910  1
  Pd  Pd15  1  0.998052  0.998052  0.718181  1
  Pd  Pd16  1  0.998052  0.281819  0.001948  1
  Pd  Pd17  1  0.281819  0.998052  0.001948  1
  Pd  Pd18  1  0.002919  0.002919  0.283002  1
  Pd  Pd19  1  0.002919  0.716998  0.997081  1
  Pd  Pd20  1  0.716998  0.002919  0.997081  1
  Pd  Pd21  1  0.998769  0.499872  0.742240  1
  Pd  Pd22  1  0.499872  0.257760  0.001231  1
  Pd  Pd23  1  0.257760  0.998769  0.500128  1
  Pd  Pd24  1  0.998769  0.257760  0.500128  1
  Pd  Pd25  1  0.499872  0.998769  0.742240  1
  Pd  Pd26  1  0.257760  0.499872  0.001231  1
  Pd  Pd27  1  0.001396  0.499660  0.257684  1
  Pd  Pd28  1  0.499660  0.742316  0.998604  1
  Pd  Pd29  1  0.001396  0.742316  0.500340  1
  Pd  Pd30  1  0.499660  0.001396  0.257684  1
  Pd  Pd31  1  0.742316  0.001396  0.500340  1
  Pd  Pd32  1  0.742316  0.499660  0.998604  1
