# generated using pymatgen
data_Na2P7Ru11Rh
_symmetry_space_group_name_H-M   'P 1'
_cell_length_a   9.40567432
_cell_length_b   9.44993929
_cell_length_c   3.92858500
_cell_angle_alpha   90.00000000
_cell_angle_beta   90.00000000
_cell_angle_gamma   119.81581321
_symmetry_Int_Tables_number   1
_chemical_formula_structural   Na2P7Ru11Rh
_chemical_formula_sum   'Na2 P7 Ru11 Rh1'
_cell_volume   302.96244560
_cell_formula_units_Z   1
loop_
 _symmetry_equiv_pos_site_id
 _symmetry_equiv_pos_as_xyz
  1  'x, y, z'
loop_
 _atom_site_type_symbol
 _atom_site_label
 _atom_site_symmetry_multiplicity
 _atom_site_fract_x
 _atom_site_fract_y
 _atom_site_fract_z
 _atom_site_occupancy
  Na  Na0  1  0.667534  0.333438  0.500000  1
  Na  Na1  1  0.332905  0.665545  0.000000  1
  P  P2  1  0.601645  0.709924  0.500000  1
  P  P3  1  0.996420  0.998688  0.000000  1
  P  P4  1  0.282961  0.886723  0.500000  1
  P  P5  1  0.112579  0.398525  0.500000  1
  P  P6  1  0.891802  0.582936  0.000000  1
  P  P7  1  0.419332  0.308278  0.000000  1
  P  P8  1  0.695739  0.114135  0.000000  1
  Ru  Ru9  1  0.391622  0.437671  0.500000  1
  Ru  Ru10  1  0.914075  0.120103  0.500000  1
  Ru  Ru11  1  0.207462  0.086912  0.500000  1
  Ru  Ru12  1  0.880665  0.797875  0.500000  1
  Ru  Ru13  1  0.724093  0.885645  0.000000  1
  Ru  Ru14  1  0.114005  0.843423  0.000000  1
  Ru  Ru15  1  0.157647  0.268969  0.000000  1
  Ru  Ru16  1  0.428821  0.067940  0.000000  1
  Ru  Ru17  1  0.935358  0.360499  0.000000  1
  Ru  Ru18  1  0.642438  0.574248  0.000000  1
  Ru  Ru19  1  0.046606  0.608640  0.500000  1
  Rh  Rh20  1  0.556293  0.949883  0.500000  1
