# generated using pymatgen
data_Th4SiGeH8
_symmetry_space_group_name_H-M   'P 1'
_cell_length_a   6.20053665
_cell_length_b   6.20053703
_cell_length_c   6.20053625
_cell_angle_alpha   106.41956031
_cell_angle_beta   106.41955885
_cell_angle_gamma   115.76379995
_symmetry_Int_Tables_number   1
_chemical_formula_structural   Th4SiGeH8
_chemical_formula_sum   'Th4 Si1 Ge1 H8'
_cell_volume   181.83458688
_cell_formula_units_Z   1
loop_
 _symmetry_equiv_pos_site_id
 _symmetry_equiv_pos_as_xyz
  1  'x, y, z'
loop_
 _atom_site_type_symbol
 _atom_site_label
 _atom_site_symmetry_multiplicity
 _atom_site_fract_x
 _atom_site_fract_y
 _atom_site_fract_z
 _atom_site_occupancy
  Th  Th0  1  0.829277  0.670723  0.500000  1
  Th  Th1  1  0.670723  0.170723  0.841446  1
  Th  Th2  1  0.170723  0.329277  0.500000  1
  Th  Th3  1  0.329277  0.829277  0.158554  1
  Si  Si4  1  0.750000  0.750000  0.000000  1
  Ge  Ge5  1  0.250000  0.250000  0.000000  1
  H  H6  1  0.223919  0.970832  0.500031  1
  H  H7  1  0.470801  0.723888  0.499969  1
  H  H8  1  0.723888  0.223919  0.253088  1
  H  H9  1  0.970832  0.470801  0.746912  1
  H  H10  1  0.276081  0.776112  0.746912  1
  H  H11  1  0.529168  0.276081  0.499969  1
  H  H12  1  0.029199  0.529168  0.253088  1
  H  H13  1  0.776112  0.029199  0.500031  1
