# generated using pymatgen
data_Yb3PrRu8
_symmetry_space_group_name_H-M   'P 1'
_cell_length_a   5.27845256
_cell_length_b   5.27845184
_cell_length_c   8.89846310
_cell_angle_alpha   90.01500192
_cell_angle_beta   89.98499663
_cell_angle_gamma   119.99485971
_symmetry_Int_Tables_number   1
_chemical_formula_structural   Yb3PrRu8
_chemical_formula_sum   'Yb3 Pr1 Ru8'
_cell_volume   214.72434913
_cell_formula_units_Z   1
loop_
 _symmetry_equiv_pos_site_id
 _symmetry_equiv_pos_as_xyz
  1  'x, y, z'
loop_
 _atom_site_type_symbol
 _atom_site_label
 _atom_site_symmetry_multiplicity
 _atom_site_fract_x
 _atom_site_fract_y
 _atom_site_fract_z
 _atom_site_occupancy
  Yb  Yb0  1  0.333348  0.666652  0.428849  1
  Yb  Yb1  1  0.333366  0.666634  0.065778  1
  Yb  Yb2  1  0.666692  0.333308  0.938640  1
  Pr  Pr3  1  0.666641  0.333359  0.565871  1
  Ru  Ru4  1  0.000061  0.999939  0.499143  1
  Ru  Ru5  1  0.000133  0.999867  0.999041  1
  Ru  Ru6  1  0.171875  0.343907  0.753932  1
  Ru  Ru7  1  0.171923  0.828077  0.753965  1
  Ru  Ru8  1  0.656093  0.828125  0.753932  1
  Ru  Ru9  1  0.829176  0.658364  0.246952  1
  Ru  Ru10  1  0.829056  0.170944  0.246947  1
  Ru  Ru11  1  0.341636  0.170824  0.246952  1
