# generated using pymatgen
data_Tb5Dy6HoRu4
_symmetry_space_group_name_H-M   'P 1'
_cell_length_a   6.33776500
_cell_length_b   7.29365859
_cell_length_c   9.21660809
_cell_angle_alpha   89.98583120
_cell_angle_beta   90.00009306
_cell_angle_gamma   90.06887389
_symmetry_Int_Tables_number   1
_chemical_formula_structural   Tb5Dy6HoRu4
_chemical_formula_sum   'Tb5 Dy6 Ho1 Ru4'
_cell_volume   426.04194235
_cell_formula_units_Z   1
loop_
 _symmetry_equiv_pos_site_id
 _symmetry_equiv_pos_as_xyz
  1  'x, y, z'
loop_
 _atom_site_type_symbol
 _atom_site_label
 _atom_site_symmetry_multiplicity
 _atom_site_fract_x
 _atom_site_fract_y
 _atom_site_fract_z
 _atom_site_occupancy
  Tb  Tb0  1  0.329513  0.677189  0.065332  1
  Tb  Tb1  1  0.865564  0.540218  0.250433  1
  Tb  Tb2  1  0.634535  0.041016  0.250427  1
  Tb  Tb3  1  0.134336  0.459099  0.749593  1
  Tb  Tb4  1  0.365402  0.959729  0.749602  1
  Dy  Dy5  1  0.670406  0.322778  0.565251  1
  Dy  Dy6  1  0.829918  0.823081  0.934320  1
  Dy  Dy7  1  0.670573  0.322570  0.934267  1
  Dy  Dy8  1  0.830110  0.823300  0.565263  1
  Dy  Dy9  1  0.329447  0.677050  0.434956  1
  Dy  Dy10  1  0.169913  0.177046  0.065815  1
  Ho  Ho11  1  0.169991  0.176895  0.434402  1
  Ru  Ru12  1  0.040444  0.886620  0.250501  1
  Ru  Ru13  1  0.459133  0.385334  0.250524  1
  Ru  Ru14  1  0.959631  0.114194  0.749709  1
  Ru  Ru15  1  0.541085  0.613882  0.749609  1
