# generated using pymatgen
data_Y5GaSe4
_symmetry_space_group_name_H-M   'P 1'
_cell_length_a   7.13665196
_cell_length_b   7.13665283
_cell_length_c   7.13665299
_cell_angle_alpha   99.57927176
_cell_angle_beta   99.57927757
_cell_angle_gamma   131.84946221
_symmetry_Int_Tables_number   1
_chemical_formula_structural   Y5GaSe4
_chemical_formula_sum   'Y5 Ga1 Se4'
_cell_volume   247.20516792
_cell_formula_units_Z   1
loop_
 _symmetry_equiv_pos_site_id
 _symmetry_equiv_pos_as_xyz
  1  'x, y, z'
loop_
 _atom_site_type_symbol
 _atom_site_label
 _atom_site_symmetry_multiplicity
 _atom_site_fract_x
 _atom_site_fract_y
 _atom_site_fract_z
 _atom_site_occupancy
  Y  Y0  1  0.402840  0.792888  0.195728  1
  Y  Y1  1  0.000000  0.000000  0.000000  1
  Y  Y2  1  0.597160  0.207112  0.804272  1
  Y  Y3  1  0.207112  0.402840  0.609951  1
  Y  Y4  1  0.792888  0.597160  0.390049  1
  Ga  Ga5  1  0.500000  0.500000  0.000000  1
  Se  Se6  1  0.097685  0.697039  0.794724  1
  Se  Se7  1  0.697039  0.902315  0.599354  1
  Se  Se8  1  0.302961  0.097685  0.400646  1
  Se  Se9  1  0.902315  0.302961  0.205276  1
