# generated using pymatgen
data_Tb6Y2Hf12Si15Sn
_symmetry_space_group_name_H-M   'P 1'
_cell_length_a   7.31323505
_cell_length_b   7.34183059
_cell_length_c   13.45412001
_cell_angle_alpha   89.76609350
_cell_angle_beta   90.00871474
_cell_angle_gamma   89.85308577
_symmetry_Int_Tables_number   1
_chemical_formula_structural   Tb6Y2Hf12Si15Sn
_chemical_formula_sum   'Tb6 Y2 Hf12 Si15 Sn1'
_cell_volume   722.37737649
_cell_formula_units_Z   1
loop_
 _symmetry_equiv_pos_site_id
 _symmetry_equiv_pos_as_xyz
  1  'x, y, z'
loop_
 _atom_site_type_symbol
 _atom_site_label
 _atom_site_symmetry_multiplicity
 _atom_site_fract_x
 _atom_site_fract_y
 _atom_site_fract_z
 _atom_site_occupancy
  Tb  Tb0  1  0.149120  0.504688  0.470337  1
  Tb  Tb1  1  0.505666  0.842623  0.032960  1
  Tb  Tb2  1  0.844429  0.504077  0.964103  1
  Tb  Tb3  1  0.497895  0.153752  0.538819  1
  Tb  Tb4  1  0.343669  0.995797  0.784977  1
  Tb  Tb5  1  0.661962  0.997795  0.283501  1
  Y  Y6  1  0.988662  0.344856  0.212606  1
  Y  Y7  1  0.004516  0.655929  0.716134  1
  Hf  Hf8  1  0.174243  0.175015  0.999231  1
  Hf  Hf9  1  0.825612  0.826622  0.501058  1
  Hf  Hf10  1  0.326264  0.681159  0.248119  1
  Hf  Hf11  1  0.674920  0.325099  0.750231  1
  Hf  Hf12  1  0.142739  0.987607  0.374044  1
  Hf  Hf13  1  0.851620  0.004036  0.873820  1
  Hf  Hf14  1  0.503986  0.650119  0.624635  1
  Hf  Hf15  1  0.350741  0.495095  0.875753  1
  Hf  Hf16  1  0.496359  0.351389  0.118590  1
  Hf  Hf17  1  0.660249  0.514628  0.379521  1
  Hf  Hf18  1  0.994678  0.149422  0.626680  1
  Hf  Hf19  1  0.003024  0.849164  0.124076  1
  Si  Si20  1  0.636902  0.704888  0.816701  1
  Si  Si21  1  0.204728  0.864553  0.567926  1
  Si  Si22  1  0.137301  0.794869  0.932577  1
  Si  Si23  1  0.795477  0.136333  0.065360  1
  Si  Si24  1  0.862505  0.204426  0.433487  1
  Si  Si25  1  0.295348  0.363343  0.683703  1
  Si  Si26  1  0.703013  0.636633  0.182786  1
  Si  Si27  1  0.294361  0.042225  0.180915  1
  Si  Si28  1  0.705878  0.949924  0.686412  1
  Si  Si29  1  0.450424  0.796391  0.435639  1
  Si  Si30  1  0.204644  0.549106  0.064360  1
  Si  Si31  1  0.548979  0.204222  0.933883  1
  Si  Si32  1  0.793191  0.450425  0.566602  1
  Si  Si33  1  0.049150  0.294549  0.814524  1
  Si  Si34  1  0.952994  0.702867  0.313097  1
  Sn  Sn35  1  0.364749  0.296376  0.322831  1
