# generated using pymatgen
data_Sr2Si7Rh12
_symmetry_space_group_name_H-M   'P 1'
_cell_length_a   9.86102800
_cell_length_b   9.86102821
_cell_length_c   3.88796500
_cell_angle_alpha   90.00000000
_cell_angle_beta   90.00000000
_cell_angle_gamma   119.99999929
_symmetry_Int_Tables_number   1
_chemical_formula_structural   Sr2Si7Rh12
_chemical_formula_sum   'Sr2 Si7 Rh12'
_cell_volume   327.41409736
_cell_formula_units_Z   1
loop_
 _symmetry_equiv_pos_site_id
 _symmetry_equiv_pos_as_xyz
  1  'x, y, z'
loop_
 _atom_site_type_symbol
 _atom_site_label
 _atom_site_symmetry_multiplicity
 _atom_site_fract_x
 _atom_site_fract_y
 _atom_site_fract_z
 _atom_site_occupancy
  Sr  Sr0  1  0.000000  0.000000  0.749344  1
  Sr  Sr1  1  0.333333  0.666667  0.251931  1
  Si  Si2  1  0.666667  0.333333  0.524073  1
  Si  Si3  1  0.060974  0.623953  0.750634  1
  Si  Si4  1  0.376047  0.437021  0.750634  1
  Si  Si5  1  0.562979  0.939026  0.750634  1
  Si  Si6  1  0.272807  0.042351  0.250569  1
  Si  Si7  1  0.957649  0.230456  0.250569  1
  Si  Si8  1  0.769544  0.727193  0.250569  1
  Rh  Rh9  1  0.807139  0.593258  0.745919  1
  Rh  Rh10  1  0.406742  0.213881  0.745919  1
  Rh  Rh11  1  0.786119  0.192861  0.745919  1
  Rh  Rh12  1  0.528551  0.077416  0.256414  1
  Rh  Rh13  1  0.922584  0.451135  0.256414  1
  Rh  Rh14  1  0.548865  0.471449  0.256414  1
  Rh  Rh15  1  0.107310  0.394177  0.752545  1
  Rh  Rh16  1  0.605823  0.713133  0.752545  1
  Rh  Rh17  1  0.286867  0.892690  0.752545  1
  Rh  Rh18  1  0.226079  0.273588  0.248781  1
  Rh  Rh19  1  0.726412  0.952490  0.248781  1
  Rh  Rh20  1  0.047510  0.773921  0.248781  1
