# generated using pymatgen
data_Ti3Al2IrN
_symmetry_space_group_name_H-M   'P 1'
_cell_length_a   8.16165426
_cell_length_b   8.16165446
_cell_length_c   8.16165400
_cell_angle_alpha   60.00000188
_cell_angle_beta   60.00000105
_cell_angle_gamma   59.99999919
_symmetry_Int_Tables_number   1
_chemical_formula_structural   Ti3Al2IrN
_chemical_formula_sum   'Ti12 Al8 Ir4 N4'
_cell_volume   384.43204901
_cell_formula_units_Z   4
loop_
 _symmetry_equiv_pos_site_id
 _symmetry_equiv_pos_as_xyz
  1  'x, y, z'
loop_
 _atom_site_type_symbol
 _atom_site_label
 _atom_site_symmetry_multiplicity
 _atom_site_fract_x
 _atom_site_fract_y
 _atom_site_fract_z
 _atom_site_occupancy
  Ti  Ti0  1  0.815296  0.815296  0.184704  1
  Ti  Ti1  1  0.065296  0.434704  0.434704  1
  Ti  Ti2  1  0.434704  0.065296  0.065296  1
  Ti  Ti3  1  0.065296  0.065296  0.434704  1
  Ti  Ti4  1  0.065296  0.434704  0.065296  1
  Ti  Ti5  1  0.434704  0.065296  0.434704  1
  Ti  Ti6  1  0.184704  0.815296  0.184704  1
  Ti  Ti7  1  0.184704  0.815296  0.815296  1
  Ti  Ti8  1  0.815296  0.184704  0.184704  1
  Ti  Ti9  1  0.815296  0.184704  0.815296  1
  Ti  Ti10  1  0.434704  0.434704  0.065296  1
  Ti  Ti11  1  0.184704  0.184704  0.815296  1
  Al  Al12  1  0.414769  0.755691  0.414769  1
  Al  Al13  1  0.835231  0.835231  0.494309  1
  Al  Al14  1  0.494309  0.835231  0.835231  1
  Al  Al15  1  0.835231  0.835231  0.835231  1
  Al  Al16  1  0.755691  0.414769  0.414769  1
  Al  Al17  1  0.414769  0.414769  0.414769  1
  Al  Al18  1  0.414769  0.414769  0.755691  1
  Al  Al19  1  0.835231  0.494309  0.835231  1
  Ir  Ir20  1  0.625000  0.125000  0.625000  1
  Ir  Ir21  1  0.625000  0.625000  0.125000  1
  Ir  Ir22  1  0.125000  0.625000  0.625000  1
  Ir  Ir23  1  0.625000  0.625000  0.625000  1
  N  N24  1  0.125000  0.625000  0.125000  1
  N  N25  1  0.125000  0.125000  0.625000  1
  N  N26  1  0.625000  0.125000  0.125000  1
  N  N27  1  0.125000  0.125000  0.125000  1
