# generated using pymatgen
data_Ac3Pr(MgSi2)4
_symmetry_space_group_name_H-M   'P 1'
_cell_length_a   18.90853234
_cell_length_b   4.41631231
_cell_length_c   4.39942400
_cell_angle_alpha   90.00000000
_cell_angle_beta   96.68059485
_cell_angle_gamma   96.70636238
_symmetry_Int_Tables_number   1
_chemical_formula_structural   Ac3Pr(MgSi2)4
_chemical_formula_sum   'Ac3 Pr1 Mg4 Si8'
_cell_volume   362.35275092
_cell_formula_units_Z   1
loop_
 _symmetry_equiv_pos_site_id
 _symmetry_equiv_pos_as_xyz
  1  'x, y, z'
loop_
 _atom_site_type_symbol
 _atom_site_label
 _atom_site_symmetry_multiplicity
 _atom_site_fract_x
 _atom_site_fract_y
 _atom_site_fract_z
 _atom_site_occupancy
  Ac  Ac0  1  0.595614  0.797808  0.047806  1
  Ac  Ac1  1  0.902868  0.951435  0.201434  1
  Ac  Ac2  1  0.097662  0.048831  0.798832  1
  Pr  Pr3  1  0.403859  0.201930  0.951931  1
  Mg  Mg4  1  0.749545  0.374773  0.124772  1
  Mg  Mg5  1  0.252316  0.126158  0.376158  1
  Mg  Mg6  1  0.749559  0.874780  0.624780  1
  Mg  Mg7  1  0.252196  0.626098  0.876099  1
  Si  Si8  1  0.029505  0.514753  0.264753  1
  Si  Si9  1  0.156309  0.578156  0.328155  1
  Si  Si10  1  0.345742  0.672872  0.422871  1
  Si  Si11  1  0.469944  0.734973  0.484973  1
  Si  Si12  1  0.525890  0.262946  0.512946  1
  Si  Si13  1  0.653170  0.326585  0.576585  1
  Si  Si14  1  0.844663  0.422332  0.672332  1
  Si  Si15  1  0.971159  0.485579  0.735580  1
