# generated using pymatgen
data_LiHo3ThCo
_symmetry_space_group_name_H-M   'P 1'
_cell_length_a   9.52561065
_cell_length_b   9.52560979
_cell_length_c   9.52561100
_cell_angle_alpha   59.99999926
_cell_angle_beta   60.00000227
_cell_angle_gamma   60.00000452
_symmetry_Int_Tables_number   1
_chemical_formula_structural   LiHo3ThCo
_chemical_formula_sum   'Li4 Ho12 Th4 Co4'
_cell_volume   611.17203918
_cell_formula_units_Z   4
loop_
 _symmetry_equiv_pos_site_id
 _symmetry_equiv_pos_as_xyz
  1  'x, y, z'
loop_
 _atom_site_type_symbol
 _atom_site_label
 _atom_site_symmetry_multiplicity
 _atom_site_fract_x
 _atom_site_fract_y
 _atom_site_fract_z
 _atom_site_occupancy
  Li  Li0  1  0.579505  0.579505  0.579505  1
  Li  Li1  1  0.579505  0.579505  0.261484  1
  Li  Li2  1  0.579505  0.261484  0.579505  1
  Li  Li3  1  0.261484  0.579505  0.579505  1
  Ho  Ho4  1  0.814973  0.185027  0.185027  1
  Ho  Ho5  1  0.185027  0.814973  0.814973  1
  Ho  Ho6  1  0.185027  0.814973  0.185027  1
  Ho  Ho7  1  0.814973  0.185027  0.814973  1
  Ho  Ho8  1  0.185027  0.185027  0.814973  1
  Ho  Ho9  1  0.814973  0.814973  0.185027  1
  Ho  Ho10  1  0.935409  0.564591  0.564591  1
  Ho  Ho11  1  0.564591  0.935409  0.935409  1
  Ho  Ho12  1  0.564591  0.935409  0.564591  1
  Ho  Ho13  1  0.935409  0.564591  0.935409  1
  Ho  Ho14  1  0.564591  0.564591  0.935409  1
  Ho  Ho15  1  0.935409  0.935409  0.564591  1
  Th  Th16  1  0.344781  0.344781  0.344781  1
  Th  Th17  1  0.344781  0.344781  0.965659  1
  Th  Th18  1  0.344781  0.965659  0.344781  1
  Th  Th19  1  0.965659  0.344781  0.344781  1
  Co  Co20  1  0.145071  0.145071  0.145071  1
  Co  Co21  1  0.145071  0.145071  0.564786  1
  Co  Co22  1  0.145071  0.564786  0.145071  1
  Co  Co23  1  0.564786  0.145071  0.145071  1
