# generated using pymatgen
data_Ta2TiAl2RhC
_symmetry_space_group_name_H-M   'P 1'
_cell_length_a   8.26297524
_cell_length_b   8.27119125
_cell_length_c   8.25758500
_cell_angle_alpha   60.05440581
_cell_angle_beta   60.02158079
_cell_angle_gamma   59.94701377
_symmetry_Int_Tables_number   1
_chemical_formula_structural   Ta2TiAl2RhC
_chemical_formula_sum   'Ta8 Ti4 Al8 Rh4 C4'
_cell_volume   399.13264464
_cell_formula_units_Z   4
loop_
 _symmetry_equiv_pos_site_id
 _symmetry_equiv_pos_as_xyz
  1  'x, y, z'
loop_
 _atom_site_type_symbol
 _atom_site_label
 _atom_site_symmetry_multiplicity
 _atom_site_fract_x
 _atom_site_fract_y
 _atom_site_fract_z
 _atom_site_occupancy
  Ta  Ta0  1  0.938788  0.935946  0.562633  1
  Ta  Ta1  1  0.689409  0.313107  0.310094  1
  Ta  Ta2  1  0.311721  0.687755  0.687321  1
  Ta  Ta3  1  0.687186  0.686154  0.313330  1
  Ta  Ta4  1  0.689409  0.313107  0.687390  1
  Ta  Ta5  1  0.311721  0.687755  0.313203  1
  Ta  Ta6  1  0.562085  0.937304  0.562723  1
  Ta  Ta7  1  0.562085  0.937304  0.937888  1
  Ti  Ti8  1  0.938797  0.563930  0.560588  1
  Ti  Ti9  1  0.938797  0.563930  0.936685  1
  Ti  Ti10  1  0.310017  0.314676  0.687653  1
  Ti  Ti11  1  0.560055  0.564178  0.937883  1
  Al  Al12  1  0.916217  0.254536  0.914624  1
  Al  Al13  1  0.332365  0.333575  0.998436  1
  Al  Al14  1  0.001072  0.334166  0.332380  1
  Al  Al15  1  0.332365  0.333575  0.335623  1
  Al  Al16  1  0.250576  0.915380  0.917023  1
  Al  Al17  1  0.917131  0.914011  0.917473  1
  Al  Al18  1  0.917131  0.914011  0.251387  1
  Al  Al19  1  0.333762  0.999521  0.333358  1
  Rh  Rh20  1  0.125741  0.624353  0.124953  1
  Rh  Rh21  1  0.124379  0.124018  0.625473  1
  Rh  Rh22  1  0.625062  0.125213  0.124863  1
  Rh  Rh23  1  0.124379  0.124018  0.126131  1
  C  C24  1  0.620441  0.130215  0.624672  1
  C  C25  1  0.628111  0.623833  0.119744  1
  C  C26  1  0.123086  0.620599  0.628157  1
  C  C27  1  0.628111  0.623833  0.628311  1
