# generated using pymatgen
data_Y8Lu12(BiSb3)3
_symmetry_space_group_name_H-M   'P 1'
_cell_length_a   8.06757821
_cell_length_b   9.24416860
_cell_length_c   11.85312917
_cell_angle_alpha   90.03609083
_cell_angle_beta   89.94061708
_cell_angle_gamma   90.02003030
_symmetry_Int_Tables_number   1
_chemical_formula_structural   Y8Lu12(BiSb3)3
_chemical_formula_sum   'Y8 Lu12 Bi3 Sb9'
_cell_volume   883.98259368
_cell_formula_units_Z   1
loop_
 _symmetry_equiv_pos_site_id
 _symmetry_equiv_pos_as_xyz
  1  'x, y, z'
loop_
 _atom_site_type_symbol
 _atom_site_label
 _atom_site_symmetry_multiplicity
 _atom_site_fract_x
 _atom_site_fract_y
 _atom_site_fract_z
 _atom_site_occupancy
  Y  Y0  1  0.184502  0.750869  0.718647  1
  Y  Y1  1  0.684676  0.749037  0.781310  1
  Y  Y2  1  0.813210  0.248499  0.281764  1
  Y  Y3  1  0.316936  0.247472  0.219362  1
  Y  Y4  1  0.355148  0.751786  0.215475  1
  Y  Y5  1  0.850942  0.752266  0.285739  1
  Y  Y6  1  0.646987  0.249661  0.785335  1
  Y  Y7  1  0.146902  0.250469  0.714646  1
  Lu  Lu8  1  0.026062  0.749982  0.989344  1
  Lu  Lu9  1  0.526905  0.752071  0.509135  1
  Lu  Lu10  1  0.973548  0.249899  0.010703  1
  Lu  Lu11  1  0.474443  0.248113  0.488098  1
  Lu  Lu12  1  0.309052  0.435252  0.941288  1
  Lu  Lu13  1  0.807654  0.064268  0.557465  1
  Lu  Lu14  1  0.690219  0.935610  0.060382  1
  Lu  Lu15  1  0.191378  0.564837  0.441088  1
  Lu  Lu16  1  0.689394  0.564484  0.058441  1
  Lu  Lu17  1  0.191361  0.936095  0.440885  1
  Lu  Lu18  1  0.310567  0.064310  0.941516  1
  Lu  Lu19  1  0.810290  0.435435  0.558394  1
  Bi  Bi20  1  0.066119  0.503836  0.172304  1
  Bi  Bi21  1  0.434111  0.496242  0.671858  1
  Bi  Bi22  1  0.933906  0.003748  0.827811  1
  Sb  Sb23  1  0.434661  0.004134  0.670966  1
  Sb  Sb24  1  0.934649  0.495842  0.829181  1
  Sb  Sb25  1  0.565229  0.504085  0.329163  1
  Sb  Sb26  1  0.065456  0.995890  0.170703  1
  Sb  Sb27  1  0.565451  0.995880  0.329036  1
  Sb  Sb28  1  0.405534  0.749946  0.958375  1
  Sb  Sb29  1  0.906013  0.750041  0.541776  1
  Sb  Sb30  1  0.594383  0.249908  0.041678  1
  Sb  Sb31  1  0.094312  0.250033  0.458133  1
