# generated using pymatgen
data_TbGdCSe
_symmetry_space_group_name_H-M   'P 1'
_cell_length_a   6.98882611
_cell_length_b   6.98882559
_cell_length_c   6.98882625
_cell_angle_alpha   31.55552135
_cell_angle_beta   31.55553145
_cell_angle_gamma   31.55552470
_symmetry_Int_Tables_number   1
_chemical_formula_structural   TbGdCSe
_chemical_formula_sum   'Tb1 Gd1 C1 Se1'
_cell_volume   83.00562400
_cell_formula_units_Z   1
loop_
 _symmetry_equiv_pos_site_id
 _symmetry_equiv_pos_as_xyz
  1  'x, y, z'
loop_
 _atom_site_type_symbol
 _atom_site_label
 _atom_site_symmetry_multiplicity
 _atom_site_fract_x
 _atom_site_fract_y
 _atom_site_fract_z
 _atom_site_occupancy
  Tb  Tb0  1  0.515309  0.515309  0.515309  1
  Gd  Gd1  1  0.984543  0.984543  0.984543  1
  C  C2  1  0.249646  0.249646  0.249646  1
  Se  Se3  1  0.750503  0.750503  0.750503  1
