# generated using pymatgen
data_Nb3Si2TcN
_symmetry_space_group_name_H-M   'P 1'
_cell_length_a   8.20530785
_cell_length_b   8.20530905
_cell_length_c   8.20530900
_cell_angle_alpha   60.00000424
_cell_angle_beta   59.99999939
_cell_angle_gamma   59.99999979
_symmetry_Int_Tables_number   1
_chemical_formula_structural   Nb3Si2TcN
_chemical_formula_sum   'Nb12 Si8 Tc4 N4'
_cell_volume   390.63376279
_cell_formula_units_Z   4
loop_
 _symmetry_equiv_pos_site_id
 _symmetry_equiv_pos_as_xyz
  1  'x, y, z'
loop_
 _atom_site_type_symbol
 _atom_site_label
 _atom_site_symmetry_multiplicity
 _atom_site_fract_x
 _atom_site_fract_y
 _atom_site_fract_z
 _atom_site_occupancy
  Nb  Nb0  1  0.810339  0.810339  0.189661  1
  Nb  Nb1  1  0.189661  0.189661  0.810339  1
  Nb  Nb2  1  0.810339  0.189661  0.810339  1
  Nb  Nb3  1  0.189661  0.810339  0.189661  1
  Nb  Nb4  1  0.189661  0.810339  0.810339  1
  Nb  Nb5  1  0.810339  0.189661  0.189661  1
  Nb  Nb6  1  0.439661  0.439661  0.060339  1
  Nb  Nb7  1  0.060339  0.060339  0.439661  1
  Nb  Nb8  1  0.439661  0.060339  0.439661  1
  Nb  Nb9  1  0.060339  0.439661  0.060339  1
  Nb  Nb10  1  0.060339  0.439661  0.439661  1
  Nb  Nb11  1  0.439661  0.060339  0.060339  1
  Si  Si12  1  0.757074  0.414309  0.414309  1
  Si  Si13  1  0.414309  0.757074  0.414309  1
  Si  Si14  1  0.414309  0.414309  0.757074  1
  Si  Si15  1  0.414309  0.414309  0.414309  1
  Si  Si16  1  0.492926  0.835691  0.835691  1
  Si  Si17  1  0.835691  0.492926  0.835691  1
  Si  Si18  1  0.835691  0.835691  0.492926  1
  Si  Si19  1  0.835691  0.835691  0.835691  1
  Tc  Tc20  1  0.125000  0.625000  0.625000  1
  Tc  Tc21  1  0.625000  0.125000  0.625000  1
  Tc  Tc22  1  0.625000  0.625000  0.125000  1
  Tc  Tc23  1  0.625000  0.625000  0.625000  1
  N  N24  1  0.625000  0.125000  0.125000  1
  N  N25  1  0.125000  0.625000  0.125000  1
  N  N26  1  0.125000  0.125000  0.625000  1
  N  N27  1  0.125000  0.125000  0.125000  1
