# generated using pymatgen
data_UPt7Rh
_symmetry_space_group_name_H-M   'P 1'
_cell_length_a   6.48345084
_cell_length_b   6.48345039
_cell_length_c   6.32058463
_cell_angle_alpha   95.60974878
_cell_angle_beta   95.60973742
_cell_angle_gamma   144.03797976
_symmetry_Int_Tables_number   1
_chemical_formula_structural   UPt7Rh
_chemical_formula_sum   'U1 Pt7 Rh1'
_cell_volume   147.99524331
_cell_formula_units_Z   1
loop_
 _symmetry_equiv_pos_site_id
 _symmetry_equiv_pos_as_xyz
  1  'x, y, z'
loop_
 _atom_site_type_symbol
 _atom_site_label
 _atom_site_symmetry_multiplicity
 _atom_site_fract_x
 _atom_site_fract_y
 _atom_site_fract_z
 _atom_site_occupancy
  U  U0  1  0.995088  0.995088  0.990176  1
  Pt  Pt1  1  0.666044  0.666044  0.332088  1
  Pt  Pt2  1  0.665640  0.334175  0.999815  1
  Pt  Pt3  1  0.334175  0.665640  0.999815  1
  Pt  Pt4  1  0.001810  0.330175  0.331985  1
  Pt  Pt5  1  0.999021  0.666852  0.665873  1
  Pt  Pt6  1  0.666852  0.999021  0.665873  1
  Pt  Pt7  1  0.330175  0.001810  0.331985  1
  Rh  Rh8  1  0.341194  0.341194  0.682388  1
