# generated using pymatgen
data_La16PrNd3Sn16
_symmetry_space_group_name_H-M   'P 1'
_cell_length_a   8.45159801
_cell_length_b   8.61183722
_cell_length_c   16.33781800
_cell_angle_alpha   90.00000000
_cell_angle_beta   90.00000000
_cell_angle_gamma   89.98923604
_symmetry_Int_Tables_number   1
_chemical_formula_structural   La16PrNd3Sn16
_chemical_formula_sum   'La16 Pr1 Nd3 Sn16'
_cell_volume   1189.12823259
_cell_formula_units_Z   1
loop_
 _symmetry_equiv_pos_site_id
 _symmetry_equiv_pos_as_xyz
  1  'x, y, z'
loop_
 _atom_site_type_symbol
 _atom_site_label
 _atom_site_symmetry_multiplicity
 _atom_site_fract_x
 _atom_site_fract_y
 _atom_site_fract_z
 _atom_site_occupancy
  La  La0  1  0.017721  0.181257  0.400808  1
  La  La1  1  0.369216  0.837595  0.119687  1
  La  La2  1  0.130947  0.337531  0.619850  1
  La  La3  1  0.482163  0.681353  0.900705  1
  La  La4  1  0.868967  0.662458  0.119675  1
  La  La5  1  0.130947  0.337531  0.880150  1
  La  La6  1  0.482163  0.681353  0.599295  1
  La  La7  1  0.630932  0.162505  0.619797  1
  La  La8  1  0.868967  0.662458  0.380325  1
  La  La9  1  0.017721  0.181257  0.099192  1
  La  La10  1  0.982192  0.818590  0.900737  1
  La  La11  1  0.630932  0.162505  0.880203  1
  La  La12  1  0.517951  0.318475  0.099147  1
  La  La13  1  0.369216  0.837595  0.380313  1
  La  La14  1  0.982192  0.818590  0.599263  1
  La  La15  1  0.517951  0.318475  0.400853  1
  Pr  Pr16  1  0.198418  0.501605  0.250000  1
  Nd  Nd17  1  0.698781  0.998372  0.250000  1
  Nd  Nd18  1  0.301110  0.001400  0.750000  1
  Nd  Nd19  1  0.801239  0.498546  0.750000  1
  Sn  Sn20  1  0.790502  0.464870  0.542886  1
  Sn  Sn21  1  0.709537  0.964891  0.457129  1
  Sn  Sn22  1  0.678132  0.856168  0.750000  1
  Sn  Sn23  1  0.209563  0.535424  0.457529  1
  Sn  Sn24  1  0.290502  0.035111  0.957101  1
  Sn  Sn25  1  0.821231  0.355866  0.250000  1
  Sn  Sn26  1  0.790502  0.464870  0.957114  1
  Sn  Sn27  1  0.568181  0.614769  0.250000  1
  Sn  Sn28  1  0.209563  0.535424  0.042471  1
  Sn  Sn29  1  0.432489  0.385174  0.750000  1
  Sn  Sn30  1  0.178123  0.643903  0.750000  1
  Sn  Sn31  1  0.932501  0.114837  0.750000  1
  Sn  Sn32  1  0.290502  0.035111  0.542899  1
  Sn  Sn33  1  0.709537  0.964891  0.042871  1
  Sn  Sn34  1  0.322095  0.143164  0.250000  1
  Sn  Sn35  1  0.067310  0.886079  0.250000  1
