# generated using pymatgen
data_Rb5As6
_symmetry_space_group_name_H-M   'P 1'
_cell_length_a   16.55718935
_cell_length_b   16.55719008
_cell_length_c   5.47360400
_cell_angle_alpha   90.00000000
_cell_angle_beta   90.00000000
_cell_angle_gamma   164.55704549
_symmetry_Int_Tables_number   1
_chemical_formula_structural   Rb5As6
_chemical_formula_sum   'Rb5 As6'
_cell_volume   399.56114842
_cell_formula_units_Z   1
loop_
 _symmetry_equiv_pos_site_id
 _symmetry_equiv_pos_as_xyz
  1  'x, y, z'
loop_
 _atom_site_type_symbol
 _atom_site_label
 _atom_site_symmetry_multiplicity
 _atom_site_fract_x
 _atom_site_fract_y
 _atom_site_fract_z
 _atom_site_occupancy
  Rb  Rb0  1  0.000000  0.000000  0.000000  1
  Rb  Rb1  1  0.617747  0.382251  0.000000  1
  Rb  Rb2  1  0.382251  0.617747  0.000000  1
  Rb  Rb3  1  0.805341  0.194657  0.500001  1
  Rb  Rb4  1  0.194657  0.805341  0.500001  1
  As  As5  1  0.733815  0.266183  0.000000  1
  As  As6  1  0.266183  0.733815  0.000000  1
  As  As7  1  0.920311  0.079688  0.500001  1
  As  As8  1  0.549399  0.450599  0.500001  1
  As  As9  1  0.450599  0.549399  0.500001  1
  As  As10  1  0.079688  0.920311  0.500001  1
