# generated using pymatgen
data_K6Li2Sn5Pb3
_symmetry_space_group_name_H-M   'P 1'
_cell_length_a   8.74334728
_cell_length_b   8.78238572
_cell_length_c   10.39410000
_cell_angle_alpha   90.00000000
_cell_angle_beta   90.00000000
_cell_angle_gamma   133.78779293
_symmetry_Int_Tables_number   1
_chemical_formula_structural   K6Li2Sn5Pb3
_chemical_formula_sum   'K6 Li2 Sn5 Pb3'
_cell_volume   576.18080466
_cell_formula_units_Z   1
loop_
 _symmetry_equiv_pos_site_id
 _symmetry_equiv_pos_as_xyz
  1  'x, y, z'
loop_
 _atom_site_type_symbol
 _atom_site_label
 _atom_site_symmetry_multiplicity
 _atom_site_fract_x
 _atom_site_fract_y
 _atom_site_fract_z
 _atom_site_occupancy
  K  K0  1  0.230484  0.771682  0.250000  1
  K  K1  1  0.770214  0.228954  0.750000  1
  K  K2  1  0.611275  0.384194  0.048858  1
  K  K3  1  0.385042  0.612681  0.955369  1
  K  K4  1  0.385042  0.612681  0.544631  1
  K  K5  1  0.611275  0.384194  0.451142  1
  Li  Li6  1  0.003660  0.002641  0.001842  1
  Li  Li7  1  0.003660  0.002641  0.498158  1
  Sn  Sn8  1  0.192245  0.272619  0.250000  1
  Sn  Sn9  1  0.833432  0.173309  0.107891  1
  Sn  Sn10  1  0.170904  0.829787  0.892201  1
  Sn  Sn11  1  0.170904  0.829787  0.607799  1
  Sn  Sn12  1  0.833432  0.173309  0.392109  1
  Pb  Pb13  1  0.797328  0.720394  0.750000  1
  Pb  Pb14  1  0.721757  0.799515  0.250000  1
  Pb  Pb15  1  0.279345  0.201610  0.750000  1
