# generated using pymatgen
data_Dy4Sc3GaPt4
_symmetry_space_group_name_H-M   'P 1'
_cell_length_a   4.49671800
_cell_length_b   7.02959755
_cell_length_c   8.33102183
_cell_angle_alpha   93.49295622
_cell_angle_beta   90.00000000
_cell_angle_gamma   90.00000000
_symmetry_Int_Tables_number   1
_chemical_formula_structural   Dy4Sc3GaPt4
_chemical_formula_sum   'Dy4 Sc3 Ga1 Pt4'
_cell_volume   262.85536554
_cell_formula_units_Z   1
loop_
 _symmetry_equiv_pos_site_id
 _symmetry_equiv_pos_as_xyz
  1  'x, y, z'
loop_
 _atom_site_type_symbol
 _atom_site_label
 _atom_site_symmetry_multiplicity
 _atom_site_fract_x
 _atom_site_fract_y
 _atom_site_fract_z
 _atom_site_occupancy
  Dy  Dy0  1  0.250000  0.981458  0.312094  1
  Dy  Dy1  1  0.250000  0.460139  0.170008  1
  Dy  Dy2  1  0.750000  0.031335  0.684726  1
  Dy  Dy3  1  0.750000  0.506214  0.842059  1
  Sc  Sc4  1  0.250000  0.370961  0.571254  1
  Sc  Sc5  1  0.250000  0.860430  0.936243  1
  Sc  Sc6  1  0.750000  0.639237  0.428291  1
  Ga  Ga7  1  0.750000  0.137922  0.069911  1
  Pt  Pt8  1  0.250000  0.236242  0.877175  1
  Pt  Pt9  1  0.250000  0.756562  0.598307  1
  Pt  Pt10  1  0.750000  0.762003  0.115398  1
  Pt  Pt11  1  0.750000  0.257497  0.394535  1
