# generated using pymatgen
data_Rb16Si3BiSe16
_symmetry_space_group_name_H-M   'P 1'
_cell_length_a   8.72578705
_cell_length_b   10.34589100
_cell_length_c   15.19722400
_cell_angle_alpha   90.00000000
_cell_angle_beta   90.03923340
_cell_angle_gamma   90.00000000
_symmetry_Int_Tables_number   1
_chemical_formula_structural   Rb16Si3BiSe16
_chemical_formula_sum   'Rb16 Si3 Bi1 Se16'
_cell_volume   1371.94490536
_cell_formula_units_Z   1
loop_
 _symmetry_equiv_pos_site_id
 _symmetry_equiv_pos_as_xyz
  1  'x, y, z'
loop_
 _atom_site_type_symbol
 _atom_site_label
 _atom_site_symmetry_multiplicity
 _atom_site_fract_x
 _atom_site_fract_y
 _atom_site_fract_z
 _atom_site_occupancy
  Rb  Rb0  1  0.992954  0.993135  0.000250  1
  Rb  Rb1  1  0.502244  0.005555  0.496952  1
  Rb  Rb2  1  0.992954  0.506865  0.000250  1
  Rb  Rb3  1  0.502244  0.494445  0.496952  1
  Rb  Rb4  1  0.991751  0.750000  0.417998  1
  Rb  Rb5  1  0.498021  0.250000  0.085620  1
  Rb  Rb6  1  0.006485  0.250000  0.575723  1
  Rb  Rb7  1  0.538170  0.750000  0.921897  1
  Rb  Rb8  1  0.833120  0.050457  0.279058  1
  Rb  Rb9  1  0.329811  0.949872  0.220670  1
  Rb  Rb10  1  0.171042  0.555522  0.720265  1
  Rb  Rb11  1  0.655482  0.456208  0.771270  1
  Rb  Rb12  1  0.171042  0.944478  0.720265  1
  Rb  Rb13  1  0.655482  0.043792  0.771270  1
  Rb  Rb14  1  0.833120  0.449543  0.279058  1
  Rb  Rb15  1  0.329811  0.550128  0.220670  1
  Si  Si16  1  0.771365  0.750000  0.660855  1
  Si  Si17  1  0.233215  0.250000  0.334386  1
  Si  Si18  1  0.732924  0.750000  0.169241  1
  Bi  Bi19  1  0.259754  0.250000  0.839699  1
  Se  Se20  1  0.945747  0.250000  0.834563  1
  Se  Se21  1  0.500413  0.250000  0.324510  1
  Se  Se22  1  0.504004  0.750000  0.671480  1
  Se  Se23  1  0.999720  0.750000  0.177147  1
  Se  Se24  1  0.652321  0.568324  0.094920  1
  Se  Se25  1  0.152504  0.432049  0.408317  1
  Se  Se26  1  0.358541  0.037939  0.925958  1
  Se  Se27  1  0.852310  0.932262  0.587827  1
  Se  Se28  1  0.358541  0.462061  0.925958  1
  Se  Se29  1  0.852310  0.567738  0.587827  1
  Se  Se30  1  0.652321  0.931676  0.094920  1
  Se  Se31  1  0.152504  0.067951  0.408317  1
  Se  Se32  1  0.630840  0.750000  0.310548  1
  Se  Se33  1  0.131612  0.250000  0.192466  1
  Se  Se34  1  0.379437  0.250000  0.670423  1
  Se  Se35  1  0.875879  0.750000  0.802467  1
