# generated using pymatgen
data_Tb9Er3(LuPt2)8
_symmetry_space_group_name_H-M   'P 1'
_cell_length_a   7.45510602
_cell_length_b   7.53129318
_cell_length_c   14.62957300
_cell_angle_alpha   89.99259771
_cell_angle_beta   90.00424236
_cell_angle_gamma   90.01005792
_symmetry_Int_Tables_number   1
_chemical_formula_structural   Tb9Er3(LuPt2)8
_chemical_formula_sum   'Tb9 Er3 Lu8 Pt16'
_cell_volume   821.40060246
_cell_formula_units_Z   1
loop_
 _symmetry_equiv_pos_site_id
 _symmetry_equiv_pos_as_xyz
  1  'x, y, z'
loop_
 _atom_site_type_symbol
 _atom_site_label
 _atom_site_symmetry_multiplicity
 _atom_site_fract_x
 _atom_site_fract_y
 _atom_site_fract_z
 _atom_site_occupancy
  Tb  Tb0  1  0.656286  0.832556  0.877998  1
  Tb  Tb1  1  0.998109  0.820462  0.406020  1
  Tb  Tb2  1  0.497757  0.679244  0.094413  1
  Tb  Tb3  1  0.501972  0.320631  0.593726  1
  Tb  Tb4  1  0.002418  0.180123  0.906172  1
  Tb  Tb5  1  0.001221  0.178149  0.593138  1
  Tb  Tb6  1  0.501011  0.321864  0.906734  1
  Tb  Tb7  1  0.498546  0.678254  0.406683  1
  Tb  Tb8  1  0.998820  0.821682  0.093404  1
  Er  Er9  1  0.343809  0.167303  0.377721  1
  Er  Er10  1  0.844021  0.332718  0.122608  1
  Er  Er11  1  0.156140  0.667245  0.622059  1
  Lu  Lu12  1  0.680583  0.990507  0.250022  1
  Lu  Lu13  1  0.180538  0.509481  0.250126  1
  Lu  Lu14  1  0.819753  0.490049  0.749677  1
  Lu  Lu15  1  0.319001  0.009878  0.749599  1
  Lu  Lu16  1  0.656692  0.832105  0.623131  1
  Lu  Lu17  1  0.156715  0.667722  0.876589  1
  Lu  Lu18  1  0.843338  0.332220  0.376649  1
  Lu  Lu19  1  0.343151  0.167991  0.123526  1
  Pt  Pt20  1  0.817325  0.642762  0.250812  1
  Pt  Pt21  1  0.317142  0.857194  0.249340  1
  Pt  Pt22  1  0.682873  0.143290  0.748840  1
  Pt  Pt23  1  0.182437  0.356991  0.750653  1
  Pt  Pt24  1  0.545193  0.384415  0.250170  1
  Pt  Pt25  1  0.045222  0.115692  0.250021  1
  Pt  Pt26  1  0.955484  0.884668  0.749466  1
  Pt  Pt27  1  0.454319  0.614906  0.749586  1
  Pt  Pt28  1  0.814980  0.534101  0.541447  1
  Pt  Pt29  1  0.313830  0.966300  0.958797  1
  Pt  Pt30  1  0.685123  0.034122  0.458434  1
  Pt  Pt31  1  0.185456  0.466072  0.041635  1
  Pt  Pt32  1  0.178405  0.466848  0.456145  1
  Pt  Pt33  1  0.678171  0.033764  0.044544  1
  Pt  Pt34  1  0.321747  0.966929  0.543732  1
  Pt  Pt35  1  0.822411  0.531762  0.956383  1
