# generated using pymatgen
data_La2Lu4NiRh17
_symmetry_space_group_name_H-M   'P 1'
_cell_length_a   5.26430100
_cell_length_b   5.26434532
_cell_length_c   17.34188800
_cell_angle_alpha   90.00000000
_cell_angle_beta   90.00000000
_cell_angle_gamma   120.00034358
_symmetry_Int_Tables_number   1
_chemical_formula_structural   La2Lu4NiRh17
_chemical_formula_sum   'La2 Lu4 Ni1 Rh17'
_cell_volume   416.20815772
_cell_formula_units_Z   1
loop_
 _symmetry_equiv_pos_site_id
 _symmetry_equiv_pos_as_xyz
  1  'x, y, z'
loop_
 _atom_site_type_symbol
 _atom_site_label
 _atom_site_symmetry_multiplicity
 _atom_site_fract_x
 _atom_site_fract_y
 _atom_site_fract_z
 _atom_site_occupancy
  La  La0  1  0.333257  0.666464  0.750000  1
  La  La1  1  0.666388  0.333677  0.250000  1
  Lu  Lu2  1  0.333112  0.666774  0.960178  1
  Lu  Lu3  1  0.666530  0.333574  0.040899  1
  Lu  Lu4  1  0.666530  0.333574  0.459101  1
  Lu  Lu5  1  0.333112  0.666774  0.539822  1
  Ni  Ni6  1  0.334247  0.667490  0.250000  1
  Rh  Rh7  1  0.168998  0.830921  0.374099  1
  Rh  Rh8  1  0.169128  0.338153  0.373992  1
  Rh  Rh9  1  0.661809  0.830816  0.374020  1
  Rh  Rh10  1  0.832444  0.167158  0.622082  1
  Rh  Rh11  1  0.832485  0.664828  0.622025  1
  Rh  Rh12  1  0.335045  0.167343  0.622056  1
  Rh  Rh13  1  0.832444  0.167158  0.877918  1
  Rh  Rh14  1  0.832485  0.664828  0.877975  1
  Rh  Rh15  1  0.335045  0.167343  0.877944  1
  Rh  Rh16  1  0.168998  0.830921  0.125901  1
  Rh  Rh17  1  0.169128  0.338153  0.126008  1
  Rh  Rh18  1  0.661809  0.830816  0.125980  1
  Rh  Rh19  1  0.666630  0.333137  0.750000  1
  Rh  Rh20  1  0.000574  0.000234  0.250000  1
  Rh  Rh21  1  0.999996  0.999753  0.750000  1
  Rh  Rh22  1  0.999901  0.000056  0.497300  1
  Rh  Rh23  1  0.999901  0.000056  0.002700  1
