# generated using pymatgen
data_Dy8Sc12Ga13Sb3
_symmetry_space_group_name_H-M   'P 1'
_cell_length_a   7.32668037
_cell_length_b   7.66017877
_cell_length_c   14.44392600
_cell_angle_alpha   90.00000000
_cell_angle_beta   90.00000000
_cell_angle_gamma   89.78357551
_symmetry_Int_Tables_number   1
_chemical_formula_structural   Dy8Sc12Ga13Sb3
_chemical_formula_sum   'Dy8 Sc12 Ga13 Sb3'
_cell_volume   810.64051855
_cell_formula_units_Z   1
loop_
 _symmetry_equiv_pos_site_id
 _symmetry_equiv_pos_as_xyz
  1  'x, y, z'
loop_
 _atom_site_type_symbol
 _atom_site_label
 _atom_site_symmetry_multiplicity
 _atom_site_fract_x
 _atom_site_fract_y
 _atom_site_fract_z
 _atom_site_occupancy
  Dy  Dy0  1  0.011171  0.171982  0.090103  1
  Dy  Dy1  1  0.995454  0.827356  0.908892  1
  Dy  Dy2  1  0.481154  0.680602  0.906679  1
  Dy  Dy3  1  0.995454  0.827356  0.591108  1
  Dy  Dy4  1  0.510905  0.329093  0.088931  1
  Dy  Dy5  1  0.011171  0.171982  0.409897  1
  Dy  Dy6  1  0.510905  0.329093  0.411069  1
  Dy  Dy7  1  0.481154  0.680602  0.593321  1
  Sc  Sc8  1  0.173211  0.500918  0.750000  1
  Sc  Sc9  1  0.828534  0.509223  0.250000  1
  Sc  Sc10  1  0.329928  0.990138  0.250000  1
  Sc  Sc11  1  0.661821  0.007861  0.750000  1
  Sc  Sc12  1  0.326833  0.170725  0.622168  1
  Sc  Sc13  1  0.673671  0.822434  0.380334  1
  Sc  Sc14  1  0.173101  0.676948  0.379493  1
  Sc  Sc15  1  0.673671  0.822434  0.119666  1
  Sc  Sc16  1  0.829199  0.320232  0.620732  1
  Sc  Sc17  1  0.326833  0.170725  0.877832  1
  Sc  Sc18  1  0.829199  0.320232  0.879268  1
  Sc  Sc19  1  0.173101  0.676948  0.120507  1
  Ga  Ga20  1  0.031719  0.118496  0.750000  1
  Ga  Ga21  1  0.973886  0.871615  0.250000  1
  Ga  Ga22  1  0.473808  0.629443  0.250000  1
  Ga  Ga23  1  0.526948  0.372429  0.750000  1
  Ga  Ga24  1  0.285195  0.872097  0.750000  1
  Ga  Ga25  1  0.158179  0.464394  0.541723  1
  Ga  Ga26  1  0.842225  0.532654  0.458625  1
  Ga  Ga27  1  0.342966  0.967542  0.457199  1
  Ga  Ga28  1  0.842225  0.532654  0.041375  1
  Ga  Ga29  1  0.660436  0.032957  0.541404  1
  Ga  Ga30  1  0.158179  0.464394  0.958277  1
  Ga  Ga31  1  0.660436  0.032957  0.958596  1
  Ga  Ga32  1  0.342966  0.967542  0.042801  1
  Sb  Sb33  1  0.707479  0.136126  0.250000  1
  Sb  Sb34  1  0.207582  0.364149  0.250000  1
  Sb  Sb35  1  0.789301  0.633668  0.750000  1
