# generated using pymatgen
data_Y4Ho4Ti11Si16Ir
_symmetry_space_group_name_H-M   'P 1'
_cell_length_a   7.03041875
_cell_length_b   7.03030920
_cell_length_c   12.86825041
_cell_angle_alpha   90.12608650
_cell_angle_beta   89.87735316
_cell_angle_gamma   89.83666059
_symmetry_Int_Tables_number   1
_chemical_formula_structural   Y4Ho4Ti11Si16Ir
_chemical_formula_sum   'Y4 Ho4 Ti11 Si16 Ir1'
_cell_volume   636.02078076
_cell_formula_units_Z   1
loop_
 _symmetry_equiv_pos_site_id
 _symmetry_equiv_pos_as_xyz
  1  'x, y, z'
loop_
 _atom_site_type_symbol
 _atom_site_label
 _atom_site_symmetry_multiplicity
 _atom_site_fract_x
 _atom_site_fract_y
 _atom_site_fract_z
 _atom_site_occupancy
  Y  Y0  1  0.340742  0.004379  0.467445  1
  Y  Y1  1  0.496153  0.841811  0.718132  1
  Y  Y2  1  0.501266  0.157922  0.214665  1
  Y  Y3  1  0.842016  0.496193  0.281882  1
  Ho  Ho4  1  0.157780  0.500886  0.785314  1
  Ho  Ho5  1  0.657312  0.997886  0.968639  1
  Ho  Ho6  1  0.003942  0.341124  0.532767  1
  Ho  Ho7  1  0.997976  0.657247  0.031165  1
  Ti  Ti8  1  0.175360  0.826674  0.247893  1
  Ti  Ti9  1  0.827171  0.175807  0.752005  1
  Ti  Ti10  1  0.673972  0.673614  0.500125  1
  Ti  Ti11  1  0.148935  0.002481  0.875975  1
  Ti  Ti12  1  0.493706  0.656684  0.124628  1
  Ti  Ti13  1  0.506911  0.349830  0.628458  1
  Ti  Ti14  1  0.656824  0.493695  0.875234  1
  Ti  Ti15  1  0.349285  0.506689  0.371889  1
  Ti  Ti16  1  0.848823  0.993791  0.375041  1
  Ti  Ti17  1  0.002753  0.149069  0.123868  1
  Ti  Ti18  1  0.993986  0.848856  0.625231  1
  Si  Si19  1  0.201451  0.133962  0.685819  1
  Si  Si20  1  0.372036  0.700986  0.933743  1
  Si  Si21  1  0.631577  0.296751  0.434873  1
  Si  Si22  1  0.701765  0.372425  0.065819  1
  Si  Si23  1  0.295638  0.630382  0.565684  1
  Si  Si24  1  0.797080  0.867572  0.183535  1
  Si  Si25  1  0.132703  0.202074  0.314212  1
  Si  Si26  1  0.868048  0.796423  0.816509  1
  Si  Si27  1  0.285769  0.950552  0.063661  1
  Si  Si28  1  0.547651  0.791407  0.315576  1
  Si  Si29  1  0.448770  0.210500  0.818749  1
  Si  Si30  1  0.792556  0.547285  0.684345  1
  Si  Si31  1  0.210007  0.449401  0.181236  1
  Si  Si32  1  0.709654  0.048960  0.565716  1
  Si  Si33  1  0.951471  0.286149  0.936064  1
  Si  Si34  1  0.048277  0.708654  0.434488  1
  Ir  Ir35  1  0.330634  0.331880  0.999617  1
