# generated using pymatgen
data_InFeNi(Sb6Os)2
_symmetry_space_group_name_H-M   'P 1'
_cell_length_a   8.08736512
_cell_length_b   8.14096623
_cell_length_c   8.10118013
_cell_angle_alpha   109.50752859
_cell_angle_beta   109.58927432
_cell_angle_gamma   109.45900833
_symmetry_Int_Tables_number   1
_chemical_formula_structural   InFeNi(Sb6Os)2
_chemical_formula_sum   'In1 Fe1 Ni1 Sb12 Os2'
_cell_volume   409.86868424
_cell_formula_units_Z   1
loop_
 _symmetry_equiv_pos_site_id
 _symmetry_equiv_pos_as_xyz
  1  'x, y, z'
loop_
 _atom_site_type_symbol
 _atom_site_label
 _atom_site_symmetry_multiplicity
 _atom_site_fract_x
 _atom_site_fract_y
 _atom_site_fract_z
 _atom_site_occupancy
  In  In0  1  0.000000  0.000000  0.000000  1
  Fe  Fe1  1  0.000000  0.000000  0.500000  1
  Ni  Ni2  1  0.000000  0.500000  0.000000  1
  Sb  Sb3  1  0.845316  0.668786  0.503962  1
  Sb  Sb4  1  0.154684  0.331214  0.496038  1
  Sb  Sb5  1  0.153902  0.658542  0.817220  1
  Sb  Sb6  1  0.846098  0.341458  0.182780  1
  Sb  Sb7  1  0.663607  0.504899  0.846603  1
  Sb  Sb8  1  0.336393  0.495101  0.153397  1
  Sb  Sb9  1  0.667969  0.823268  0.163286  1
  Sb  Sb10  1  0.332031  0.176732  0.836714  1
  Sb  Sb11  1  0.504311  0.842744  0.660403  1
  Sb  Sb12  1  0.495689  0.157256  0.339597  1
  Sb  Sb13  1  0.176752  0.844274  0.338153  1
  Sb  Sb14  1  0.823248  0.155726  0.661847  1
  Os  Os15  1  0.500000  0.500000  0.500000  1
  Os  Os16  1  0.500000  0.000000  0.000000  1
