# generated using pymatgen
data_Ca4DyIr2
_symmetry_space_group_name_H-M   'P 1'
_cell_length_a   6.61106113
_cell_length_b   7.38748796
_cell_length_c   8.66443015
_cell_angle_alpha   97.17765372
_cell_angle_beta   112.42699366
_cell_angle_gamma   89.99999410
_symmetry_Int_Tables_number   1
_chemical_formula_structural   Ca4DyIr2
_chemical_formula_sum   'Ca8 Dy2 Ir4'
_cell_volume   387.56804605
_cell_formula_units_Z   2
loop_
 _symmetry_equiv_pos_site_id
 _symmetry_equiv_pos_as_xyz
  1  'x, y, z'
loop_
 _atom_site_type_symbol
 _atom_site_label
 _atom_site_symmetry_multiplicity
 _atom_site_fract_x
 _atom_site_fract_y
 _atom_site_fract_z
 _atom_site_occupancy
  Ca  Ca0  1  0.803508  0.081245  0.825242  1
  Ca  Ca1  1  0.978267  0.418755  0.174758  1
  Ca  Ca2  1  0.196492  0.918755  0.174758  1
  Ca  Ca3  1  0.021733  0.581245  0.825242  1
  Ca  Ca4  1  0.204852  0.182036  0.563840  1
  Ca  Ca5  1  0.641011  0.317964  0.436160  1
  Ca  Ca6  1  0.795148  0.817964  0.436160  1
  Ca  Ca7  1  0.358989  0.682036  0.563840  1
  Dy  Dy8  1  0.438092  0.250000  0.000000  1
  Dy  Dy9  1  0.561908  0.750000  0.000000  1
  Ir  Ir10  1  0.596900  0.427676  0.790646  1
  Ir  Ir11  1  0.806253  0.072324  0.209354  1
  Ir  Ir12  1  0.403100  0.572324  0.209354  1
  Ir  Ir13  1  0.193747  0.927676  0.790646  1
