# generated using pymatgen
data_K4HfSbI12
_symmetry_space_group_name_H-M   'P 1'
_cell_length_a   8.50681443
_cell_length_b   8.19613014
_cell_length_c   14.19651091
_cell_angle_alpha   54.95355967
_cell_angle_beta   89.81566351
_cell_angle_gamma   89.63244844
_symmetry_Int_Tables_number   1
_chemical_formula_structural   K4HfSbI12
_chemical_formula_sum   'K4 Hf1 Sb1 I12'
_cell_volume   810.33807316
_cell_formula_units_Z   1
loop_
 _symmetry_equiv_pos_site_id
 _symmetry_equiv_pos_as_xyz
  1  'x, y, z'
loop_
 _atom_site_type_symbol
 _atom_site_label
 _atom_site_symmetry_multiplicity
 _atom_site_fract_x
 _atom_site_fract_y
 _atom_site_fract_z
 _atom_site_occupancy
  K  K0  1  0.578950  0.723696  0.252525  1
  K  K1  1  0.078321  0.272456  0.248654  1
  K  K2  1  0.421050  0.276304  0.747475  1
  K  K3  1  0.921679  0.727544  0.751346  1
  Hf  Hf4  1  0.000000  0.000000  0.000000  1
  Sb  Sb5  1  0.500000  0.000000  0.500000  1
  I  I6  1  0.993021  0.840127  0.239663  1
  I  I7  1  0.492606  0.161589  0.251400  1
  I  I8  1  0.006979  0.159873  0.760337  1
  I  I9  1  0.507394  0.838411  0.748600  1
  I  I10  1  0.695821  0.656842  0.548108  1
  I  I11  1  0.184839  0.327884  0.956727  1
  I  I12  1  0.304179  0.343158  0.451892  1
  I  I13  1  0.815161  0.672116  0.043273  1
  I  I14  1  0.716209  0.219588  0.964667  1
  I  I15  1  0.208545  0.769508  0.538263  1
  I  I16  1  0.283791  0.780412  0.035333  1
  I  I17  1  0.791455  0.230492  0.461737  1
