# generated using pymatgen
data_MgZrScZnPt2
_symmetry_space_group_name_H-M   'P 1'
_cell_length_a   5.11967074
_cell_length_b   5.11967002
_cell_length_c   5.38756165
_cell_angle_alpha   90.94745774
_cell_angle_beta   89.05254449
_cell_angle_gamma   129.11314765
_symmetry_Int_Tables_number   1
_chemical_formula_structural   MgZrScZnPt2
_chemical_formula_sum   'Mg1 Zr1 Sc1 Zn1 Pt2'
_cell_volume   109.54942796
_cell_formula_units_Z   1
loop_
 _symmetry_equiv_pos_site_id
 _symmetry_equiv_pos_as_xyz
  1  'x, y, z'
loop_
 _atom_site_type_symbol
 _atom_site_label
 _atom_site_symmetry_multiplicity
 _atom_site_fract_x
 _atom_site_fract_y
 _atom_site_fract_z
 _atom_site_occupancy
  Mg  Mg0  1  0.002741  0.997259  0.500489  1
  Zr  Zr1  1  0.704929  0.295071  0.241947  1
  Sc  Sc2  1  0.295693  0.704307  0.755838  1
  Zn  Zn3  1  0.003723  0.996277  0.002457  1
  Pt  Pt4  1  0.389309  0.610691  0.250353  1
  Pt  Pt5  1  0.603605  0.396395  0.748915  1
