# generated using pymatgen
data_Tb3Y4LuPt4
_symmetry_space_group_name_H-M   'P 1'
_cell_length_a   4.76140600
_cell_length_b   7.17949704
_cell_length_c   8.80607155
_cell_angle_alpha   90.09802248
_cell_angle_beta   90.00000000
_cell_angle_gamma   90.00000000
_symmetry_Int_Tables_number   1
_chemical_formula_structural   Tb3Y4LuPt4
_chemical_formula_sum   'Tb3 Y4 Lu1 Pt4'
_cell_volume   301.03071503
_cell_formula_units_Z   1
loop_
 _symmetry_equiv_pos_site_id
 _symmetry_equiv_pos_as_xyz
  1  'x, y, z'
loop_
 _atom_site_type_symbol
 _atom_site_label
 _atom_site_symmetry_multiplicity
 _atom_site_fract_x
 _atom_site_fract_y
 _atom_site_fract_z
 _atom_site_occupancy
  Tb  Tb0  1  0.250000  0.854789  0.919113  1
  Tb  Tb1  1  0.250000  0.355439  0.579057  1
  Tb  Tb2  1  0.750000  0.146047  0.081115  1
  Y  Y3  1  0.250000  0.988339  0.331345  1
  Y  Y4  1  0.250000  0.492863  0.170757  1
  Y  Y5  1  0.750000  0.006894  0.666696  1
  Y  Y6  1  0.750000  0.509767  0.831387  1
  Lu  Lu7  1  0.750000  0.643740  0.420461  1
  Pt  Pt8  1  0.250000  0.259012  0.907011  1
  Pt  Pt9  1  0.250000  0.755248  0.589616  1
  Pt  Pt10  1  0.750000  0.742070  0.097460  1
  Pt  Pt11  1  0.750000  0.245794  0.405981  1
