# generated using pymatgen
data_Li6MgNp2N6
_symmetry_space_group_name_H-M   'P 1'
_cell_length_a   5.85812800
_cell_length_b   5.85812792
_cell_length_c   5.46048200
_cell_angle_alpha   90.00000000
_cell_angle_beta   90.00000000
_cell_angle_gamma   120.00001173
_symmetry_Int_Tables_number   1
_chemical_formula_structural   Li6MgNp2N6
_chemical_formula_sum   'Li6 Mg1 Np2 N6'
_cell_volume   162.28533188
_cell_formula_units_Z   1
loop_
 _symmetry_equiv_pos_site_id
 _symmetry_equiv_pos_as_xyz
  1  'x, y, z'
loop_
 _atom_site_type_symbol
 _atom_site_label
 _atom_site_symmetry_multiplicity
 _atom_site_fract_x
 _atom_site_fract_y
 _atom_site_fract_z
 _atom_site_occupancy
  Li  Li0  1  0.000216  0.663738  0.615348  1
  Li  Li1  1  0.336262  0.336478  0.615348  1
  Li  Li2  1  0.663522  0.999784  0.615348  1
  Li  Li3  1  0.013363  0.343704  0.383562  1
  Li  Li4  1  0.656296  0.669659  0.383562  1
  Li  Li5  1  0.330341  0.986637  0.383562  1
  Mg  Mg6  1  0.333333  0.666667  0.992553  1
  Np  Np7  1  0.000000  0.000000  0.000402  1
  Np  Np8  1  0.666667  0.333333  0.002864  1
  N  N9  1  0.983675  0.666640  0.224935  1
  N  N10  1  0.333360  0.317034  0.224935  1
  N  N11  1  0.682966  0.016325  0.224935  1
  N  N12  1  0.986380  0.319783  0.777551  1
  N  N13  1  0.680217  0.666597  0.777551  1
  N  N14  1  0.333403  0.013620  0.777551  1
