# generated using pymatgen
data_Y11In(Hg2Pd)4
_symmetry_space_group_name_H-M   'P 1'
_cell_length_a   13.08894422
_cell_length_b   13.08894457
_cell_length_c   3.73510200
_cell_angle_alpha   90.00000000
_cell_angle_beta   90.00000000
_cell_angle_gamma   112.72205201
_symmetry_Int_Tables_number   1
_chemical_formula_structural   Y11In(Hg2Pd)4
_chemical_formula_sum   'Y11 In1 Hg8 Pd4'
_cell_volume   590.23649541
_cell_formula_units_Z   1
loop_
 _symmetry_equiv_pos_site_id
 _symmetry_equiv_pos_as_xyz
  1  'x, y, z'
loop_
 _atom_site_type_symbol
 _atom_site_label
 _atom_site_symmetry_multiplicity
 _atom_site_fract_x
 _atom_site_fract_y
 _atom_site_fract_z
 _atom_site_occupancy
  Y  Y0  1  0.414007  0.075221  0.000000  1
  Y  Y1  1  0.585993  0.924779  0.000000  1
  Y  Y2  1  0.075221  0.414007  0.000000  1
  Y  Y3  1  0.924779  0.585993  0.000000  1
  Y  Y4  1  0.166742  0.833258  0.000000  1
  Y  Y5  1  0.833258  0.166742  0.000000  1
  Y  Y6  1  0.370868  0.629132  0.000000  1
  Y  Y7  1  0.629132  0.370868  0.000000  1
  Y  Y8  1  0.297618  0.297618  0.000000  1
  Y  Y9  1  0.702382  0.702382  0.000000  1
  Y  Y10  1  0.000000  0.000000  0.000000  1
  In  In11  1  0.500000  0.500000  0.500000  1
  Hg  Hg12  1  0.369825  0.844881  0.500000  1
  Hg  Hg13  1  0.630175  0.155119  0.500000  1
  Hg  Hg14  1  0.844883  0.369825  0.500000  1
  Hg  Hg15  1  0.155117  0.630175  0.500000  1
  Hg  Hg16  1  0.213740  0.064320  0.500000  1
  Hg  Hg17  1  0.786260  0.935680  0.500000  1
  Hg  Hg18  1  0.064319  0.213739  0.500000  1
  Hg  Hg19  1  0.935681  0.786261  0.500000  1
  Pd  Pd20  1  0.448389  0.250797  0.500000  1
  Pd  Pd21  1  0.551611  0.749203  0.500000  1
  Pd  Pd22  1  0.250798  0.448389  0.500000  1
  Pd  Pd23  1  0.749202  0.551611  0.500000  1
