# generated using pymatgen
data_Ho3Er7(Bi2As)2
_symmetry_space_group_name_H-M   'P 1'
_cell_length_a   7.99685201
_cell_length_b   9.10545101
_cell_length_c   11.99681700
_cell_angle_alpha   90.00000000
_cell_angle_beta   90.00000000
_cell_angle_gamma   89.99393632
_symmetry_Int_Tables_number   1
_chemical_formula_structural   Ho3Er7(Bi2As)2
_chemical_formula_sum   'Ho6 Er14 Bi8 As4'
_cell_volume   873.54755607
_cell_formula_units_Z   2
loop_
 _symmetry_equiv_pos_site_id
 _symmetry_equiv_pos_as_xyz
  1  'x, y, z'
loop_
 _atom_site_type_symbol
 _atom_site_label
 _atom_site_symmetry_multiplicity
 _atom_site_fract_x
 _atom_site_fract_y
 _atom_site_fract_z
 _atom_site_occupancy
  Ho  Ho0  1  0.816920  0.943699  0.062891  1
  Ho  Ho1  1  0.683080  0.556301  0.562891  1
  Ho  Ho2  1  0.634173  0.749953  0.292674  1
  Ho  Ho3  1  0.865827  0.750047  0.792674  1
  Ho  Ho4  1  0.365791  0.250004  0.707340  1
  Ho  Ho5  1  0.134209  0.249996  0.207340  1
  Er  Er6  1  0.817181  0.556458  0.062927  1
  Er  Er7  1  0.682819  0.943542  0.562927  1
  Er  Er8  1  0.182907  0.056640  0.937066  1
  Er  Er9  1  0.317093  0.443360  0.437066  1
  Er  Er10  1  0.182890  0.443430  0.937112  1
  Er  Er11  1  0.317110  0.056570  0.437112  1
  Er  Er12  1  0.156195  0.749939  0.210792  1
  Er  Er13  1  0.343805  0.750061  0.710792  1
  Er  Er14  1  0.843719  0.249979  0.789316  1
  Er  Er15  1  0.656281  0.250021  0.289316  1
  Er  Er16  1  0.463706  0.749946  0.000058  1
  Er  Er17  1  0.036294  0.750054  0.500058  1
  Er  Er18  1  0.536075  0.250048  0.999913  1
  Er  Er19  1  0.963925  0.249952  0.499913  1
  Bi  Bi20  1  0.925673  0.510073  0.326886  1
  Bi  Bi21  1  0.574327  0.989927  0.826886  1
  Bi  Bi22  1  0.074355  0.010046  0.673051  1
  Bi  Bi23  1  0.425645  0.489954  0.173051  1
  Bi  Bi24  1  0.074367  0.489968  0.673069  1
  Bi  Bi25  1  0.425633  0.010032  0.173069  1
  Bi  Bi26  1  0.925739  0.989958  0.326995  1
  Bi  Bi27  1  0.574261  0.510042  0.826995  1
  As  As28  1  0.412277  0.750199  0.478802  1
  As  As29  1  0.087723  0.749801  0.978802  1
  As  As30  1  0.587449  0.249619  0.521107  1
  As  As31  1  0.912551  0.250381  0.021107  1
