# generated using pymatgen
data_Yb3Y2(In2Pt)2
_symmetry_space_group_name_H-M   'P 1'
_cell_length_a   3.69772600
_cell_length_b   7.98148200
_cell_length_c   18.57868100
_cell_angle_alpha   90.00000000
_cell_angle_beta   90.00000000
_cell_angle_gamma   90.00000000
_symmetry_Int_Tables_number   1
_chemical_formula_structural   Yb3Y2(In2Pt)2
_chemical_formula_sum   'Yb6 Y4 In8 Pt4'
_cell_volume   548.31880853
_cell_formula_units_Z   2
loop_
 _symmetry_equiv_pos_site_id
 _symmetry_equiv_pos_as_xyz
  1  'x, y, z'
loop_
 _atom_site_type_symbol
 _atom_site_label
 _atom_site_symmetry_multiplicity
 _atom_site_fract_x
 _atom_site_fract_y
 _atom_site_fract_z
 _atom_site_occupancy
  Yb  Yb0  1  0.000000  0.118773  0.415753  1
  Yb  Yb1  1  0.000000  0.881227  0.584247  1
  Yb  Yb2  1  0.000000  0.381227  0.915753  1
  Yb  Yb3  1  0.000000  0.618773  0.084247  1
  Yb  Yb4  1  0.000000  0.000000  0.000000  1
  Yb  Yb5  1  0.000000  0.500000  0.500000  1
  Y  Y6  1  0.000000  0.244565  0.222791  1
  Y  Y7  1  0.000000  0.755435  0.777209  1
  Y  Y8  1  0.000000  0.255435  0.722791  1
  Y  Y9  1  0.000000  0.744565  0.277209  1
  In  In10  1  0.500000  0.429661  0.349861  1
  In  In11  1  0.500000  0.570339  0.650139  1
  In  In12  1  0.500000  0.070339  0.849861  1
  In  In13  1  0.500000  0.929661  0.150139  1
  In  In14  1  0.500000  0.289818  0.069900  1
  In  In15  1  0.500000  0.710182  0.930100  1
  In  In16  1  0.500000  0.210182  0.569900  1
  In  In17  1  0.500000  0.789818  0.430100  1
  Pt  Pt18  1  0.500000  0.022789  0.304128  1
  Pt  Pt19  1  0.500000  0.977211  0.695872  1
  Pt  Pt20  1  0.500000  0.477211  0.804128  1
  Pt  Pt21  1  0.500000  0.522789  0.195872  1
