# generated using pymatgen
data_Np2PaSb4Pd2Pt
_symmetry_space_group_name_H-M   'P 1'
_cell_length_a   8.46975909
_cell_length_b   8.47870063
_cell_length_c   8.46976112
_cell_angle_alpha   109.27613289
_cell_angle_beta   109.44081654
_cell_angle_gamma   109.65418516
_symmetry_Int_Tables_number   1
_chemical_formula_structural   Np2PaSb4Pd2Pt
_chemical_formula_sum   'Np4 Pa2 Sb8 Pd4 Pt2'
_cell_volume   468.46137746
_cell_formula_units_Z   2
loop_
 _symmetry_equiv_pos_site_id
 _symmetry_equiv_pos_as_xyz
  1  'x, y, z'
loop_
 _atom_site_type_symbol
 _atom_site_label
 _atom_site_symmetry_multiplicity
 _atom_site_fract_x
 _atom_site_fract_y
 _atom_site_fract_z
 _atom_site_occupancy
  Np  Np0  1  0.872366  0.250000  0.122366  1
  Np  Np1  1  0.628329  0.750000  0.378329  1
  Np  Np2  1  0.250895  0.128106  0.878288  1
  Np  Np3  1  0.750182  0.371894  0.622789  1
  Pa  Pa4  1  0.125211  0.875205  0.249608  1
  Pa  Pa5  1  0.374403  0.624795  0.750006  1
  Sb  Sb6  1  0.673419  0.501683  0.999449  1
  Sb  Sb7  1  0.497766  0.998317  0.671736  1
  Sb  Sb8  1  0.001483  0.672651  0.500303  1
  Sb  Sb9  1  0.827653  0.827349  0.828832  1
  Sb  Sb10  1  0.498258  0.996924  0.170729  1
  Sb  Sb11  1  0.173805  0.503076  0.001334  1
  Sb  Sb12  1  0.001436  0.173143  0.499174  1
  Sb  Sb13  1  0.326031  0.326857  0.328292  1
  Pd  Pd14  1  0.373750  0.250000  0.623750  1
  Pd  Pd15  1  0.126043  0.750000  0.876043  1
  Pd  Pd16  1  0.250371  0.626438  0.376333  1
  Pd  Pd17  1  0.749895  0.873562  0.123932  1
  Pt  Pt18  1  0.623973  0.375284  0.250016  1
  Pt  Pt19  1  0.874732  0.124716  0.748689  1
