# generated using pymatgen
data_Nb4CrReB4
_symmetry_space_group_name_H-M   'P 1'
_cell_length_a   6.01381400
_cell_length_b   6.01381400
_cell_length_c   3.29391000
_cell_angle_alpha   90.00000000
_cell_angle_beta   90.00000000
_cell_angle_gamma   90.00000000
_symmetry_Int_Tables_number   1
_chemical_formula_structural   Nb4CrReB4
_chemical_formula_sum   'Nb4 Cr1 Re1 B4'
_cell_volume   119.12741344
_cell_formula_units_Z   1
loop_
 _symmetry_equiv_pos_site_id
 _symmetry_equiv_pos_as_xyz
  1  'x, y, z'
loop_
 _atom_site_type_symbol
 _atom_site_label
 _atom_site_symmetry_multiplicity
 _atom_site_fract_x
 _atom_site_fract_y
 _atom_site_fract_z
 _atom_site_occupancy
  Nb  Nb0  1  0.683035  0.174285  0.500000  1
  Nb  Nb1  1  0.316965  0.825715  0.500000  1
  Nb  Nb2  1  0.174285  0.316965  0.500000  1
  Nb  Nb3  1  0.825715  0.683035  0.500000  1
  Cr  Cr4  1  0.000000  0.000000  0.000000  1
  Re  Re5  1  0.500000  0.500000  0.000000  1
  B  B6  1  0.110847  0.610785  0.000000  1
  B  B7  1  0.889153  0.389215  0.000000  1
  B  B8  1  0.610785  0.889153  0.000000  1
  B  B9  1  0.389215  0.110847  0.000000  1
