# generated using pymatgen
data_EuCu6ClO8
_symmetry_space_group_name_H-M   'P 1'
_cell_length_a   6.58289759
_cell_length_b   6.58289693
_cell_length_c   6.58289800
_cell_angle_alpha   60.00000468
_cell_angle_beta   60.00000798
_cell_angle_gamma   60.00000202
_symmetry_Int_Tables_number   1
_chemical_formula_structural   EuCu6ClO8
_chemical_formula_sum   'Eu1 Cu6 Cl1 O8'
_cell_volume   201.71413407
_cell_formula_units_Z   1
loop_
 _symmetry_equiv_pos_site_id
 _symmetry_equiv_pos_as_xyz
  1  'x, y, z'
loop_
 _atom_site_type_symbol
 _atom_site_label
 _atom_site_symmetry_multiplicity
 _atom_site_fract_x
 _atom_site_fract_y
 _atom_site_fract_z
 _atom_site_occupancy
  Eu  Eu0  1  0.000000  0.000000  0.000000  1
  Cu  Cu1  1  0.000000  0.000000  0.500000  1
  Cu  Cu2  1  0.500000  0.000000  0.500000  1
  Cu  Cu3  1  0.000000  0.500000  0.500000  1
  Cu  Cu4  1  0.500000  0.500000  0.000000  1
  Cu  Cu5  1  0.000000  0.500000  0.000000  1
  Cu  Cu6  1  0.500000  0.000000  0.000000  1
  Cl  Cl7  1  0.500000  0.500000  0.500000  1
  O  O8  1  0.853698  0.853698  0.438907  1
  O  O9  1  0.853698  0.438907  0.853698  1
  O  O10  1  0.438907  0.853698  0.853698  1
  O  O11  1  0.853698  0.853698  0.853698  1
  O  O12  1  0.146302  0.146302  0.561093  1
  O  O13  1  0.146302  0.561093  0.146302  1
  O  O14  1  0.561093  0.146302  0.146302  1
  O  O15  1  0.146302  0.146302  0.146302  1
