# generated using pymatgen
data_Sc10SiAs5
_symmetry_space_group_name_H-M   'P 1'
_cell_length_a   7.94467700
_cell_length_b   7.93500548
_cell_length_c   5.74598200
_cell_angle_alpha   90.00000000
_cell_angle_beta   90.00000000
_cell_angle_gamma   120.04031465
_symmetry_Int_Tables_number   1
_chemical_formula_structural   Sc10SiAs5
_chemical_formula_sum   'Sc10 Si1 As5'
_cell_volume   313.57526601
_cell_formula_units_Z   1
loop_
 _symmetry_equiv_pos_site_id
 _symmetry_equiv_pos_as_xyz
  1  'x, y, z'
loop_
 _atom_site_type_symbol
 _atom_site_label
 _atom_site_symmetry_multiplicity
 _atom_site_fract_x
 _atom_site_fract_y
 _atom_site_fract_z
 _atom_site_occupancy
  Sc  Sc0  1  0.000607  0.753222  0.750000  1
  Sc  Sc1  1  0.996178  0.243852  0.250000  1
  Sc  Sc2  1  0.752325  0.756148  0.250000  1
  Sc  Sc3  1  0.753847  0.000000  0.750000  1
  Sc  Sc4  1  0.247385  0.246778  0.750000  1
  Sc  Sc5  1  0.249017  0.000000  0.250000  1
  Sc  Sc6  1  0.334706  0.668774  0.498745  1
  Sc  Sc7  1  0.665933  0.331226  0.001255  1
  Sc  Sc8  1  0.665933  0.331226  0.498745  1
  Sc  Sc9  1  0.334706  0.668774  0.001255  1
  Si  Si10  1  0.608774  0.000000  0.250000  1
  As  As11  1  0.390377  0.000000  0.750000  1
  As  As12  1  0.387213  0.387665  0.250000  1
  As  As13  1  0.999547  0.612335  0.250000  1
  As  As14  1  0.001063  0.388674  0.750000  1
  As  As15  1  0.612389  0.611326  0.750000  1
