# generated using pymatgen
data_TbDy11(BCl3)4
_symmetry_space_group_name_H-M   'P 1'
_cell_length_a   9.43749011
_cell_length_b   9.43748977
_cell_length_c   9.43785103
_cell_angle_alpha   109.46768112
_cell_angle_beta   109.46768104
_cell_angle_gamma   109.47983860
_symmetry_Int_Tables_number   1
_chemical_formula_structural   TbDy11(BCl3)4
_chemical_formula_sum   'Tb1 Dy11 B4 Cl12'
_cell_volume   647.07702107
_cell_formula_units_Z   1
loop_
 _symmetry_equiv_pos_site_id
 _symmetry_equiv_pos_as_xyz
  1  'x, y, z'
loop_
 _atom_site_type_symbol
 _atom_site_label
 _atom_site_symmetry_multiplicity
 _atom_site_fract_x
 _atom_site_fract_y
 _atom_site_fract_z
 _atom_site_occupancy
  Tb  Tb0  1  0.235495  0.264505  0.750000  1
  Dy  Dy1  1  0.470244  0.485142  0.235168  1
  Dy  Dy2  1  0.749923  0.235123  0.264787  1
  Dy  Dy3  1  0.749959  0.014870  0.485107  1
  Dy  Dy4  1  0.235094  0.470256  0.485069  1
  Dy  Dy5  1  0.264877  0.750077  0.235213  1
  Dy  Dy6  1  0.029744  0.264906  0.014931  1
  Dy  Dy7  1  0.014858  0.029756  0.264832  1
  Dy  Dy8  1  0.485130  0.750041  0.014893  1
  Dy  Dy9  1  0.485104  0.235108  0.470229  1
  Dy  Dy10  1  0.014792  0.485208  0.750000  1
  Dy  Dy11  1  0.264892  0.014896  0.029771  1
  B  B12  1  0.250006  0.249994  0.250000  1
  B  B13  1  0.499990  0.000010  0.250000  1
  B  B14  1  0.999668  0.250011  0.499660  1
  B  B15  1  0.249989  0.500332  0.000340  1
  Cl  Cl16  1  0.250004  0.755938  0.744067  1
  Cl  Cl17  1  0.512189  0.506321  0.755920  1
  Cl  Cl18  1  0.988133  0.744071  0.994070  1
  Cl  Cl19  1  0.744062  0.249996  0.755933  1
  Cl  Cl20  1  0.993679  0.987811  0.744080  1
  Cl  Cl21  1  0.249969  0.993718  0.505545  1
  Cl  Cl22  1  0.755929  0.511867  0.505930  1
  Cl  Cl23  1  0.506282  0.250031  0.994455  1
  Cl  Cl24  1  0.755931  0.744069  0.250000  1
  Cl  Cl25  1  0.744057  0.994060  0.988127  1
  Cl  Cl26  1  0.994062  0.505938  0.250000  1
  Cl  Cl27  1  0.505940  0.755943  0.511873  1
