# generated using pymatgen
data_HfMg4(SbPt)5
_symmetry_space_group_name_H-M   'P 1'
_cell_length_a   18.73149415
_cell_length_b   18.73149411
_cell_length_c   18.73149289
_cell_angle_alpha   13.75224618
_cell_angle_beta   13.75224812
_cell_angle_gamma   13.75224555
_symmetry_Int_Tables_number   1
_chemical_formula_structural   HfMg4(SbPt)5
_chemical_formula_sum   'Hf1 Mg4 Sb5 Pt5'
_cell_volume   323.20176783
_cell_formula_units_Z   1
loop_
 _symmetry_equiv_pos_site_id
 _symmetry_equiv_pos_as_xyz
  1  'x, y, z'
loop_
 _atom_site_type_symbol
 _atom_site_label
 _atom_site_symmetry_multiplicity
 _atom_site_fract_x
 _atom_site_fract_y
 _atom_site_fract_z
 _atom_site_occupancy
  Hf  Hf0  1  0.299456  0.299456  0.299456  1
  Mg  Mg1  1  0.700906  0.700906  0.700906  1
  Mg  Mg2  1  0.099962  0.099962  0.099962  1
  Mg  Mg3  1  0.499591  0.499591  0.499591  1
  Mg  Mg4  1  0.898500  0.898500  0.898500  1
  Sb  Sb5  1  0.598728  0.598728  0.598728  1
  Sb  Sb6  1  0.801000  0.801000  0.801000  1
  Sb  Sb7  1  0.200851  0.200851  0.200851  1
  Sb  Sb8  1  0.000912  0.000912  0.000912  1
  Sb  Sb9  1  0.401212  0.401212  0.401212  1
  Pt  Pt10  1  0.050462  0.050462  0.050462  1
  Pt  Pt11  1  0.449754  0.449754  0.449754  1
  Pt  Pt12  1  0.849332  0.849332  0.849332  1
  Pt  Pt13  1  0.250745  0.250745  0.250745  1
  Pt  Pt14  1  0.648588  0.648588  0.648588  1
