# generated using pymatgen
data_Dy7Ho3Ir5Pt
_symmetry_space_group_name_H-M   'P 1'
_cell_length_a   10.93335019
_cell_length_b   10.93786400
_cell_length_c   6.34105700
_cell_angle_alpha   90.00000000
_cell_angle_beta   89.95778961
_cell_angle_gamma   90.00000000
_symmetry_Int_Tables_number   1
_chemical_formula_structural   Dy7Ho3Ir5Pt
_chemical_formula_sum   'Dy14 Ho6 Ir10 Pt2'
_cell_volume   758.31093233
_cell_formula_units_Z   2
loop_
 _symmetry_equiv_pos_site_id
 _symmetry_equiv_pos_as_xyz
  1  'x, y, z'
loop_
 _atom_site_type_symbol
 _atom_site_label
 _atom_site_symmetry_multiplicity
 _atom_site_fract_x
 _atom_site_fract_y
 _atom_site_fract_z
 _atom_site_occupancy
  Dy  Dy0  1  0.291186  0.088390  0.376124  1
  Dy  Dy1  1  0.291186  0.911610  0.876124  1
  Dy  Dy2  1  0.705408  0.090126  0.874151  1
  Dy  Dy3  1  0.705408  0.909874  0.374151  1
  Dy  Dy4  1  0.584585  0.790810  0.878611  1
  Dy  Dy5  1  0.584585  0.209190  0.378611  1
  Dy  Dy6  1  0.410730  0.791288  0.377778  1
  Dy  Dy7  1  0.410730  0.208712  0.877778  1
  Dy  Dy8  1  0.208923  0.411486  0.622068  1
  Dy  Dy9  1  0.208923  0.588514  0.122068  1
  Dy  Dy10  1  0.790830  0.414523  0.122487  1
  Dy  Dy11  1  0.790830  0.585477  0.622487  1
  Dy  Dy12  1  0.913497  0.707155  0.126532  1
  Dy  Dy13  1  0.913497  0.292845  0.626532  1
  Ho  Ho14  1  0.091594  0.706663  0.622183  1
  Ho  Ho15  1  0.091594  0.293337  0.122183  1
  Ho  Ho16  1  0.003085  0.999510  0.499995  1
  Ho  Ho17  1  0.003085  0.000490  0.999995  1
  Ho  Ho18  1  0.499790  0.499539  0.999885  1
  Ho  Ho19  1  0.499790  0.500461  0.499885  1
  Ir  Ir20  1  0.152695  0.153703  0.750371  1
  Ir  Ir21  1  0.152695  0.846297  0.250371  1
  Ir  Ir22  1  0.654715  0.346120  0.749515  1
  Ir  Ir23  1  0.654715  0.653880  0.249515  1
  Ir  Ir24  1  0.346652  0.346421  0.250298  1
  Ir  Ir25  1  0.346652  0.653579  0.750298  1
  Ir  Ir26  1  0.500681  0.999816  0.123562  1
  Ir  Ir27  1  0.500681  0.000184  0.623562  1
  Ir  Ir28  1  0.999695  0.500188  0.876751  1
  Ir  Ir29  1  0.999695  0.499812  0.376751  1
  Pt  Pt30  1  0.845935  0.153179  0.249690  1
  Pt  Pt31  1  0.845935  0.846821  0.749690  1
