# generated using pymatgen
data_Tl(IrCl4)3
_symmetry_space_group_name_H-M   'P 1'
_cell_length_a   12.28282325
_cell_length_b   11.71557114
_cell_length_c   6.20581731
_cell_angle_alpha   80.14042992
_cell_angle_beta   70.00625312
_cell_angle_gamma   32.14421272
_symmetry_Int_Tables_number   1
_chemical_formula_structural   Tl(IrCl4)3
_chemical_formula_sum   'Tl1 Ir3 Cl12'
_cell_volume   433.82442447
_cell_formula_units_Z   1
loop_
 _symmetry_equiv_pos_site_id
 _symmetry_equiv_pos_as_xyz
  1  'x, y, z'
loop_
 _atom_site_type_symbol
 _atom_site_label
 _atom_site_symmetry_multiplicity
 _atom_site_fract_x
 _atom_site_fract_y
 _atom_site_fract_z
 _atom_site_occupancy
  Tl  Tl0  1  0.415561  0.415561  0.584439  1
  Ir  Ir1  1  0.828491  0.828491  0.671509  1
  Ir  Ir2  1  0.667923  0.667923  0.832077  1
  Ir  Ir3  1  0.588152  0.588152  0.411848  1
  Cl  Cl4  1  0.727755  0.299371  0.259870  1
  Cl  Cl5  1  0.867018  0.460928  0.087199  1
  Cl  Cl6  1  0.388488  0.797062  0.156787  1
  Cl  Cl7  1  0.460928  0.867018  0.584854  1
  Cl  Cl8  1  0.117455  0.687590  0.366839  1
  Cl  Cl9  1  0.299371  0.727755  0.713003  1
  Cl  Cl10  1  0.540437  0.955246  0.968354  1
  Cl  Cl11  1  0.955246  0.540437  0.535965  1
  Cl  Cl12  1  0.049511  0.609014  0.896736  1
  Cl  Cl13  1  0.797062  0.388488  0.657664  1
  Cl  Cl14  1  0.687590  0.117455  0.828117  1
  Cl  Cl15  1  0.609014  0.049511  0.444738  1
