# generated using pymatgen
data_Mg(AsO2)2
_symmetry_space_group_name_H-M   'P 1'
_cell_length_a   8.42943100
_cell_length_b   8.42943100
_cell_length_c   5.80604400
_cell_angle_alpha   90.00000000
_cell_angle_beta   90.00000000
_cell_angle_gamma   90.00000000
_symmetry_Int_Tables_number   1
_chemical_formula_structural   Mg(AsO2)2
_chemical_formula_sum   'Mg4 As8 O16'
_cell_volume   412.55023878
_cell_formula_units_Z   4
loop_
 _symmetry_equiv_pos_site_id
 _symmetry_equiv_pos_as_xyz
  1  'x, y, z'
loop_
 _atom_site_type_symbol
 _atom_site_label
 _atom_site_symmetry_multiplicity
 _atom_site_fract_x
 _atom_site_fract_y
 _atom_site_fract_z
 _atom_site_occupancy
  Mg  Mg0  1  0.500000  0.000000  0.250000  1
  Mg  Mg1  1  0.000000  0.500000  0.750000  1
  Mg  Mg2  1  0.500000  0.000000  0.750000  1
  Mg  Mg3  1  0.000000  0.500000  0.250000  1
  As  As4  1  0.171512  0.188092  0.000000  1
  As  As5  1  0.188092  0.828488  0.500000  1
  As  As6  1  0.828488  0.811908  0.000000  1
  As  As7  1  0.811908  0.171512  0.500000  1
  As  As8  1  0.328488  0.688092  0.000000  1
  As  As9  1  0.671512  0.311908  0.000000  1
  As  As10  1  0.688092  0.671512  0.500000  1
  As  As11  1  0.311908  0.328488  0.500000  1
  O  O12  1  0.316041  0.183959  0.250000  1
  O  O13  1  0.183959  0.683959  0.750000  1
  O  O14  1  0.683959  0.816041  0.250000  1
  O  O15  1  0.816041  0.316041  0.750000  1
  O  O16  1  0.683959  0.816041  0.750000  1
  O  O17  1  0.816041  0.316041  0.250000  1
  O  O18  1  0.316041  0.183959  0.750000  1
  O  O19  1  0.183959  0.683959  0.250000  1
  O  O20  1  0.631173  0.107724  0.000000  1
  O  O21  1  0.107724  0.368827  0.500000  1
  O  O22  1  0.368827  0.892276  0.000000  1
  O  O23  1  0.892276  0.631173  0.500000  1
  O  O24  1  0.868827  0.607724  0.000000  1
  O  O25  1  0.131173  0.392276  0.000000  1
  O  O26  1  0.607724  0.131173  0.500000  1
  O  O27  1  0.392276  0.868827  0.500000  1
