# generated using pymatgen
data_NaGd9(Sn3H)2
_symmetry_space_group_name_H-M   'P 1'
_cell_length_a   9.09825172
_cell_length_b   9.09825135
_cell_length_c   9.09825300
_cell_angle_alpha   127.02681188
_cell_angle_beta   127.02681013
_cell_angle_gamma   78.20694942
_symmetry_Int_Tables_number   1
_chemical_formula_structural   NaGd9(Sn3H)2
_chemical_formula_sum   'Na1 Gd9 Sn6 H2'
_cell_volume   464.99396649
_cell_formula_units_Z   1
loop_
 _symmetry_equiv_pos_site_id
 _symmetry_equiv_pos_as_xyz
  1  'x, y, z'
loop_
 _atom_site_type_symbol
 _atom_site_label
 _atom_site_symmetry_multiplicity
 _atom_site_fract_x
 _atom_site_fract_y
 _atom_site_fract_z
 _atom_site_occupancy
  Na  Na0  1  0.500000  0.500000  0.000000  1
  Gd  Gd1  1  0.000000  0.000000  0.000000  1
  Gd  Gd2  1  0.507139  0.016466  0.825748  1
  Gd  Gd3  1  0.190718  0.681392  0.174252  1
  Gd  Gd4  1  0.016466  0.190718  0.509327  1
  Gd  Gd5  1  0.681392  0.507139  0.490673  1
  Gd  Gd6  1  0.492861  0.983534  0.174252  1
  Gd  Gd7  1  0.809282  0.318608  0.825748  1
  Gd  Gd8  1  0.983534  0.809282  0.490673  1
  Gd  Gd9  1  0.318608  0.492861  0.509327  1
  Sn  Sn10  1  0.243690  0.243690  0.000000  1
  Sn  Sn11  1  0.756310  0.756310  0.000000  1
  Sn  Sn12  1  0.869764  0.365873  0.235638  1
  Sn  Sn13  1  0.130236  0.634127  0.764362  1
  Sn  Sn14  1  0.365873  0.130236  0.496109  1
  Sn  Sn15  1  0.634127  0.869764  0.503891  1
  H  H16  1  0.250000  0.750000  0.500000  1
  H  H17  1  0.750000  0.250000  0.500000  1
