# generated using pymatgen
data_LiTm9S10
_symmetry_space_group_name_H-M   'P 1'
_cell_length_a   6.67262860
_cell_length_b   7.63941932
_cell_length_c   8.55246518
_cell_angle_alpha   102.81161952
_cell_angle_beta   97.74730478
_cell_angle_gamma   106.83372373
_symmetry_Int_Tables_number   1
_chemical_formula_structural   LiTm9S10
_chemical_formula_sum   'Li1 Tm9 S10'
_cell_volume   397.53365717
_cell_formula_units_Z   1
loop_
 _symmetry_equiv_pos_site_id
 _symmetry_equiv_pos_as_xyz
  1  'x, y, z'
loop_
 _atom_site_type_symbol
 _atom_site_label
 _atom_site_symmetry_multiplicity
 _atom_site_fract_x
 _atom_site_fract_y
 _atom_site_fract_z
 _atom_site_occupancy
  Li  Li0  1  0.000000  0.500000  0.000000  1
  Tm  Tm1  1  0.798540  0.600321  0.600197  1
  Tm  Tm2  1  0.603370  0.201758  0.203561  1
  Tm  Tm3  1  0.396630  0.798242  0.796439  1
  Tm  Tm4  1  0.600887  0.701663  0.202165  1
  Tm  Tm5  1  0.201460  0.399679  0.399803  1
  Tm  Tm6  1  0.399113  0.298337  0.797835  1
  Tm  Tm7  1  0.000000  0.000000  0.000000  1
  Tm  Tm8  1  0.200982  0.900699  0.402598  1
  Tm  Tm9  1  0.799018  0.099301  0.597402  1
  S  S10  1  0.704222  0.647740  0.902999  1
  S  S11  1  0.500429  0.250684  0.499693  1
  S  S12  1  0.704546  0.155579  0.902950  1
  S  S13  1  0.295454  0.844421  0.097050  1
  S  S14  1  0.499571  0.749316  0.500307  1
  S  S15  1  0.097129  0.450522  0.705431  1
  S  S16  1  0.295778  0.352260  0.097001  1
  S  S17  1  0.901936  0.050126  0.299279  1
  S  S18  1  0.098064  0.949874  0.700721  1
  S  S19  1  0.902871  0.549478  0.294569  1
