# generated using pymatgen
data_La3Cd3NiPt2
_symmetry_space_group_name_H-M   'P 1'
_cell_length_a   7.80285100
_cell_length_b   7.80285232
_cell_length_c   4.02644500
_cell_angle_alpha   90.00000000
_cell_angle_beta   90.00000000
_cell_angle_gamma   119.99999017
_symmetry_Int_Tables_number   1
_chemical_formula_structural   La3Cd3NiPt2
_chemical_formula_sum   'La3 Cd3 Ni1 Pt2'
_cell_volume   212.30447434
_cell_formula_units_Z   1
loop_
 _symmetry_equiv_pos_site_id
 _symmetry_equiv_pos_as_xyz
  1  'x, y, z'
loop_
 _atom_site_type_symbol
 _atom_site_label
 _atom_site_symmetry_multiplicity
 _atom_site_fract_x
 _atom_site_fract_y
 _atom_site_fract_z
 _atom_site_occupancy
  La  La0  1  0.000000  0.411204  0.500000  1
  La  La1  1  0.588796  0.588796  0.500000  1
  La  La2  1  0.411204  0.000000  0.500000  1
  Cd  Cd3  1  0.000000  0.763011  0.000000  1
  Cd  Cd4  1  0.236989  0.236989  0.000000  1
  Cd  Cd5  1  0.763011  0.000000  0.000000  1
  Ni  Ni6  1  0.000000  0.000000  0.500000  1
  Pt  Pt7  1  0.333333  0.666667  0.000000  1
  Pt  Pt8  1  0.666667  0.333333  0.000000  1
