# generated using pymatgen
data_SrCaPBrO4
_symmetry_space_group_name_H-M   'P 1'
_cell_length_a   6.25290800
_cell_length_b   7.31276900
_cell_length_c   11.63966300
_cell_angle_alpha   90.00000000
_cell_angle_beta   90.00000000
_cell_angle_gamma   90.00000000
_symmetry_Int_Tables_number   1
_chemical_formula_structural   SrCaPBrO4
_chemical_formula_sum   'Sr4 Ca4 P4 Br4 O16'
_cell_volume   532.23606586
_cell_formula_units_Z   4
loop_
 _symmetry_equiv_pos_site_id
 _symmetry_equiv_pos_as_xyz
  1  'x, y, z'
loop_
 _atom_site_type_symbol
 _atom_site_label
 _atom_site_symmetry_multiplicity
 _atom_site_fract_x
 _atom_site_fract_y
 _atom_site_fract_z
 _atom_site_occupancy
  Sr  Sr0  1  0.103266  0.027342  0.750000  1
  Sr  Sr1  1  0.103266  0.472658  0.250000  1
  Sr  Sr2  1  0.896734  0.527342  0.750000  1
  Sr  Sr3  1  0.896734  0.972658  0.250000  1
  Ca  Ca4  1  0.362074  0.750000  0.500000  1
  Ca  Ca5  1  0.637926  0.250000  0.500000  1
  Ca  Ca6  1  0.637926  0.250000  0.000000  1
  Ca  Ca7  1  0.362074  0.750000  0.000000  1
  P  P8  1  0.858725  0.750000  0.000000  1
  P  P9  1  0.141275  0.250000  0.500000  1
  P  P10  1  0.141275  0.250000  0.000000  1
  P  P11  1  0.858725  0.750000  0.500000  1
  Br  Br12  1  0.512919  0.222060  0.250000  1
  Br  Br13  1  0.512919  0.277940  0.750000  1
  Br  Br14  1  0.487081  0.722060  0.250000  1
  Br  Br15  1  0.487081  0.777940  0.750000  1
  O  O16  1  0.989777  0.229262  0.106853  1
  O  O17  1  0.287023  0.419354  0.481521  1
  O  O18  1  0.010223  0.729262  0.393147  1
  O  O19  1  0.712977  0.919354  0.481521  1
  O  O20  1  0.010223  0.770738  0.606853  1
  O  O21  1  0.712977  0.580646  0.518479  1
  O  O22  1  0.989777  0.229262  0.393147  1
  O  O23  1  0.989777  0.270738  0.893147  1
  O  O24  1  0.712977  0.919354  0.018479  1
  O  O25  1  0.989777  0.270738  0.606853  1
  O  O26  1  0.712977  0.580646  0.981521  1
  O  O27  1  0.287023  0.419354  0.018479  1
  O  O28  1  0.010223  0.729262  0.106853  1
  O  O29  1  0.010223  0.770738  0.893147  1
  O  O30  1  0.287023  0.080646  0.518479  1
  O  O31  1  0.287023  0.080646  0.981521  1
