# generated using pymatgen
data_YNp3Al12Pd
_symmetry_space_group_name_H-M   'P 1'
_cell_length_a   7.47783181
_cell_length_b   7.51118272
_cell_length_c   7.47783165
_cell_angle_alpha   109.56157944
_cell_angle_beta   109.38069585
_cell_angle_gamma   109.56159172
_symmetry_Int_Tables_number   1
_chemical_formula_structural   YNp3Al12Pd
_chemical_formula_sum   'Y1 Np3 Al12 Pd1'
_cell_volume   322.96265636
_cell_formula_units_Z   1
loop_
 _symmetry_equiv_pos_site_id
 _symmetry_equiv_pos_as_xyz
  1  'x, y, z'
loop_
 _atom_site_type_symbol
 _atom_site_label
 _atom_site_symmetry_multiplicity
 _atom_site_fract_x
 _atom_site_fract_y
 _atom_site_fract_z
 _atom_site_occupancy
  Y  Y0  1  0.000000  0.500000  0.000000  1
  Np  Np1  1  0.500000  0.500000  0.500000  1
  Np  Np2  1  0.000000  0.000000  0.500000  1
  Np  Np3  1  0.500000  0.000000  0.000000  1
  Al  Al4  1  0.748832  0.500000  0.251168  1
  Al  Al5  1  0.502337  0.751168  0.251168  1
  Al  Al6  1  0.497663  0.248832  0.748832  1
  Al  Al7  1  0.748832  0.248832  0.497663  1
  Al  Al8  1  0.251168  0.751168  0.502337  1
  Al  Al9  1  0.251168  0.500000  0.748832  1
  Al  Al10  1  0.292846  0.003487  0.292846  1
  Al  Al11  1  0.000000  0.289360  0.292846  1
  Al  Al12  1  0.000000  0.710640  0.707154  1
  Al  Al13  1  0.292846  0.289360  0.000000  1
  Al  Al14  1  0.707154  0.710640  0.000000  1
  Al  Al15  1  0.707154  0.996513  0.707154  1
  Pd  Pd16  1  0.000000  0.000000  0.000000  1
