# generated using pymatgen
data_Ho8Er12Si15Ag
_symmetry_space_group_name_H-M   'P 1'
_cell_length_a   7.37290139
_cell_length_b   7.63693640
_cell_length_c   14.55420725
_cell_angle_alpha   89.69483981
_cell_angle_beta   89.24188204
_cell_angle_gamma   90.04321944
_symmetry_Int_Tables_number   1
_chemical_formula_structural   Ho8Er12Si15Ag
_chemical_formula_sum   'Ho8 Er12 Si15 Ag1'
_cell_volume   819.41107219
_cell_formula_units_Z   1
loop_
 _symmetry_equiv_pos_site_id
 _symmetry_equiv_pos_as_xyz
  1  'x, y, z'
loop_
 _atom_site_type_symbol
 _atom_site_label
 _atom_site_symmetry_multiplicity
 _atom_site_fract_x
 _atom_site_fract_y
 _atom_site_fract_z
 _atom_site_occupancy
  Ho  Ho0  1  0.019095  0.179948  0.098857  1
  Ho  Ho1  1  0.981509  0.821634  0.903419  1
  Ho  Ho2  1  0.481318  0.680878  0.903488  1
  Ho  Ho3  1  0.984890  0.829760  0.598679  1
  Ho  Ho4  1  0.517404  0.318694  0.097121  1
  Ho  Ho5  1  0.012033  0.172935  0.398231  1
  Ho  Ho6  1  0.516231  0.316465  0.399677  1
  Ho  Ho7  1  0.489789  0.684699  0.600728  1
  Er  Er8  1  0.163480  0.510993  0.751411  1
  Er  Er9  1  0.838222  0.490467  0.251625  1
  Er  Er10  1  0.337336  0.006793  0.249947  1
  Er  Er11  1  0.665118  0.989111  0.750314  1
  Er  Er12  1  0.338991  0.175120  0.623602  1
  Er  Er13  1  0.664034  0.821721  0.376616  1
  Er  Er14  1  0.168651  0.674764  0.374106  1
  Er  Er15  1  0.671685  0.821951  0.123200  1
  Er  Er16  1  0.828687  0.325474  0.622938  1
  Er  Er17  1  0.328006  0.179405  0.877797  1
  Er  Er18  1  0.827751  0.320311  0.878195  1
  Er  Er19  1  0.170821  0.678772  0.123307  1
  Si  Si20  1  0.037278  0.111161  0.751488  1
  Si  Si21  1  0.964207  0.892924  0.248979  1
  Si  Si22  1  0.466352  0.603517  0.247921  1
  Si  Si23  1  0.535299  0.396145  0.751569  1
  Si  Si24  1  0.279783  0.875354  0.751559  1
  Si  Si25  1  0.719103  0.127600  0.248123  1
  Si  Si26  1  0.221297  0.368756  0.247768  1
  Si  Si27  1  0.781388  0.628239  0.753464  1
  Si  Si28  1  0.834199  0.530491  0.458511  1
  Si  Si29  1  0.331273  0.967029  0.460030  1
  Si  Si30  1  0.844520  0.531294  0.038840  1
  Si  Si31  1  0.665166  0.032884  0.538598  1
  Si  Si32  1  0.153090  0.468998  0.962206  1
  Si  Si33  1  0.654559  0.029253  0.960198  1
  Si  Si34  1  0.344708  0.969544  0.039946  1
  Ag  Ag35  1  0.162728  0.466916  0.537540  1
