# generated using pymatgen
data_Eu2MnSbO7
_symmetry_space_group_name_H-M   'P 1'
_cell_length_a   7.39079194
_cell_length_b   7.39079205
_cell_length_c   7.39079275
_cell_angle_alpha   120.76462342
_cell_angle_beta   119.20601552
_cell_angle_gamma   90.03073203
_symmetry_Int_Tables_number   1
_chemical_formula_structural   Eu2MnSbO7
_chemical_formula_sum   'Eu4 Mn2 Sb2 O14'
_cell_volume   285.46566208
_cell_formula_units_Z   2
loop_
 _symmetry_equiv_pos_site_id
 _symmetry_equiv_pos_as_xyz
  1  'x, y, z'
loop_
 _atom_site_type_symbol
 _atom_site_label
 _atom_site_symmetry_multiplicity
 _atom_site_fract_x
 _atom_site_fract_y
 _atom_site_fract_z
 _atom_site_occupancy
  Eu  Eu0  1  0.500000  0.500000  0.500000  1
  Eu  Eu1  1  0.500000  0.000000  0.000000  1
  Eu  Eu2  1  0.500000  0.500000  0.000000  1
  Eu  Eu3  1  0.000000  0.500000  0.500000  1
  Mn  Mn4  1  0.000000  0.000000  0.500000  1
  Mn  Mn5  1  0.000000  0.500000  0.000000  1
  Sb  Sb6  1  0.000000  0.000000  0.000000  1
  Sb  Sb7  1  0.500000  0.000000  0.500000  1
  O  O8  1  0.373799  0.623799  0.750000  1
  O  O9  1  0.626201  0.376201  0.250000  1
  O  O10  1  0.327567  0.077567  0.250000  1
  O  O11  1  0.925111  0.675111  0.250000  1
  O  O12  1  0.330035  0.672186  0.252042  1
  O  O13  1  0.920143  0.077992  0.247958  1
  O  O14  1  0.330035  0.077992  0.657849  1
  O  O15  1  0.920143  0.672186  0.842151  1
  O  O16  1  0.672433  0.922433  0.750000  1
  O  O17  1  0.074889  0.324889  0.750000  1
  O  O18  1  0.669965  0.327814  0.747958  1
  O  O19  1  0.079857  0.922008  0.752042  1
  O  O20  1  0.669965  0.922008  0.342151  1
  O  O21  1  0.079857  0.327814  0.157849  1
