# generated using pymatgen
data_Tl2FeF4
_symmetry_space_group_name_H-M   'P 1'
_cell_length_a   4.33094514
_cell_length_b   4.33094402
_cell_length_c   7.71919400
_cell_angle_alpha   106.29189820
_cell_angle_beta   106.29189387
_cell_angle_gamma   90.00000312
_symmetry_Int_Tables_number   1
_chemical_formula_structural   Tl2FeF4
_chemical_formula_sum   'Tl2 Fe1 F4'
_cell_volume   132.90740061
_cell_formula_units_Z   1
loop_
 _symmetry_equiv_pos_site_id
 _symmetry_equiv_pos_as_xyz
  1  'x, y, z'
loop_
 _atom_site_type_symbol
 _atom_site_label
 _atom_site_symmetry_multiplicity
 _atom_site_fract_x
 _atom_site_fract_y
 _atom_site_fract_z
 _atom_site_occupancy
  Tl  Tl0  1  0.356648  0.356648  0.713296  1
  Tl  Tl1  1  0.643352  0.643352  0.286704  1
  Fe  Fe2  1  0.000000  0.000000  0.000000  1
  F  F3  1  0.143224  0.143224  0.286449  1
  F  F4  1  0.856776  0.856776  0.713551  1
  F  F5  1  0.000000  0.500000  0.000000  1
  F  F6  1  0.500000  0.000000  0.000000  1
