# generated using pymatgen
data_HfZr2ScFe8
_symmetry_space_group_name_H-M   'P 1'
_cell_length_a   8.59511996
_cell_length_b   8.59512019
_cell_length_c   8.59512008
_cell_angle_alpha   33.54118769
_cell_angle_beta   33.54119580
_cell_angle_gamma   33.54120670
_symmetry_Int_Tables_number   1
_chemical_formula_structural   HfZr2ScFe8
_chemical_formula_sum   'Hf1 Zr2 Sc1 Fe8'
_cell_volume   172.66690033
_cell_formula_units_Z   1
loop_
 _symmetry_equiv_pos_site_id
 _symmetry_equiv_pos_as_xyz
  1  'x, y, z'
loop_
 _atom_site_type_symbol
 _atom_site_label
 _atom_site_symmetry_multiplicity
 _atom_site_fract_x
 _atom_site_fract_y
 _atom_site_fract_z
 _atom_site_occupancy
  Hf  Hf0  1  0.875278  0.875278  0.875278  1
  Zr  Zr1  1  0.000727  0.000727  0.000727  1
  Zr  Zr2  1  0.499047  0.499047  0.499047  1
  Sc  Sc3  1  0.374702  0.374702  0.374702  1
  Fe  Fe4  1  0.437217  0.936913  0.437217  1
  Fe  Fe5  1  0.937275  0.439074  0.937275  1
  Fe  Fe6  1  0.437217  0.437217  0.936913  1
  Fe  Fe7  1  0.937275  0.937275  0.439074  1
  Fe  Fe8  1  0.187604  0.187604  0.187604  1
  Fe  Fe9  1  0.687672  0.687672  0.687672  1
  Fe  Fe10  1  0.936913  0.437217  0.437217  1
  Fe  Fe11  1  0.439074  0.937275  0.937275  1
