# generated using pymatgen
data_Pr5SnIrO12
_symmetry_space_group_name_H-M   'P 1'
_cell_length_a   7.17955513
_cell_length_b   7.17955505
_cell_length_c   7.69025716
_cell_angle_alpha   74.52759314
_cell_angle_beta   74.52759810
_cell_angle_gamma   51.16831224
_symmetry_Int_Tables_number   1
_chemical_formula_structural   Pr5SnIrO12
_chemical_formula_sum   'Pr5 Sn1 Ir1 O12'
_cell_volume   294.97767482
_cell_formula_units_Z   1
loop_
 _symmetry_equiv_pos_site_id
 _symmetry_equiv_pos_as_xyz
  1  'x, y, z'
loop_
 _atom_site_type_symbol
 _atom_site_label
 _atom_site_symmetry_multiplicity
 _atom_site_fract_x
 _atom_site_fract_y
 _atom_site_fract_z
 _atom_site_occupancy
  Pr  Pr0  1  0.303631  0.302945  0.360097  1
  Pr  Pr1  1  0.697055  0.696369  0.639903  1
  Pr  Pr2  1  0.689813  0.698344  0.167995  1
  Pr  Pr3  1  0.301656  0.310187  0.832005  1
  Pr  Pr4  1  0.006048  0.993952  0.500000  1
  Sn  Sn5  1  0.761391  0.238609  0.000000  1
  Ir  Ir6  1  0.250050  0.749950  0.000000  1
  O  O7  1  0.093724  0.598711  0.574855  1
  O  O8  1  0.013030  0.985448  0.179417  1
  O  O9  1  0.401289  0.906276  0.425145  1
  O  O10  1  0.495263  0.505723  0.178638  1
  O  O11  1  0.102088  0.585022  0.079267  1
  O  O12  1  0.903819  0.405752  0.421709  1
  O  O13  1  0.014552  0.986970  0.820583  1
  O  O14  1  0.594248  0.096180  0.578291  1
  O  O15  1  0.494277  0.504737  0.821362  1
  O  O16  1  0.565136  0.102048  0.081412  1
  O  O17  1  0.414978  0.897912  0.920733  1
  O  O18  1  0.897952  0.434864  0.918588  1
