# generated using pymatgen
data_ErAg(CO3)2
_symmetry_space_group_name_H-M   'P 1'
_cell_length_a   6.35876682
_cell_length_b   6.35876738
_cell_length_c   6.35876695
_cell_angle_alpha   47.62486770
_cell_angle_beta   47.62486288
_cell_angle_gamma   47.62488087
_symmetry_Int_Tables_number   1
_chemical_formula_structural   ErAg(CO3)2
_chemical_formula_sum   'Er1 Ag1 C2 O6'
_cell_volume   128.44177288
_cell_formula_units_Z   1
loop_
 _symmetry_equiv_pos_site_id
 _symmetry_equiv_pos_as_xyz
  1  'x, y, z'
loop_
 _atom_site_type_symbol
 _atom_site_label
 _atom_site_symmetry_multiplicity
 _atom_site_fract_x
 _atom_site_fract_y
 _atom_site_fract_z
 _atom_site_occupancy
  Er  Er0  1  0.000000  0.000000  0.000000  1
  Ag  Ag1  1  0.500000  0.500000  0.500000  1
  C  C2  1  0.256998  0.256998  0.256998  1
  C  C3  1  0.743002  0.743002  0.743002  1
  O  O4  1  0.023522  0.221973  0.525210  1
  O  O5  1  0.474790  0.976478  0.778027  1
  O  O6  1  0.778027  0.474790  0.976478  1
  O  O7  1  0.221973  0.525210  0.023522  1
  O  O8  1  0.525210  0.023522  0.221973  1
  O  O9  1  0.976478  0.778027  0.474790  1
