# generated using pymatgen
data_Y4MnZn(Co2B)6
_symmetry_space_group_name_H-M   'P 1'
_cell_length_a   5.10304600
_cell_length_b   5.10270762
_cell_length_c   12.59895700
_cell_angle_alpha   90.00052146
_cell_angle_beta   89.99934825
_cell_angle_gamma   119.99860620
_symmetry_Int_Tables_number   1
_chemical_formula_structural   Y4MnZn(Co2B)6
_chemical_formula_sum   'Y4 Mn1 Zn1 Co12 B6'
_cell_volume   284.11979514
_cell_formula_units_Z   1
loop_
 _symmetry_equiv_pos_site_id
 _symmetry_equiv_pos_as_xyz
  1  'x, y, z'
loop_
 _atom_site_type_symbol
 _atom_site_label
 _atom_site_symmetry_multiplicity
 _atom_site_fract_x
 _atom_site_fract_y
 _atom_site_fract_z
 _atom_site_occupancy
  Y  Y0  1  0.000023  0.000034  0.999984  1
  Y  Y1  1  0.999984  0.000001  0.500006  1
  Y  Y2  1  0.999981  0.000007  0.260542  1
  Y  Y3  1  0.000001  0.999995  0.739464  1
  Mn  Mn4  1  0.666753  0.333400  0.999988  1
  Zn  Zn5  1  0.333309  0.666652  0.999984  1
  Co  Co6  1  0.500608  0.001246  0.160768  1
  Co  Co7  1  0.500596  0.499361  0.160745  1
  Co  Co8  1  0.998740  0.499364  0.160769  1
  Co  Co9  1  0.500613  0.001228  0.839235  1
  Co  Co10  1  0.500607  0.499351  0.839239  1
  Co  Co11  1  0.998718  0.499339  0.839235  1
  Co  Co12  1  0.500091  0.000239  0.386155  1
  Co  Co13  1  0.500095  0.499882  0.386156  1
  Co  Co14  1  0.999755  0.499895  0.386145  1
  Co  Co15  1  0.500096  0.000236  0.613851  1
  Co  Co16  1  0.500099  0.499878  0.613854  1
  Co  Co17  1  0.999758  0.499891  0.613860  1
  B  B18  1  0.333350  0.666725  0.500002  1
  B  B19  1  0.666644  0.333278  0.500001  1
  B  B20  1  0.333359  0.666660  0.269907  1
  B  B21  1  0.666626  0.333353  0.269298  1
  B  B22  1  0.666643  0.333302  0.730704  1
  B  B23  1  0.333351  0.666682  0.730106  1
