# generated using pymatgen
data_Na4InSbO6
_symmetry_space_group_name_H-M   'P 1'
_cell_length_a   5.64513924
_cell_length_b   5.64513876
_cell_length_c   5.84416716
_cell_angle_alpha   99.52156428
_cell_angle_beta   99.52155580
_cell_angle_gamma   119.84082803
_symmetry_Int_Tables_number   1
_chemical_formula_structural   Na4InSbO6
_chemical_formula_sum   'Na4 In1 Sb1 O6'
_cell_volume   152.49411092
_cell_formula_units_Z   1
loop_
 _symmetry_equiv_pos_site_id
 _symmetry_equiv_pos_as_xyz
  1  'x, y, z'
loop_
 _atom_site_type_symbol
 _atom_site_label
 _atom_site_symmetry_multiplicity
 _atom_site_fract_x
 _atom_site_fract_y
 _atom_site_fract_z
 _atom_site_occupancy
  Na  Na0  1  0.499439  0.500559  0.000000  1
  Na  Na1  1  0.004173  0.995826  0.499998  1
  Na  Na2  1  0.659588  0.340409  0.500000  1
  Na  Na3  1  0.338437  0.661560  0.500000  1
  In  In4  1  0.832768  0.167230  0.000000  1
  Sb  Sb5  1  0.167189  0.832809  0.000000  1
  O  O6  1  0.950807  0.595251  0.209017  1
  O  O7  1  0.546992  0.927327  0.213711  1
  O  O8  1  0.214570  0.191389  0.213249  1
  O  O9  1  0.808612  0.785430  0.786752  1
  O  O10  1  0.072674  0.453008  0.786289  1
  O  O11  1  0.404749  0.049194  0.790984  1
