# generated using pymatgen
data_Lu4AlTc6Ru
_symmetry_space_group_name_H-M   'P 1'
_cell_length_a   5.25762300
_cell_length_b   5.25762355
_cell_length_c   8.99415500
_cell_angle_alpha   90.00000000
_cell_angle_beta   90.00000000
_cell_angle_gamma   119.99999028
_symmetry_Int_Tables_number   1
_chemical_formula_structural   Lu4AlTc6Ru
_chemical_formula_sum   'Lu4 Al1 Tc6 Ru1'
_cell_volume   215.31286025
_cell_formula_units_Z   1
loop_
 _symmetry_equiv_pos_site_id
 _symmetry_equiv_pos_as_xyz
  1  'x, y, z'
loop_
 _atom_site_type_symbol
 _atom_site_label
 _atom_site_symmetry_multiplicity
 _atom_site_fract_x
 _atom_site_fract_y
 _atom_site_fract_z
 _atom_site_occupancy
  Lu  Lu0  1  0.333333  0.666667  0.436164  1
  Lu  Lu1  1  0.666667  0.333333  0.563836  1
  Lu  Lu2  1  0.666667  0.333333  0.932117  1
  Lu  Lu3  1  0.333333  0.666667  0.067883  1
  Al  Al4  1  0.000000  0.000000  0.000000  1
  Tc  Tc5  1  0.170268  0.340536  0.751585  1
  Tc  Tc6  1  0.170268  0.829732  0.751585  1
  Tc  Tc7  1  0.340536  0.170268  0.248415  1
  Tc  Tc8  1  0.829732  0.659464  0.248415  1
  Tc  Tc9  1  0.659464  0.829732  0.751585  1
  Tc  Tc10  1  0.829732  0.170268  0.248415  1
  Ru  Ru11  1  0.000000  0.000000  0.500000  1
