# generated using pymatgen
data_Yb10CuRuPt2
_symmetry_space_group_name_H-M   'P 1'
_cell_length_a   8.61509804
_cell_length_b   8.60265387
_cell_length_c   7.52039294
_cell_angle_alpha   82.91103989
_cell_angle_beta   83.33268580
_cell_angle_gamma   44.22720675
_symmetry_Int_Tables_number   1
_chemical_formula_structural   Yb10CuRuPt2
_chemical_formula_sum   'Yb10 Cu1 Ru1 Pt2'
_cell_volume   385.47914233
_cell_formula_units_Z   1
loop_
 _symmetry_equiv_pos_site_id
 _symmetry_equiv_pos_as_xyz
  1  'x, y, z'
loop_
 _atom_site_type_symbol
 _atom_site_label
 _atom_site_symmetry_multiplicity
 _atom_site_fract_x
 _atom_site_fract_y
 _atom_site_fract_z
 _atom_site_occupancy
  Yb  Yb0  1  0.024316  0.790658  0.915172  1
  Yb  Yb1  1  0.200960  0.970415  0.575299  1
  Yb  Yb2  1  0.968714  0.205842  0.081687  1
  Yb  Yb3  1  0.800519  0.018633  0.423378  1
  Yb  Yb4  1  0.362293  0.211265  0.814820  1
  Yb  Yb5  1  0.808368  0.632688  0.676182  1
  Yb  Yb6  1  0.636974  0.801948  0.181700  1
  Yb  Yb7  1  0.202564  0.366985  0.327054  1
  Yb  Yb8  1  0.574158  0.421131  0.742620  1
  Yb  Yb9  1  0.419466  0.573488  0.261802  1
  Cu  Cu10  1  0.402889  0.818013  0.919742  1
  Ru  Ru11  1  0.176819  0.606597  0.582908  1
  Pt  Pt12  1  0.819152  0.403401  0.416684  1
  Pt  Pt13  1  0.602808  0.178938  0.080952  1
