# generated using pymatgen
data_TiHg6GeO7
_symmetry_space_group_name_H-M   'P 1'
_cell_length_a   7.36515194
_cell_length_b   7.36515232
_cell_length_c   6.41892893
_cell_angle_alpha   107.57326385
_cell_angle_beta   107.57326349
_cell_angle_gamma   66.92455443
_symmetry_Int_Tables_number   1
_chemical_formula_structural   TiHg6GeO7
_chemical_formula_sum   'Ti1 Hg6 Ge1 O7'
_cell_volume   298.62326981
_cell_formula_units_Z   1
loop_
 _symmetry_equiv_pos_site_id
 _symmetry_equiv_pos_as_xyz
  1  'x, y, z'
loop_
 _atom_site_type_symbol
 _atom_site_label
 _atom_site_symmetry_multiplicity
 _atom_site_fract_x
 _atom_site_fract_y
 _atom_site_fract_z
 _atom_site_occupancy
  Ti  Ti0  1  0.347099  0.347099  0.396423  1
  Hg  Hg1  1  0.862803  0.364028  0.075047  1
  Hg  Hg2  1  0.364028  0.862803  0.075047  1
  Hg  Hg3  1  0.886525  0.886525  0.443016  1
  Hg  Hg4  1  0.112845  0.112845  0.559391  1
  Hg  Hg5  1  0.638171  0.131978  0.922778  1
  Hg  Hg6  1  0.131978  0.638171  0.922778  1
  Ge  Ge7  1  0.658288  0.658288  0.607625  1
  O  O8  1  0.481604  0.112276  0.225842  1
  O  O9  1  0.112276  0.481604  0.225842  1
  O  O10  1  0.701238  0.701238  0.368276  1
  O  O11  1  0.504971  0.504971  0.501297  1
  O  O12  1  0.296934  0.296934  0.636701  1
  O  O13  1  0.883112  0.518130  0.769968  1
  O  O14  1  0.518130  0.883112  0.769968  1
