# generated using pymatgen
data_Dy4Tm6Si5Sn
_symmetry_space_group_name_H-M   'P 1'
_cell_length_a   8.47876636
_cell_length_b   8.47876575
_cell_length_c   6.31605500
_cell_angle_alpha   90.00000000
_cell_angle_beta   90.00000000
_cell_angle_gamma   120.24655396
_symmetry_Int_Tables_number   1
_chemical_formula_structural   Dy4Tm6Si5Sn
_chemical_formula_sum   'Dy4 Tm6 Si5 Sn1'
_cell_volume   392.24506690
_cell_formula_units_Z   1
loop_
 _symmetry_equiv_pos_site_id
 _symmetry_equiv_pos_as_xyz
  1  'x, y, z'
loop_
 _atom_site_type_symbol
 _atom_site_label
 _atom_site_symmetry_multiplicity
 _atom_site_fract_x
 _atom_site_fract_y
 _atom_site_fract_z
 _atom_site_occupancy
  Dy  Dy0  1  0.765591  0.765591  0.250000  1
  Dy  Dy1  1  0.240792  0.240792  0.750000  1
  Dy  Dy2  1  0.756035  0.999022  0.750000  1
  Dy  Dy3  1  0.999022  0.756035  0.750000  1
  Tm  Tm4  1  0.673723  0.331319  0.502735  1
  Tm  Tm5  1  0.331319  0.673723  0.502735  1
  Tm  Tm6  1  0.331319  0.673723  0.997265  1
  Tm  Tm7  1  0.673723  0.331319  0.997265  1
  Tm  Tm8  1  0.240664  0.989521  0.250000  1
  Tm  Tm9  1  0.989521  0.240664  0.250000  1
  Si  Si10  1  0.603887  0.999124  0.250000  1
  Si  Si11  1  0.999124  0.603887  0.250000  1
  Si  Si12  1  0.604950  0.604950  0.750000  1
  Si  Si13  1  0.394503  0.001462  0.750000  1
  Si  Si14  1  0.001462  0.394503  0.750000  1
  Sn  Sn15  1  0.394367  0.394367  0.250000  1
