# generated using pymatgen
data_Hf12Zn11CuC4
_symmetry_space_group_name_H-M   'P 1'
_cell_length_a   8.55486774
_cell_length_b   8.55486736
_cell_length_c   8.55486831
_cell_angle_alpha   59.86192683
_cell_angle_beta   59.86193185
_cell_angle_gamma   59.86192561
_symmetry_Int_Tables_number   1
_chemical_formula_structural   Hf12Zn11CuC4
_chemical_formula_sum   'Hf12 Zn11 Cu1 C4'
_cell_volume   441.32859505
_cell_formula_units_Z   1
loop_
 _symmetry_equiv_pos_site_id
 _symmetry_equiv_pos_as_xyz
  1  'x, y, z'
loop_
 _atom_site_type_symbol
 _atom_site_label
 _atom_site_symmetry_multiplicity
 _atom_site_fract_x
 _atom_site_fract_y
 _atom_site_fract_z
 _atom_site_occupancy
  Hf  Hf0  1  0.439809  0.439809  0.058617  1
  Hf  Hf1  1  0.060747  0.439623  0.060747  1
  Hf  Hf2  1  0.439623  0.060747  0.060747  1
  Hf  Hf3  1  0.060747  0.060747  0.439623  1
  Hf  Hf4  1  0.439809  0.058617  0.439809  1
  Hf  Hf5  1  0.058617  0.439809  0.439809  1
  Hf  Hf6  1  0.810191  0.810191  0.191383  1
  Hf  Hf7  1  0.189253  0.810377  0.189253  1
  Hf  Hf8  1  0.810377  0.189253  0.189253  1
  Hf  Hf9  1  0.189253  0.189253  0.810377  1
  Hf  Hf10  1  0.810191  0.191383  0.810191  1
  Hf  Hf11  1  0.191383  0.810191  0.810191  1
  Zn  Zn12  1  0.829338  0.829338  0.506105  1
  Zn  Zn13  1  0.829338  0.506105  0.829338  1
  Zn  Zn14  1  0.506105  0.829338  0.829338  1
  Zn  Zn15  1  0.831936  0.831936  0.831936  1
  Zn  Zn16  1  0.420662  0.420662  0.743895  1
  Zn  Zn17  1  0.420662  0.743895  0.420662  1
  Zn  Zn18  1  0.743895  0.420662  0.420662  1
  Zn  Zn19  1  0.418064  0.418064  0.418064  1
  Zn  Zn20  1  0.625000  0.625000  0.125000  1
  Zn  Zn21  1  0.625000  0.125000  0.625000  1
  Zn  Zn22  1  0.125000  0.625000  0.625000  1
  Cu  Cu23  1  0.625000  0.625000  0.625000  1
  C  C24  1  0.125000  0.125000  0.625000  1
  C  C25  1  0.125000  0.625000  0.125000  1
  C  C26  1  0.625000  0.125000  0.125000  1
  C  C27  1  0.125000  0.125000  0.125000  1
