# generated using pymatgen
data_TbErGa9NiIr2
_symmetry_space_group_name_H-M   'P 1'
_cell_length_a   7.54117655
_cell_length_b   7.54092868
_cell_length_c   9.46895002
_cell_angle_alpha   89.99958236
_cell_angle_beta   89.99372080
_cell_angle_gamma   120.08067659
_symmetry_Int_Tables_number   1
_chemical_formula_structural   TbErGa9NiIr2
_chemical_formula_sum   'Tb2 Er2 Ga18 Ni2 Ir4'
_cell_volume   465.95369475
_cell_formula_units_Z   2
loop_
 _symmetry_equiv_pos_site_id
 _symmetry_equiv_pos_as_xyz
  1  'x, y, z'
loop_
 _atom_site_type_symbol
 _atom_site_label
 _atom_site_symmetry_multiplicity
 _atom_site_fract_x
 _atom_site_fract_y
 _atom_site_fract_z
 _atom_site_occupancy
  Tb  Tb0  1  0.995686  0.661272  0.749997  1
  Tb  Tb1  1  0.004314  0.338728  0.250003  1
  Er  Er2  1  0.660874  0.995611  0.750004  1
  Er  Er3  1  0.339126  0.004389  0.249996  1
  Ga  Ga4  1  0.113145  0.113685  0.750113  1
  Ga  Ga5  1  0.886855  0.886315  0.249887  1
  Ga  Ga6  1  0.998374  0.326037  0.577704  1
  Ga  Ga7  1  0.001626  0.673963  0.422296  1
  Ga  Ga8  1  0.001556  0.673946  0.077660  1
  Ga  Ga9  1  0.327697  0.999183  0.922847  1
  Ga  Ga10  1  0.998444  0.326054  0.922340  1
  Ga  Ga11  1  0.672303  0.000817  0.077153  1
  Ga  Ga12  1  0.672298  0.000892  0.422834  1
  Ga  Ga13  1  0.327702  0.999108  0.577166  1
  Ga  Ga14  1  0.327242  0.326517  0.066163  1
  Ga  Ga15  1  0.672758  0.673483  0.933837  1
  Ga  Ga16  1  0.672632  0.673339  0.566133  1
  Ga  Ga17  1  0.327368  0.326661  0.433867  1
  Ga  Ga18  1  0.338304  0.540948  0.750038  1
  Ga  Ga19  1  0.661696  0.459052  0.249962  1
  Ga  Ga20  1  0.540017  0.337187  0.750045  1
  Ga  Ga21  1  0.459983  0.662813  0.249955  1
  Ni  Ni22  1  0.000000  0.000000  0.500000  1
  Ni  Ni23  1  0.000000  0.000000  0.000000  1
  Ir  Ir24  1  0.671212  0.328697  0.500009  1
  Ir  Ir25  1  0.328788  0.671303  0.499991  1
  Ir  Ir26  1  0.328798  0.671365  0.000007  1
  Ir  Ir27  1  0.671202  0.328635  0.999993  1
