# generated using pymatgen
data_Yb3Ho15(HfIr6)2
_symmetry_space_group_name_H-M   'P 1'
_cell_length_a   10.82407448
_cell_length_b   10.86530489
_cell_length_c   6.32693500
_cell_angle_alpha   89.96014456
_cell_angle_beta   90.22231131
_cell_angle_gamma   90.01270495
_symmetry_Int_Tables_number   1
_chemical_formula_structural   Yb3Ho15(HfIr6)2
_chemical_formula_sum   'Yb3 Ho15 Hf2 Ir12'
_cell_volume   744.08521892
_cell_formula_units_Z   1
loop_
 _symmetry_equiv_pos_site_id
 _symmetry_equiv_pos_as_xyz
  1  'x, y, z'
loop_
 _atom_site_type_symbol
 _atom_site_label
 _atom_site_symmetry_multiplicity
 _atom_site_fract_x
 _atom_site_fract_y
 _atom_site_fract_z
 _atom_site_occupancy
  Yb  Yb0  1  0.288302  0.086089  0.375459  1
  Yb  Yb1  1  0.290938  0.911924  0.875413  1
  Yb  Yb2  1  0.002061  0.999830  0.499133  1
  Ho  Ho3  1  0.707629  0.086081  0.879728  1
  Ho  Ho4  1  0.709776  0.916167  0.379299  1
  Ho  Ho5  1  0.586627  0.790092  0.877465  1
  Ho  Ho6  1  0.585003  0.209627  0.376808  1
  Ho  Ho7  1  0.413486  0.791247  0.377540  1
  Ho  Ho8  1  0.412362  0.209134  0.878413  1
  Ho  Ho9  1  0.211743  0.414449  0.625289  1
  Ho  Ho10  1  0.212089  0.587016  0.124303  1
  Ho  Ho11  1  0.788377  0.412378  0.121784  1
  Ho  Ho12  1  0.788703  0.586103  0.622297  1
  Ho  Ho13  1  0.912740  0.707781  0.122206  1
  Ho  Ho14  1  0.914392  0.290017  0.623053  1
  Ho  Ho15  1  0.085549  0.709073  0.621682  1
  Ho  Ho16  1  0.087488  0.293197  0.121694  1
  Ho  Ho17  1  0.000965  0.000369  0.999512  1
  Hf  Hf18  1  0.500624  0.499814  0.998192  1
  Hf  Hf19  1  0.500562  0.500210  0.498289  1
  Ir  Ir20  1  0.846102  0.157542  0.245280  1
  Ir  Ir21  1  0.845151  0.843532  0.754926  1
  Ir  Ir22  1  0.151324  0.163457  0.758104  1
  Ir  Ir23  1  0.150052  0.834956  0.246917  1
  Ir  Ir24  1  0.640160  0.357984  0.749003  1
  Ir  Ir25  1  0.639874  0.642358  0.250676  1
  Ir  Ir26  1  0.359611  0.361943  0.246932  1
  Ir  Ir27  1  0.359384  0.637969  0.744995  1
  Ir  Ir28  1  0.504646  0.000204  0.123876  1
  Ir  Ir29  1  0.504740  0.999617  0.623050  1
  Ir  Ir30  1  0.999736  0.500197  0.878721  1
  Ir  Ir31  1  0.999804  0.499644  0.379958  1
