# generated using pymatgen
data_Hf7Zr(Ti3Si4)4
_symmetry_space_group_name_H-M   'P 1'
_cell_length_a   6.81973898
_cell_length_b   6.82071940
_cell_length_c   12.48117300
_cell_angle_alpha   89.96635908
_cell_angle_beta   89.98482823
_cell_angle_gamma   89.99285547
_symmetry_Int_Tables_number   1
_chemical_formula_structural   Hf7Zr(Ti3Si4)4
_chemical_formula_sum   'Hf7 Zr1 Ti12 Si16'
_cell_volume   580.56820196
_cell_formula_units_Z   1
loop_
 _symmetry_equiv_pos_site_id
 _symmetry_equiv_pos_as_xyz
  1  'x, y, z'
loop_
 _atom_site_type_symbol
 _atom_site_label
 _atom_site_symmetry_multiplicity
 _atom_site_fract_x
 _atom_site_fract_y
 _atom_site_fract_z
 _atom_site_occupancy
  Hf  Hf0  1  0.343901  0.999671  0.467990  1
  Hf  Hf1  1  0.500340  0.844133  0.717207  1
  Hf  Hf2  1  0.499068  0.156272  0.218410  1
  Hf  Hf3  1  0.844100  0.500720  0.282722  1
  Hf  Hf4  1  0.155937  0.499168  0.782041  1
  Hf  Hf5  1  0.655843  0.000576  0.967250  1
  Hf  Hf6  1  0.999443  0.343961  0.532115  1
  Zr  Zr7  1  0.000018  0.655936  0.032503  1
  Ti  Ti8  1  0.329225  0.329025  0.999853  1
  Ti  Ti9  1  0.171002  0.829466  0.250287  1
  Ti  Ti10  1  0.829297  0.171064  0.749556  1
  Ti  Ti11  1  0.670786  0.670916  0.500099  1
  Ti  Ti12  1  0.152751  0.002853  0.872474  1
  Ti  Ti13  1  0.496669  0.652478  0.123342  1
  Ti  Ti14  1  0.503583  0.348026  0.622701  1
  Ti  Ti15  1  0.652564  0.495547  0.876444  1
  Ti  Ti16  1  0.347856  0.503539  0.377561  1
  Ti  Ti17  1  0.847891  0.996414  0.373594  1
  Ti  Ti18  1  0.003753  0.152841  0.127365  1
  Ti  Ti19  1  0.996465  0.848170  0.626522  1
  Si  Si20  1  0.205539  0.136302  0.676777  1
  Si  Si21  1  0.365245  0.705531  0.926771  1
  Si  Si22  1  0.636039  0.294372  0.427159  1
  Si  Si23  1  0.704370  0.362748  0.072660  1
  Si  Si24  1  0.293935  0.635935  0.573084  1
  Si  Si25  1  0.793585  0.865088  0.178107  1
  Si  Si26  1  0.135932  0.205703  0.323350  1
  Si  Si27  1  0.863529  0.794747  0.821913  1
  Si  Si28  1  0.294995  0.955523  0.064068  1
  Si  Si29  1  0.544701  0.794175  0.314508  1
  Si  Si30  1  0.454708  0.205967  0.813545  1
  Si  Si31  1  0.794291  0.545106  0.685598  1
  Si  Si32  1  0.206802  0.454305  0.186719  1
  Si  Si33  1  0.705768  0.045377  0.564071  1
  Si  Si34  1  0.954822  0.292421  0.935694  1
  Si  Si35  1  0.045249  0.705923  0.435942  1
