# generated using pymatgen
data_Rb2Si8Pb4O21
_symmetry_space_group_name_H-M   'P 1'
_cell_length_a   7.09043690
_cell_length_b   7.44340041
_cell_length_c   11.87210000
_cell_angle_alpha   96.79044842
_cell_angle_beta   103.73158367
_cell_angle_gamma   111.12245686
_symmetry_Int_Tables_number   1
_chemical_formula_structural   Rb2Si8Pb4O21
_chemical_formula_sum   'Rb2 Si8 Pb4 O21'
_cell_volume   553.22700611
_cell_formula_units_Z   1
loop_
 _symmetry_equiv_pos_site_id
 _symmetry_equiv_pos_as_xyz
  1  'x, y, z'
loop_
 _atom_site_type_symbol
 _atom_site_label
 _atom_site_symmetry_multiplicity
 _atom_site_fract_x
 _atom_site_fract_y
 _atom_site_fract_z
 _atom_site_occupancy
  Rb  Rb0  1  0.744160  0.713580  0.437633  1
  Rb  Rb1  1  0.255840  0.286420  0.562367  1
  Si  Si2  1  0.090546  0.224834  0.869473  1
  Si  Si3  1  0.909454  0.775166  0.130527  1
  Si  Si4  1  0.177838  0.896085  0.738253  1
  Si  Si5  1  0.822162  0.103915  0.261747  1
  Si  Si6  1  0.661345  0.195192  0.469757  1
  Si  Si7  1  0.338655  0.804808  0.530243  1
  Si  Si8  1  0.879198  0.455276  0.730234  1
  Si  Si9  1  0.120802  0.544724  0.269766  1
  Pb  Pb10  1  0.647032  0.777936  0.816945  1
  Pb  Pb11  1  0.352968  0.222064  0.183055  1
  Pb  Pb12  1  0.363324  0.719562  0.055315  1
  Pb  Pb13  1  0.636676  0.280438  0.944685  1
  O  O14  1  0.500000  0.000000  0.500000  1
  O  O15  1  0.843221  0.338270  0.595194  1
  O  O16  1  0.156779  0.661730  0.404806  1
  O  O17  1  0.394407  0.932695  0.838871  1
  O  O18  1  0.605593  0.067305  0.161129  1
  O  O19  1  0.873170  0.111382  0.900164  1
  O  O20  1  0.126830  0.888618  0.099836  1
  O  O21  1  0.690852  0.695331  0.022641  1
  O  O22  1  0.309148  0.304669  0.977359  1
  O  O23  1  0.104728  0.080969  0.755374  1
  O  O24  1  0.895272  0.919031  0.244626  1
  O  O25  1  0.076169  0.422126  0.818892  1
  O  O26  1  0.923831  0.577874  0.181108  1
  O  O27  1  0.972937  0.695806  0.734197  1
  O  O28  1  0.027063  0.304194  0.265803  1
  O  O29  1  0.464363  0.694274  0.602234  1
  O  O30  1  0.535637  0.305726  0.397766  1
  O  O31  1  0.333658  0.603939  0.230563  1
  O  O32  1  0.666342  0.396061  0.769437  1
  O  O33  1  0.196915  0.881940  0.601611  1
  O  O34  1  0.803085  0.118060  0.398389  1
