# generated using pymatgen
data_Tb3Nd4DySb20
_symmetry_space_group_name_H-M   'P 1'
_cell_length_a   4.25716300
_cell_length_b   13.41001432
_cell_length_c   15.02833509
_cell_angle_alpha   77.99404471
_cell_angle_beta   90.00000000
_cell_angle_gamma   90.00000000
_symmetry_Int_Tables_number   1
_chemical_formula_structural   Tb3Nd4DySb20
_chemical_formula_sum   'Tb3 Nd4 Dy1 Sb20'
_cell_volume   839.18012073
_cell_formula_units_Z   1
loop_
 _symmetry_equiv_pos_site_id
 _symmetry_equiv_pos_as_xyz
  1  'x, y, z'
loop_
 _atom_site_type_symbol
 _atom_site_label
 _atom_site_symmetry_multiplicity
 _atom_site_fract_x
 _atom_site_fract_y
 _atom_site_fract_z
 _atom_site_occupancy
  Tb  Tb0  1  0.750000  0.332085  0.422990  1
  Tb  Tb1  1  0.250000  0.395705  0.772865  1
  Tb  Tb2  1  0.750000  0.600511  0.227772  1
  Nd  Nd3  1  0.250000  0.952198  0.360635  1
  Nd  Nd4  1  0.250000  0.664183  0.857710  1
  Nd  Nd5  1  0.250000  0.667196  0.575617  1
  Nd  Nd6  1  0.750000  0.050813  0.638408  1
  Dy  Dy7  1  0.750000  0.335896  0.143790  1
  Sb  Sb8  1  0.750000  0.851411  0.820647  1
  Sb  Sb9  1  0.250000  0.861948  0.674798  1
  Sb  Sb10  1  0.250000  0.148501  0.478154  1
  Sb  Sb11  1  0.750000  0.282771  0.937893  1
  Sb  Sb12  1  0.250000  0.146949  0.780021  1
  Sb  Sb13  1  0.750000  0.572270  0.441702  1
  Sb  Sb14  1  0.750000  0.142478  0.324585  1
  Sb  Sb15  1  0.250000  0.705436  0.349236  1
  Sb  Sb16  1  0.750000  0.293402  0.648059  1
  Sb  Sb17  1  0.750000  0.853540  0.219781  1
  Sb  Sb18  1  0.250000  0.418993  0.976393  1
  Sb  Sb19  1  0.250000  0.424687  0.555534  1
  Sb  Sb20  1  0.750000  0.572806  0.735976  1
  Sb  Sb21  1  0.250000  0.420747  0.264297  1
  Sb  Sb22  1  0.750000  0.856861  0.520841  1
  Sb  Sb23  1  0.750000  0.032348  0.892557  1
  Sb  Sb24  1  0.250000  0.714906  0.066065  1
  Sb  Sb25  1  0.250000  0.969986  0.108253  1
  Sb  Sb26  1  0.250000  0.153793  0.178172  1
  Sb  Sb27  1  0.750000  0.577577  0.027254  1
