# generated using pymatgen
data_KSb12(RuRh)2
_symmetry_space_group_name_H-M   'P 1'
_cell_length_a   8.16824010
_cell_length_b   8.16974401
_cell_length_c   8.16798176
_cell_angle_alpha   109.46698608
_cell_angle_beta   109.43553646
_cell_angle_gamma   109.48046936
_symmetry_Int_Tables_number   1
_chemical_formula_structural   KSb12(RuRh)2
_chemical_formula_sum   'K1 Sb12 Ru2 Rh2'
_cell_volume   419.75321884
_cell_formula_units_Z   1
loop_
 _symmetry_equiv_pos_site_id
 _symmetry_equiv_pos_as_xyz
  1  'x, y, z'
loop_
 _atom_site_type_symbol
 _atom_site_label
 _atom_site_symmetry_multiplicity
 _atom_site_fract_x
 _atom_site_fract_y
 _atom_site_fract_z
 _atom_site_occupancy
  K  K0  1  0.000000  0.000000  0.000000  1
  Sb  Sb1  1  0.655257  0.841057  0.499560  1
  Sb  Sb2  1  0.344743  0.158943  0.500440  1
  Sb  Sb3  1  0.840457  0.185201  0.341419  1
  Sb  Sb4  1  0.811901  0.655491  0.156666  1
  Sb  Sb5  1  0.840914  0.499420  0.655211  1
  Sb  Sb6  1  0.188099  0.344509  0.843334  1
  Sb  Sb7  1  0.159543  0.814799  0.658581  1
  Sb  Sb8  1  0.500092  0.659027  0.841031  1
  Sb  Sb9  1  0.499908  0.340973  0.158969  1
  Sb  Sb10  1  0.159086  0.500580  0.344789  1
  Sb  Sb11  1  0.344485  0.843871  0.185630  1
  Sb  Sb12  1  0.655515  0.156129  0.814370  1
  Ru  Ru13  1  0.500000  0.500000  0.500000  1
  Ru  Ru14  1  0.500000  0.000000  0.000000  1
  Rh  Rh15  1  0.000000  0.000000  0.500000  1
  Rh  Rh16  1  0.000000  0.500000  0.000000  1
