# generated using pymatgen
data_Ce8Er12Si15Hg
_symmetry_space_group_name_H-M   'P 1'
_cell_length_a   7.43219365
_cell_length_b   7.73003354
_cell_length_c   14.72015700
_cell_angle_alpha   89.94327519
_cell_angle_beta   89.49502974
_cell_angle_gamma   90.15575608
_symmetry_Int_Tables_number   1
_chemical_formula_structural   Ce8Er12Si15Hg
_chemical_formula_sum   'Ce8 Er12 Si15 Hg1'
_cell_volume   845.65289840
_cell_formula_units_Z   1
loop_
 _symmetry_equiv_pos_site_id
 _symmetry_equiv_pos_as_xyz
  1  'x, y, z'
loop_
 _atom_site_type_symbol
 _atom_site_label
 _atom_site_symmetry_multiplicity
 _atom_site_fract_x
 _atom_site_fract_y
 _atom_site_fract_z
 _atom_site_occupancy
  Ce  Ce0  1  0.018310  0.178001  0.097923  1
  Ce  Ce1  1  0.981931  0.823258  0.903741  1
  Ce  Ce2  1  0.482448  0.677142  0.903778  1
  Ce  Ce3  1  0.982527  0.830185  0.597817  1
  Ce  Ce4  1  0.517053  0.322613  0.096928  1
  Ce  Ce5  1  0.009590  0.172485  0.399965  1
  Ce  Ce6  1  0.518677  0.318913  0.398056  1
  Ce  Ce7  1  0.492854  0.685846  0.600460  1
  Er  Er8  1  0.161129  0.512968  0.754250  1
  Er  Er9  1  0.838683  0.484948  0.249911  1
  Er  Er10  1  0.339289  0.013057  0.249722  1
  Er  Er11  1  0.662595  0.985270  0.751827  1
  Er  Er12  1  0.337794  0.171630  0.626141  1
  Er  Er13  1  0.669090  0.821952  0.375680  1
  Er  Er14  1  0.168696  0.680232  0.373438  1
  Er  Er15  1  0.674359  0.819967  0.122341  1
  Er  Er16  1  0.823026  0.324283  0.622726  1
  Er  Er17  1  0.324910  0.178530  0.878389  1
  Er  Er18  1  0.825145  0.319968  0.878486  1
  Er  Er19  1  0.173991  0.678801  0.122862  1
  Si  Si20  1  0.034853  0.112314  0.751058  1
  Si  Si21  1  0.965402  0.892337  0.248450  1
  Si  Si22  1  0.465529  0.608012  0.248686  1
  Si  Si23  1  0.534422  0.392475  0.751774  1
  Si  Si24  1  0.278084  0.876994  0.751300  1
  Si  Si25  1  0.719452  0.121765  0.247740  1
  Si  Si26  1  0.220168  0.375782  0.249167  1
  Si  Si27  1  0.781422  0.621958  0.752206  1
  Si  Si28  1  0.834566  0.532319  0.458528  1
  Si  Si29  1  0.343295  0.969694  0.460533  1
  Si  Si30  1  0.849164  0.529572  0.039034  1
  Si  Si31  1  0.655685  0.034005  0.535944  1
  Si  Si32  1  0.150093  0.469733  0.962057  1
  Si  Si33  1  0.649358  0.029650  0.961756  1
  Si  Si34  1  0.349670  0.969591  0.039283  1
  Hg  Hg35  1  0.166745  0.463744  0.538039  1
