# generated using pymatgen
data_Sr7Nd(Si3Pd)4
_symmetry_space_group_name_H-M   'P 1'
_cell_length_a   8.39978600
_cell_length_b   8.39978645
_cell_length_c   8.98288600
_cell_angle_alpha   90.00000000
_cell_angle_beta   90.00000000
_cell_angle_gamma   120.00000612
_symmetry_Int_Tables_number   1
_chemical_formula_structural   Sr7Nd(Si3Pd)4
_chemical_formula_sum   'Sr7 Nd1 Si12 Pd4'
_cell_volume   548.88701858
_cell_formula_units_Z   1
loop_
 _symmetry_equiv_pos_site_id
 _symmetry_equiv_pos_as_xyz
  1  'x, y, z'
loop_
 _atom_site_type_symbol
 _atom_site_label
 _atom_site_symmetry_multiplicity
 _atom_site_fract_x
 _atom_site_fract_y
 _atom_site_fract_z
 _atom_site_occupancy
  Sr  Sr0  1  0.500543  0.001084  0.250000  1
  Sr  Sr1  1  0.499294  0.998588  0.750000  1
  Sr  Sr2  1  0.998916  0.499457  0.250000  1
  Sr  Sr3  1  0.001412  0.500706  0.750000  1
  Sr  Sr4  1  0.500543  0.499457  0.250000  1
  Sr  Sr5  1  0.499294  0.500706  0.750000  1
  Sr  Sr6  1  0.000000  0.000000  0.250000  1
  Nd  Nd7  1  0.000000  0.000000  0.750000  1
  Si  Si8  1  0.163769  0.327538  0.994483  1
  Si  Si9  1  0.836199  0.672398  0.992827  1
  Si  Si10  1  0.672462  0.836231  0.994483  1
  Si  Si11  1  0.836199  0.672398  0.507173  1
  Si  Si12  1  0.327602  0.163801  0.992827  1
  Si  Si13  1  0.163769  0.327538  0.505517  1
  Si  Si14  1  0.163769  0.836231  0.994483  1
  Si  Si15  1  0.327602  0.163801  0.507173  1
  Si  Si16  1  0.836199  0.163801  0.992827  1
  Si  Si17  1  0.672462  0.836231  0.505517  1
  Si  Si18  1  0.836199  0.163801  0.507173  1
  Si  Si19  1  0.163769  0.836231  0.505517  1
  Pd  Pd20  1  0.333333  0.666667  0.000271  1
  Pd  Pd21  1  0.666667  0.333333  0.998664  1
  Pd  Pd22  1  0.666667  0.333333  0.501336  1
  Pd  Pd23  1  0.333333  0.666667  0.499729  1
