# generated using pymatgen
data_HoEr5Al14(Si5Os4)2
_symmetry_space_group_name_H-M   'P 1'
_cell_length_a   8.69878004
_cell_length_b   8.69877935
_cell_length_c   9.29495500
_cell_angle_alpha   90.00000000
_cell_angle_beta   90.00000000
_cell_angle_gamma   120.07691937
_symmetry_Int_Tables_number   1
_chemical_formula_structural   HoEr5Al14(Si5Os4)2
_chemical_formula_sum   'Ho1 Er5 Al14 Si10 Os8'
_cell_volume   608.63573484
_cell_formula_units_Z   1
loop_
 _symmetry_equiv_pos_site_id
 _symmetry_equiv_pos_as_xyz
  1  'x, y, z'
loop_
 _atom_site_type_symbol
 _atom_site_label
 _atom_site_symmetry_multiplicity
 _atom_site_fract_x
 _atom_site_fract_y
 _atom_site_fract_z
 _atom_site_occupancy
  Ho  Ho0  1  0.806323  0.193677  0.750000  1
  Er  Er1  1  0.191957  0.386417  0.250000  1
  Er  Er2  1  0.808974  0.615349  0.750000  1
  Er  Er3  1  0.613583  0.808043  0.250000  1
  Er  Er4  1  0.384651  0.191026  0.750000  1
  Er  Er5  1  0.194071  0.805929  0.250000  1
  Al  Al6  1  0.165241  0.331330  0.579327  1
  Al  Al7  1  0.834787  0.671466  0.421207  1
  Al  Al8  1  0.668670  0.834759  0.579327  1
  Al  Al9  1  0.834787  0.671466  0.078793  1
  Al  Al10  1  0.328534  0.165213  0.421207  1
  Al  Al11  1  0.165241  0.331330  0.920673  1
  Al  Al12  1  0.166349  0.833651  0.578218  1
  Al  Al13  1  0.328534  0.165213  0.078793  1
  Al  Al14  1  0.835977  0.164023  0.421168  1
  Al  Al15  1  0.668670  0.834759  0.920673  1
  Al  Al16  1  0.835977  0.164023  0.078832  1
  Al  Al17  1  0.166349  0.833651  0.921782  1
  Al  Al18  1  0.564708  0.435292  0.250000  1
  Al  Al19  1  0.000373  0.999627  0.250000  1
  Si  Si20  1  0.334127  0.665873  0.042884  1
  Si  Si21  1  0.665226  0.334774  0.958116  1
  Si  Si22  1  0.665226  0.334774  0.541884  1
  Si  Si23  1  0.334127  0.665873  0.457116  1
  Si  Si24  1  0.564215  0.124771  0.250000  1
  Si  Si25  1  0.438815  0.875878  0.750000  1
  Si  Si26  1  0.875229  0.435785  0.250000  1
  Si  Si27  1  0.124122  0.561185  0.750000  1
  Si  Si28  1  0.437190  0.562810  0.750000  1
  Si  Si29  1  0.998033  0.001967  0.750000  1
  Os  Os30  1  0.499840  0.999373  0.999744  1
  Os  Os31  1  0.000627  0.500160  0.999744  1
  Os  Os32  1  0.499840  0.999373  0.500256  1
  Os  Os33  1  0.499158  0.500842  0.993458  1
  Os  Os34  1  0.000627  0.500160  0.500256  1
  Os  Os35  1  0.499158  0.500842  0.506542  1
  Os  Os36  1  0.000343  0.999657  0.992545  1
  Os  Os37  1  0.000343  0.999657  0.507455  1
