# generated using pymatgen
data_LaTbPr2(MoO6)2
_symmetry_space_group_name_H-M   'P 1'
_cell_length_a   10.27158484
_cell_length_b   10.27158586
_cell_length_c   5.57064149
_cell_angle_alpha   75.14548375
_cell_angle_beta   75.14548148
_cell_angle_gamma   68.68505187
_symmetry_Int_Tables_number   1
_chemical_formula_structural   LaTbPr2(MoO6)2
_chemical_formula_sum   'La2 Tb2 Pr4 Mo4 O24'
_cell_volume   520.46924859
_cell_formula_units_Z   2
loop_
 _symmetry_equiv_pos_site_id
 _symmetry_equiv_pos_as_xyz
  1  'x, y, z'
loop_
 _atom_site_type_symbol
 _atom_site_label
 _atom_site_symmetry_multiplicity
 _atom_site_fract_x
 _atom_site_fract_y
 _atom_site_fract_z
 _atom_site_occupancy
  La  La0  1  0.637715  0.362285  0.750000  1
  La  La1  1  0.362285  0.637715  0.250000  1
  Tb  Tb2  1  0.102147  0.897853  0.750000  1
  Tb  Tb3  1  0.897853  0.102147  0.250000  1
  Pr  Pr4  1  0.713365  0.945984  0.880580  1
  Pr  Pr5  1  0.286635  0.054016  0.119420  1
  Pr  Pr6  1  0.054016  0.286635  0.619420  1
  Pr  Pr7  1  0.945984  0.713365  0.380580  1
  Mo  Mo8  1  0.506513  0.799448  0.564242  1
  Mo  Mo9  1  0.493487  0.200552  0.435758  1
  Mo  Mo10  1  0.200552  0.493487  0.935758  1
  Mo  Mo11  1  0.799448  0.506513  0.064242  1
  O  O12  1  0.693298  0.161320  0.563261  1
  O  O13  1  0.306702  0.838680  0.436739  1
  O  O14  1  0.838680  0.306702  0.936739  1
  O  O15  1  0.161320  0.693298  0.063261  1
  O  O16  1  0.387520  0.831822  0.869515  1
  O  O17  1  0.612480  0.168178  0.130485  1
  O  O18  1  0.168178  0.612480  0.630485  1
  O  O19  1  0.831822  0.387520  0.369515  1
  O  O20  1  0.675414  0.790495  0.633354  1
  O  O21  1  0.324586  0.209505  0.366646  1
  O  O22  1  0.209505  0.324586  0.866646  1
  O  O23  1  0.790495  0.675414  0.133354  1
  O  O24  1  0.476447  0.073239  0.735804  1
  O  O25  1  0.523553  0.926761  0.264196  1
  O  O26  1  0.926761  0.523553  0.764196  1
  O  O27  1  0.073239  0.476447  0.235804  1
  O  O28  1  0.543483  0.619464  0.521681  1
  O  O29  1  0.456517  0.380536  0.478319  1
  O  O30  1  0.380536  0.456517  0.978319  1
  O  O31  1  0.619464  0.543483  0.021681  1
  O  O32  1  0.894639  0.929145  0.075153  1
  O  O33  1  0.105361  0.070855  0.924847  1
  O  O34  1  0.070855  0.105361  0.424847  1
  O  O35  1  0.929145  0.894639  0.575153  1
