# generated using pymatgen
data_Fe2PdCl8
_symmetry_space_group_name_H-M   'P 1'
_cell_length_a   7.47176328
_cell_length_b   7.47176261
_cell_length_c   7.23288359
_cell_angle_alpha   82.82442005
_cell_angle_beta   82.82442087
_cell_angle_gamma   68.78637894
_symmetry_Int_Tables_number   1
_chemical_formula_structural   Fe2PdCl8
_chemical_formula_sum   'Fe2 Pd1 Cl8'
_cell_volume   372.09237852
_cell_formula_units_Z   1
loop_
 _symmetry_equiv_pos_site_id
 _symmetry_equiv_pos_as_xyz
  1  'x, y, z'
loop_
 _atom_site_type_symbol
 _atom_site_label
 _atom_site_symmetry_multiplicity
 _atom_site_fract_x
 _atom_site_fract_y
 _atom_site_fract_z
 _atom_site_occupancy
  Fe  Fe0  1  0.208330  0.208330  0.674946  1
  Fe  Fe1  1  0.791670  0.791670  0.325054  1
  Pd  Pd2  1  0.000000  0.000000  0.000000  1
  Cl  Cl3  1  0.690855  0.086229  0.155065  1
  Cl  Cl4  1  0.086229  0.690855  0.155065  1
  Cl  Cl5  1  0.309145  0.913771  0.844935  1
  Cl  Cl6  1  0.622226  0.622226  0.290024  1
  Cl  Cl7  1  0.913771  0.309145  0.844935  1
  Cl  Cl8  1  0.181635  0.181635  0.386948  1
  Cl  Cl9  1  0.818365  0.818365  0.613052  1
  Cl  Cl10  1  0.377774  0.377774  0.709976  1
