# generated using pymatgen
data_CaSm6BeBr12
_symmetry_space_group_name_H-M   'P 1'
_cell_length_a   9.37319764
_cell_length_b   9.37327030
_cell_length_c   9.37487565
_cell_angle_alpha   107.14331738
_cell_angle_beta   107.14214732
_cell_angle_gamma   107.13399722
_symmetry_Int_Tables_number   1
_chemical_formula_structural   CaSm6BeBr12
_chemical_formula_sum   'Ca1 Sm6 Be1 Br12'
_cell_volume   683.31314636
_cell_formula_units_Z   1
loop_
 _symmetry_equiv_pos_site_id
 _symmetry_equiv_pos_as_xyz
  1  'x, y, z'
loop_
 _atom_site_type_symbol
 _atom_site_label
 _atom_site_symmetry_multiplicity
 _atom_site_fract_x
 _atom_site_fract_y
 _atom_site_fract_z
 _atom_site_occupancy
  Ca  Ca0  1  0.500000  0.500000  0.500000  1
  Sm  Sm1  1  0.313075  0.101603  0.024056  1
  Sm  Sm2  1  0.024073  0.313064  0.101647  1
  Sm  Sm3  1  0.101619  0.024040  0.313024  1
  Sm  Sm4  1  0.898381  0.975960  0.686977  1
  Sm  Sm5  1  0.975927  0.686937  0.898354  1
  Sm  Sm6  1  0.686926  0.898397  0.975945  1
  Be  Be7  1  0.000000  0.000000  0.000000  1
  Br  Br8  1  0.681518  0.223135  0.070170  1
  Br  Br9  1  0.378255  0.455148  0.159781  1
  Br  Br10  1  0.070168  0.681493  0.223062  1
  Br  Br11  1  0.776928  0.929836  0.318416  1
  Br  Br12  1  0.455148  0.159719  0.378199  1
  Br  Br13  1  0.159727  0.378231  0.455120  1
  Br  Br14  1  0.840273  0.621770  0.544880  1
  Br  Br15  1  0.544852  0.840282  0.621801  1
  Br  Br16  1  0.223073  0.070165  0.681584  1
  Br  Br17  1  0.929832  0.318507  0.776939  1
  Br  Br18  1  0.621746  0.544852  0.840219  1
  Br  Br19  1  0.318483  0.776865  0.929830  1
