# generated using pymatgen
data_Pd5PtCl12
_symmetry_space_group_name_H-M   'P 1'
_cell_length_a   8.64434582
_cell_length_b   8.62864407
_cell_length_c   8.62864400
_cell_angle_alpha   108.16931965
_cell_angle_beta   108.13772201
_cell_angle_gamma   108.13772503
_symmetry_Int_Tables_number   1
_chemical_formula_structural   Pd5PtCl12
_chemical_formula_sum   'Pd5 Pt1 Cl12'
_cell_volume   518.29278892
_cell_formula_units_Z   1
loop_
 _symmetry_equiv_pos_site_id
 _symmetry_equiv_pos_as_xyz
  1  'x, y, z'
loop_
 _atom_site_type_symbol
 _atom_site_label
 _atom_site_symmetry_multiplicity
 _atom_site_fract_x
 _atom_site_fract_y
 _atom_site_fract_z
 _atom_site_occupancy
  Pd  Pd0  1  0.929153  0.929523  0.690892  1
  Pd  Pd1  1  0.691580  0.929813  0.929813  1
  Pd  Pd2  1  0.929153  0.690892  0.929523  1
  Pd  Pd3  1  0.069837  0.308748  0.070199  1
  Pd  Pd4  1  0.069837  0.070199  0.308748  1
  Pt  Pt5  1  0.308244  0.070152  0.070152  1
  Cl  Cl6  1  0.999786  0.236333  0.763625  1
  Cl  Cl7  1  0.764714  0.000290  0.236292  1
  Cl  Cl8  1  0.236650  0.766497  0.000551  1
  Cl  Cl9  1  0.999786  0.763625  0.236333  1
  Cl  Cl10  1  0.236650  0.000551  0.766497  1
  Cl  Cl11  1  0.764714  0.236292  0.000290  1
  Cl  Cl12  1  0.137607  0.374870  0.374870  1
  Cl  Cl13  1  0.374175  0.372055  0.137272  1
  Cl  Cl14  1  0.374175  0.137272  0.372055  1
  Cl  Cl15  1  0.625978  0.862369  0.625475  1
  Cl  Cl16  1  0.861986  0.625044  0.625044  1
  Cl  Cl17  1  0.625978  0.625475  0.862369  1
