# generated using pymatgen
data_YCdIrRhO7
_symmetry_space_group_name_H-M   'P 1'
_cell_length_a   7.24545419
_cell_length_b   7.24545414
_cell_length_c   7.35778600
_cell_angle_alpha   59.48580952
_cell_angle_beta   59.48580979
_cell_angle_gamma   59.11739485
_symmetry_Int_Tables_number   1
_chemical_formula_structural   YCdIrRhO7
_chemical_formula_sum   'Y2 Cd2 Ir2 Rh2 O14'
_cell_volume   269.15861906
_cell_formula_units_Z   2
loop_
 _symmetry_equiv_pos_site_id
 _symmetry_equiv_pos_as_xyz
  1  'x, y, z'
loop_
 _atom_site_type_symbol
 _atom_site_label
 _atom_site_symmetry_multiplicity
 _atom_site_fract_x
 _atom_site_fract_y
 _atom_site_fract_z
 _atom_site_occupancy
  Y  Y0  1  0.125000  0.125000  0.625000  1
  Y  Y1  1  0.125000  0.125000  0.125000  1
  Cd  Cd2  1  0.625000  0.125000  0.125000  1
  Cd  Cd3  1  0.125000  0.625000  0.125000  1
  Ir  Ir4  1  0.625000  0.625000  0.125000  1
  Ir  Ir5  1  0.625000  0.625000  0.625000  1
  Rh  Rh6  1  0.125000  0.625000  0.625000  1
  Rh  Rh7  1  0.625000  0.125000  0.625000  1
  O  O8  1  0.697345  0.697345  0.302655  1
  O  O9  1  0.285387  0.285387  0.714613  1
  O  O10  1  0.707713  0.297256  0.699772  1
  O  O11  1  0.297256  0.707713  0.295259  1
  O  O12  1  0.297256  0.707713  0.699772  1
  O  O13  1  0.707713  0.297256  0.295259  1
  O  O14  1  0.552655  0.552655  0.947345  1
  O  O15  1  0.964613  0.964613  0.535387  1
  O  O16  1  0.542287  0.952744  0.550228  1
  O  O17  1  0.952744  0.542287  0.954741  1
  O  O18  1  0.952744  0.542287  0.550228  1
  O  O19  1  0.542287  0.952744  0.954741  1
  O  O20  1  0.251113  0.251113  0.248887  1
  O  O21  1  0.998887  0.998887  0.001113  1
