# generated using pymatgen
data_CeZnHgPt3
_symmetry_space_group_name_H-M   'P 1'
_cell_length_a   5.51599965
_cell_length_b   5.51600000
_cell_length_c   5.29925405
_cell_angle_alpha   58.63751664
_cell_angle_beta   58.63752326
_cell_angle_gamma   60.00000078
_symmetry_Int_Tables_number   1
_chemical_formula_structural   CeZnHgPt3
_chemical_formula_sum   'Ce1 Zn1 Hg1 Pt3'
_cell_volume   111.60674836
_cell_formula_units_Z   1
loop_
 _symmetry_equiv_pos_site_id
 _symmetry_equiv_pos_as_xyz
  1  'x, y, z'
loop_
 _atom_site_type_symbol
 _atom_site_label
 _atom_site_symmetry_multiplicity
 _atom_site_fract_x
 _atom_site_fract_y
 _atom_site_fract_z
 _atom_site_occupancy
  Ce  Ce0  1  0.003346  0.003346  0.989961  1
  Zn  Zn1  1  0.623104  0.623104  0.130686  1
  Hg  Hg2  1  0.252034  0.252034  0.243898  1
  Pt  Pt3  1  0.623202  0.125110  0.628485  1
  Pt  Pt4  1  0.125110  0.623202  0.628485  1
  Pt  Pt5  1  0.623202  0.623202  0.628485  1
