# generated using pymatgen
data_Hf12Al8ZnRh3C4
_symmetry_space_group_name_H-M   'P 1'
_cell_length_a   8.58475036
_cell_length_b   8.59484406
_cell_length_c   8.58475000
_cell_angle_alpha   60.03884232
_cell_angle_beta   60.00000138
_cell_angle_gamma   60.03884186
_symmetry_Int_Tables_number   1
_chemical_formula_structural   Hf12Al8ZnRh3C4
_chemical_formula_sum   'Hf12 Al8 Zn1 Rh3 C4'
_cell_volume   448.15996286
_cell_formula_units_Z   1
loop_
 _symmetry_equiv_pos_site_id
 _symmetry_equiv_pos_as_xyz
  1  'x, y, z'
loop_
 _atom_site_type_symbol
 _atom_site_label
 _atom_site_symmetry_multiplicity
 _atom_site_fract_x
 _atom_site_fract_y
 _atom_site_fract_z
 _atom_site_occupancy
  Hf  Hf0  1  0.560122  0.939540  0.560122  1
  Hf  Hf1  1  0.310202  0.691611  0.687986  1
  Hf  Hf2  1  0.689878  0.310460  0.309784  1
  Hf  Hf3  1  0.310202  0.691611  0.310202  1
  Hf  Hf4  1  0.687986  0.691611  0.310202  1
  Hf  Hf5  1  0.309784  0.310460  0.689878  1
  Hf  Hf6  1  0.562014  0.558389  0.939798  1
  Hf  Hf7  1  0.939798  0.558389  0.562014  1
  Hf  Hf8  1  0.560122  0.939540  0.940216  1
  Hf  Hf9  1  0.940216  0.939540  0.560122  1
  Hf  Hf10  1  0.689878  0.310460  0.689878  1
  Hf  Hf11  1  0.939798  0.558389  0.939798  1
  Al  Al12  1  0.915583  0.926014  0.915583  1
  Al  Al13  1  0.007180  0.323986  0.334417  1
  Al  Al14  1  0.331166  0.006502  0.331166  1
  Al  Al15  1  0.334417  0.323986  0.007180  1
  Al  Al16  1  0.918834  0.243498  0.918834  1
  Al  Al17  1  0.915583  0.926014  0.242820  1
  Al  Al18  1  0.242820  0.926014  0.915583  1
  Al  Al19  1  0.334417  0.323986  0.334417  1
  Zn  Zn20  1  0.125000  0.625000  0.125000  1
  Rh  Rh21  1  0.125000  0.125000  0.125000  1
  Rh  Rh22  1  0.625000  0.125000  0.125000  1
  Rh  Rh23  1  0.125000  0.125000  0.625000  1
  C  C24  1  0.625000  0.625000  0.625000  1
  C  C25  1  0.125000  0.625000  0.625000  1
  C  C26  1  0.625000  0.125000  0.625000  1
  C  C27  1  0.625000  0.625000  0.125000  1
