# generated using pymatgen
data_Er6Tm10Cd4PdRu3
_symmetry_space_group_name_H-M   'P 1'
_cell_length_a   9.52662889
_cell_length_b   9.57590935
_cell_length_c   9.58277511
_cell_angle_alpha   59.61580912
_cell_angle_beta   59.39538872
_cell_angle_gamma   59.41816456
_symmetry_Int_Tables_number   1
_chemical_formula_structural   Er6Tm10Cd4PdRu3
_chemical_formula_sum   'Er6 Tm10 Cd4 Pd1 Ru3'
_cell_volume   610.78556353
_cell_formula_units_Z   1
loop_
 _symmetry_equiv_pos_site_id
 _symmetry_equiv_pos_as_xyz
  1  'x, y, z'
loop_
 _atom_site_type_symbol
 _atom_site_label
 _atom_site_symmetry_multiplicity
 _atom_site_fract_x
 _atom_site_fract_y
 _atom_site_fract_z
 _atom_site_occupancy
  Er  Er0  1  0.937647  0.560665  0.560753  1
  Er  Er1  1  0.557937  0.937522  0.937540  1
  Er  Er2  1  0.557821  0.938159  0.565840  1
  Er  Er3  1  0.937121  0.561157  0.938191  1
  Er  Er4  1  0.557914  0.565803  0.938180  1
  Er  Er5  1  0.937122  0.938196  0.561167  1
  Tm  Tm6  1  0.346434  0.351637  0.351620  1
  Tm  Tm7  1  0.345681  0.351024  0.955091  1
  Tm  Tm8  1  0.345673  0.955079  0.350999  1
  Tm  Tm9  1  0.963375  0.345261  0.345315  1
  Tm  Tm10  1  0.816080  0.188961  0.188833  1
  Tm  Tm11  1  0.184437  0.811793  0.811738  1
  Tm  Tm12  1  0.186906  0.811368  0.188691  1
  Tm  Tm13  1  0.814588  0.189167  0.804667  1
  Tm  Tm14  1  0.186832  0.188754  0.811353  1
  Tm  Tm15  1  0.814656  0.804629  0.189114  1
  Cd  Cd16  1  0.579855  0.580452  0.580470  1
  Cd  Cd17  1  0.580838  0.580355  0.258284  1
  Cd  Cd18  1  0.580723  0.258269  0.580518  1
  Cd  Cd19  1  0.256301  0.581311  0.581246  1
  Pd  Pd20  1  0.575152  0.143247  0.143296  1
  Ru  Ru21  1  0.145854  0.138624  0.138737  1
  Ru  Ru22  1  0.145577  0.141849  0.576520  1
  Ru  Ru23  1  0.145478  0.576718  0.141840  1
