# generated using pymatgen
data_La3DyAs7Ir8
_symmetry_space_group_name_H-M   'P 1'
_cell_length_a   4.14997700
_cell_length_b   13.22722618
_cell_length_c   13.68792368
_cell_angle_alpha   82.13469546
_cell_angle_beta   90.00000000
_cell_angle_gamma   90.00000000
_symmetry_Int_Tables_number   1
_chemical_formula_structural   La3DyAs7Ir8
_chemical_formula_sum   'La6 Dy2 As14 Ir16'
_cell_volume   744.29839946
_cell_formula_units_Z   2
loop_
 _symmetry_equiv_pos_site_id
 _symmetry_equiv_pos_as_xyz
  1  'x, y, z'
loop_
 _atom_site_type_symbol
 _atom_site_label
 _atom_site_symmetry_multiplicity
 _atom_site_fract_x
 _atom_site_fract_y
 _atom_site_fract_z
 _atom_site_occupancy
  La  La0  1  0.250000  0.100114  0.794276  1
  La  La1  1  0.750000  0.899886  0.205724  1
  La  La2  1  0.250000  0.287029  0.103932  1
  La  La3  1  0.750000  0.712971  0.896068  1
  La  La4  1  0.250000  0.517806  0.292863  1
  La  La5  1  0.750000  0.482194  0.707137  1
  Dy  Dy6  1  0.250000  0.207313  0.439125  1
  Dy  Dy7  1  0.750000  0.792687  0.560875  1
  As  As8  1  0.250000  0.058165  0.100558  1
  As  As9  1  0.750000  0.941835  0.899442  1
  As  As10  1  0.250000  0.310935  0.686463  1
  As  As11  1  0.750000  0.689065  0.313537  1
  As  As12  1  0.250000  0.609160  0.565828  1
  As  As13  1  0.750000  0.390840  0.434172  1
  As  As14  1  0.250000  0.847724  0.717202  1
  As  As15  1  0.750000  0.152276  0.282798  1
  As  As16  1  0.750000  0.255331  0.917731  1
  As  As17  1  0.250000  0.744669  0.082269  1
  As  As18  1  0.750000  0.096078  0.585137  1
  As  As19  1  0.250000  0.903922  0.414863  1
  As  As20  1  0.750000  0.471670  0.127996  1
  As  As21  1  0.250000  0.528330  0.872004  1
  Ir  Ir22  1  0.250000  0.988594  0.572654  1
  Ir  Ir23  1  0.750000  0.011406  0.427346  1
  Ir  Ir24  1  0.250000  0.665655  0.731690  1
  Ir  Ir25  1  0.750000  0.334345  0.268310  1
  Ir  Ir26  1  0.250000  0.555266  0.046422  1
  Ir  Ir27  1  0.750000  0.444734  0.953578  1
  Ir  Ir28  1  0.250000  0.054726  0.280826  1
  Ir  Ir29  1  0.750000  0.945274  0.719174  1
  Ir  Ir30  1  0.250000  0.424328  0.525454  1
  Ir  Ir31  1  0.750000  0.575672  0.474546  1
  Ir  Ir32  1  0.250000  0.920117  0.996759  1
  Ir  Ir33  1  0.750000  0.079883  0.003241  1
  Ir  Ir34  1  0.250000  0.722942  0.404468  1
  Ir  Ir35  1  0.750000  0.277058  0.595532  1
  Ir  Ir36  1  0.250000  0.342419  0.860321  1
  Ir  Ir37  1  0.750000  0.657581  0.139679  1
