# generated using pymatgen
data_Ho5LuSi10
_symmetry_space_group_name_H-M   'P 1'
_cell_length_a   6.57801386
_cell_length_b   6.57801400
_cell_length_c   8.29863885
_cell_angle_alpha   90.08326818
_cell_angle_beta   89.91673110
_cell_angle_gamma   120.11088168
_symmetry_Int_Tables_number   1
_chemical_formula_structural   Ho5LuSi10
_chemical_formula_sum   'Ho5 Lu1 Si10'
_cell_volume   310.62766584
_cell_formula_units_Z   1
loop_
 _symmetry_equiv_pos_site_id
 _symmetry_equiv_pos_as_xyz
  1  'x, y, z'
loop_
 _atom_site_type_symbol
 _atom_site_label
 _atom_site_symmetry_multiplicity
 _atom_site_fract_x
 _atom_site_fract_y
 _atom_site_fract_z
 _atom_site_occupancy
  Ho  Ho0  1  0.330305  0.000174  0.000056  1
  Ho  Ho1  1  0.330112  0.999892  0.499900  1
  Ho  Ho2  1  0.999892  0.330112  0.500100  1
  Ho  Ho3  1  0.000174  0.330305  0.999944  1
  Ho  Ho4  1  0.670077  0.670077  0.000000  1
  Lu  Lu5  1  0.669709  0.669709  0.500000  1
  Si  Si6  1  0.392366  0.332571  0.251212  1
  Si  Si7  1  0.668809  0.059615  0.250305  1
  Si  Si8  1  0.938857  0.608740  0.251427  1
  Si  Si9  1  0.608740  0.938857  0.748573  1
  Si  Si10  1  0.999274  0.999522  0.251035  1
  Si  Si11  1  0.666513  0.333464  0.749155  1
  Si  Si12  1  0.059615  0.668809  0.749695  1
  Si  Si13  1  0.332571  0.392366  0.748788  1
  Si  Si14  1  0.333464  0.666513  0.250845  1
  Si  Si15  1  0.999522  0.999274  0.748965  1
