# generated using pymatgen
data_Ca3Tc(Ni4As3)2
_symmetry_space_group_name_H-M   'P 1'
_cell_length_a   3.94877000
_cell_length_b   10.92887500
_cell_length_c   12.83378900
_cell_angle_alpha   90.00000000
_cell_angle_beta   90.00000000
_cell_angle_gamma   90.00000000
_symmetry_Int_Tables_number   1
_chemical_formula_structural   Ca3Tc(Ni4As3)2
_chemical_formula_sum   'Ca6 Tc2 Ni16 As12'
_cell_volume   553.85004082
_cell_formula_units_Z   2
loop_
 _symmetry_equiv_pos_site_id
 _symmetry_equiv_pos_as_xyz
  1  'x, y, z'
loop_
 _atom_site_type_symbol
 _atom_site_label
 _atom_site_symmetry_multiplicity
 _atom_site_fract_x
 _atom_site_fract_y
 _atom_site_fract_z
 _atom_site_occupancy
  Ca  Ca0  1  0.000000  0.500000  0.520988  1
  Ca  Ca1  1  0.500000  0.000000  0.479012  1
  Ca  Ca2  1  0.500000  0.814700  0.207030  1
  Ca  Ca3  1  0.500000  0.185300  0.207030  1
  Ca  Ca4  1  0.000000  0.685300  0.792970  1
  Ca  Ca5  1  0.000000  0.314700  0.792970  1
  Tc  Tc6  1  0.500000  0.500000  0.148827  1
  Tc  Tc7  1  0.000000  0.000000  0.851173  1
  Ni  Ni8  1  0.500000  0.500000  0.698238  1
  Ni  Ni9  1  0.000000  0.000000  0.301762  1
  Ni  Ni10  1  0.000000  0.500000  0.980884  1
  Ni  Ni11  1  0.500000  0.000000  0.019116  1
  Ni  Ni12  1  0.500000  0.333399  0.989546  1
  Ni  Ni13  1  0.500000  0.666601  0.989546  1
  Ni  Ni14  1  0.000000  0.166601  0.010454  1
  Ni  Ni15  1  0.000000  0.833399  0.010454  1
  Ni  Ni16  1  0.500000  0.302945  0.426062  1
  Ni  Ni17  1  0.500000  0.697055  0.426062  1
  Ni  Ni18  1  0.000000  0.197055  0.573938  1
  Ni  Ni19  1  0.000000  0.802945  0.573938  1
  Ni  Ni20  1  0.500000  0.882659  0.710473  1
  Ni  Ni21  1  0.500000  0.117341  0.710473  1
  Ni  Ni22  1  0.000000  0.617341  0.289527  1
  Ni  Ni23  1  0.000000  0.382659  0.289527  1
  As  As24  1  0.500000  0.500000  0.875708  1
  As  As25  1  0.000000  0.000000  0.124292  1
  As  As26  1  0.500000  0.500000  0.343592  1
  As  As27  1  0.000000  0.000000  0.656408  1
  As  As28  1  0.500000  0.309756  0.613598  1
  As  As29  1  0.500000  0.690244  0.613598  1
  As  As30  1  0.000000  0.190244  0.386402  1
  As  As31  1  0.000000  0.809756  0.386402  1
  As  As32  1  0.500000  0.847733  0.892401  1
  As  As33  1  0.500000  0.152267  0.892401  1
  As  As34  1  0.000000  0.652267  0.107599  1
  As  As35  1  0.000000  0.347733  0.107599  1
