# generated using pymatgen
data_Li3Er8Sc8Si16W
_symmetry_space_group_name_H-M   'P 1'
_cell_length_a   6.88802485
_cell_length_b   7.29111746
_cell_length_c   13.91116229
_cell_angle_alpha   90.07696822
_cell_angle_beta   89.80365483
_cell_angle_gamma   89.56963660
_symmetry_Int_Tables_number   1
_chemical_formula_structural   Li3Er8Sc8Si16W
_chemical_formula_sum   'Li3 Er8 Sc8 Si16 W1'
_cell_volume   698.61355678
_cell_formula_units_Z   1
loop_
 _symmetry_equiv_pos_site_id
 _symmetry_equiv_pos_as_xyz
  1  'x, y, z'
loop_
 _atom_site_type_symbol
 _atom_site_label
 _atom_site_symmetry_multiplicity
 _atom_site_fract_x
 _atom_site_fract_y
 _atom_site_fract_z
 _atom_site_occupancy
  Li  Li0  1  0.161930  0.501036  0.745057  1
  Li  Li1  1  0.839301  0.495217  0.252043  1
  Li  Li2  1  0.339119  0.007026  0.251000  1
  Er  Er3  1  0.013434  0.181640  0.098956  1
  Er  Er4  1  0.991817  0.820226  0.896895  1
  Er  Er5  1  0.485753  0.676125  0.898819  1
  Er  Er6  1  0.992142  0.824511  0.596595  1
  Er  Er7  1  0.512820  0.319363  0.098498  1
  Er  Er8  1  0.012369  0.181448  0.400645  1
  Er  Er9  1  0.510257  0.317398  0.407683  1
  Er  Er10  1  0.485094  0.671320  0.596641  1
  Sc  Sc11  1  0.661045  0.002515  0.747007  1
  Sc  Sc12  1  0.665709  0.824883  0.377637  1
  Sc  Sc13  1  0.167798  0.680613  0.378475  1
  Sc  Sc14  1  0.667219  0.822691  0.127702  1
  Sc  Sc15  1  0.839061  0.323303  0.624088  1
  Sc  Sc16  1  0.327791  0.181188  0.872250  1
  Sc  Sc17  1  0.830044  0.327004  0.871421  1
  Sc  Sc18  1  0.168924  0.678770  0.126548  1
  Si  Si19  1  0.038747  0.106109  0.742602  1
  Si  Si20  1  0.968361  0.899081  0.250932  1
  Si  Si21  1  0.468100  0.605120  0.252327  1
  Si  Si22  1  0.530346  0.377270  0.745165  1
  Si  Si23  1  0.290682  0.880699  0.745579  1
  Si  Si24  1  0.713742  0.122472  0.251018  1
  Si  Si25  1  0.220083  0.379227  0.251093  1
  Si  Si26  1  0.780784  0.624948  0.746267  1
  Si  Si27  1  0.177707  0.447894  0.534906  1
  Si  Si28  1  0.839809  0.534944  0.467149  1
  Si  Si29  1  0.328913  0.969186  0.476332  1
  Si  Si30  1  0.838759  0.539151  0.034939  1
  Si  Si31  1  0.644782  0.034194  0.545027  1
  Si  Si32  1  0.157643  0.463581  0.964826  1
  Si  Si33  1  0.659728  0.034574  0.960764  1
  Si  Si34  1  0.341703  0.963639  0.034254  1
  W  W35  1  0.328487  0.181637  0.628859  1
