# generated using pymatgen
data_YPu3(OsC2)2
_symmetry_space_group_name_H-M   'P 1'
_cell_length_a   5.16576300
_cell_length_b   6.36333373
_cell_length_c   9.79406294
_cell_angle_alpha   90.05257032
_cell_angle_beta   90.00000000
_cell_angle_gamma   90.00000000
_symmetry_Int_Tables_number   1
_chemical_formula_structural   YPu3(OsC2)2
_chemical_formula_sum   'Y2 Pu6 Os4 C8'
_cell_volume   321.94514923
_cell_formula_units_Z   2
loop_
 _symmetry_equiv_pos_site_id
 _symmetry_equiv_pos_as_xyz
  1  'x, y, z'
loop_
 _atom_site_type_symbol
 _atom_site_label
 _atom_site_symmetry_multiplicity
 _atom_site_fract_x
 _atom_site_fract_y
 _atom_site_fract_z
 _atom_site_occupancy
  Y  Y0  1  0.250000  0.691083  0.551084  1
  Y  Y1  1  0.750000  0.308917  0.448916  1
  Pu  Pu2  1  0.750000  0.807168  0.046336  1
  Pu  Pu3  1  0.250000  0.192832  0.953664  1
  Pu  Pu4  1  0.250000  0.525361  0.218020  1
  Pu  Pu5  1  0.750000  0.474639  0.781980  1
  Pu  Pu6  1  0.750000  0.971507  0.724071  1
  Pu  Pu7  1  0.250000  0.028493  0.275929  1
  Os  Os8  1  0.250000  0.724167  0.864901  1
  Os  Os9  1  0.750000  0.275833  0.135099  1
  Os  Os10  1  0.750000  0.775267  0.369238  1
  Os  Os11  1  0.250000  0.224733  0.630762  1
  C  C12  1  0.250000  0.457727  0.759466  1
  C  C13  1  0.750000  0.542273  0.240534  1
  C  C14  1  0.750000  0.031645  0.253366  1
  C  C15  1  0.250000  0.968355  0.746634  1
  C  C16  1  0.250000  0.829676  0.055444  1
  C  C17  1  0.750000  0.170324  0.944556  1
  C  C18  1  0.750000  0.676770  0.558008  1
  C  C19  1  0.250000  0.323230  0.441992  1
