# generated using pymatgen
data_Ca9La7(CdIr)4
_symmetry_space_group_name_H-M   'P 1'
_cell_length_a   10.05581087
_cell_length_b   10.02808252
_cell_length_c   10.18367332
_cell_angle_alpha   59.66657524
_cell_angle_beta   60.53124425
_cell_angle_gamma   60.93577044
_symmetry_Int_Tables_number   1
_chemical_formula_structural   Ca9La7(CdIr)4
_chemical_formula_sum   'Ca9 La7 Cd4 Ir4'
_cell_volume   732.16818927
_cell_formula_units_Z   1
loop_
 _symmetry_equiv_pos_site_id
 _symmetry_equiv_pos_as_xyz
  1  'x, y, z'
loop_
 _atom_site_type_symbol
 _atom_site_label
 _atom_site_symmetry_multiplicity
 _atom_site_fract_x
 _atom_site_fract_y
 _atom_site_fract_z
 _atom_site_occupancy
  Ca  Ca0  1  0.807226  0.192774  0.807226  1
  Ca  Ca1  1  0.194052  0.195946  0.804162  1
  Ca  Ca2  1  0.804162  0.805840  0.194052  1
  Ca  Ca3  1  0.938217  0.562726  0.559653  1
  Ca  Ca4  1  0.559653  0.939403  0.938217  1
  Ca  Ca5  1  0.559474  0.940526  0.559474  1
  Ca  Ca6  1  0.941544  0.558456  0.941544  1
  Ca  Ca7  1  0.557544  0.557562  0.942113  1
  Ca  Ca8  1  0.942113  0.942781  0.557544  1
  La  La9  1  0.343915  0.344169  0.348377  1
  La  La10  1  0.345095  0.342109  0.966099  1
  La  La11  1  0.348377  0.963540  0.343915  1
  La  La12  1  0.966099  0.346697  0.345095  1
  La  La13  1  0.809040  0.188814  0.188670  1
  La  La14  1  0.188670  0.813476  0.809040  1
  La  La15  1  0.191189  0.808811  0.191189  1
  Cd  Cd16  1  0.579762  0.577759  0.578556  1
  Cd  Cd17  1  0.579751  0.578798  0.262168  1
  Cd  Cd18  1  0.578556  0.263920  0.579762  1
  Cd  Cd19  1  0.262168  0.579282  0.579751  1
  Ir  Ir20  1  0.133378  0.136642  0.147776  1
  Ir  Ir21  1  0.146197  0.128748  0.576038  1
  Ir  Ir22  1  0.147776  0.582204  0.133378  1
  Ir  Ir23  1  0.576038  0.149017  0.146197  1
