# generated using pymatgen
data_Nd2Tl2IrRh3O14
_symmetry_space_group_name_H-M   'P 1'
_cell_length_a   7.33743135
_cell_length_b   7.50254844
_cell_length_c   7.33743175
_cell_angle_alpha   59.25173441
_cell_angle_beta   59.09785815
_cell_angle_gamma   59.25173537
_symmetry_Int_Tables_number   1
_chemical_formula_structural   Nd2Tl2IrRh3O14
_chemical_formula_sum   'Nd2 Tl2 Ir1 Rh3 O14'
_cell_volume   280.41123055
_cell_formula_units_Z   1
loop_
 _symmetry_equiv_pos_site_id
 _symmetry_equiv_pos_as_xyz
  1  'x, y, z'
loop_
 _atom_site_type_symbol
 _atom_site_label
 _atom_site_symmetry_multiplicity
 _atom_site_fract_x
 _atom_site_fract_y
 _atom_site_fract_z
 _atom_site_occupancy
  Nd  Nd0  1  0.125000  0.625000  0.125000  1
  Nd  Nd1  1  0.125000  0.125000  0.125000  1
  Tl  Tl2  1  0.625000  0.125000  0.125000  1
  Tl  Tl3  1  0.125000  0.125000  0.625000  1
  Ir  Ir4  1  0.625000  0.125000  0.625000  1
  Rh  Rh5  1  0.125000  0.625000  0.625000  1
  Rh  Rh6  1  0.625000  0.625000  0.125000  1
  Rh  Rh7  1  0.625000  0.625000  0.625000  1
  O  O8  1  0.699078  0.710211  0.294618  1
  O  O9  1  0.301057  0.296278  0.699167  1
  O  O10  1  0.702684  0.294212  0.702684  1
  O  O11  1  0.286967  0.715995  0.286967  1
  O  O12  1  0.294618  0.710211  0.699078  1
  O  O13  1  0.699167  0.296278  0.301057  1
  O  O14  1  0.550922  0.539789  0.955382  1
  O  O15  1  0.948943  0.953722  0.550833  1
  O  O16  1  0.547316  0.955788  0.547316  1
  O  O17  1  0.963033  0.534005  0.963033  1
  O  O18  1  0.955382  0.539789  0.550922  1
  O  O19  1  0.550833  0.953722  0.948943  1
  O  O20  1  0.254352  0.244775  0.254352  1
  O  O21  1  0.995648  0.005225  0.995648  1
