# generated using pymatgen
data_Ca7NpSb6
_symmetry_space_group_name_H-M   'P 1'
_cell_length_a   8.25583139
_cell_length_b   8.25583115
_cell_length_c   8.25583100
_cell_angle_alpha   109.67812636
_cell_angle_beta   109.67812575
_cell_angle_gamma   109.67812539
_symmetry_Int_Tables_number   1
_chemical_formula_structural   Ca7NpSb6
_chemical_formula_sum   'Ca7 Np1 Sb6'
_cell_volume   429.82182871
_cell_formula_units_Z   1
loop_
 _symmetry_equiv_pos_site_id
 _symmetry_equiv_pos_as_xyz
  1  'x, y, z'
loop_
 _atom_site_type_symbol
 _atom_site_label
 _atom_site_symmetry_multiplicity
 _atom_site_fract_x
 _atom_site_fract_y
 _atom_site_fract_z
 _atom_site_occupancy
  Ca  Ca0  1  0.497290  0.002951  0.858978  1
  Ca  Ca1  1  0.858978  0.497290  0.002951  1
  Ca  Ca2  1  0.146387  0.146387  0.146387  1
  Ca  Ca3  1  0.002951  0.858978  0.497290  1
  Ca  Ca4  1  0.499413  0.999321  0.351919  1
  Ca  Ca5  1  0.999321  0.351919  0.499413  1
  Ca  Ca6  1  0.351919  0.499413  0.999321  1
  Np  Np7  1  0.647770  0.647770  0.647770  1
  Sb  Sb8  1  0.745900  0.868898  0.112849  1
  Sb  Sb9  1  0.382463  0.259068  0.626795  1
  Sb  Sb10  1  0.259068  0.626795  0.382463  1
  Sb  Sb11  1  0.868898  0.112849  0.745900  1
  Sb  Sb12  1  0.626795  0.382463  0.259068  1
  Sb  Sb13  1  0.112849  0.745900  0.868898  1
