# generated using pymatgen
data_SrPt2F12
_symmetry_space_group_name_H-M   'P 1'
_cell_length_a   11.83439482
_cell_length_b   6.08573089
_cell_length_c   6.18905115
_cell_angle_alpha   57.12534023
_cell_angle_beta   55.40584784
_cell_angle_gamma   55.23446813
_symmetry_Int_Tables_number   1
_chemical_formula_structural   SrPt2F12
_chemical_formula_sum   'Sr1 Pt2 F12'
_cell_volume   285.17896618
_cell_formula_units_Z   1
loop_
 _symmetry_equiv_pos_site_id
 _symmetry_equiv_pos_as_xyz
  1  'x, y, z'
loop_
 _atom_site_type_symbol
 _atom_site_label
 _atom_site_symmetry_multiplicity
 _atom_site_fract_x
 _atom_site_fract_y
 _atom_site_fract_z
 _atom_site_occupancy
  Sr  Sr0  1  0.750000  0.500000  0.500000  1
  Pt  Pt1  1  0.012585  0.991728  0.990003  1
  Pt  Pt2  1  0.487415  0.008272  0.009997  1
  F  F3  1  0.177519  0.101963  0.770591  1
  F  F4  1  0.662856  0.109671  0.786027  1
  F  F5  1  0.065856  0.784502  0.306001  1
  F  F6  1  0.551191  0.789495  0.325037  1
  F  F7  1  0.121576  0.665179  0.880318  1
  F  F8  1  0.607611  0.670792  0.894093  1
  F  F9  1  0.434144  0.215498  0.693999  1
  F  F10  1  0.948809  0.210505  0.674963  1
  F  F11  1  0.322481  0.898037  0.229409  1
  F  F12  1  0.837144  0.890329  0.213973  1
  F  F13  1  0.378424  0.334821  0.119682  1
  F  F14  1  0.892389  0.329208  0.105907  1
