# generated using pymatgen
data_Lu2Si4CN6
_symmetry_space_group_name_H-M   'P 1'
_cell_length_a   9.74956200
_cell_length_b   5.81168075
_cell_length_c   11.65757700
_cell_angle_alpha   60.37591920
_cell_angle_beta   90.00000000
_cell_angle_gamma   90.00000000
_symmetry_Int_Tables_number   1
_chemical_formula_structural   Lu2Si4CN6
_chemical_formula_sum   'Lu8 Si16 C4 N24'
_cell_volume   574.19374781
_cell_formula_units_Z   4
loop_
 _symmetry_equiv_pos_site_id
 _symmetry_equiv_pos_as_xyz
  1  'x, y, z'
loop_
 _atom_site_type_symbol
 _atom_site_label
 _atom_site_symmetry_multiplicity
 _atom_site_fract_x
 _atom_site_fract_y
 _atom_site_fract_z
 _atom_site_occupancy
  Lu  Lu0  1  0.412375  0.346150  0.417614  1
  Lu  Lu1  1  0.912375  0.653850  0.082386  1
  Lu  Lu2  1  0.587625  0.653850  0.582386  1
  Lu  Lu3  1  0.087625  0.346150  0.917614  1
  Lu  Lu4  1  0.569045  0.672142  0.094717  1
  Lu  Lu5  1  0.069045  0.327858  0.405283  1
  Lu  Lu6  1  0.430955  0.327858  0.905283  1
  Lu  Lu7  1  0.930955  0.672142  0.594717  1
  Si  Si8  1  0.227057  0.321733  0.158405  1
  Si  Si9  1  0.727057  0.678267  0.341595  1
  Si  Si10  1  0.772943  0.678267  0.841595  1
  Si  Si11  1  0.272943  0.321733  0.658405  1
  Si  Si12  1  0.204119  0.797936  0.176694  1
  Si  Si13  1  0.704119  0.202064  0.323306  1
  Si  Si14  1  0.795881  0.202064  0.823306  1
  Si  Si15  1  0.295881  0.797936  0.676694  1
  Si  Si16  1  0.211349  0.836490  0.420428  1
  Si  Si17  1  0.711349  0.163510  0.079572  1
  Si  Si18  1  0.788651  0.163510  0.579572  1
  Si  Si19  1  0.288651  0.836490  0.920428  1
  Si  Si20  1  0.477212  0.996739  0.249960  1
  Si  Si21  1  0.977212  0.003261  0.250040  1
  Si  Si22  1  0.522788  0.003261  0.750040  1
  Si  Si23  1  0.022788  0.996739  0.749960  1
  C  C24  1  0.289501  0.975062  0.253032  1
  C  C25  1  0.789501  0.024938  0.246968  1
  C  C26  1  0.710499  0.024938  0.746968  1
  C  C27  1  0.210499  0.975062  0.753032  1
  N  N28  1  0.051098  0.301197  0.133290  1
  N  N29  1  0.551098  0.698803  0.366710  1
  N  N30  1  0.948902  0.698803  0.866710  1
  N  N31  1  0.448902  0.301197  0.633290  1
  N  N32  1  0.263776  0.477413  0.248483  1
  N  N33  1  0.763776  0.522587  0.251517  1
  N  N34  1  0.736224  0.522587  0.751517  1
  N  N35  1  0.236224  0.477413  0.748483  1
  N  N36  1  0.291161  0.492194  0.999200  1
  N  N37  1  0.791161  0.507806  0.500800  1
  N  N38  1  0.708839  0.507806  0.000800  1
  N  N39  1  0.208839  0.492194  0.499200  1
  N  N40  1  0.032117  0.747693  0.224690  1
  N  N41  1  0.532117  0.252307  0.275310  1
  N  N42  1  0.967883  0.252307  0.775310  1
  N  N43  1  0.467883  0.747693  0.724690  1
  N  N44  1  0.041110  0.942036  0.401250  1
  N  N45  1  0.541110  0.057964  0.098750  1
  N  N46  1  0.958890  0.057964  0.598750  1
  N  N47  1  0.458890  0.942036  0.901250  1
  N  N48  1  0.289457  0.966694  0.507751  1
  N  N49  1  0.789457  0.033306  0.992249  1
  N  N50  1  0.710543  0.033306  0.492249  1
  N  N51  1  0.210543  0.966694  0.007751  1
