# generated using pymatgen
data_KCrSnO4
_symmetry_space_group_name_H-M   'P 1'
_cell_length_a   6.67139170
_cell_length_b   6.21958152
_cell_length_c   9.07294510
_cell_angle_alpha   98.64049425
_cell_angle_beta   118.58155588
_cell_angle_gamma   90.82074902
_symmetry_Int_Tables_number   1
_chemical_formula_structural   KCrSnO4
_chemical_formula_sum   'K3 Cr3 Sn3 O12'
_cell_volume   325.22185698
_cell_formula_units_Z   3
loop_
 _symmetry_equiv_pos_site_id
 _symmetry_equiv_pos_as_xyz
  1  'x, y, z'
loop_
 _atom_site_type_symbol
 _atom_site_label
 _atom_site_symmetry_multiplicity
 _atom_site_fract_x
 _atom_site_fract_y
 _atom_site_fract_z
 _atom_site_occupancy
  K  K0  1  0.010134  0.975073  0.009490  1
  K  K1  1  0.677766  0.643333  0.674164  1
  K  K2  1  0.321571  0.362242  0.324642  1
  Cr  Cr3  1  0.496159  0.747487  0.002433  1
  Cr  Cr4  1  0.160986  0.421156  0.666947  1
  Cr  Cr5  1  0.835657  0.584208  0.331087  1
  Sn  Sn6  1  0.505516  0.257956  0.995455  1
  Sn  Sn7  1  0.175315  0.913158  0.664671  1
  Sn  Sn8  1  0.823520  0.082793  0.336336  1
  O  O9  1  0.527526  0.959642  0.855608  1
  O  O10  1  0.503443  0.478923  0.846147  1
  O  O11  1  0.181303  0.623890  0.516172  1
  O  O12  1  0.179942  0.142698  0.518163  1
  O  O13  1  0.836503  0.799636  0.183258  1
  O  O14  1  0.856689  0.299970  0.185648  1
  O  O15  1  0.152491  0.700710  0.816573  1
  O  O16  1  0.152361  0.200061  0.813086  1
  O  O17  1  0.818135  0.855683  0.483268  1
  O  O18  1  0.816371  0.376174  0.480646  1
  O  O19  1  0.495152  0.537401  0.151902  1
  O  O20  1  0.473463  0.037804  0.144309  1
