# generated using pymatgen
data_Er12TlFe4Au
_symmetry_space_group_name_H-M   'P 1'
_cell_length_a   8.28202697
_cell_length_b   8.28202775
_cell_length_c   8.28202800
_cell_angle_alpha   111.03849910
_cell_angle_beta   110.79558618
_cell_angle_gamma   106.61683675
_symmetry_Int_Tables_number   1
_chemical_formula_structural   Er12TlFe4Au
_chemical_formula_sum   'Er12 Tl1 Fe4 Au1'
_cell_volume   436.49773563
_cell_formula_units_Z   1
loop_
 _symmetry_equiv_pos_site_id
 _symmetry_equiv_pos_as_xyz
  1  'x, y, z'
loop_
 _atom_site_type_symbol
 _atom_site_label
 _atom_site_symmetry_multiplicity
 _atom_site_fract_x
 _atom_site_fract_y
 _atom_site_fract_z
 _atom_site_occupancy
  Er  Er0  1  0.016159  0.721880  0.294278  1
  Er  Er1  1  0.983841  0.278120  0.705722  1
  Er  Er2  1  0.572398  0.278120  0.294278  1
  Er  Er3  1  0.427602  0.721880  0.705722  1
  Er  Er4  1  0.687588  0.886324  0.198736  1
  Er  Er5  1  0.312412  0.511146  0.198736  1
  Er  Er6  1  0.312412  0.113676  0.801264  1
  Er  Er7  1  0.687588  0.488854  0.801264  1
  Er  Er8  1  0.187653  0.210853  0.398507  1
  Er  Er9  1  0.812347  0.210853  0.023199  1
  Er  Er10  1  0.187653  0.789147  0.976801  1
  Er  Er11  1  0.812347  0.789147  0.601493  1
  Tl  Tl12  1  0.500000  0.000000  0.500000  1
  Fe  Fe13  1  0.615117  0.500000  0.115117  1
  Fe  Fe14  1  0.384883  0.500000  0.884883  1
  Fe  Fe15  1  0.891831  0.891831  0.000000  1
  Fe  Fe16  1  0.108169  0.108169  0.000000  1
  Au  Au17  1  0.000000  0.500000  0.500000  1
