# generated using pymatgen
data_Ta4Mn2CuSi4Ir
_symmetry_space_group_name_H-M   'P 1'
_cell_length_a   3.67165000
_cell_length_b   6.30557671
_cell_length_c   7.36630830
_cell_angle_alpha   90.55858549
_cell_angle_beta   90.00000000
_cell_angle_gamma   90.00000000
_symmetry_Int_Tables_number   1
_chemical_formula_structural   Ta4Mn2CuSi4Ir
_chemical_formula_sum   'Ta4 Mn2 Cu1 Si4 Ir1'
_cell_volume   170.53571268
_cell_formula_units_Z   1
loop_
 _symmetry_equiv_pos_site_id
 _symmetry_equiv_pos_as_xyz
  1  'x, y, z'
loop_
 _atom_site_type_symbol
 _atom_site_label
 _atom_site_symmetry_multiplicity
 _atom_site_fract_x
 _atom_site_fract_y
 _atom_site_fract_z
 _atom_site_occupancy
  Ta  Ta0  1  0.750000  0.527540  0.820444  1
  Ta  Ta1  1  0.250000  0.969443  0.336224  1
  Ta  Ta2  1  0.750000  0.033791  0.667265  1
  Ta  Ta3  1  0.250000  0.476070  0.179012  1
  Mn  Mn4  1  0.250000  0.356637  0.561737  1
  Mn  Mn5  1  0.750000  0.639246  0.439467  1
  Cu  Cu6  1  0.250000  0.849783  0.935416  1
  Si  Si7  1  0.250000  0.239206  0.867468  1
  Si  Si8  1  0.250000  0.729429  0.625291  1
  Si  Si9  1  0.750000  0.765535  0.133732  1
  Si  Si10  1  0.750000  0.272477  0.374703  1
  Ir  Ir11  1  0.750000  0.140840  0.059241  1
