# generated using pymatgen
data_Lu3HfAl16(GaIr3)2
_symmetry_space_group_name_H-M   'P 1'
_cell_length_a   7.49655866
_cell_length_b   7.49114683
_cell_length_c   9.39742700
_cell_angle_alpha   90.00000000
_cell_angle_beta   90.00000000
_cell_angle_gamma   119.54402898
_symmetry_Int_Tables_number   1
_chemical_formula_structural   Lu3HfAl16(GaIr3)2
_chemical_formula_sum   'Lu3 Hf1 Al16 Ga2 Ir6'
_cell_volume   459.12083664
_cell_formula_units_Z   1
loop_
 _symmetry_equiv_pos_site_id
 _symmetry_equiv_pos_as_xyz
  1  'x, y, z'
loop_
 _atom_site_type_symbol
 _atom_site_label
 _atom_site_symmetry_multiplicity
 _atom_site_fract_x
 _atom_site_fract_y
 _atom_site_fract_z
 _atom_site_occupancy
  Lu  Lu0  1  0.002317  0.322651  0.750000  1
  Lu  Lu1  1  0.672656  0.998661  0.250000  1
  Lu  Lu2  1  0.328874  0.009841  0.750000  1
  Hf  Hf3  1  0.997790  0.672545  0.250000  1
  Al  Al4  1  0.126865  0.124524  0.250000  1
  Al  Al5  1  0.000521  0.337801  0.079178  1
  Al  Al6  1  0.999561  0.664884  0.929308  1
  Al  Al7  1  0.999561  0.664884  0.570692  1
  Al  Al8  1  0.333604  0.998135  0.421171  1
  Al  Al9  1  0.000521  0.337801  0.420822  1
  Al  Al10  1  0.663815  0.997121  0.574379  1
  Al  Al11  1  0.663815  0.997121  0.925621  1
  Al  Al12  1  0.333604  0.998135  0.078829  1
  Al  Al13  1  0.334040  0.334613  0.549536  1
  Al  Al14  1  0.669517  0.667742  0.435976  1
  Al  Al15  1  0.669517  0.667742  0.064024  1
  Al  Al16  1  0.334040  0.334613  0.950464  1
  Al  Al17  1  0.335405  0.550576  0.250000  1
  Al  Al18  1  0.554572  0.342234  0.250000  1
  Al  Al19  1  0.446711  0.658293  0.750000  1
  Ga  Ga20  1  0.869348  0.867569  0.750000  1
  Ga  Ga21  1  0.659449  0.452655  0.750000  1
  Ir  Ir22  1  0.673271  0.327565  0.002822  1
  Ir  Ir23  1  0.328716  0.672674  0.001233  1
  Ir  Ir24  1  0.328716  0.672674  0.498767  1
  Ir  Ir25  1  0.673271  0.327565  0.497178  1
  Ir  Ir26  1  0.999962  0.999691  0.003102  1
  Ir  Ir27  1  0.999962  0.999691  0.496898  1
