# generated using pymatgen
data_Zr8V12Si15Ge
_symmetry_space_group_name_H-M   'P 1'
_cell_length_a   6.50611409
_cell_length_b   6.64945103
_cell_length_c   12.63876904
_cell_angle_alpha   90.05550668
_cell_angle_beta   90.05183062
_cell_angle_gamma   90.00494384
_symmetry_Int_Tables_number   1
_chemical_formula_structural   Zr8V12Si15Ge
_chemical_formula_sum   'Zr8 V12 Si15 Ge1'
_cell_volume   546.77904338
_cell_formula_units_Z   1
loop_
 _symmetry_equiv_pos_site_id
 _symmetry_equiv_pos_as_xyz
  1  'x, y, z'
loop_
 _atom_site_type_symbol
 _atom_site_label
 _atom_site_symmetry_multiplicity
 _atom_site_fract_x
 _atom_site_fract_y
 _atom_site_fract_z
 _atom_site_occupancy
  Zr  Zr0  1  0.004538  0.170743  0.094527  1
  Zr  Zr1  1  0.502919  0.327284  0.403409  1
  Zr  Zr2  1  0.495638  0.670641  0.905382  1
  Zr  Zr3  1  0.995497  0.830690  0.594747  1
  Zr  Zr4  1  0.995610  0.829196  0.905709  1
  Zr  Zr5  1  0.491470  0.673211  0.595642  1
  Zr  Zr6  1  0.504534  0.329428  0.094739  1
  Zr  Zr7  1  0.005836  0.169691  0.404075  1
  V  V8  1  0.663441  0.992532  0.249964  1
  V  V9  1  0.163016  0.507625  0.250018  1
  V  V10  1  0.836959  0.492115  0.752203  1
  V  V11  1  0.337236  0.007516  0.750120  1
  V  V12  1  0.837535  0.668837  0.124331  1
  V  V13  1  0.337358  0.832776  0.374718  1
  V  V14  1  0.662972  0.167908  0.875749  1
  V  V15  1  0.165547  0.331473  0.625131  1
  V  V16  1  0.162474  0.331620  0.875693  1
  V  V17  1  0.659247  0.163023  0.626552  1
  V  V18  1  0.338152  0.831851  0.124557  1
  V  V19  1  0.839759  0.671447  0.373565  1
  Si  Si20  1  0.802603  0.369824  0.249635  1
  Si  Si21  1  0.302726  0.130166  0.248980  1
  Si  Si22  1  0.698311  0.867719  0.750733  1
  Si  Si23  1  0.196297  0.630439  0.750455  1
  Si  Si24  1  0.037182  0.873585  0.248955  1
  Si  Si25  1  0.537661  0.627413  0.249760  1
  Si  Si26  1  0.463619  0.373534  0.750656  1
  Si  Si27  1  0.963214  0.127357  0.750083  1
  Si  Si28  1  0.832494  0.456627  0.959441  1
  Si  Si29  1  0.331910  0.044113  0.540328  1
  Si  Si30  1  0.667780  0.956533  0.041128  1
  Si  Si31  1  0.171274  0.544430  0.458330  1
  Si  Si32  1  0.167503  0.543527  0.041054  1
  Si  Si33  1  0.667678  0.956240  0.459064  1
  Si  Si34  1  0.332779  0.043443  0.959074  1
  Ge  Ge35  1  0.827228  0.455442  0.541497  1
