# generated using pymatgen
data_Ho5Tm5Ru3Rh
_symmetry_space_group_name_H-M   'P 1'
_cell_length_a   6.28693365
_cell_length_b   7.25925806
_cell_length_c   8.37812223
_cell_angle_alpha   96.88106316
_cell_angle_beta   111.85317600
_cell_angle_gamma   89.98288368
_symmetry_Int_Tables_number   1
_chemical_formula_structural   Ho5Tm5Ru3Rh
_chemical_formula_sum   'Ho5 Tm5 Ru3 Rh1'
_cell_volume   351.92464664
_cell_formula_units_Z   1
loop_
 _symmetry_equiv_pos_site_id
 _symmetry_equiv_pos_as_xyz
  1  'x, y, z'
loop_
 _atom_site_type_symbol
 _atom_site_label
 _atom_site_symmetry_multiplicity
 _atom_site_fract_x
 _atom_site_fract_y
 _atom_site_fract_z
 _atom_site_occupancy
  Ho  Ho0  1  0.791791  0.081401  0.814132  1
  Ho  Ho1  1  0.979186  0.415840  0.189389  1
  Ho  Ho2  1  0.209940  0.915459  0.186733  1
  Ho  Ho3  1  0.024591  0.585845  0.814093  1
  Ho  Ho4  1  0.203460  0.183076  0.563821  1
  Tm  Tm5  1  0.641863  0.315718  0.432190  1
  Tm  Tm6  1  0.792734  0.814955  0.434096  1
  Tm  Tm7  1  0.357849  0.686122  0.564090  1
  Tm  Tm8  1  0.419715  0.249268  0.001462  1
  Tm  Tm9  1  0.580363  0.752197  0.001407  1
  Ru  Ru10  1  0.821429  0.076503  0.219133  1
  Ru  Ru11  1  0.397788  0.575488  0.221310  1
  Ru  Ru12  1  0.178831  0.923457  0.779448  1
  Rh  Rh13  1  0.600459  0.424672  0.778695  1
