# generated using pymatgen
data_Sm2YEr(ReB6)2
_symmetry_space_group_name_H-M   'P 1'
_cell_length_a   3.70781500
_cell_length_b   9.21524414
_cell_length_c   11.63999918
_cell_angle_alpha   90.02024600
_cell_angle_beta   90.00000000
_cell_angle_gamma   90.00000000
_symmetry_Int_Tables_number   1
_chemical_formula_structural   Sm2YEr(ReB6)2
_chemical_formula_sum   'Sm4 Y2 Er2 Re4 B24'
_cell_volume   397.72036142
_cell_formula_units_Z   2
loop_
 _symmetry_equiv_pos_site_id
 _symmetry_equiv_pos_as_xyz
  1  'x, y, z'
loop_
 _atom_site_type_symbol
 _atom_site_label
 _atom_site_symmetry_multiplicity
 _atom_site_fract_x
 _atom_site_fract_y
 _atom_site_fract_z
 _atom_site_occupancy
  Sm  Sm0  1  0.000000  0.323400  0.414133  1
  Sm  Sm1  1  0.000000  0.676600  0.585867  1
  Sm  Sm2  1  0.000000  0.822923  0.085625  1
  Sm  Sm3  1  0.000000  0.177077  0.914375  1
  Y  Y4  1  0.000000  0.942810  0.369596  1
  Y  Y5  1  0.000000  0.057190  0.630404  1
  Er  Er6  1  0.000000  0.442827  0.130292  1
  Er  Er7  1  0.000000  0.557173  0.869708  1
  Re  Re8  1  0.000000  0.638283  0.319414  1
  Re  Re9  1  0.000000  0.361717  0.680586  1
  Re  Re10  1  0.000000  0.139634  0.179863  1
  Re  Re11  1  0.000000  0.860366  0.820137  1
  B  B12  1  0.500000  0.554112  0.431309  1
  B  B13  1  0.500000  0.445888  0.568691  1
  B  B14  1  0.500000  0.054332  0.068549  1
  B  B15  1  0.500000  0.945668  0.931451  1
  B  B16  1  0.500000  0.748831  0.416587  1
  B  B17  1  0.500000  0.251169  0.583413  1
  B  B18  1  0.500000  0.249914  0.083364  1
  B  B19  1  0.500000  0.750086  0.916636  1
  B  B20  1  0.500000  0.790928  0.265377  1
  B  B21  1  0.500000  0.209072  0.734623  1
  B  B22  1  0.500000  0.291979  0.234177  1
  B  B23  1  0.500000  0.708021  0.765823  1
  B  B24  1  0.500000  0.629445  0.185557  1
  B  B25  1  0.500000  0.370555  0.814443  1
  B  B26  1  0.500000  0.130434  0.313841  1
  B  B27  1  0.500000  0.869566  0.686159  1
  B  B28  1  0.500000  0.983310  0.212284  1
  B  B29  1  0.500000  0.016690  0.787716  1
  B  B30  1  0.500000  0.482766  0.286984  1
  B  B31  1  0.500000  0.517234  0.713016  1
  B  B32  1  0.500000  0.596859  0.026941  1
  B  B33  1  0.500000  0.403141  0.973059  1
  B  B34  1  0.500000  0.098108  0.472781  1
  B  B35  1  0.500000  0.901892  0.527219  1
