# generated using pymatgen
data_TmLu3Ge2(B2Rh5)2
_symmetry_space_group_name_H-M   'P 1'
_cell_length_a   9.33075514
_cell_length_b   9.33075514
_cell_length_c   3.23751100
_cell_angle_alpha   90.00000000
_cell_angle_beta   90.00000000
_cell_angle_gamma   89.98036259
_symmetry_Int_Tables_number   1
_chemical_formula_structural   TmLu3Ge2(B2Rh5)2
_chemical_formula_sum   'Tm1 Lu3 Ge2 B4 Rh10'
_cell_volume   281.86737588
_cell_formula_units_Z   1
loop_
 _symmetry_equiv_pos_site_id
 _symmetry_equiv_pos_as_xyz
  1  'x, y, z'
loop_
 _atom_site_type_symbol
 _atom_site_label
 _atom_site_symmetry_multiplicity
 _atom_site_fract_x
 _atom_site_fract_y
 _atom_site_fract_z
 _atom_site_occupancy
  Tm  Tm0  1  0.824909  0.324909  0.000000  1
  Lu  Lu1  1  0.324937  0.174655  0.000000  1
  Lu  Lu2  1  0.674655  0.824937  0.000000  1
  Lu  Lu3  1  0.174957  0.674957  0.000000  1
  Ge  Ge4  1  0.000477  0.000632  0.000000  1
  Ge  Ge5  1  0.500632  0.500477  0.000000  1
  B  B6  1  0.621430  0.121430  0.000000  1
  B  B7  1  0.123222  0.378208  0.000000  1
  B  B8  1  0.878208  0.623222  0.000000  1
  B  B9  1  0.377398  0.877398  0.000000  1
  Rh  Rh10  1  0.071412  0.216810  0.500000  1
  Rh  Rh11  1  0.216454  0.929201  0.500000  1
  Rh  Rh12  1  0.782499  0.069635  0.500000  1
  Rh  Rh13  1  0.929339  0.783795  0.500000  1
  Rh  Rh14  1  0.429201  0.716454  0.500000  1
  Rh  Rh15  1  0.569635  0.282499  0.500000  1
  Rh  Rh16  1  0.716810  0.571412  0.500000  1
  Rh  Rh17  1  0.283795  0.429339  0.500000  1
  Rh  Rh18  1  0.499562  0.999562  0.500000  1
  Rh  Rh19  1  0.000469  0.500469  0.500000  1
