# generated using pymatgen
data_LiHoLu(Co3P2)3
_symmetry_space_group_name_H-M   'P 1'
_cell_length_a   3.65490400
_cell_length_b   10.22515400
_cell_length_c   11.78850600
_cell_angle_alpha   90.00000000
_cell_angle_beta   90.00000000
_cell_angle_gamma   90.00000000
_symmetry_Int_Tables_number   1
_chemical_formula_structural   LiHoLu(Co3P2)3
_chemical_formula_sum   'Li2 Ho2 Lu2 Co18 P12'
_cell_volume   440.55953055
_cell_formula_units_Z   2
loop_
 _symmetry_equiv_pos_site_id
 _symmetry_equiv_pos_as_xyz
  1  'x, y, z'
loop_
 _atom_site_type_symbol
 _atom_site_label
 _atom_site_symmetry_multiplicity
 _atom_site_fract_x
 _atom_site_fract_y
 _atom_site_fract_z
 _atom_site_occupancy
  Li  Li0  1  0.250000  0.703044  0.990785  1
  Li  Li1  1  0.250000  0.796956  0.490785  1
  Ho  Ho2  1  0.750000  0.419936  0.297434  1
  Ho  Ho3  1  0.750000  0.080064  0.797434  1
  Lu  Lu4  1  0.250000  0.579517  0.702266  1
  Lu  Lu5  1  0.250000  0.920483  0.202266  1
  Co  Co6  1  0.750000  0.288310  0.008929  1
  Co  Co7  1  0.750000  0.211690  0.508929  1
  Co  Co8  1  0.250000  0.404465  0.487487  1
  Co  Co9  1  0.250000  0.095535  0.987487  1
  Co  Co10  1  0.750000  0.591413  0.516310  1
  Co  Co11  1  0.750000  0.908587  0.016310  1
  Co  Co12  1  0.250000  0.223473  0.174986  1
  Co  Co13  1  0.250000  0.276527  0.674986  1
  Co  Co14  1  0.750000  0.779840  0.825943  1
  Co  Co15  1  0.750000  0.720160  0.325943  1
  Co  Co16  1  0.250000  0.880410  0.698983  1
  Co  Co17  1  0.250000  0.619590  0.198983  1
  Co  Co18  1  0.750000  0.119546  0.298907  1
  Co  Co19  1  0.750000  0.380454  0.798907  1
  Co  Co20  1  0.250000  0.464113  0.930726  1
  Co  Co21  1  0.250000  0.035887  0.430726  1
  Co  Co22  1  0.750000  0.534080  0.066080  1
  Co  Co23  1  0.750000  0.965920  0.566080  1
  P  P24  1  0.250000  0.422225  0.111751  1
  P  P25  1  0.250000  0.077775  0.611751  1
  P  P26  1  0.750000  0.577555  0.882905  1
  P  P27  1  0.750000  0.922445  0.382905  1
  P  P28  1  0.250000  0.267880  0.867326  1
  P  P29  1  0.250000  0.232120  0.367326  1
  P  P30  1  0.750000  0.731880  0.138086  1
  P  P31  1  0.750000  0.768120  0.638086  1
  P  P32  1  0.250000  0.600940  0.393139  1
  P  P33  1  0.250000  0.899060  0.893139  1
  P  P34  1  0.750000  0.397218  0.607957  1
  P  P35  1  0.750000  0.102782  0.107957  1
