# generated using pymatgen
data_Pr8Zr(IrO8)3
_symmetry_space_group_name_H-M   'P 1'
_cell_length_a   5.51655495
_cell_length_b   9.49593630
_cell_length_c   10.34797868
_cell_angle_alpha   89.33640865
_cell_angle_beta   89.90543956
_cell_angle_gamma   90.14789893
_symmetry_Int_Tables_number   1
_chemical_formula_structural   Pr8Zr(IrO8)3
_chemical_formula_sum   'Pr8 Zr1 Ir3 O24'
_cell_volume   542.03842903
_cell_formula_units_Z   1
loop_
 _symmetry_equiv_pos_site_id
 _symmetry_equiv_pos_as_xyz
  1  'x, y, z'
loop_
 _atom_site_type_symbol
 _atom_site_label
 _atom_site_symmetry_multiplicity
 _atom_site_fract_x
 _atom_site_fract_y
 _atom_site_fract_z
 _atom_site_occupancy
  Pr  Pr0  1  0.040237  0.216962  0.128899  1
  Pr  Pr1  1  0.465767  0.768440  0.635053  1
  Pr  Pr2  1  0.966453  0.716995  0.373600  1
  Pr  Pr3  1  0.530481  0.289882  0.855577  1
  Pr  Pr4  1  0.031175  0.109107  0.538833  1
  Pr  Pr5  1  0.474815  0.900575  0.035735  1
  Pr  Pr6  1  0.982074  0.605033  0.960199  1
  Pr  Pr7  1  0.521018  0.404887  0.463425  1
  Zr  Zr8  1  0.035803  0.490354  0.648837  1
  Ir  Ir9  1  0.546107  0.000719  0.354772  1
  Ir  Ir10  1  0.957513  0.998385  0.858441  1
  Ir  Ir11  1  0.459269  0.502860  0.143935  1
  O  O12  1  0.435949  0.150542  0.462687  1
  O  O13  1  0.060468  0.855778  0.984968  1
  O  O14  1  0.563048  0.650504  0.026461  1
  O  O15  1  0.909146  0.337380  0.515134  1
  O  O16  1  0.722137  0.389673  0.077221  1
  O  O17  1  0.760946  0.613641  0.553018  1
  O  O18  1  0.281001  0.892138  0.432829  1
  O  O19  1  0.223376  0.111140  0.934853  1
  O  O20  1  0.254795  0.411076  0.008725  1
  O  O21  1  0.251621  0.598638  0.505001  1
  O  O22  1  0.752240  0.916077  0.491686  1
  O  O23  1  0.750307  0.090816  0.992063  1
  O  O24  1  0.191403  0.626923  0.181582  1
  O  O25  1  0.321134  0.341997  0.666739  1
  O  O26  1  0.816802  0.120472  0.312061  1
  O  O27  1  0.691179  0.870701  0.824192  1
  O  O28  1  0.342934  0.056589  0.211948  1
  O  O29  1  0.161475  0.943547  0.720609  1
  O  O30  1  0.659767  0.562220  0.280592  1
  O  O31  1  0.810425  0.460003  0.804891  1
  O  O32  1  0.324549  0.361688  0.256020  1
  O  O33  1  0.208294  0.636470  0.771963  1
  O  O34  1  0.665150  0.856738  0.242989  1
  O  O35  1  0.831144  0.141052  0.744467  1
