# generated using pymatgen
data_BaPrPPt8
_symmetry_space_group_name_H-M   'P 1'
_cell_length_a   9.43907929
_cell_length_b   9.41396176
_cell_length_c   4.30453100
_cell_angle_alpha   90.00000000
_cell_angle_beta   90.00000000
_cell_angle_gamma   145.97413555
_symmetry_Int_Tables_number   1
_chemical_formula_structural   BaPrPPt8
_chemical_formula_sum   'Ba1 Pr1 P1 Pt8'
_cell_volume   214.03266974
_cell_formula_units_Z   1
loop_
 _symmetry_equiv_pos_site_id
 _symmetry_equiv_pos_as_xyz
  1  'x, y, z'
loop_
 _atom_site_type_symbol
 _atom_site_label
 _atom_site_symmetry_multiplicity
 _atom_site_fract_x
 _atom_site_fract_y
 _atom_site_fract_z
 _atom_site_occupancy
  Ba  Ba0  1  0.617886  0.378466  0.500000  1
  Pr  Pr1  1  0.367130  0.620698  0.500000  1
  P  P2  1  0.213510  0.212071  0.000000  1
  Pt  Pt3  1  0.112165  0.889711  0.000000  1
  Pt  Pt4  1  0.894612  0.112234  0.000000  1
  Pt  Pt5  1  0.495104  0.980960  0.000000  1
  Pt  Pt6  1  0.999514  0.491342  0.000000  1
  Pt  Pt7  1  0.198738  0.790032  0.500000  1
  Pt  Pt8  1  0.795059  0.192308  0.500000  1
  Pt  Pt9  1  0.008232  0.012839  0.500000  1
  Pt  Pt10  1  0.611649  0.632938  0.000000  1
