# generated using pymatgen
data_Tb16Cd4Os3Au
_symmetry_space_group_name_H-M   'P 1'
_cell_length_a   9.68485981
_cell_length_b   9.68486071
_cell_length_c   9.68485961
_cell_angle_alpha   60.39276695
_cell_angle_beta   60.39276623
_cell_angle_gamma   60.39276589
_symmetry_Int_Tables_number   1
_chemical_formula_structural   Tb16Cd4Os3Au
_chemical_formula_sum   'Tb16 Cd4 Os3 Au1'
_cell_volume   648.04581824
_cell_formula_units_Z   1
loop_
 _symmetry_equiv_pos_site_id
 _symmetry_equiv_pos_as_xyz
  1  'x, y, z'
loop_
 _atom_site_type_symbol
 _atom_site_label
 _atom_site_symmetry_multiplicity
 _atom_site_fract_x
 _atom_site_fract_y
 _atom_site_fract_z
 _atom_site_occupancy
  Tb  Tb0  1  0.594822  0.594822  0.594822  1
  Tb  Tb1  1  0.606031  0.606031  0.196728  1
  Tb  Tb2  1  0.606031  0.196728  0.606031  1
  Tb  Tb3  1  0.196728  0.606031  0.606031  1
  Tb  Tb4  1  0.048598  0.441824  0.441824  1
  Tb  Tb5  1  0.439221  0.059909  0.059909  1
  Tb  Tb6  1  0.441824  0.048598  0.441824  1
  Tb  Tb7  1  0.059909  0.439221  0.059909  1
  Tb  Tb8  1  0.441824  0.441824  0.048598  1
  Tb  Tb9  1  0.059909  0.059909  0.439221  1
  Tb  Tb10  1  0.189760  0.811873  0.811873  1
  Tb  Tb11  1  0.816175  0.190047  0.190047  1
  Tb  Tb12  1  0.811873  0.189760  0.811873  1
  Tb  Tb13  1  0.190047  0.816175  0.190047  1
  Tb  Tb14  1  0.811873  0.811873  0.189760  1
  Tb  Tb15  1  0.190047  0.190047  0.816175  1
  Cd  Cd16  1  0.830702  0.830702  0.830702  1
  Cd  Cd17  1  0.829457  0.829457  0.508755  1
  Cd  Cd18  1  0.829457  0.508755  0.829457  1
  Cd  Cd19  1  0.508755  0.829457  0.829457  1
  Os  Os20  1  0.387955  0.387955  0.828151  1
  Os  Os21  1  0.387955  0.828151  0.387955  1
  Os  Os22  1  0.828151  0.387955  0.387955  1
  Au  Au23  1  0.392901  0.392901  0.392901  1
