# generated using pymatgen
data_NdGdLu2(WO6)2
_symmetry_space_group_name_H-M   'P 1'
_cell_length_a   5.44894000
_cell_length_b   7.73547265
_cell_length_c   11.40516606
_cell_angle_alpha   76.06164435
_cell_angle_beta   90.00000000
_cell_angle_gamma   90.00000000
_symmetry_Int_Tables_number   1
_chemical_formula_structural   NdGdLu2(WO6)2
_chemical_formula_sum   'Nd2 Gd2 Lu4 W4 O24'
_cell_volume   466.57433465
_cell_formula_units_Z   2
loop_
 _symmetry_equiv_pos_site_id
 _symmetry_equiv_pos_as_xyz
  1  'x, y, z'
loop_
 _atom_site_type_symbol
 _atom_site_label
 _atom_site_symmetry_multiplicity
 _atom_site_fract_x
 _atom_site_fract_y
 _atom_site_fract_z
 _atom_site_occupancy
  Nd  Nd0  1  0.314903  0.500000  0.750000  1
  Nd  Nd1  1  0.685097  0.500000  0.250000  1
  Gd  Gd2  1  0.255472  0.000000  0.750000  1
  Gd  Gd3  1  0.744528  0.000000  0.250000  1
  Lu  Lu4  1  0.183422  0.794682  0.078348  1
  Lu  Lu5  1  0.183422  0.205318  0.421652  1
  Lu  Lu6  1  0.816578  0.205318  0.921652  1
  Lu  Lu7  1  0.816578  0.794682  0.578348  1
  W  W8  1  0.745034  0.727110  0.885460  1
  W  W9  1  0.254966  0.727110  0.385460  1
  W  W10  1  0.745034  0.272890  0.614540  1
  W  W11  1  0.254966  0.272890  0.114540  1
  O  O12  1  0.539790  0.161100  0.065764  1
  O  O13  1  0.051257  0.057299  0.100933  1
  O  O14  1  0.012924  0.719192  0.768585  1
  O  O15  1  0.460210  0.161100  0.565764  1
  O  O16  1  0.346249  0.491005  0.387758  1
  O  O17  1  0.948743  0.057299  0.600933  1
  O  O18  1  0.550072  0.793806  0.725100  1
  O  O19  1  0.449928  0.793806  0.225100  1
  O  O20  1  0.140591  0.641371  0.547339  1
  O  O21  1  0.051257  0.942701  0.399067  1
  O  O22  1  0.460210  0.838900  0.934236  1
  O  O23  1  0.449928  0.206194  0.274900  1
  O  O24  1  0.859409  0.358629  0.452661  1
  O  O25  1  0.653751  0.491005  0.887758  1
  O  O26  1  0.346249  0.508995  0.112242  1
  O  O27  1  0.948743  0.942701  0.899067  1
  O  O28  1  0.539790  0.838900  0.434236  1
  O  O29  1  0.987076  0.280808  0.231415  1
  O  O30  1  0.550072  0.206194  0.774900  1
  O  O31  1  0.859409  0.641371  0.047339  1
  O  O32  1  0.012924  0.280808  0.731415  1
  O  O33  1  0.140591  0.358629  0.952661  1
  O  O34  1  0.987076  0.719192  0.268585  1
  O  O35  1  0.653751  0.508995  0.612242  1
