# generated using pymatgen
data_Rb3Ba(NpSe2)8
_symmetry_space_group_name_H-M   'P 1'
_cell_length_a   4.27915800
_cell_length_b   13.11023977
_cell_length_c   15.48785629
_cell_angle_alpha   90.31096565
_cell_angle_beta   90.00000000
_cell_angle_gamma   90.00000000
_symmetry_Int_Tables_number   1
_chemical_formula_structural   Rb3Ba(NpSe2)8
_chemical_formula_sum   'Rb3 Ba1 Np8 Se16'
_cell_volume   868.86813561
_cell_formula_units_Z   1
loop_
 _symmetry_equiv_pos_site_id
 _symmetry_equiv_pos_as_xyz
  1  'x, y, z'
loop_
 _atom_site_type_symbol
 _atom_site_label
 _atom_site_symmetry_multiplicity
 _atom_site_fract_x
 _atom_site_fract_y
 _atom_site_fract_z
 _atom_site_occupancy
  Rb  Rb0  1  0.250000  0.240684  0.336772  1
  Rb  Rb1  1  0.250000  0.742362  0.162345  1
  Rb  Rb2  1  0.750000  0.758657  0.661385  1
  Ba  Ba3  1  0.750000  0.257611  0.838491  1
  Np  Np4  1  0.250000  0.079825  0.602290  1
  Np  Np5  1  0.250000  0.579164  0.898621  1
  Np  Np6  1  0.750000  0.921768  0.398643  1
  Np  Np7  1  0.750000  0.419393  0.100241  1
  Np  Np8  1  0.250000  0.564719  0.389992  1
  Np  Np9  1  0.250000  0.065712  0.109400  1
  Np  Np10  1  0.750000  0.433309  0.607928  1
  Np  Np11  1  0.750000  0.935283  0.889468  1
  Se  Se12  1  0.250000  0.083487  0.921772  1
  Se  Se13  1  0.250000  0.574797  0.574874  1
  Se  Se14  1  0.750000  0.925003  0.071868  1
  Se  Se15  1  0.750000  0.424043  0.423211  1
  Se  Se16  1  0.250000  0.292119  0.667790  1
  Se  Se17  1  0.250000  0.793342  0.846320  1
  Se  Se18  1  0.750000  0.706180  0.348075  1
  Se  Se19  1  0.750000  0.207484  0.150844  1
  Se  Se20  1  0.250000  0.377474  0.974585  1
  Se  Se21  1  0.250000  0.883769  0.518257  1
  Se  Se22  1  0.750000  0.615644  0.018431  1
  Se  Se23  1  0.750000  0.119801  0.484493  1
  Se  Se24  1  0.250000  0.475620  0.215493  1
  Se  Se25  1  0.250000  0.977702  0.282749  1
  Se  Se26  1  0.750000  0.513565  0.785167  1
  Se  Se27  1  0.750000  0.031483  0.720495  1
