# generated using pymatgen
data_Yb3DyTcOs7
_symmetry_space_group_name_H-M   'P 1'
_cell_length_a   5.34027300
_cell_length_b   5.34027268
_cell_length_c   8.66968900
_cell_angle_alpha   90.00000000
_cell_angle_beta   90.00000000
_cell_angle_gamma   119.99999579
_symmetry_Int_Tables_number   1
_chemical_formula_structural   Yb3DyTcOs7
_chemical_formula_sum   'Yb3 Dy1 Tc1 Os7'
_cell_volume   214.12188652
_cell_formula_units_Z   1
loop_
 _symmetry_equiv_pos_site_id
 _symmetry_equiv_pos_as_xyz
  1  'x, y, z'
loop_
 _atom_site_type_symbol
 _atom_site_label
 _atom_site_symmetry_multiplicity
 _atom_site_fract_x
 _atom_site_fract_y
 _atom_site_fract_z
 _atom_site_occupancy
  Yb  Yb0  1  0.666667  0.333333  0.571053  1
  Yb  Yb1  1  0.666667  0.333333  0.934566  1
  Yb  Yb2  1  0.333333  0.666667  0.060924  1
  Dy  Dy3  1  0.333333  0.666667  0.430590  1
  Tc  Tc4  1  0.000000  0.000000  0.500701  1
  Os  Os5  1  0.000000  0.000000  0.001790  1
  Os  Os6  1  0.826954  0.173046  0.250238  1
  Os  Os7  1  0.826954  0.653909  0.250238  1
  Os  Os8  1  0.346091  0.173046  0.250238  1
  Os  Os9  1  0.172325  0.827675  0.749888  1
  Os  Os10  1  0.172325  0.344649  0.749888  1
  Os  Os11  1  0.655351  0.827675  0.749888  1
