# generated using pymatgen
data_Dy16MgIn3(PtRh)2
_symmetry_space_group_name_H-M   'P 1'
_cell_length_a   9.71025820
_cell_length_b   9.69283348
_cell_length_c   9.69463751
_cell_angle_alpha   60.09109797
_cell_angle_beta   59.94682951
_cell_angle_gamma   59.94089353
_symmetry_Int_Tables_number   1
_chemical_formula_structural   Dy16MgIn3(PtRh)2
_chemical_formula_sum   'Dy16 Mg1 In3 Pt2 Rh2'
_cell_volume   645.09944581
_cell_formula_units_Z   1
loop_
 _symmetry_equiv_pos_site_id
 _symmetry_equiv_pos_as_xyz
  1  'x, y, z'
loop_
 _atom_site_type_symbol
 _atom_site_label
 _atom_site_symmetry_multiplicity
 _atom_site_fract_x
 _atom_site_fract_y
 _atom_site_fract_z
 _atom_site_occupancy
  Dy  Dy0  1  0.689491  0.310431  0.310598  1
  Dy  Dy1  1  0.685847  0.692277  0.311853  1
  Dy  Dy2  1  0.310068  0.692266  0.311820  1
  Dy  Dy3  1  0.937436  0.934911  0.562426  1
  Dy  Dy4  1  0.150578  0.142845  0.555986  1
  Dy  Dy5  1  0.565223  0.934924  0.562449  1
  Dy  Dy6  1  0.155122  0.150005  0.149629  1
  Dy  Dy7  1  0.308147  0.308548  0.695019  1
  Dy  Dy8  1  0.937903  0.562353  0.561874  1
  Dy  Dy9  1  0.563616  0.563273  0.935246  1
  Dy  Dy10  1  0.564164  0.936734  0.934968  1
  Dy  Dy11  1  0.937810  0.563291  0.935249  1
  Dy  Dy12  1  0.151878  0.551851  0.144370  1
  Dy  Dy13  1  0.309180  0.690725  0.690895  1
  Dy  Dy14  1  0.688295  0.308545  0.695011  1
  Dy  Dy15  1  0.545251  0.150006  0.149638  1
  Mg  Mg16  1  0.922350  0.923716  0.231612  1
  In  In17  1  0.248580  0.917116  0.917927  1
  In  In18  1  0.916588  0.247955  0.918858  1
  In  In19  1  0.916343  0.917118  0.917949  1
  Pt  Pt20  1  0.354751  0.357525  0.359425  1
  Pt  Pt21  1  0.928296  0.357525  0.359404  1
  Rh  Rh22  1  0.357094  0.359428  0.926404  1
  Rh  Rh23  1  0.355992  0.926635  0.361389  1
