# generated using pymatgen
data_NdSm6MnBr12
_symmetry_space_group_name_H-M   'P 1'
_cell_length_a   9.51505928
_cell_length_b   9.49996275
_cell_length_c   9.25170303
_cell_angle_alpha   106.42656020
_cell_angle_beta   106.94255762
_cell_angle_gamma   107.13750224
_symmetry_Int_Tables_number   1
_chemical_formula_structural   NdSm6MnBr12
_chemical_formula_sum   'Nd1 Sm6 Mn1 Br12'
_cell_volume   699.54615935
_cell_formula_units_Z   1
loop_
 _symmetry_equiv_pos_site_id
 _symmetry_equiv_pos_as_xyz
  1  'x, y, z'
loop_
 _atom_site_type_symbol
 _atom_site_label
 _atom_site_symmetry_multiplicity
 _atom_site_fract_x
 _atom_site_fract_y
 _atom_site_fract_z
 _atom_site_occupancy
  Nd  Nd0  1  0.594273  0.521527  0.789767  1
  Sm  Sm1  1  0.000518  0.003070  0.996843  1
  Sm  Sm2  1  0.521442  0.809734  0.602341  1
  Sm  Sm3  1  0.811294  0.601247  0.521548  1
  Sm  Sm4  1  0.405277  0.478003  0.211630  1
  Sm  Sm5  1  0.477901  0.188316  0.398287  1
  Sm  Sm6  1  0.188797  0.396858  0.481864  1
  Mn  Mn7  1  0.503784  0.499727  0.512101  1
  Br  Br8  1  0.570290  0.179037  0.719979  1
  Br  Br9  1  0.181076  0.717915  0.566514  1
  Br  Br10  1  0.715278  0.566890  0.182154  1
  Br  Br11  1  0.426516  0.811239  0.276304  1
  Br  Br12  1  0.815349  0.278701  0.423863  1
  Br  Br13  1  0.276074  0.428301  0.819403  1
  Br  Br14  1  0.671929  0.888611  0.964402  1
  Br  Br15  1  0.880301  0.959964  0.657984  1
  Br  Br16  1  0.965266  0.674224  0.885641  1
  Br  Br17  1  0.333338  0.122587  0.037618  1
  Br  Br18  1  0.117866  0.038644  0.333785  1
  Br  Br19  1  0.043431  0.335403  0.117972  1
