# generated using pymatgen
data_Sc4CSe3
_symmetry_space_group_name_H-M   'P 1'
_cell_length_a   6.44203269
_cell_length_b   6.44203269
_cell_length_c   6.48071100
_cell_angle_alpha   79.32192544
_cell_angle_beta   79.32192546
_cell_angle_gamma   32.45002360
_symmetry_Int_Tables_number   1
_chemical_formula_structural   Sc4CSe3
_chemical_formula_sum   'Sc4 C1 Se3'
_cell_volume   141.59531082
_cell_formula_units_Z   1
loop_
 _symmetry_equiv_pos_site_id
 _symmetry_equiv_pos_as_xyz
  1  'x, y, z'
loop_
 _atom_site_type_symbol
 _atom_site_label
 _atom_site_symmetry_multiplicity
 _atom_site_fract_x
 _atom_site_fract_y
 _atom_site_fract_z
 _atom_site_occupancy
  Sc  Sc0  1  0.228118  0.228118  0.220732  1
  Sc  Sc1  1  0.513639  0.513639  0.448372  1
  Sc  Sc2  1  0.736362  0.736362  0.801620  1
  Sc  Sc3  1  0.021882  0.021882  0.029283  1
  C  C4  1  0.625002  0.625002  0.125023  1
  Se  Se5  1  0.864686  0.864686  0.379977  1
  Se  Se6  1  0.124999  0.124999  0.624985  1
  Se  Se7  1  0.385311  0.385311  0.870010  1
