# generated using pymatgen
data_LaNd7ZnPd24
_symmetry_space_group_name_H-M   'P 1'
_cell_length_a   8.50885143
_cell_length_b   8.50885143
_cell_length_c   8.50885143
_cell_angle_alpha   89.97427450
_cell_angle_beta   89.97427450
_cell_angle_gamma   89.97427450
_symmetry_Int_Tables_number   1
_chemical_formula_structural   LaNd7ZnPd24
_chemical_formula_sum   'La1 Nd7 Zn1 Pd24'
_cell_volume   616.04535951
_cell_formula_units_Z   1
loop_
 _symmetry_equiv_pos_site_id
 _symmetry_equiv_pos_as_xyz
  1  'x, y, z'
loop_
 _atom_site_type_symbol
 _atom_site_label
 _atom_site_symmetry_multiplicity
 _atom_site_fract_x
 _atom_site_fract_y
 _atom_site_fract_z
 _atom_site_occupancy
  La  La0  1  0.250826  0.250826  0.250826  1
  Nd  Nd1  1  0.749347  0.749347  0.749347  1
  Nd  Nd2  1  0.749831  0.749831  0.250398  1
  Nd  Nd3  1  0.749831  0.250398  0.749831  1
  Nd  Nd4  1  0.250427  0.250427  0.749423  1
  Nd  Nd5  1  0.250427  0.749423  0.250427  1
  Nd  Nd6  1  0.250398  0.749831  0.749831  1
  Nd  Nd7  1  0.749423  0.250427  0.250427  1
  Zn  Zn8  1  0.999655  0.999655  0.999655  1
  Pd  Pd9  1  0.262042  0.500704  0.999178  1
  Pd  Pd10  1  0.737840  0.499801  0.000254  1
  Pd  Pd11  1  0.999178  0.262042  0.500704  1
  Pd  Pd12  1  0.500704  0.262042  0.999178  1
  Pd  Pd13  1  0.000254  0.737840  0.499801  1
  Pd  Pd14  1  0.499801  0.737840  0.000254  1
  Pd  Pd15  1  0.500704  0.999178  0.262042  1
  Pd  Pd16  1  0.262042  0.999178  0.500704  1
  Pd  Pd17  1  0.499801  0.000254  0.737840  1
  Pd  Pd18  1  0.737840  0.000254  0.499801  1
  Pd  Pd19  1  0.999178  0.500704  0.262042  1
  Pd  Pd20  1  0.000254  0.499801  0.737840  1
  Pd  Pd21  1  0.253535  0.500839  0.500839  1
  Pd  Pd22  1  0.746494  0.499713  0.499713  1
  Pd  Pd23  1  0.500839  0.253535  0.500839  1
  Pd  Pd24  1  0.499713  0.746494  0.499713  1
  Pd  Pd25  1  0.500839  0.500839  0.253535  1
  Pd  Pd26  1  0.499713  0.499713  0.746494  1
  Pd  Pd27  1  0.297313  0.999321  0.999321  1
  Pd  Pd28  1  0.702612  0.000250  0.000250  1
  Pd  Pd29  1  0.999321  0.297313  0.999321  1
  Pd  Pd30  1  0.000250  0.702612  0.000250  1
  Pd  Pd31  1  0.999321  0.999321  0.297313  1
  Pd  Pd32  1  0.000250  0.000250  0.702612  1
