# generated using pymatgen
data_Pa5Nb3(P3Rh4)4
_symmetry_space_group_name_H-M   'P 1'
_cell_length_a   12.82352300
_cell_length_b   12.82352166
_cell_length_c   3.93794900
_cell_angle_alpha   90.00000000
_cell_angle_beta   90.00000000
_cell_angle_gamma   119.99999572
_symmetry_Int_Tables_number   1
_chemical_formula_structural   Pa5Nb3(P3Rh4)4
_chemical_formula_sum   'Pa5 Nb3 P12 Rh16'
_cell_volume   560.80955237
_cell_formula_units_Z   1
loop_
 _symmetry_equiv_pos_site_id
 _symmetry_equiv_pos_as_xyz
  1  'x, y, z'
loop_
 _atom_site_type_symbol
 _atom_site_label
 _atom_site_symmetry_multiplicity
 _atom_site_fract_x
 _atom_site_fract_y
 _atom_site_fract_z
 _atom_site_occupancy
  Pa  Pa0  1  0.814503  0.000000  0.500000  1
  Pa  Pa1  1  0.000000  0.814503  0.500000  1
  Pa  Pa2  1  0.185497  0.185497  0.500000  1
  Pa  Pa3  1  0.333333  0.666667  0.000000  1
  Pa  Pa4  1  0.666667  0.333333  0.000000  1
  Nb  Nb5  1  0.447833  0.000000  0.000000  1
  Nb  Nb6  1  0.000000  0.447833  0.000000  1
  Nb  Nb7  1  0.552167  0.552167  0.000000  1
  P  P8  1  0.176156  0.000000  0.000000  1
  P  P9  1  0.000000  0.176156  0.000000  1
  P  P10  1  0.823844  0.823844  0.000000  1
  P  P11  1  0.518263  0.683912  0.500000  1
  P  P12  1  0.316088  0.834351  0.500000  1
  P  P13  1  0.165649  0.481737  0.500000  1
  P  P14  1  0.481737  0.165649  0.500000  1
  P  P15  1  0.683912  0.518263  0.500000  1
  P  P16  1  0.834351  0.316088  0.500000  1
  P  P17  1  0.636074  0.000000  0.000000  1
  P  P18  1  0.000000  0.636074  0.000000  1
  P  P19  1  0.363926  0.363926  0.000000  1
  Rh  Rh20  1  0.278859  0.000000  0.500000  1
  Rh  Rh21  1  0.000000  0.278859  0.500000  1
  Rh  Rh22  1  0.721141  0.721141  0.500000  1
  Rh  Rh23  1  0.627482  0.806946  0.000000  1
  Rh  Rh24  1  0.193054  0.820535  0.000000  1
  Rh  Rh25  1  0.179465  0.372518  0.000000  1
  Rh  Rh26  1  0.372518  0.179465  0.000000  1
  Rh  Rh27  1  0.806946  0.627482  0.000000  1
  Rh  Rh28  1  0.820535  0.193054  0.000000  1
  Rh  Rh29  1  0.513641  0.870454  0.500000  1
  Rh  Rh30  1  0.129546  0.643187  0.500000  1
  Rh  Rh31  1  0.356813  0.486359  0.500000  1
  Rh  Rh32  1  0.486359  0.356813  0.500000  1
  Rh  Rh33  1  0.870454  0.513641  0.500000  1
  Rh  Rh34  1  0.643187  0.129546  0.500000  1
  Rh  Rh35  1  0.000000  0.000000  0.000000  1
