# generated using pymatgen
data_Tb11DyCdCo6
_symmetry_space_group_name_H-M   'P 1'
_cell_length_a   8.39354731
_cell_length_b   8.39354773
_cell_length_c   8.39505400
_cell_angle_alpha   109.48694544
_cell_angle_beta   109.47550618
_cell_angle_gamma   109.44394434
_symmetry_Int_Tables_number   1
_chemical_formula_structural   Tb11DyCdCo6
_chemical_formula_sum   'Tb11 Dy1 Cd1 Co6'
_cell_volume   455.33559194
_cell_formula_units_Z   1
loop_
 _symmetry_equiv_pos_site_id
 _symmetry_equiv_pos_as_xyz
  1  'x, y, z'
loop_
 _atom_site_type_symbol
 _atom_site_label
 _atom_site_symmetry_multiplicity
 _atom_site_fract_x
 _atom_site_fract_y
 _atom_site_fract_z
 _atom_site_occupancy
  Tb  Tb0  1  0.194184  0.303456  0.497639  1
  Tb  Tb1  1  0.193989  0.696565  0.890556  1
  Tb  Tb2  1  0.805693  0.303654  0.109345  1
  Tb  Tb3  1  0.696616  0.502468  0.805647  1
  Tb  Tb4  1  0.303717  0.497688  0.194372  1
  Tb  Tb5  1  0.696685  0.890656  0.194372  1
  Tb  Tb6  1  0.303179  0.109030  0.805647  1
  Tb  Tb7  1  0.502395  0.805639  0.696502  1
  Tb  Tb8  1  0.497922  0.194589  0.303569  1
  Tb  Tb9  1  0.108979  0.805647  0.303569  1
  Tb  Tb10  1  0.890865  0.194108  0.696502  1
  Dy  Dy11  1  0.805803  0.696117  0.501921  1
  Cd  Cd12  1  0.999904  0.999869  0.999773  1
  Co  Co13  1  0.886754  0.387209  0.500009  1
  Co  Co14  1  0.112800  0.613255  0.500009  1
  Co  Co15  1  0.387102  0.499949  0.887051  1
  Co  Co16  1  0.613276  0.500075  0.113351  1
  Co  Co17  1  0.500179  0.886937  0.387115  1
  Co  Co18  1  0.499960  0.113092  0.613052  1
