# generated using pymatgen
data_Ho8Ta4Nb8Si15Ge
_symmetry_space_group_name_H-M   'P 1'
_cell_length_a   6.86308177
_cell_length_b   7.05492867
_cell_length_c   13.41483401
_cell_angle_alpha   90.04500237
_cell_angle_beta   89.92605195
_cell_angle_gamma   90.01097791
_symmetry_Int_Tables_number   1
_chemical_formula_structural   Ho8Ta4Nb8Si15Ge
_chemical_formula_sum   'Ho8 Ta4 Nb8 Si15 Ge1'
_cell_volume   649.52608919
_cell_formula_units_Z   1
loop_
 _symmetry_equiv_pos_site_id
 _symmetry_equiv_pos_as_xyz
  1  'x, y, z'
loop_
 _atom_site_type_symbol
 _atom_site_label
 _atom_site_symmetry_multiplicity
 _atom_site_fract_x
 _atom_site_fract_y
 _atom_site_fract_z
 _atom_site_occupancy
  Ho  Ho0  1  0.502109  0.328344  0.095747  1
  Ho  Ho1  1  0.000999  0.171248  0.403852  1
  Ho  Ho2  1  0.500992  0.673644  0.596478  1
  Ho  Ho3  1  0.997827  0.828119  0.904613  1
  Ho  Ho4  1  0.497801  0.671625  0.904503  1
  Ho  Ho5  1  0.997710  0.829120  0.595986  1
  Ho  Ho6  1  0.502700  0.326952  0.403367  1
  Ho  Ho7  1  0.002059  0.171997  0.095509  1
  Ta  Ta8  1  0.663653  0.008408  0.750194  1
  Ta  Ta9  1  0.163561  0.490732  0.751983  1
  Ta  Ta10  1  0.335987  0.991626  0.249768  1
  Ta  Ta11  1  0.836318  0.508732  0.249839  1
  Nb  Nb12  1  0.836729  0.324645  0.625962  1
  Nb  Nb13  1  0.338428  0.174734  0.874665  1
  Nb  Nb14  1  0.161651  0.675037  0.125409  1
  Nb  Nb15  1  0.661119  0.825570  0.374019  1
  Nb  Nb16  1  0.160005  0.677466  0.372853  1
  Nb  Nb17  1  0.660757  0.824846  0.125422  1
  Nb  Nb18  1  0.838324  0.325000  0.874641  1
  Nb  Nb19  1  0.340867  0.171203  0.626810  1
  Si  Si20  1  0.797509  0.628401  0.750186  1
  Si  Si21  1  0.296487  0.870473  0.750571  1
  Si  Si22  1  0.202916  0.371578  0.249730  1
  Si  Si23  1  0.703046  0.128447  0.249562  1
  Si  Si24  1  0.542555  0.377085  0.750341  1
  Si  Si25  1  0.042605  0.123227  0.750086  1
  Si  Si26  1  0.457040  0.623019  0.249917  1
  Si  Si27  1  0.956379  0.877469  0.249087  1
  Si  Si28  1  0.664652  0.036993  0.540356  1
  Si  Si29  1  0.163929  0.463444  0.959385  1
  Si  Si30  1  0.335671  0.963653  0.040745  1
  Si  Si31  1  0.832011  0.537291  0.458505  1
  Si  Si32  1  0.335426  0.963080  0.459383  1
  Si  Si33  1  0.836091  0.536509  0.040905  1
  Si  Si34  1  0.664030  0.036472  0.959290  1
  Ge  Ge35  1  0.170055  0.463817  0.540329  1
