# generated using pymatgen
data_Gd2YHoB10
_symmetry_space_group_name_H-M   'P 1'
_cell_length_a   7.12620700
_cell_length_b   7.11856001
_cell_length_c   7.14168819
_cell_angle_alpha   76.71349597
_cell_angle_beta   90.00000000
_cell_angle_gamma   90.00000000
_symmetry_Int_Tables_number   1
_chemical_formula_structural   Gd2YHoB10
_chemical_formula_sum   'Gd4 Y2 Ho2 B20'
_cell_volume   352.58863596
_cell_formula_units_Z   2
loop_
 _symmetry_equiv_pos_site_id
 _symmetry_equiv_pos_as_xyz
  1  'x, y, z'
loop_
 _atom_site_type_symbol
 _atom_site_label
 _atom_site_symmetry_multiplicity
 _atom_site_fract_x
 _atom_site_fract_y
 _atom_site_fract_z
 _atom_site_occupancy
  Gd  Gd0  1  0.692030  0.770854  0.626694  1
  Gd  Gd1  1  0.192030  0.229146  0.873306  1
  Gd  Gd2  1  0.308312  0.229253  0.374068  1
  Gd  Gd3  1  0.808312  0.770747  0.125932  1
  Y  Y4  1  0.314832  0.756346  0.252988  1
  Y  Y5  1  0.814832  0.243654  0.247012  1
  Ho  Ho6  1  0.684906  0.245547  0.746837  1
  Ho  Ho7  1  0.184906  0.754453  0.753163  1
  B  B8  1  0.502389  0.314259  0.040426  1
  B  B9  1  0.002389  0.685741  0.459574  1
  B  B10  1  0.497410  0.686179  0.958611  1
  B  B11  1  0.997410  0.313821  0.541389  1
  B  B12  1  0.488867  0.926345  0.924113  1
  B  B13  1  0.988867  0.073655  0.575887  1
  B  B14  1  0.511683  0.074701  0.072957  1
  B  B15  1  0.011683  0.925299  0.427043  1
  B  B16  1  0.326170  0.496200  0.039630  1
  B  B17  1  0.826170  0.503800  0.460370  1
  B  B18  1  0.673616  0.504055  0.959797  1
  B  B19  1  0.173616  0.495945  0.540203  1
  B  B20  1  0.910659  0.499157  0.910515  1
  B  B21  1  0.410659  0.500843  0.589485  1
  B  B22  1  0.089270  0.501515  0.088960  1
  B  B23  1  0.589270  0.498485  0.411040  1
  B  B24  1  0.961546  0.496480  0.674330  1
  B  B25  1  0.461546  0.503520  0.825670  1
  B  B26  1  0.038309  0.503239  0.325937  1
  B  B27  1  0.538309  0.496761  0.174063  1
