# generated using pymatgen
data_Ho4Tc5IrRu2
_symmetry_space_group_name_H-M   'P 1'
_cell_length_a   5.28228007
_cell_length_b   5.14629789
_cell_length_c   9.19266579
_cell_angle_alpha   90.02294413
_cell_angle_beta   89.81697507
_cell_angle_gamma   118.99989970
_symmetry_Int_Tables_number   1
_chemical_formula_structural   Ho4Tc5IrRu2
_chemical_formula_sum   'Ho4 Tc5 Ir1 Ru2'
_cell_volume   218.56212603
_cell_formula_units_Z   1
loop_
 _symmetry_equiv_pos_site_id
 _symmetry_equiv_pos_as_xyz
  1  'x, y, z'
loop_
 _atom_site_type_symbol
 _atom_site_label
 _atom_site_symmetry_multiplicity
 _atom_site_fract_x
 _atom_site_fract_y
 _atom_site_fract_z
 _atom_site_occupancy
  Ho  Ho0  1  0.668870  0.334076  0.564229  1
  Ho  Ho1  1  0.329749  0.665106  0.434679  1
  Ho  Ho2  1  0.327968  0.664494  0.065844  1
  Ho  Ho3  1  0.668789  0.333822  0.934791  1
  Tc  Tc4  1  0.172412  0.342811  0.750331  1
  Tc  Tc5  1  0.172012  0.829848  0.750604  1
  Tc  Tc6  1  0.659484  0.829851  0.749521  1
  Tc  Tc7  1  0.834176  0.661236  0.249296  1
  Tc  Tc8  1  0.834998  0.173078  0.249278  1
  Ir  Ir9  1  0.992828  0.996393  0.499247  1
  Ru  Ru10  1  0.990208  0.994922  0.001344  1
  Ru  Ru11  1  0.348506  0.174363  0.250835  1
