# generated using pymatgen
data_Nd2Ge2Os2C
_symmetry_space_group_name_H-M   'P 1'
_cell_length_a   5.99946391
_cell_length_b   5.99946341
_cell_length_c   7.08868794
_cell_angle_alpha   125.20994416
_cell_angle_beta   125.20994301
_cell_angle_gamma   41.18700652
_symmetry_Int_Tables_number   1
_chemical_formula_structural   Nd2Ge2Os2C
_chemical_formula_sum   'Nd2 Ge2 Os2 C1'
_cell_volume   132.36533284
_cell_formula_units_Z   1
loop_
 _symmetry_equiv_pos_site_id
 _symmetry_equiv_pos_as_xyz
  1  'x, y, z'
loop_
 _atom_site_type_symbol
 _atom_site_label
 _atom_site_symmetry_multiplicity
 _atom_site_fract_x
 _atom_site_fract_y
 _atom_site_fract_z
 _atom_site_occupancy
  Nd  Nd0  1  0.561045  0.561045  0.296481  1
  Nd  Nd1  1  0.438954  0.438954  0.703517  1
  Ge  Ge2  1  0.838156  0.838156  0.293823  1
  Ge  Ge3  1  0.161845  0.161845  0.706177  1
  Os  Os4  1  0.199175  0.199175  0.095119  1
  Os  Os5  1  0.800826  0.800826  0.904881  1
  C  C6  1  0.000000  0.000000  0.000000  1
