# generated using pymatgen
data_K4LiAgSb2
_symmetry_space_group_name_H-M   'P 1'
_cell_length_a   6.82107031
_cell_length_b   6.82106907
_cell_length_c   6.26671508
_cell_angle_alpha   90.50913973
_cell_angle_beta   90.50913176
_cell_angle_gamma   102.09653615
_symmetry_Int_Tables_number   1
_chemical_formula_structural   K4LiAgSb2
_chemical_formula_sum   'K4 Li1 Ag1 Sb2'
_cell_volume   285.06884129
_cell_formula_units_Z   1
loop_
 _symmetry_equiv_pos_site_id
 _symmetry_equiv_pos_as_xyz
  1  'x, y, z'
loop_
 _atom_site_type_symbol
 _atom_site_label
 _atom_site_symmetry_multiplicity
 _atom_site_fract_x
 _atom_site_fract_y
 _atom_site_fract_z
 _atom_site_occupancy
  K  K0  1  0.313262  0.972761  0.742100  1
  K  K1  1  0.686738  0.027239  0.257900  1
  K  K2  1  0.972761  0.313262  0.742100  1
  K  K3  1  0.027239  0.686738  0.257900  1
  Li  Li4  1  0.500000  0.500000  0.000000  1
  Ag  Ag5  1  0.500000  0.500000  0.500000  1
  Sb  Sb6  1  0.758658  0.758658  0.756868  1
  Sb  Sb7  1  0.241342  0.241342  0.243132  1
