# generated using pymatgen
data_LiLa3Ir7Rh
_symmetry_space_group_name_H-M   'P 1'
_cell_length_a   5.40367800
_cell_length_b   5.40367713
_cell_length_c   17.55374900
_cell_angle_alpha   90.00000000
_cell_angle_beta   90.00000000
_cell_angle_gamma   119.99999305
_symmetry_Int_Tables_number   1
_chemical_formula_structural   LiLa3Ir7Rh
_chemical_formula_sum   'Li2 La6 Ir14 Rh2'
_cell_volume   443.89412848
_cell_formula_units_Z   2
loop_
 _symmetry_equiv_pos_site_id
 _symmetry_equiv_pos_as_xyz
  1  'x, y, z'
loop_
 _atom_site_type_symbol
 _atom_site_label
 _atom_site_symmetry_multiplicity
 _atom_site_fract_x
 _atom_site_fract_y
 _atom_site_fract_z
 _atom_site_occupancy
  Li  Li0  1  0.000000  0.000000  0.250000  1
  Li  Li1  1  0.000000  0.000000  0.750000  1
  La  La2  1  0.333333  0.666667  0.538221  1
  La  La3  1  0.666667  0.333333  0.038221  1
  La  La4  1  0.666667  0.333333  0.461779  1
  La  La5  1  0.333333  0.666667  0.961779  1
  La  La6  1  0.333333  0.666667  0.750000  1
  La  La7  1  0.666667  0.333333  0.250000  1
  Ir  Ir8  1  0.166435  0.332870  0.127663  1
  Ir  Ir9  1  0.833565  0.667130  0.627663  1
  Ir  Ir10  1  0.667130  0.833565  0.127663  1
  Ir  Ir11  1  0.166435  0.833565  0.127663  1
  Ir  Ir12  1  0.833565  0.166435  0.627663  1
  Ir  Ir13  1  0.332870  0.166435  0.627663  1
  Ir  Ir14  1  0.833565  0.667130  0.872337  1
  Ir  Ir15  1  0.833565  0.166435  0.872337  1
  Ir  Ir16  1  0.332870  0.166435  0.872337  1
  Ir  Ir17  1  0.667130  0.833565  0.372337  1
  Ir  Ir18  1  0.166435  0.833565  0.372337  1
  Ir  Ir19  1  0.166435  0.332870  0.372337  1
  Ir  Ir20  1  0.000000  0.000000  0.000000  1
  Ir  Ir21  1  0.000000  0.000000  0.500000  1
  Rh  Rh22  1  0.333333  0.666667  0.250000  1
  Rh  Rh23  1  0.666667  0.333333  0.750000  1
