# generated using pymatgen
data_HfSc11Si12IrRu3
_symmetry_space_group_name_H-M   'P 1'
_cell_length_a   4.02344400
_cell_length_b   10.27356036
_cell_length_c   11.66923204
_cell_angle_alpha   90.10061256
_cell_angle_beta   90.00000000
_cell_angle_gamma   90.00000000
_symmetry_Int_Tables_number   1
_chemical_formula_structural   HfSc11Si12IrRu3
_chemical_formula_sum   'Hf1 Sc11 Si12 Ir1 Ru3'
_cell_volume   482.34806876
_cell_formula_units_Z   1
loop_
 _symmetry_equiv_pos_site_id
 _symmetry_equiv_pos_as_xyz
  1  'x, y, z'
loop_
 _atom_site_type_symbol
 _atom_site_label
 _atom_site_symmetry_multiplicity
 _atom_site_fract_x
 _atom_site_fract_y
 _atom_site_fract_z
 _atom_site_occupancy
  Hf  Hf0  1  0.250000  0.876958  0.019628  1
  Sc  Sc1  1  0.250000  0.623434  0.518978  1
  Sc  Sc2  1  0.750000  0.125057  0.981040  1
  Sc  Sc3  1  0.750000  0.377353  0.479998  1
  Sc  Sc4  1  0.250000  0.921167  0.603817  1
  Sc  Sc5  1  0.250000  0.579207  0.103441  1
  Sc  Sc6  1  0.750000  0.079022  0.395351  1
  Sc  Sc7  1  0.750000  0.421441  0.896599  1
  Sc  Sc8  1  0.250000  0.658713  0.799098  1
  Sc  Sc9  1  0.250000  0.839462  0.299153  1
  Sc  Sc10  1  0.750000  0.340420  0.202326  1
  Sc  Sc11  1  0.750000  0.159218  0.701847  1
  Si  Si12  1  0.250000  0.015105  0.822755  1
  Si  Si13  1  0.250000  0.485157  0.322043  1
  Si  Si14  1  0.750000  0.983425  0.175256  1
  Si  Si15  1  0.750000  0.515962  0.676976  1
  Si  Si16  1  0.250000  0.252172  0.842029  1
  Si  Si17  1  0.250000  0.247076  0.341019  1
  Si  Si18  1  0.750000  0.747786  0.158403  1
  Si  Si19  1  0.750000  0.752693  0.659445  1
  Si  Si20  1  0.250000  0.193733  0.545415  1
  Si  Si21  1  0.250000  0.307604  0.045922  1
  Si  Si22  1  0.750000  0.804969  0.454865  1
  Si  Si23  1  0.750000  0.695245  0.954936  1
  Ir  Ir24  1  0.250000  0.390379  0.676236  1
  Ru  Ru25  1  0.250000  0.107495  0.174332  1
  Ru  Ru26  1  0.750000  0.608916  0.323133  1
  Ru  Ru27  1  0.750000  0.890829  0.825960  1
