# generated using pymatgen
data_Zr20(CN)9
_symmetry_space_group_name_H-M   'P 1'
_cell_length_a   8.74362488
_cell_length_b   8.74338949
_cell_length_c   10.95647539
_cell_angle_alpha   62.80562045
_cell_angle_beta   62.82936366
_cell_angle_gamma   44.52175718
_symmetry_Int_Tables_number   1
_chemical_formula_structural   Zr20(CN)9
_chemical_formula_sum   'Zr20 C9 N9'
_cell_volume   510.77671074
_cell_formula_units_Z   1
loop_
 _symmetry_equiv_pos_site_id
 _symmetry_equiv_pos_as_xyz
  1  'x, y, z'
loop_
 _atom_site_type_symbol
 _atom_site_label
 _atom_site_symmetry_multiplicity
 _atom_site_fract_x
 _atom_site_fract_y
 _atom_site_fract_z
 _atom_site_occupancy
  Zr  Zr0  1  0.226402  0.478098  0.948758  1
  Zr  Zr1  1  0.721790  0.967430  0.958835  1
  Zr  Zr2  1  0.562745  0.330095  0.649575  1
  Zr  Zr3  1  0.436289  0.672144  0.350464  1
  Zr  Zr4  1  0.278115  0.032872  0.040843  1
  Zr  Zr5  1  0.083429  0.816669  0.644765  1
  Zr  Zr6  1  0.121050  0.374500  0.752127  1
  Zr  Zr7  1  0.918647  0.182588  0.356602  1
  Zr  Zr8  1  0.968797  0.721873  0.456996  1
  Zr  Zr9  1  0.775835  0.519946  0.051739  1
  Zr  Zr10  1  0.627206  0.876828  0.746477  1
  Zr  Zr11  1  0.816929  0.080862  0.144130  1
  Zr  Zr12  1  0.476849  0.225174  0.445906  1
  Zr  Zr13  1  0.669377  0.438081  0.850968  1
  Zr  Zr14  1  0.523099  0.773406  0.551503  1
  Zr  Zr15  1  0.328627  0.564012  0.148311  1
  Zr  Zr16  1  0.373249  0.122864  0.252372  1
  Zr  Zr17  1  0.183592  0.917991  0.855399  1
  Zr  Zr18  1  0.031607  0.277242  0.544358  1
  Zr  Zr19  1  0.877233  0.626968  0.249836  1
  C  C20  1  0.175737  0.424402  0.351485  1
  C  C21  1  0.976718  0.224338  0.950971  1
  C  C22  1  0.826936  0.577292  0.649515  1
  C  C23  1  0.025438  0.776026  0.048539  1
  C  C24  1  0.676307  0.926601  0.349957  1
  C  C25  1  0.723412  0.472358  0.449826  1
  C  C26  1  0.525046  0.275608  0.050140  1
  C  C27  1  0.371563  0.625330  0.750284  1
  C  C28  1  0.221278  0.974226  0.450250  1
  N  N29  1  0.072466  0.322926  0.149299  1
  N  N30  1  0.921296  0.675067  0.850406  1
  N  N31  1  0.575704  0.824657  0.147533  1
  N  N32  1  0.775183  0.025451  0.549969  1
  N  N33  1  0.423937  0.172456  0.851421  1
  N  N34  1  0.625876  0.376097  0.249914  1
  N  N35  1  0.278082  0.524640  0.550824  1
  N  N36  1  0.476902  0.725378  0.948722  1
  N  N37  1  0.327251  0.077502  0.650983  1
