# generated using pymatgen
data_Zr4Ti2Ge3Mo2P
_symmetry_space_group_name_H-M   'P 1'
_cell_length_a   3.60778500
_cell_length_b   6.95045859
_cell_length_c   8.39037686
_cell_angle_alpha   89.59371274
_cell_angle_beta   90.00000000
_cell_angle_gamma   90.00000000
_symmetry_Int_Tables_number   1
_chemical_formula_structural   Zr4Ti2Ge3Mo2P
_chemical_formula_sum   'Zr4 Ti2 Ge3 Mo2 P1'
_cell_volume   210.38978869
_cell_formula_units_Z   1
loop_
 _symmetry_equiv_pos_site_id
 _symmetry_equiv_pos_as_xyz
  1  'x, y, z'
loop_
 _atom_site_type_symbol
 _atom_site_label
 _atom_site_symmetry_multiplicity
 _atom_site_fract_x
 _atom_site_fract_y
 _atom_site_fract_z
 _atom_site_occupancy
  Zr  Zr0  1  0.250000  0.553784  0.838494  1
  Zr  Zr1  1  0.250000  0.055258  0.663758  1
  Zr  Zr2  1  0.750000  0.465891  0.164717  1
  Zr  Zr3  1  0.750000  0.949452  0.327565  1
  Ti  Ti4  1  0.250000  0.623582  0.439259  1
  Ti  Ti5  1  0.250000  0.116847  0.058739  1
  Ge  Ge6  1  0.250000  0.250907  0.355903  1
  Ge  Ge7  1  0.750000  0.247491  0.863432  1
  Ge  Ge8  1  0.750000  0.750250  0.639056  1
  Mo  Mo9  1  0.750000  0.370154  0.557440  1
  Mo  Mo10  1  0.750000  0.863184  0.948122  1
  P  P11  1  0.250000  0.753200  0.143515  1
