# generated using pymatgen
data_Sc13Si16W7
_symmetry_space_group_name_H-M   'P 1'
_cell_length_a   6.68400052
_cell_length_b   6.87514544
_cell_length_c   13.11495720
_cell_angle_alpha   89.92201349
_cell_angle_beta   90.04299882
_cell_angle_gamma   89.77411821
_symmetry_Int_Tables_number   1
_chemical_formula_structural   Sc13Si16W7
_chemical_formula_sum   'Sc13 Si16 W7'
_cell_volume   602.67245262
_cell_formula_units_Z   1
loop_
 _symmetry_equiv_pos_site_id
 _symmetry_equiv_pos_as_xyz
  1  'x, y, z'
loop_
 _atom_site_type_symbol
 _atom_site_label
 _atom_site_symmetry_multiplicity
 _atom_site_fract_x
 _atom_site_fract_y
 _atom_site_fract_z
 _atom_site_occupancy
  Sc  Sc0  1  0.669688  0.171298  0.622806  1
  Sc  Sc1  1  0.168788  0.328501  0.879098  1
  Sc  Sc2  1  0.333031  0.827458  0.120788  1
  Sc  Sc3  1  0.833455  0.667345  0.375800  1
  Sc  Sc4  1  0.330204  0.825549  0.373355  1
  Sc  Sc5  1  0.501745  0.674686  0.599751  1
  Sc  Sc6  1  0.001500  0.824863  0.906200  1
  Sc  Sc7  1  0.499167  0.324748  0.092710  1
  Sc  Sc8  1  0.995696  0.179490  0.404070  1
  Sc  Sc9  1  0.497946  0.325833  0.400898  1
  Sc  Sc10  1  0.992618  0.175537  0.095378  1
  Sc  Sc11  1  0.505536  0.674638  0.902511  1
  Sc  Sc12  1  0.006031  0.825506  0.597957  1
  Si  Si13  1  0.662291  0.973621  0.452607  1
  Si  Si14  1  0.150982  0.527201  0.047429  1
  Si  Si15  1  0.348427  0.026406  0.951372  1
  Si  Si16  1  0.847469  0.472909  0.549300  1
  Si  Si17  1  0.322552  0.040674  0.543761  1
  Si  Si18  1  0.823871  0.462462  0.961547  1
  Si  Si19  1  0.674526  0.963315  0.037090  1
  Si  Si20  1  0.173893  0.531013  0.467053  1
  Si  Si21  1  0.468940  0.388727  0.751778  1
  Si  Si22  1  0.969238  0.110495  0.751054  1
  Si  Si23  1  0.533100  0.608560  0.246806  1
  Si  Si24  1  0.025723  0.888454  0.245307  1
  Si  Si25  1  0.707349  0.860768  0.750294  1
  Si  Si26  1  0.205158  0.641245  0.752614  1
  Si  Si27  1  0.291355  0.144044  0.248496  1
  Si  Si28  1  0.793543  0.358562  0.246860  1
  W  W29  1  0.824619  0.670111  0.123976  1
  W  W30  1  0.673620  0.172361  0.871587  1
  W  W31  1  0.170056  0.329079  0.633573  1
  W  W32  1  0.840801  0.496986  0.752547  1
  W  W33  1  0.341705  0.005769  0.750303  1
  W  W34  1  0.156222  0.502166  0.247867  1
  W  W35  1  0.659156  0.999621  0.245456  1
