# generated using pymatgen
data_Er20Ir5Pd2Ru5
_symmetry_space_group_name_H-M   'P 1'
_cell_length_a   10.76922998
_cell_length_b   10.76922989
_cell_length_c   6.39215046
_cell_angle_alpha   89.93693932
_cell_angle_beta   89.93693843
_cell_angle_gamma   89.63491114
_symmetry_Int_Tables_number   1
_chemical_formula_structural   Er20Ir5Pd2Ru5
_chemical_formula_sum   'Er20 Ir5 Pd2 Ru5'
_cell_volume   741.32210246
_cell_formula_units_Z   1
loop_
 _symmetry_equiv_pos_site_id
 _symmetry_equiv_pos_as_xyz
  1  'x, y, z'
loop_
 _atom_site_type_symbol
 _atom_site_label
 _atom_site_symmetry_multiplicity
 _atom_site_fract_x
 _atom_site_fract_y
 _atom_site_fract_z
 _atom_site_occupancy
  Er  Er0  1  0.295416  0.091510  0.380269  1
  Er  Er1  1  0.296119  0.915346  0.870080  1
  Er  Er2  1  0.706864  0.081124  0.876528  1
  Er  Er3  1  0.708133  0.913752  0.376137  1
  Er  Er4  1  0.586361  0.792505  0.877608  1
  Er  Er5  1  0.585538  0.204363  0.370173  1
  Er  Er6  1  0.419567  0.794230  0.376065  1
  Er  Er7  1  0.408436  0.204782  0.879681  1
  Er  Er8  1  0.207495  0.413639  0.622392  1
  Er  Er9  1  0.205770  0.580433  0.123935  1
  Er  Er10  1  0.795637  0.414462  0.129827  1
  Er  Er11  1  0.795218  0.591564  0.620319  1
  Er  Er12  1  0.908490  0.704584  0.119731  1
  Er  Er13  1  0.918876  0.293136  0.623472  1
  Er  Er14  1  0.084654  0.703881  0.629920  1
  Er  Er15  1  0.086248  0.291867  0.123863  1
  Er  Er16  1  0.998084  0.002812  0.500907  1
  Er  Er17  1  0.997188  0.001916  0.999093  1
  Er  Er18  1  0.497700  0.501991  0.001231  1
  Er  Er19  1  0.498009  0.502300  0.498769  1
  Ir  Ir20  1  0.848908  0.847545  0.749118  1
  Ir  Ir21  1  0.152455  0.151092  0.750882  1
  Ir  Ir22  1  0.651685  0.650761  0.250058  1
  Ir  Ir23  1  0.349239  0.348315  0.249942  1
  Ir  Ir24  1  0.345691  0.654309  0.750000  1
  Pd  Pd25  1  0.154518  0.845482  0.250000  1
  Pd  Pd26  1  0.653512  0.346488  0.750000  1
  Ru  Ru27  1  0.846389  0.153611  0.250000  1
  Ru  Ru28  1  0.499951  0.000827  0.123476  1
  Ru  Ru29  1  0.499753  0.001078  0.623560  1
  Ru  Ru30  1  0.998922  0.500247  0.876440  1
  Ru  Ru31  1  0.999173  0.500049  0.376524  1
