# generated using pymatgen
data_YbHo3Ir8
_symmetry_space_group_name_H-M   'P 1'
_cell_length_a   5.34102700
_cell_length_b   5.34102619
_cell_length_c   8.69064500
_cell_angle_alpha   90.00000000
_cell_angle_beta   90.00000000
_cell_angle_gamma   119.99998641
_symmetry_Int_Tables_number   1
_chemical_formula_structural   YbHo3Ir8
_chemical_formula_sum   'Yb1 Ho3 Ir8'
_cell_volume   214.70006826
_cell_formula_units_Z   1
loop_
 _symmetry_equiv_pos_site_id
 _symmetry_equiv_pos_as_xyz
  1  'x, y, z'
loop_
 _atom_site_type_symbol
 _atom_site_label
 _atom_site_symmetry_multiplicity
 _atom_site_fract_x
 _atom_site_fract_y
 _atom_site_fract_z
 _atom_site_occupancy
  Yb  Yb0  1  0.333333  0.666667  0.436377  1
  Ho  Ho1  1  0.333333  0.666667  0.075517  1
  Ho  Ho2  1  0.666667  0.333333  0.561646  1
  Ho  Ho3  1  0.666667  0.333333  0.930706  1
  Ir  Ir4  1  0.000000  0.000000  0.999350  1
  Ir  Ir5  1  0.000000  0.000000  0.498943  1
  Ir  Ir6  1  0.830100  0.660200  0.248758  1
  Ir  Ir7  1  0.170037  0.829963  0.750396  1
  Ir  Ir8  1  0.659926  0.829963  0.750396  1
  Ir  Ir9  1  0.339800  0.169900  0.248758  1
  Ir  Ir10  1  0.830100  0.169900  0.248758  1
  Ir  Ir11  1  0.170037  0.340074  0.750396  1
