# generated using pymatgen
data_Zr3V(Co4Si3)2
_symmetry_space_group_name_H-M   'P 1'
_cell_length_a   12.19863360
_cell_length_b   12.15036870
_cell_length_c   3.70404500
_cell_angle_alpha   90.00000000
_cell_angle_beta   90.00000000
_cell_angle_gamma   119.86919889
_symmetry_Int_Tables_number   1
_chemical_formula_structural   Zr3V(Co4Si3)2
_chemical_formula_sum   'Zr6 V2 Co16 Si12'
_cell_volume   476.07835768
_cell_formula_units_Z   2
loop_
 _symmetry_equiv_pos_site_id
 _symmetry_equiv_pos_as_xyz
  1  'x, y, z'
loop_
 _atom_site_type_symbol
 _atom_site_label
 _atom_site_symmetry_multiplicity
 _atom_site_fract_x
 _atom_site_fract_y
 _atom_site_fract_z
 _atom_site_occupancy
  Zr  Zr0  1  0.000000  0.559550  0.000000  1
  Zr  Zr1  1  0.662207  0.330371  0.000000  1
  Zr  Zr2  1  0.337793  0.668164  0.000000  1
  Zr  Zr3  1  0.808000  0.811504  0.500000  1
  Zr  Zr4  1  0.192000  0.003505  0.500000  1
  Zr  Zr5  1  0.000000  0.178170  0.500000  1
  V  V6  1  0.433055  0.433482  0.000000  1
  V  V7  1  0.566945  0.000427  0.000000  1
  Co  Co8  1  0.199940  0.374934  0.000000  1
  Co  Co9  1  0.183904  0.809801  0.000000  1
  Co  Co10  1  0.816096  0.625897  0.000000  1
  Co  Co11  1  0.800060  0.174994  0.000000  1
  Co  Co12  1  0.376953  0.199023  0.000000  1
  Co  Co13  1  0.123682  0.477910  0.500000  1
  Co  Co14  1  0.362257  0.883599  0.500000  1
  Co  Co15  1  0.518033  0.644511  0.500000  1
  Co  Co16  1  0.637743  0.521343  0.500000  1
  Co  Co17  1  0.876318  0.354227  0.500000  1
  Co  Co18  1  0.481967  0.126478  0.500000  1
  Co  Co19  1  0.000000  0.999580  0.000000  1
  Co  Co20  1  0.717507  0.999073  0.500000  1
  Co  Co21  1  0.000000  0.722203  0.500000  1
  Co  Co22  1  0.623047  0.822070  0.000000  1
  Co  Co23  1  0.282493  0.281565  0.500000  1
  Si  Si24  1  0.634092  0.638678  0.000000  1
  Si  Si25  1  0.365908  0.004587  0.000000  1
  Si  Si26  1  0.000000  0.345201  0.000000  1
  Si  Si27  1  0.481930  0.314770  0.500000  1
  Si  Si28  1  0.686007  0.168480  0.500000  1
  Si  Si29  1  0.819649  0.516644  0.500000  1
  Si  Si30  1  0.518070  0.832840  0.500000  1
  Si  Si31  1  0.180351  0.696995  0.500000  1
  Si  Si32  1  0.818896  0.997693  0.000000  1
  Si  Si33  1  0.000000  0.820454  0.000000  1
  Si  Si34  1  0.313993  0.482474  0.500000  1
  Si  Si35  1  0.181104  0.178796  0.000000  1
