# generated using pymatgen
data_Nb7Co8Si14Mo
_symmetry_space_group_name_H-M   'P 1'
_cell_length_a   9.22939135
_cell_length_b   9.22939000
_cell_length_c   9.22939085
_cell_angle_alpha   94.28084805
_cell_angle_beta   94.15751468
_cell_angle_gamma   148.52367386
_symmetry_Int_Tables_number   1
_chemical_formula_structural   Nb7Co8Si14Mo
_chemical_formula_sum   'Nb7 Co8 Si14 Mo1'
_cell_volume   395.10886113
_cell_formula_units_Z   1
loop_
 _symmetry_equiv_pos_site_id
 _symmetry_equiv_pos_as_xyz
  1  'x, y, z'
loop_
 _atom_site_type_symbol
 _atom_site_label
 _atom_site_symmetry_multiplicity
 _atom_site_fract_x
 _atom_site_fract_y
 _atom_site_fract_z
 _atom_site_occupancy
  Nb  Nb0  1  0.690097  0.500000  0.190097  1
  Nb  Nb1  1  0.500135  0.691508  0.191642  1
  Nb  Nb2  1  0.500135  0.308492  0.808627  1
  Nb  Nb3  1  0.133880  0.133019  0.266899  1
  Nb  Nb4  1  0.865982  0.865615  0.731597  1
  Nb  Nb5  1  0.133880  0.866981  0.000861  1
  Nb  Nb6  1  0.865982  0.134385  0.000366  1
  Co  Co7  1  0.399166  0.898100  0.798001  1
  Co  Co8  1  0.100897  0.600184  0.200897  1
  Co  Co9  1  0.899903  0.101900  0.501066  1
  Co  Co10  1  0.600712  0.399816  0.500712  1
  Co  Co11  1  0.600712  0.099999  0.200897  1
  Co  Co12  1  0.899903  0.398836  0.798001  1
  Co  Co13  1  0.100897  0.900001  0.500712  1
  Co  Co14  1  0.399166  0.601164  0.501066  1
  Si  Si15  1  0.292598  0.294712  0.587310  1
  Si  Si16  1  0.707259  0.707668  0.414925  1
  Si  Si17  1  0.292598  0.705288  0.997886  1
  Si  Si18  1  0.707259  0.292332  0.999591  1
  Si  Si19  1  0.095398  0.500000  0.595398  1
  Si  Si20  1  0.906066  0.500000  0.406066  1
  Si  Si21  1  0.500047  0.905972  0.406019  1
  Si  Si22  1  0.500047  0.094028  0.594075  1
  Si  Si23  1  0.247642  0.249345  0.998297  1
  Si  Si24  1  0.748952  0.750655  0.998297  1
  Si  Si25  1  0.297676  0.000000  0.297676  1
  Si  Si26  1  0.703724  0.000000  0.703724  1
  Si  Si27  1  0.000305  0.702791  0.703097  1
  Si  Si28  1  0.000305  0.297209  0.297514  1
  Mo  Mo29  1  0.308678  0.500000  0.808678  1
