# generated using pymatgen
data_Y3Th(Ga3Ir)6
_symmetry_space_group_name_H-M   'P 1'
_cell_length_a   7.62790829
_cell_length_b   7.62801872
_cell_length_c   9.51080900
_cell_angle_alpha   90.00000000
_cell_angle_beta   90.00000000
_cell_angle_gamma   119.84701251
_symmetry_Int_Tables_number   1
_chemical_formula_structural   Y3Th(Ga3Ir)6
_chemical_formula_sum   'Y3 Th1 Ga18 Ir6'
_cell_volume   479.99062243
_cell_formula_units_Z   1
loop_
 _symmetry_equiv_pos_site_id
 _symmetry_equiv_pos_as_xyz
  1  'x, y, z'
loop_
 _atom_site_type_symbol
 _atom_site_label
 _atom_site_symmetry_multiplicity
 _atom_site_fract_x
 _atom_site_fract_y
 _atom_site_fract_z
 _atom_site_occupancy
  Y  Y0  1  0.002931  0.331698  0.750000  1
  Y  Y1  1  0.669213  0.996968  0.250000  1
  Y  Y2  1  0.331294  0.002582  0.750000  1
  Th  Th3  1  0.996760  0.668603  0.250000  1
  Ga  Ga4  1  0.128880  0.131121  0.250000  1
  Ga  Ga5  1  0.874004  0.874576  0.750000  1
  Ga  Ga6  1  0.998880  0.329275  0.078058  1
  Ga  Ga7  1  0.000888  0.665723  0.915906  1
  Ga  Ga8  1  0.000888  0.665723  0.584094  1
  Ga  Ga9  1  0.339273  0.003831  0.421961  1
  Ga  Ga10  1  0.998880  0.329275  0.421942  1
  Ga  Ga11  1  0.665895  0.001140  0.580570  1
  Ga  Ga12  1  0.665895  0.001140  0.919430  1
  Ga  Ga13  1  0.339273  0.003831  0.078039  1
  Ga  Ga14  1  0.331969  0.331889  0.564951  1
  Ga  Ga15  1  0.663386  0.668069  0.437935  1
  Ga  Ga16  1  0.663386  0.668069  0.062065  1
  Ga  Ga17  1  0.331969  0.331889  0.935049  1
  Ga  Ga18  1  0.341673  0.545366  0.250000  1
  Ga  Ga19  1  0.660266  0.452635  0.750000  1
  Ga  Ga20  1  0.541842  0.336754  0.250000  1
  Ga  Ga21  1  0.453061  0.660844  0.750000  1
  Ir  Ir22  1  0.672711  0.330421  0.000817  1
  Ir  Ir23  1  0.326762  0.670759  0.001069  1
  Ir  Ir24  1  0.326762  0.670759  0.498931  1
  Ir  Ir25  1  0.672711  0.330421  0.499183  1
  Ir  Ir26  1  0.000274  0.998320  0.001012  1
  Ir  Ir27  1  0.000274  0.998320  0.498988  1
