# generated using pymatgen
data_BaNi9Sb2S3
_symmetry_space_group_name_H-M   'P 1'
_cell_length_a   6.87190950
_cell_length_b   6.86685104
_cell_length_c   11.09379940
_cell_angle_alpha   89.97447009
_cell_angle_beta   89.99734658
_cell_angle_gamma   120.16933835
_symmetry_Int_Tables_number   1
_chemical_formula_structural   BaNi9Sb2S3
_chemical_formula_sum   'Ba2 Ni18 Sb4 S6'
_cell_volume   452.58727279
_cell_formula_units_Z   2
loop_
 _symmetry_equiv_pos_site_id
 _symmetry_equiv_pos_as_xyz
  1  'x, y, z'
loop_
 _atom_site_type_symbol
 _atom_site_label
 _atom_site_symmetry_multiplicity
 _atom_site_fract_x
 _atom_site_fract_y
 _atom_site_fract_z
 _atom_site_occupancy
  Ba  Ba0  1  0.000050  0.000007  0.500412  1
  Ba  Ba1  1  0.000046  0.999998  0.999591  1
  Ni  Ni2  1  0.461373  0.922789  0.879831  1
  Ni  Ni3  1  0.922606  0.461302  0.120283  1
  Ni  Ni4  1  0.538646  0.077326  0.120302  1
  Ni  Ni5  1  0.077322  0.538682  0.620108  1
  Ni  Ni6  1  0.190455  0.380582  0.250000  1
  Ni  Ni7  1  0.809534  0.190620  0.749988  1
  Ni  Ni8  1  0.380813  0.190635  0.749992  1
  Ni  Ni9  1  0.619240  0.809438  0.250010  1
  Ni  Ni10  1  0.190476  0.809369  0.250007  1
  Ni  Ni11  1  0.809410  0.619119  0.750000  1
  Ni  Ni12  1  0.461341  0.922724  0.620185  1
  Ni  Ni13  1  0.538649  0.461331  0.379730  1
  Ni  Ni14  1  0.922644  0.461302  0.379749  1
  Ni  Ni15  1  0.077334  0.538640  0.879899  1
  Ni  Ni16  1  0.461314  0.538624  0.879877  1
  Ni  Ni17  1  0.538703  0.077387  0.379635  1
  Ni  Ni18  1  0.538693  0.461377  0.120268  1
  Ni  Ni19  1  0.461381  0.538651  0.620124  1
  Sb  Sb20  1  0.333391  0.666297  0.437119  1
  Sb  Sb21  1  0.666629  0.333722  0.937188  1
  Sb  Sb22  1  0.666635  0.333712  0.562803  1
  Sb  Sb23  1  0.333405  0.666323  0.062893  1
  S  S24  1  0.171198  0.342293  0.750013  1
  S  S25  1  0.828817  0.171459  0.250002  1
  S  S26  1  0.171227  0.828549  0.750000  1
  S  S27  1  0.828808  0.657857  0.249990  1
  S  S28  1  0.342327  0.171368  0.250010  1
  S  S29  1  0.657531  0.828518  0.749992  1
