# generated using pymatgen
data_Y12Er4CdHg3Ir4
_symmetry_space_group_name_H-M   'P 1'
_cell_length_a   9.60916381
_cell_length_b   9.62545128
_cell_length_c   9.62545200
_cell_angle_alpha   59.99999754
_cell_angle_beta   59.94391174
_cell_angle_gamma   59.94391565
_symmetry_Int_Tables_number   1
_chemical_formula_structural   Y12Er4CdHg3Ir4
_chemical_formula_sum   'Y12 Er4 Cd1 Hg3 Ir4'
_cell_volume   628.99056766
_cell_formula_units_Z   1
loop_
 _symmetry_equiv_pos_site_id
 _symmetry_equiv_pos_as_xyz
  1  'x, y, z'
loop_
 _atom_site_type_symbol
 _atom_site_label
 _atom_site_symmetry_multiplicity
 _atom_site_fract_x
 _atom_site_fract_y
 _atom_site_fract_z
 _atom_site_occupancy
  Y  Y0  1  0.809728  0.190434  0.190434  1
  Y  Y1  1  0.189920  0.810021  0.810021  1
  Y  Y2  1  0.189920  0.810021  0.190039  1
  Y  Y3  1  0.809728  0.190434  0.809404  1
  Y  Y4  1  0.189920  0.190039  0.810021  1
  Y  Y5  1  0.809728  0.809404  0.190434  1
  Y  Y6  1  0.936625  0.562161  0.562161  1
  Y  Y7  1  0.561900  0.938000  0.938000  1
  Y  Y8  1  0.561900  0.938000  0.562101  1
  Y  Y9  1  0.936625  0.562161  0.939053  1
  Y  Y10  1  0.561900  0.562101  0.938000  1
  Y  Y11  1  0.936625  0.939053  0.562161  1
  Er  Er12  1  0.349314  0.349403  0.349403  1
  Er  Er13  1  0.349314  0.349403  0.951881  1
  Er  Er14  1  0.349314  0.951881  0.349403  1
  Er  Er15  1  0.950683  0.349773  0.349773  1
  Cd  Cd16  1  0.260536  0.579821  0.579821  1
  Hg  Hg17  1  0.582403  0.583875  0.583875  1
  Hg  Hg18  1  0.582403  0.583875  0.249847  1
  Hg  Hg19  1  0.582403  0.249847  0.583875  1
  Ir  Ir20  1  0.142682  0.143284  0.143284  1
  Ir  Ir21  1  0.142682  0.143284  0.570751  1
  Ir  Ir22  1  0.142682  0.570751  0.143284  1
  Ir  Ir23  1  0.571065  0.142979  0.142979  1
