# generated using pymatgen
data_DyPu3(PN3)4
_symmetry_space_group_name_H-M   'P 1'
_cell_length_a   6.82463202
_cell_length_b   6.82463256
_cell_length_c   5.39622400
_cell_angle_alpha   78.97483967
_cell_angle_beta   78.97484734
_cell_angle_gamma   86.20285005
_symmetry_Int_Tables_number   1
_chemical_formula_structural   DyPu3(PN3)4
_chemical_formula_sum   'Dy1 Pu3 P4 N12'
_cell_volume   242.02578186
_cell_formula_units_Z   1
loop_
 _symmetry_equiv_pos_site_id
 _symmetry_equiv_pos_as_xyz
  1  'x, y, z'
loop_
 _atom_site_type_symbol
 _atom_site_label
 _atom_site_symmetry_multiplicity
 _atom_site_fract_x
 _atom_site_fract_y
 _atom_site_fract_z
 _atom_site_occupancy
  Dy  Dy0  1  0.099745  0.900255  0.750000  1
  Pu  Pu1  1  0.674694  0.325306  0.750000  1
  Pu  Pu2  1  0.902387  0.097613  0.250000  1
  Pu  Pu3  1  0.315597  0.684403  0.250000  1
  P  P4  1  0.202665  0.375487  0.760040  1
  P  P5  1  0.376528  0.203594  0.259709  1
  P  P6  1  0.796406  0.623472  0.240291  1
  P  P7  1  0.624513  0.797335  0.739960  1
  N  N8  1  0.320329  0.377974  0.009431  1
  N  N9  1  0.012946  0.229022  0.849198  1
  N  N10  1  0.980313  0.773984  0.173994  1
  N  N11  1  0.375969  0.307849  0.517430  1
  N  N12  1  0.607439  0.146102  0.151205  1
  N  N13  1  0.401037  0.855636  0.861316  1
  N  N14  1  0.853898  0.392561  0.348795  1
  N  N15  1  0.692151  0.624031  0.982570  1
  N  N16  1  0.770978  0.987054  0.650802  1
  N  N17  1  0.144364  0.598963  0.638684  1
  N  N18  1  0.226016  0.019687  0.326006  1
  N  N19  1  0.622026  0.679671  0.490569  1
