# generated using pymatgen
data_Li4CaY3Si8
_symmetry_space_group_name_H-M   'P 1'
_cell_length_a   3.79082300
_cell_length_b   7.74748839
_cell_length_c   10.26462713
_cell_angle_alpha   89.59918865
_cell_angle_beta   90.00000000
_cell_angle_gamma   90.00000000
_symmetry_Int_Tables_number   1
_chemical_formula_structural   Li4CaY3Si8
_chemical_formula_sum   'Li4 Ca1 Y3 Si8'
_cell_volume   301.45812421
_cell_formula_units_Z   1
loop_
 _symmetry_equiv_pos_site_id
 _symmetry_equiv_pos_as_xyz
  1  'x, y, z'
loop_
 _atom_site_type_symbol
 _atom_site_label
 _atom_site_symmetry_multiplicity
 _atom_site_fract_x
 _atom_site_fract_y
 _atom_site_fract_z
 _atom_site_occupancy
  Li  Li0  1  0.250000  0.996863  0.392700  1
  Li  Li1  1  0.750000  0.010690  0.609436  1
  Li  Li2  1  0.250000  0.488592  0.110516  1
  Li  Li3  1  0.750000  0.509258  0.892505  1
  Ca  Ca4  1  0.750000  0.362670  0.364409  1
  Y  Y5  1  0.250000  0.130533  0.863400  1
  Y  Y6  1  0.750000  0.866244  0.133110  1
  Y  Y7  1  0.250000  0.633579  0.635318  1
  Si  Si8  1  0.750000  0.262242  0.062493  1
  Si  Si9  1  0.250000  0.732336  0.932970  1
  Si  Si10  1  0.750000  0.774406  0.432764  1
  Si  Si11  1  0.250000  0.235015  0.572083  1
  Si  Si12  1  0.750000  0.837929  0.818090  1
  Si  Si13  1  0.250000  0.154690  0.173686  1
  Si  Si14  1  0.750000  0.340117  0.684384  1
  Si  Si15  1  0.250000  0.664834  0.322134  1
