# generated using pymatgen
data_NdTh2In3IrPd2
_symmetry_space_group_name_H-M   'P 1'
_cell_length_a   7.73029681
_cell_length_b   7.77894127
_cell_length_c   4.03757600
_cell_angle_alpha   90.00000000
_cell_angle_beta   90.00000000
_cell_angle_gamma   119.58419029
_symmetry_Int_Tables_number   1
_chemical_formula_structural   NdTh2In3IrPd2
_chemical_formula_sum   'Nd1 Th2 In3 Ir1 Pd2'
_cell_volume   211.14095443
_cell_formula_units_Z   1
loop_
 _symmetry_equiv_pos_site_id
 _symmetry_equiv_pos_as_xyz
  1  'x, y, z'
loop_
 _atom_site_type_symbol
 _atom_site_label
 _atom_site_symmetry_multiplicity
 _atom_site_fract_x
 _atom_site_fract_y
 _atom_site_fract_z
 _atom_site_occupancy
  Nd  Nd0  1  0.585085  0.993260  0.000000  1
  Th  Th1  1  0.011998  0.590775  0.000000  1
  Th  Th2  1  0.407178  0.421811  0.000000  1
  In  In3  1  0.751216  0.754591  0.500000  1
  In  In4  1  0.986788  0.240818  0.500000  1
  In  In5  1  0.261337  0.004373  0.500000  1
  Ir  Ir6  1  0.317347  0.645873  0.500000  1
  Pd  Pd7  1  0.010108  0.001168  0.000000  1
  Pd  Pd8  1  0.668943  0.347331  0.500000  1
