# generated using pymatgen
data_PrBe2Ir2Pd
_symmetry_space_group_name_H-M   'P 1'
_cell_length_a   6.53973904
_cell_length_b   6.50253106
_cell_length_c   6.53170886
_cell_angle_alpha   129.96703609
_cell_angle_beta   115.15815021
_cell_angle_gamma   86.36162695
_symmetry_Int_Tables_number   1
_chemical_formula_structural   PrBe2Ir2Pd
_chemical_formula_sum   'Pr2 Be4 Ir4 Pd2'
_cell_volume   183.67810227
_cell_formula_units_Z   2
loop_
 _symmetry_equiv_pos_site_id
 _symmetry_equiv_pos_as_xyz
  1  'x, y, z'
loop_
 _atom_site_type_symbol
 _atom_site_label
 _atom_site_symmetry_multiplicity
 _atom_site_fract_x
 _atom_site_fract_y
 _atom_site_fract_z
 _atom_site_occupancy
  Pr  Pr0  1  0.248488  0.996779  0.747627  1
  Pr  Pr1  1  0.748844  0.010574  0.260914  1
  Be  Be2  1  0.080658  0.322259  0.240950  1
  Be  Be3  1  0.917559  0.674700  0.751628  1
  Be  Be4  1  0.424159  0.646455  0.227927  1
  Be  Be5  1  0.581120  0.351690  0.771198  1
  Ir  Ir6  1  0.499354  0.508374  0.506846  1
  Ir  Ir7  1  0.737979  0.997473  0.746800  1
  Ir  Ir8  1  0.245433  0.503305  0.742728  1
  Ir  Ir9  1  0.756480  0.494083  0.253071  1
  Pd  Pd10  1  0.000321  0.495715  0.994987  1
  Pd  Pd11  1  0.259605  0.998594  0.255324  1
