# generated using pymatgen
data_Pr16Nd3PaRh16
_symmetry_space_group_name_H-M   'P 1'
_cell_length_a   7.62677181
_cell_length_b   7.73691797
_cell_length_c   15.05761281
_cell_angle_alpha   90.08949829
_cell_angle_beta   90.11625699
_cell_angle_gamma   89.94784965
_symmetry_Int_Tables_number   1
_chemical_formula_structural   Pr16Nd3PaRh16
_chemical_formula_sum   'Pr16 Nd3 Pa1 Rh16'
_cell_volume   888.51193923
_cell_formula_units_Z   1
loop_
 _symmetry_equiv_pos_site_id
 _symmetry_equiv_pos_as_xyz
  1  'x, y, z'
loop_
 _atom_site_type_symbol
 _atom_site_label
 _atom_site_symmetry_multiplicity
 _atom_site_fract_x
 _atom_site_fract_y
 _atom_site_fract_z
 _atom_site_occupancy
  Pr  Pr0  1  0.164256  0.335031  0.877597  1
  Pr  Pr1  1  0.337755  0.833464  0.122555  1
  Pr  Pr2  1  0.838271  0.667370  0.379743  1
  Pr  Pr3  1  0.336663  0.835799  0.379661  1
  Pr  Pr4  1  0.836289  0.667324  0.122568  1
  Pr  Pr5  1  0.663421  0.163874  0.877574  1
  Pr  Pr6  1  0.160635  0.335507  0.619662  1
  Pr  Pr7  1  0.510363  0.680426  0.594419  1
  Pr  Pr8  1  0.016626  0.814390  0.909313  1
  Pr  Pr9  1  0.486567  0.318033  0.092897  1
  Pr  Pr10  1  0.989061  0.184012  0.404935  1
  Pr  Pr11  1  0.487591  0.322585  0.407087  1
  Pr  Pr12  1  0.987026  0.181235  0.093089  1
  Pr  Pr13  1  0.512987  0.683099  0.907368  1
  Pr  Pr14  1  0.012405  0.819774  0.593575  1
  Pr  Pr15  1  0.826390  0.512797  0.751242  1
  Nd  Nd16  1  0.316908  0.989017  0.751081  1
  Nd  Nd17  1  0.175816  0.490624  0.250042  1
  Nd  Nd18  1  0.675674  0.011841  0.250061  1
  Pa  Pa19  1  0.662085  0.161465  0.622669  1
  Rh  Rh20  1  0.691961  0.979242  0.474917  1
  Rh  Rh21  1  0.177529  0.532217  0.040712  1
  Rh  Rh22  1  0.321406  0.031788  0.958038  1
  Rh  Rh23  1  0.802327  0.440687  0.542377  1
  Rh  Rh24  1  0.347062  0.039673  0.548707  1
  Rh  Rh25  1  0.823007  0.471317  0.956706  1
  Rh  Rh26  1  0.676769  0.969315  0.041795  1
  Rh  Rh27  1  0.168770  0.532611  0.457463  1
  Rh  Rh28  1  0.470584  0.375092  0.738588  1
  Rh  Rh29  1  0.940781  0.115323  0.737280  1
  Rh  Rh30  1  0.541743  0.604968  0.252872  1
  Rh  Rh31  1  0.040746  0.899693  0.251680  1
  Rh  Rh32  1  0.687037  0.865250  0.741130  1
  Rh  Rh33  1  0.210271  0.634521  0.749237  1
  Rh  Rh34  1  0.303083  0.144046  0.250746  1
  Rh  Rh35  1  0.800136  0.356588  0.250613  1
