# generated using pymatgen
data_Ce4Sn(Bi4Pd)2
_symmetry_space_group_name_H-M   'P 1'
_cell_length_a   4.66212500
_cell_length_b   4.65927200
_cell_length_c   19.68769000
_cell_angle_alpha   90.00000000
_cell_angle_beta   90.00000000
_cell_angle_gamma   90.00000000
_symmetry_Int_Tables_number   1
_chemical_formula_structural   Ce4Sn(Bi4Pd)2
_chemical_formula_sum   'Ce4 Sn1 Bi8 Pd2'
_cell_volume   427.65813776
_cell_formula_units_Z   1
loop_
 _symmetry_equiv_pos_site_id
 _symmetry_equiv_pos_as_xyz
  1  'x, y, z'
loop_
 _atom_site_type_symbol
 _atom_site_label
 _atom_site_symmetry_multiplicity
 _atom_site_fract_x
 _atom_site_fract_y
 _atom_site_fract_z
 _atom_site_occupancy
  Ce  Ce0  1  0.500000  0.000000  0.111895  1
  Ce  Ce1  1  0.500000  0.000000  0.620149  1
  Ce  Ce2  1  0.000000  0.500000  0.891485  1
  Ce  Ce3  1  0.000000  0.500000  0.376946  1
  Sn  Sn4  1  0.500000  0.500000  0.498423  1
  Bi  Bi5  1  0.500000  0.000000  0.923335  1
  Bi  Bi6  1  0.500000  0.000000  0.392301  1
  Bi  Bi7  1  0.000000  0.500000  0.081272  1
  Bi  Bi8  1  0.000000  0.500000  0.605674  1
  Bi  Bi9  1  0.500000  0.500000  0.753440  1
  Bi  Bi10  1  0.500000  0.500000  0.245640  1
  Bi  Bi11  1  0.000000  0.000000  0.753863  1
  Bi  Bi12  1  0.000000  0.000000  0.245303  1
  Pd  Pd13  1  0.000000  0.000000  0.002499  1
  Pd  Pd14  1  0.000000  0.000000  0.497775  1
