# generated using pymatgen
data_Li3Hf(NbRh3)2
_symmetry_space_group_name_H-M   'P 1'
_cell_length_a   4.40001900
_cell_length_b   6.13025800
_cell_length_c   13.15985300
_cell_angle_alpha   90.00000000
_cell_angle_beta   89.99957227
_cell_angle_gamma   90.00000000
_symmetry_Int_Tables_number   1
_chemical_formula_structural   Li3Hf(NbRh3)2
_chemical_formula_sum   'Li6 Hf2 Nb4 Rh12'
_cell_volume   354.96402705
_cell_formula_units_Z   2
loop_
 _symmetry_equiv_pos_site_id
 _symmetry_equiv_pos_as_xyz
  1  'x, y, z'
loop_
 _atom_site_type_symbol
 _atom_site_label
 _atom_site_symmetry_multiplicity
 _atom_site_fract_x
 _atom_site_fract_y
 _atom_site_fract_z
 _atom_site_occupancy
  Li  Li0  1  0.000007  0.000000  0.000829  1
  Li  Li1  1  0.499916  0.499999  0.166833  1
  Li  Li2  1  0.999916  0.000000  0.333152  1
  Li  Li3  1  0.500004  0.499999  0.499172  1
  Li  Li4  1  0.000080  0.000000  0.665903  1
  Li  Li5  1  0.500085  0.499999  0.834115  1
  Hf  Hf6  1  0.000072  0.499999  0.666270  1
  Hf  Hf7  1  0.500071  0.000000  0.833736  1
  Nb  Nb8  1  0.000003  0.499999  0.000107  1
  Nb  Nb9  1  0.499926  0.000000  0.166962  1
  Nb  Nb10  1  0.999917  0.499999  0.333044  1
  Nb  Nb11  1  0.500005  0.000000  0.499903  1
  Rh  Rh12  1  0.500001  0.252479  0.003421  1
  Rh  Rh13  1  0.500001  0.747521  0.003421  1
  Rh  Rh14  1  0.999919  0.249423  0.167094  1
  Rh  Rh15  1  0.999919  0.750578  0.167094  1
  Rh  Rh16  1  0.499924  0.250570  0.332892  1
  Rh  Rh17  1  0.499924  0.749430  0.332892  1
  Rh  Rh18  1  0.999998  0.247529  0.496581  1
  Rh  Rh19  1  0.999998  0.752471  0.496581  1
  Rh  Rh20  1  0.500074  0.247541  0.663965  1
  Rh  Rh21  1  0.500074  0.752459  0.663965  1
  Rh  Rh22  1  0.000080  0.252460  0.836032  1
  Rh  Rh23  1  0.000080  0.747541  0.836032  1
