# generated using pymatgen
data_Sr4HgSb4Pt3
_symmetry_space_group_name_H-M   'P 1'
_cell_length_a   4.81783600
_cell_length_b   7.72113320
_cell_length_c   8.36564000
_cell_angle_alpha   90.15484676
_cell_angle_beta   90.00000000
_cell_angle_gamma   90.00000000
_symmetry_Int_Tables_number   1
_chemical_formula_structural   Sr4HgSb4Pt3
_chemical_formula_sum   'Sr4 Hg1 Sb4 Pt3'
_cell_volume   311.19358984
_cell_formula_units_Z   1
loop_
 _symmetry_equiv_pos_site_id
 _symmetry_equiv_pos_as_xyz
  1  'x, y, z'
loop_
 _atom_site_type_symbol
 _atom_site_label
 _atom_site_symmetry_multiplicity
 _atom_site_fract_x
 _atom_site_fract_y
 _atom_site_fract_z
 _atom_site_occupancy
  Sr  Sr0  1  0.750000  0.004694  0.692935  1
  Sr  Sr1  1  0.250000  0.014303  0.309325  1
  Sr  Sr2  1  0.750000  0.487232  0.794245  1
  Sr  Sr3  1  0.250000  0.498368  0.201485  1
  Hg  Hg4  1  0.250000  0.807190  0.907993  1
  Sb  Sb5  1  0.750000  0.315265  0.408397  1
  Sb  Sb6  1  0.250000  0.202022  0.910871  1
  Sb  Sb7  1  0.250000  0.671490  0.571634  1
  Sb  Sb8  1  0.750000  0.815576  0.115071  1
  Pt  Pt9  1  0.250000  0.305609  0.583328  1
  Pt  Pt10  1  0.750000  0.690640  0.421437  1
  Pt  Pt11  1  0.750000  0.187610  0.083279  1
