# generated using pymatgen
data_LiPrEr2(Co4P3)2
_symmetry_space_group_name_H-M   'P 1'
_cell_length_a   3.73638400
_cell_length_b   10.62248200
_cell_length_c   12.23414100
_cell_angle_alpha   90.00000000
_cell_angle_beta   90.00000000
_cell_angle_gamma   90.00000000
_symmetry_Int_Tables_number   1
_chemical_formula_structural   LiPrEr2(Co4P3)2
_chemical_formula_sum   'Li2 Pr2 Er4 Co16 P12'
_cell_volume   485.56904086
_cell_formula_units_Z   2
loop_
 _symmetry_equiv_pos_site_id
 _symmetry_equiv_pos_as_xyz
  1  'x, y, z'
loop_
 _atom_site_type_symbol
 _atom_site_label
 _atom_site_symmetry_multiplicity
 _atom_site_fract_x
 _atom_site_fract_y
 _atom_site_fract_z
 _atom_site_occupancy
  Li  Li0  1  0.250000  0.250000  0.850313  1
  Li  Li1  1  0.750000  0.750000  0.149687  1
  Pr  Pr2  1  0.750000  0.250000  0.476147  1
  Pr  Pr3  1  0.250000  0.750000  0.523853  1
  Er  Er4  1  0.250000  0.930316  0.795457  1
  Er  Er5  1  0.250000  0.569684  0.795457  1
  Er  Er6  1  0.750000  0.069684  0.204543  1
  Er  Er7  1  0.750000  0.430316  0.204543  1
  Co  Co8  1  0.250000  0.250000  0.291510  1
  Co  Co9  1  0.750000  0.750000  0.708490  1
  Co  Co10  1  0.750000  0.250000  0.012706  1
  Co  Co11  1  0.250000  0.750000  0.987294  1
  Co  Co12  1  0.250000  0.417305  0.003018  1
  Co  Co13  1  0.250000  0.082695  0.003018  1
  Co  Co14  1  0.750000  0.582695  0.996982  1
  Co  Co15  1  0.750000  0.917305  0.996982  1
  Co  Co16  1  0.250000  0.454080  0.570988  1
  Co  Co17  1  0.250000  0.045920  0.570988  1
  Co  Co18  1  0.750000  0.545920  0.429012  1
  Co  Co19  1  0.750000  0.954080  0.429012  1
  Co  Co20  1  0.250000  0.871349  0.289506  1
  Co  Co21  1  0.250000  0.628651  0.289506  1
  Co  Co22  1  0.750000  0.128651  0.710494  1
  Co  Co23  1  0.750000  0.371349  0.710494  1
  P  P24  1  0.250000  0.250000  0.113875  1
  P  P25  1  0.750000  0.750000  0.886125  1
  P  P26  1  0.250000  0.250000  0.659532  1
  P  P27  1  0.750000  0.750000  0.340468  1
  P  P28  1  0.250000  0.443919  0.381608  1
  P  P29  1  0.250000  0.056081  0.381608  1
  P  P30  1  0.750000  0.556081  0.618392  1
  P  P31  1  0.750000  0.943919  0.618392  1
  P  P32  1  0.250000  0.907575  0.105787  1
  P  P33  1  0.250000  0.592425  0.105787  1
  P  P34  1  0.750000  0.092425  0.894213  1
  P  P35  1  0.750000  0.407575  0.894213  1
