# generated using pymatgen
data_SmDy11(Si3Au)4
_symmetry_space_group_name_H-M   'P 1'
_cell_length_a   4.20909900
_cell_length_b   10.97777232
_cell_length_c   12.36348500
_cell_angle_alpha   90.01382580
_cell_angle_beta   90.00000000
_cell_angle_gamma   90.00000000
_symmetry_Int_Tables_number   1
_chemical_formula_structural   SmDy11(Si3Au)4
_chemical_formula_sum   'Sm1 Dy11 Si12 Au4'
_cell_volume   571.27373002
_cell_formula_units_Z   1
loop_
 _symmetry_equiv_pos_site_id
 _symmetry_equiv_pos_as_xyz
  1  'x, y, z'
loop_
 _atom_site_type_symbol
 _atom_site_label
 _atom_site_symmetry_multiplicity
 _atom_site_fract_x
 _atom_site_fract_y
 _atom_site_fract_z
 _atom_site_occupancy
  Sm  Sm0  1  0.750000  0.164402  0.696402  1
  Dy  Dy1  1  0.250000  0.875267  0.020335  1
  Dy  Dy2  1  0.250000  0.624642  0.519242  1
  Dy  Dy3  1  0.750000  0.124438  0.981237  1
  Dy  Dy4  1  0.750000  0.375920  0.479489  1
  Dy  Dy5  1  0.250000  0.923546  0.602183  1
  Dy  Dy6  1  0.250000  0.575920  0.102520  1
  Dy  Dy7  1  0.750000  0.075196  0.396678  1
  Dy  Dy8  1  0.750000  0.424846  0.898951  1
  Dy  Dy9  1  0.250000  0.665123  0.803119  1
  Dy  Dy10  1  0.250000  0.834874  0.302935  1
  Dy  Dy11  1  0.750000  0.335287  0.197028  1
  Si  Si12  1  0.250000  0.027006  0.827795  1
  Si  Si13  1  0.250000  0.472123  0.325866  1
  Si  Si14  1  0.750000  0.971775  0.173758  1
  Si  Si15  1  0.750000  0.527790  0.673705  1
  Si  Si16  1  0.250000  0.249178  0.848677  1
  Si  Si17  1  0.250000  0.251708  0.346480  1
  Si  Si18  1  0.750000  0.751518  0.152747  1
  Si  Si19  1  0.750000  0.748239  0.652346  1
  Si  Si20  1  0.250000  0.184044  0.531754  1
  Si  Si21  1  0.250000  0.316427  0.035116  1
  Si  Si22  1  0.750000  0.816044  0.465108  1
  Si  Si23  1  0.750000  0.684304  0.965565  1
  Au  Au24  1  0.250000  0.394064  0.683994  1
  Au  Au25  1  0.250000  0.107844  0.183714  1
  Au  Au26  1  0.750000  0.608187  0.316055  1
  Au  Au27  1  0.750000  0.890290  0.817203  1
