# generated using pymatgen
data_Rb6TmAlSb4
_symmetry_space_group_name_H-M   'P 1'
_cell_length_a   9.98038563
_cell_length_b   9.98038499
_cell_length_c   9.98038484
_cell_angle_alpha   126.61532663
_cell_angle_beta   70.80210985
_cell_angle_gamma   137.08731682
_symmetry_Int_Tables_number   1
_chemical_formula_structural   Rb6TmAlSb4
_chemical_formula_sum   'Rb6 Tm1 Al1 Sb4'
_cell_volume   532.59315002
_cell_formula_units_Z   1
loop_
 _symmetry_equiv_pos_site_id
 _symmetry_equiv_pos_as_xyz
  1  'x, y, z'
loop_
 _atom_site_type_symbol
 _atom_site_label
 _atom_site_symmetry_multiplicity
 _atom_site_fract_x
 _atom_site_fract_y
 _atom_site_fract_z
 _atom_site_occupancy
  Rb  Rb0  1  0.812744  0.186170  0.009636  1
  Rb  Rb1  1  0.687256  0.696891  0.373426  1
  Rb  Rb2  1  0.750000  0.250000  0.500000  1
  Rb  Rb3  1  0.250000  0.750000  0.500000  1
  Rb  Rb4  1  0.323466  0.313830  0.626574  1
  Rb  Rb5  1  0.176534  0.803109  0.990364  1
  Tm  Tm6  1  0.250000  0.250000  0.000000  1
  Al  Al7  1  0.750000  0.750000  0.000000  1
  Sb  Sb8  1  0.422818  0.703238  0.090127  1
  Sb  Sb9  1  0.077182  0.167309  0.280419  1
  Sb  Sb10  1  0.886889  0.796762  0.719581  1
  Sb  Sb11  1  0.613111  0.332691  0.909873  1
