# generated using pymatgen
data_Zr6Al16Cu3(IrRh)2
_symmetry_space_group_name_H-M   'P 1'
_cell_length_a   8.73463177
_cell_length_b   8.72287379
_cell_length_c   8.67156697
_cell_angle_alpha   59.76694030
_cell_angle_beta   60.14908273
_cell_angle_gamma   59.56698663
_symmetry_Int_Tables_number   1
_chemical_formula_structural   Zr6Al16Cu3(IrRh)2
_chemical_formula_sum   'Zr6 Al16 Cu3 Ir2 Rh2'
_cell_volume   465.33042494
_cell_formula_units_Z   1
loop_
 _symmetry_equiv_pos_site_id
 _symmetry_equiv_pos_as_xyz
  1  'x, y, z'
loop_
 _atom_site_type_symbol
 _atom_site_label
 _atom_site_symmetry_multiplicity
 _atom_site_fract_x
 _atom_site_fract_y
 _atom_site_fract_z
 _atom_site_occupancy
  Zr  Zr0  1  0.693826  0.697151  0.302849  1
  Zr  Zr1  1  0.318126  0.683364  0.316636  1
  Zr  Zr2  1  0.691828  0.308172  0.308172  1
  Zr  Zr3  1  0.306174  0.302849  0.697151  1
  Zr  Zr4  1  0.681874  0.316636  0.683364  1
  Zr  Zr5  1  0.308172  0.691828  0.691828  1
  Al  Al6  1  0.887788  0.876178  0.359157  1
  Al  Al7  1  0.876876  0.359157  0.876178  1
  Al  Al8  1  0.356485  0.874530  0.884277  1
  Al  Al9  1  0.884707  0.884277  0.874530  1
  Al  Al10  1  0.112212  0.123822  0.640843  1
  Al  Al11  1  0.123124  0.640843  0.123822  1
  Al  Al12  1  0.643515  0.125470  0.115723  1
  Al  Al13  1  0.115293  0.115723  0.125470  1
  Al  Al14  1  0.668795  0.666645  0.000005  1
  Al  Al15  1  0.664554  0.000005  0.666645  1
  Al  Al16  1  0.004640  0.662255  0.667524  1
  Al  Al17  1  0.665580  0.667524  0.662255  1
  Al  Al18  1  0.331205  0.333355  0.999995  1
  Al  Al19  1  0.335446  0.999995  0.333355  1
  Al  Al20  1  0.995360  0.337745  0.332476  1
  Al  Al21  1  0.334420  0.332476  0.337745  1
  Cu  Cu22  1  0.500000  0.000000  0.500000  1
  Cu  Cu23  1  0.000000  0.500000  0.000000  1
  Cu  Cu24  1  0.500000  0.000000  0.000000  1
  Ir  Ir25  1  0.000000  0.000000  0.500000  1
  Ir  Ir26  1  0.500000  0.500000  0.000000  1
  Rh  Rh27  1  0.000000  0.000000  0.000000  1
  Rh  Rh28  1  0.000000  0.500000  0.500000  1
