# generated using pymatgen
data_YbTh7(Nb3Si4)4
_symmetry_space_group_name_H-M   'P 1'
_cell_length_a   7.02656511
_cell_length_b   7.24019095
_cell_length_c   13.61037757
_cell_angle_alpha   90.02976076
_cell_angle_beta   89.86103217
_cell_angle_gamma   90.03266491
_symmetry_Int_Tables_number   1
_chemical_formula_structural   YbTh7(Nb3Si4)4
_chemical_formula_sum   'Yb1 Th7 Nb12 Si16'
_cell_volume   692.40765724
_cell_formula_units_Z   1
loop_
 _symmetry_equiv_pos_site_id
 _symmetry_equiv_pos_as_xyz
  1  'x, y, z'
loop_
 _atom_site_type_symbol
 _atom_site_label
 _atom_site_symmetry_multiplicity
 _atom_site_fract_x
 _atom_site_fract_y
 _atom_site_fract_z
 _atom_site_occupancy
  Yb  Yb0  1  0.000112  0.829888  0.595242  1
  Th  Th1  1  0.503161  0.669679  0.595201  1
  Th  Th2  1  0.002163  0.830550  0.903559  1
  Th  Th3  1  0.500804  0.329981  0.095646  1
  Th  Th4  1  0.997918  0.169157  0.406422  1
  Th  Th5  1  0.498443  0.330432  0.406331  1
  Th  Th6  1  0.999830  0.170537  0.096080  1
  Th  Th7  1  0.502357  0.670201  0.902617  1
  Nb  Nb8  1  0.661606  0.174369  0.624352  1
  Nb  Nb9  1  0.162803  0.327250  0.874804  1
  Nb  Nb10  1  0.337999  0.828111  0.125017  1
  Nb  Nb11  1  0.834543  0.672168  0.375516  1
  Nb  Nb12  1  0.337116  0.827566  0.375289  1
  Nb  Nb13  1  0.836306  0.671539  0.124970  1
  Nb  Nb14  1  0.665425  0.171390  0.874639  1
  Nb  Nb15  1  0.165537  0.326410  0.624973  1
  Nb  Nb16  1  0.834708  0.490282  0.751101  1
  Nb  Nb17  1  0.335408  0.006268  0.748889  1
  Nb  Nb18  1  0.163671  0.507355  0.250343  1
  Nb  Nb19  1  0.663116  0.993087  0.250753  1
  Si  Si20  1  0.658364  0.957498  0.456990  1
  Si  Si21  1  0.160470  0.543578  0.043750  1
  Si  Si22  1  0.340857  0.043980  0.955310  1
  Si  Si23  1  0.844349  0.462979  0.545280  1
  Si  Si24  1  0.335181  0.038607  0.544978  1
  Si  Si25  1  0.840189  0.456395  0.956014  1
  Si  Si26  1  0.660633  0.956438  0.043669  1
  Si  Si27  1  0.157223  0.545598  0.457526  1
  Si  Si28  1  0.458011  0.366726  0.750082  1
  Si  Si29  1  0.959492  0.129826  0.747386  1
  Si  Si30  1  0.540963  0.631536  0.250619  1
  Si  Si31  1  0.041139  0.868379  0.250765  1
  Si  Si32  1  0.703994  0.885317  0.746562  1
  Si  Si33  1  0.196548  0.617000  0.747081  1
  Si  Si34  1  0.299210  0.115185  0.250950  1
  Si  Si35  1  0.800351  0.384734  0.251296  1
