# generated using pymatgen
data_Pr2PaSn3Pt2Rh
_symmetry_space_group_name_H-M   'P 1'
_cell_length_a   7.60948600
_cell_length_b   7.59930885
_cell_length_c   4.14550400
_cell_angle_alpha   90.00000000
_cell_angle_beta   90.00000000
_cell_angle_gamma   120.04431096
_symmetry_Int_Tables_number   1
_chemical_formula_structural   Pr2PaSn3Pt2Rh
_chemical_formula_sum   'Pr2 Pa1 Sn3 Pt2 Rh1'
_cell_volume   207.51203976
_cell_formula_units_Z   1
loop_
 _symmetry_equiv_pos_site_id
 _symmetry_equiv_pos_as_xyz
  1  'x, y, z'
loop_
 _atom_site_type_symbol
 _atom_site_label
 _atom_site_symmetry_multiplicity
 _atom_site_fract_x
 _atom_site_fract_y
 _atom_site_fract_z
 _atom_site_occupancy
  Pr  Pr0  1  0.410505  0.408469  0.500000  1
  Pr  Pr1  1  0.002036  0.591531  0.500000  1
  Pa  Pa2  1  0.592117  0.000000  0.500000  1
  Sn  Sn3  1  0.241482  0.000000  0.000000  1
  Sn  Sn4  1  0.750958  0.741805  0.000000  1
  Sn  Sn5  1  0.009152  0.258195  0.000000  1
  Pt  Pt6  1  0.359629  0.697590  0.000000  1
  Pt  Pt7  1  0.662040  0.302410  0.000000  1
  Rh  Rh8  1  0.972081  0.000000  0.500000  1
