# generated using pymatgen
data_Zr2Ti7Cr(In7Co3)2
_symmetry_space_group_name_H-M   'P 1'
_cell_length_a   9.24233803
_cell_length_b   9.24233954
_cell_length_c   9.21174907
_cell_angle_alpha   59.89009433
_cell_angle_beta   59.89009096
_cell_angle_gamma   60.00000133
_symmetry_Int_Tables_number   1
_chemical_formula_structural   Zr2Ti7Cr(In7Co3)2
_chemical_formula_sum   'Zr2 Ti7 Cr1 In14 Co6'
_cell_volume   555.47868788
_cell_formula_units_Z   1
loop_
 _symmetry_equiv_pos_site_id
 _symmetry_equiv_pos_as_xyz
  1  'x, y, z'
loop_
 _atom_site_type_symbol
 _atom_site_label
 _atom_site_symmetry_multiplicity
 _atom_site_fract_x
 _atom_site_fract_y
 _atom_site_fract_z
 _atom_site_occupancy
  Zr  Zr0  1  0.499078  0.499078  0.502766  1
  Zr  Zr1  1  0.122742  0.122742  0.631773  1
  Ti  Ti2  1  0.115195  0.653221  0.116391  1
  Ti  Ti3  1  0.346267  0.883317  0.887098  1
  Ti  Ti4  1  0.883317  0.883317  0.887098  1
  Ti  Ti5  1  0.653221  0.115195  0.116391  1
  Ti  Ti6  1  0.884754  0.884754  0.345736  1
  Ti  Ti7  1  0.115195  0.115195  0.116391  1
  Ti  Ti8  1  0.883317  0.346267  0.887098  1
  Cr  Cr9  1  0.998573  0.998573  0.004281  1
  In  In10  1  0.499990  0.843430  0.156591  1
  In  In11  1  0.502845  0.842599  0.500949  1
  In  In12  1  0.502845  0.153606  0.500949  1
  In  In13  1  0.499322  0.499322  0.847393  1
  In  In14  1  0.153606  0.502845  0.500949  1
  In  In15  1  0.842599  0.153606  0.500949  1
  In  In16  1  0.153606  0.842599  0.500949  1
  In  In17  1  0.499322  0.153963  0.847393  1
  In  In18  1  0.153963  0.499322  0.847393  1
  In  In19  1  0.499990  0.499990  0.156591  1
  In  In20  1  0.842599  0.502845  0.500949  1
  In  In21  1  0.843430  0.499990  0.156591  1
  In  In22  1  0.257192  0.257192  0.228424  1
  In  In23  1  0.749449  0.749449  0.751654  1
  Co  Co24  1  0.784223  0.784223  0.214454  1
  Co  Co25  1  0.217101  0.784223  0.214454  1
  Co  Co26  1  0.216304  0.779428  0.787963  1
  Co  Co27  1  0.216304  0.216304  0.787963  1
  Co  Co28  1  0.779428  0.216304  0.787963  1
  Co  Co29  1  0.784223  0.217101  0.214454  1
