# generated using pymatgen
data_Zr3Ga3NiPtRh
_symmetry_space_group_name_H-M   'P 1'
_cell_length_a   7.21589100
_cell_length_b   7.21589046
_cell_length_c   3.41392900
_cell_angle_alpha   90.00000000
_cell_angle_beta   90.00000000
_cell_angle_gamma   120.00000708
_symmetry_Int_Tables_number   1
_chemical_formula_structural   Zr3Ga3NiPtRh
_chemical_formula_sum   'Zr3 Ga3 Ni1 Pt1 Rh1'
_cell_volume   153.94478500
_cell_formula_units_Z   1
loop_
 _symmetry_equiv_pos_site_id
 _symmetry_equiv_pos_as_xyz
  1  'x, y, z'
loop_
 _atom_site_type_symbol
 _atom_site_label
 _atom_site_symmetry_multiplicity
 _atom_site_fract_x
 _atom_site_fract_y
 _atom_site_fract_z
 _atom_site_occupancy
  Zr  Zr0  1  0.394659  0.005642  0.500000  1
  Zr  Zr1  1  0.994358  0.389017  0.500000  1
  Zr  Zr2  1  0.610983  0.605341  0.500000  1
  Ga  Ga3  1  0.742889  0.001813  0.000000  1
  Ga  Ga4  1  0.998187  0.741076  0.000000  1
  Ga  Ga5  1  0.258924  0.257111  0.000000  1
  Ni  Ni6  1  0.000000  0.000000  0.500000  1
  Pt  Pt7  1  0.333333  0.666667  0.000000  1
  Rh  Rh8  1  0.666667  0.333333  0.000000  1
