# generated using pymatgen
data_TbHo15Cd2(HgPt2)2
_symmetry_space_group_name_H-M   'P 1'
_cell_length_a   9.64603875
_cell_length_b   9.64603926
_cell_length_c   9.64394500
_cell_angle_alpha   60.00718514
_cell_angle_beta   60.00718340
_cell_angle_gamma   60.02170921
_symmetry_Int_Tables_number   1
_chemical_formula_structural   TbHo15Cd2(HgPt2)2
_chemical_formula_sum   'Tb1 Ho15 Cd2 Hg2 Pt4'
_cell_volume   634.68191655
_cell_formula_units_Z   1
loop_
 _symmetry_equiv_pos_site_id
 _symmetry_equiv_pos_as_xyz
  1  'x, y, z'
loop_
 _atom_site_type_symbol
 _atom_site_label
 _atom_site_symmetry_multiplicity
 _atom_site_fract_x
 _atom_site_fract_y
 _atom_site_fract_z
 _atom_site_occupancy
  Tb  Tb0  1  0.935730  0.935730  0.564270  1
  Ho  Ho1  1  0.352872  0.352872  0.350546  1
  Ho  Ho2  1  0.352872  0.352872  0.943711  1
  Ho  Ho3  1  0.356279  0.937008  0.353356  1
  Ho  Ho4  1  0.937008  0.356279  0.353356  1
  Ho  Ho5  1  0.810637  0.189250  0.190276  1
  Ho  Ho6  1  0.189250  0.810637  0.809837  1
  Ho  Ho7  1  0.189250  0.810637  0.190276  1
  Ho  Ho8  1  0.810637  0.189250  0.809837  1
  Ho  Ho9  1  0.189856  0.189856  0.810144  1
  Ho  Ho10  1  0.809878  0.809878  0.190122  1
  Ho  Ho11  1  0.935122  0.563350  0.564999  1
  Ho  Ho12  1  0.563350  0.935122  0.936530  1
  Ho  Ho13  1  0.563350  0.935122  0.564999  1
  Ho  Ho14  1  0.935122  0.563350  0.936530  1
  Ho  Ho15  1  0.564542  0.564542  0.935458  1
  Cd  Cd16  1  0.580156  0.255353  0.582245  1
  Cd  Cd17  1  0.255353  0.580156  0.582245  1
  Hg  Hg18  1  0.585000  0.585000  0.587970  1
  Hg  Hg19  1  0.585000  0.585000  0.242028  1
  Pt  Pt20  1  0.143346  0.143346  0.145379  1
  Pt  Pt21  1  0.143346  0.143346  0.567929  1
  Pt  Pt22  1  0.141760  0.570284  0.143979  1
  Pt  Pt23  1  0.570284  0.141760  0.143979  1
