# generated using pymatgen
data_Ba4InPb7Au8
_symmetry_space_group_name_H-M   'P 1'
_cell_length_a   4.94102200
_cell_length_b   9.07646270
_cell_length_c   13.12894896
_cell_angle_alpha   90.09621791
_cell_angle_beta   90.00000000
_cell_angle_gamma   90.00000000
_symmetry_Int_Tables_number   1
_chemical_formula_structural   Ba4InPb7Au8
_chemical_formula_sum   'Ba4 In1 Pb7 Au8'
_cell_volume   588.79316831
_cell_formula_units_Z   1
loop_
 _symmetry_equiv_pos_site_id
 _symmetry_equiv_pos_as_xyz
  1  'x, y, z'
loop_
 _atom_site_type_symbol
 _atom_site_label
 _atom_site_symmetry_multiplicity
 _atom_site_fract_x
 _atom_site_fract_y
 _atom_site_fract_z
 _atom_site_occupancy
  Ba  Ba0  1  0.750000  0.722842  0.333784  1
  Ba  Ba1  1  0.250000  0.778981  0.834507  1
  Ba  Ba2  1  0.250000  0.278522  0.666402  1
  Ba  Ba3  1  0.750000  0.223096  0.165704  1
  In  In4  1  0.250000  0.398717  0.947516  1
  Pb  Pb5  1  0.250000  0.364844  0.355669  1
  Pb  Pb6  1  0.250000  0.861202  0.140149  1
  Pb  Pb7  1  0.750000  0.599287  0.049619  1
  Pb  Pb8  1  0.750000  0.632999  0.644521  1
  Pb  Pb9  1  0.750000  0.139483  0.859658  1
  Pb  Pb10  1  0.250000  0.897784  0.553373  1
  Pb  Pb11  1  0.750000  0.103087  0.447924  1
  Au  Au12  1  0.250000  0.094976  0.982471  1
  Au  Au13  1  0.750000  0.470987  0.837288  1
  Au  Au14  1  0.750000  0.973903  0.669731  1
  Au  Au15  1  0.250000  0.521940  0.162410  1
  Au  Au16  1  0.250000  0.024723  0.331961  1
  Au  Au17  1  0.750000  0.911685  0.017713  1
  Au  Au18  1  0.250000  0.587661  0.517938  1
  Au  Au19  1  0.750000  0.413281  0.481662  1
