# generated using pymatgen
data_Er2Tm3ReRuO12
_symmetry_space_group_name_H-M   'P 1'
_cell_length_a   6.77177750
_cell_length_b   6.77177795
_cell_length_c   7.42311686
_cell_angle_alpha   73.86314309
_cell_angle_beta   73.86314440
_cell_angle_gamma   49.17510641
_symmetry_Int_Tables_number   1
_chemical_formula_structural   Er2Tm3ReRuO12
_chemical_formula_sum   'Er2 Tm3 Re1 Ru1 O12'
_cell_volume   245.25895752
_cell_formula_units_Z   1
loop_
 _symmetry_equiv_pos_site_id
 _symmetry_equiv_pos_as_xyz
  1  'x, y, z'
loop_
 _atom_site_type_symbol
 _atom_site_label
 _atom_site_symmetry_multiplicity
 _atom_site_fract_x
 _atom_site_fract_y
 _atom_site_fract_z
 _atom_site_occupancy
  Er  Er0  1  0.817759  0.786587  0.357956  1
  Er  Er1  1  0.213413  0.182241  0.642044  1
  Tm  Tm2  1  0.191036  0.180115  0.175224  1
  Tm  Tm3  1  0.819885  0.808964  0.824776  1
  Tm  Tm4  1  0.510997  0.489003  0.500000  1
  Re  Re5  1  0.701723  0.298277  0.000000  1
  Ru  Ru6  1  0.267434  0.732566  0.000000  1
  O  O7  1  0.413916  0.937001  0.914196  1
  O  O8  1  0.062999  0.586084  0.085804  1
  O  O9  1  0.587830  0.092352  0.087085  1
  O  O10  1  0.907648  0.412170  0.912915  1
  O  O11  1  0.610253  0.090095  0.568172  1
  O  O12  1  0.909905  0.389747  0.431828  1
  O  O13  1  0.411672  0.897912  0.423194  1
  O  O14  1  0.985361  0.014367  0.821614  1
  O  O15  1  0.985633  0.014639  0.178386  1
  O  O16  1  0.497169  0.496720  0.795403  1
  O  O17  1  0.503280  0.502831  0.204597  1
  O  O18  1  0.102088  0.588328  0.576806  1
