# generated using pymatgen
data_Ho10In5Hg3Pd4
_symmetry_space_group_name_H-M   'P 1'
_cell_length_a   3.60440600
_cell_length_b   8.06152638
_cell_length_c   18.26614683
_cell_angle_alpha   89.96516642
_cell_angle_beta   90.00000000
_cell_angle_gamma   90.00000000
_symmetry_Int_Tables_number   1
_chemical_formula_structural   Ho10In5Hg3Pd4
_chemical_formula_sum   'Ho10 In5 Hg3 Pd4'
_cell_volume   530.75958696
_cell_formula_units_Z   1
loop_
 _symmetry_equiv_pos_site_id
 _symmetry_equiv_pos_as_xyz
  1  'x, y, z'
loop_
 _atom_site_type_symbol
 _atom_site_label
 _atom_site_symmetry_multiplicity
 _atom_site_fract_x
 _atom_site_fract_y
 _atom_site_fract_z
 _atom_site_occupancy
  Ho  Ho0  1  0.000000  0.503265  0.497809  1
  Ho  Ho1  1  0.000000  0.000035  0.000444  1
  Ho  Ho2  1  0.000000  0.743847  0.284620  1
  Ho  Ho3  1  0.000000  0.256592  0.719253  1
  Ho  Ho4  1  0.000000  0.756328  0.783597  1
  Ho  Ho5  1  0.000000  0.243641  0.215298  1
  Ho  Ho6  1  0.000000  0.610210  0.083892  1
  Ho  Ho7  1  0.000000  0.391661  0.917271  1
  Ho  Ho8  1  0.000000  0.883068  0.583447  1
  Ho  Ho9  1  0.000000  0.109957  0.415770  1
  In  In10  1  0.500000  0.210289  0.567372  1
  In  In11  1  0.500000  0.577349  0.649174  1
  In  In12  1  0.500000  0.417349  0.350239  1
  In  In13  1  0.500000  0.919535  0.149070  1
  In  In14  1  0.500000  0.081352  0.851750  1
  Hg  Hg15  1  0.500000  0.713169  0.933594  1
  Hg  Hg16  1  0.500000  0.288891  0.065791  1
  Hg  Hg17  1  0.500000  0.789333  0.433271  1
  Pd  Pd18  1  0.500000  0.530844  0.198057  1
  Pd  Pd19  1  0.500000  0.471097  0.802563  1
  Pd  Pd20  1  0.500000  0.972029  0.696353  1
  Pd  Pd21  1  0.500000  0.030158  0.301365  1
