# generated using pymatgen
data_Cs2AgPO4
_symmetry_space_group_name_H-M   'P 1'
_cell_length_a   6.01626200
_cell_length_b   7.16803646
_cell_length_c   8.45355200
_cell_angle_alpha   90.00000000
_cell_angle_beta   90.00000000
_cell_angle_gamma   65.18694832
_symmetry_Int_Tables_number   1
_chemical_formula_structural   Cs2AgPO4
_chemical_formula_sum   'Cs4 Ag2 P2 O8'
_cell_volume   330.90235157
_cell_formula_units_Z   2
loop_
 _symmetry_equiv_pos_site_id
 _symmetry_equiv_pos_as_xyz
  1  'x, y, z'
loop_
 _atom_site_type_symbol
 _atom_site_label
 _atom_site_symmetry_multiplicity
 _atom_site_fract_x
 _atom_site_fract_y
 _atom_site_fract_z
 _atom_site_occupancy
  Cs  Cs0  1  0.602761  0.794475  0.989242  1
  Cs  Cs1  1  0.071386  0.857229  0.334256  1
  Cs  Cs2  1  0.397238  0.205525  0.489242  1
  Cs  Cs3  1  0.928613  0.142771  0.834256  1
  Ag  Ag4  1  0.791643  0.416712  0.257196  1
  Ag  Ag5  1  0.208356  0.583288  0.757196  1
  P  P6  1  0.332853  0.334293  0.059168  1
  P  P7  1  0.667146  0.665707  0.559168  1
  O  O8  1  0.213206  0.573588  0.065077  1
  O  O9  1  0.170200  0.238921  0.141516  1
  O  O10  1  0.590880  0.238921  0.141516  1
  O  O11  1  0.631473  0.737054  0.380532  1
  O  O12  1  0.786793  0.426412  0.565077  1
  O  O13  1  0.409121  0.761079  0.641516  1
  O  O14  1  0.829800  0.761079  0.641516  1
  O  O15  1  0.368526  0.262946  0.880532  1
