# generated using pymatgen
data_Zr4MnCo5Os2
_symmetry_space_group_name_H-M   'P 1'
_cell_length_a   4.96427195
_cell_length_b   5.00259311
_cell_length_c   8.29364600
_cell_angle_alpha   90.00000000
_cell_angle_beta   90.00000000
_cell_angle_gamma   120.25568196
_symmetry_Int_Tables_number   1
_chemical_formula_structural   Zr4MnCo5Os2
_chemical_formula_sum   'Zr4 Mn1 Co5 Os2'
_cell_volume   177.91074170
_cell_formula_units_Z   1
loop_
 _symmetry_equiv_pos_site_id
 _symmetry_equiv_pos_as_xyz
  1  'x, y, z'
loop_
 _atom_site_type_symbol
 _atom_site_label
 _atom_site_symmetry_multiplicity
 _atom_site_fract_x
 _atom_site_fract_y
 _atom_site_fract_z
 _atom_site_occupancy
  Zr  Zr0  1  0.332363  0.666182  0.432630  1
  Zr  Zr1  1  0.665299  0.332649  0.565360  1
  Zr  Zr2  1  0.665299  0.332649  0.934640  1
  Zr  Zr3  1  0.332363  0.666182  0.067370  1
  Mn  Mn4  1  0.661929  0.830964  0.750000  1
  Co  Co5  1  0.827112  0.168580  0.250000  1
  Co  Co6  1  0.827112  0.658531  0.250000  1
  Co  Co7  1  0.340524  0.170262  0.250000  1
  Co  Co8  1  0.177790  0.832643  0.750000  1
  Co  Co9  1  0.177790  0.345147  0.750000  1
  Os  Os10  1  0.996209  0.998104  0.498423  1
  Os  Os11  1  0.996209  0.998104  0.001577  1
