# generated using pymatgen
data_Hf3ScSb8
_symmetry_space_group_name_H-M   'P 1'
_cell_length_a   3.88269600
_cell_length_b   10.10126750
_cell_length_c   15.09722676
_cell_angle_alpha   90.03620447
_cell_angle_beta   90.00000000
_cell_angle_gamma   90.00000000
_symmetry_Int_Tables_number   1
_chemical_formula_structural   Hf3ScSb8
_chemical_formula_sum   'Hf6 Sc2 Sb16'
_cell_volume   592.11539374
_cell_formula_units_Z   2
loop_
 _symmetry_equiv_pos_site_id
 _symmetry_equiv_pos_as_xyz
  1  'x, y, z'
loop_
 _atom_site_type_symbol
 _atom_site_label
 _atom_site_symmetry_multiplicity
 _atom_site_fract_x
 _atom_site_fract_y
 _atom_site_fract_z
 _atom_site_occupancy
  Hf  Hf0  1  0.000000  0.021849  0.248546  1
  Hf  Hf1  1  0.000000  0.978151  0.751454  1
  Hf  Hf2  1  0.000000  0.834591  0.494711  1
  Hf  Hf3  1  0.000000  0.165409  0.505289  1
  Hf  Hf4  1  0.500000  0.333553  0.006197  1
  Hf  Hf5  1  0.500000  0.666447  0.993803  1
  Sc  Sc6  1  0.500000  0.522049  0.250295  1
  Sc  Sc7  1  0.500000  0.477951  0.749705  1
  Sb  Sb8  1  0.000000  0.513732  0.104091  1
  Sb  Sb9  1  0.000000  0.486268  0.895909  1
  Sb  Sb10  1  0.500000  0.012776  0.395467  1
  Sb  Sb11  1  0.500000  0.987224  0.604533  1
  Sb  Sb12  1  0.000000  0.734958  0.301956  1
  Sb  Sb13  1  0.000000  0.265042  0.698044  1
  Sb  Sb14  1  0.500000  0.234190  0.199532  1
  Sb  Sb15  1  0.500000  0.765810  0.800468  1
  Sb  Sb16  1  0.000000  0.881297  0.943593  1
  Sb  Sb17  1  0.000000  0.118703  0.056407  1
  Sb  Sb18  1  0.500000  0.378658  0.556201  1
  Sb  Sb19  1  0.500000  0.621342  0.443799  1
  Sb  Sb20  1  0.000000  0.664112  0.654399  1
  Sb  Sb21  1  0.000000  0.335888  0.345601  1
  Sb  Sb22  1  0.500000  0.158706  0.844465  1
  Sb  Sb23  1  0.500000  0.841294  0.155535  1
