# generated using pymatgen
data_SrNdMg(Si3Pd10)2
_symmetry_space_group_name_H-M   'P 1'
_cell_length_a   8.73838086
_cell_length_b   8.73853443
_cell_length_c   8.73912703
_cell_angle_alpha   59.98549325
_cell_angle_beta   59.98847695
_cell_angle_gamma   59.98983254
_symmetry_Int_Tables_number   1
_chemical_formula_structural   SrNdMg(Si3Pd10)2
_chemical_formula_sum   'Sr1 Nd1 Mg1 Si6 Pd20'
_cell_volume   471.74118462
_cell_formula_units_Z   1
loop_
 _symmetry_equiv_pos_site_id
 _symmetry_equiv_pos_as_xyz
  1  'x, y, z'
loop_
 _atom_site_type_symbol
 _atom_site_label
 _atom_site_symmetry_multiplicity
 _atom_site_fract_x
 _atom_site_fract_y
 _atom_site_fract_z
 _atom_site_occupancy
  Sr  Sr0  1  0.250006  0.249985  0.249989  1
  Nd  Nd1  1  0.750011  0.750015  0.750006  1
  Mg  Mg2  1  0.999999  0.000003  0.000001  1
  Si  Si3  1  0.733252  0.266733  0.266780  1
  Si  Si4  1  0.266751  0.733268  0.733216  1
  Si  Si5  1  0.266750  0.733255  0.266777  1
  Si  Si6  1  0.733251  0.266747  0.733224  1
  Si  Si7  1  0.266764  0.266744  0.733236  1
  Si  Si8  1  0.733230  0.733252  0.266766  1
  Pd  Pd9  1  0.344536  0.998208  0.998171  1
  Pd  Pd10  1  0.659178  0.998079  0.998121  1
  Pd  Pd11  1  0.998151  0.344609  0.659128  1
  Pd  Pd12  1  0.998121  0.659119  0.344599  1
  Pd  Pd13  1  0.998194  0.344545  0.998170  1
  Pd  Pd14  1  0.659142  0.998129  0.344574  1
  Pd  Pd15  1  0.998092  0.659175  0.998117  1
  Pd  Pd16  1  0.344575  0.998150  0.659143  1
  Pd  Pd17  1  0.998207  0.998169  0.344557  1
  Pd  Pd18  1  0.998085  0.998117  0.659159  1
  Pd  Pd19  1  0.659146  0.344602  0.998108  1
  Pd  Pd20  1  0.344589  0.659135  0.998157  1
  Pd  Pd21  1  0.387042  0.387024  0.387058  1
  Pd  Pd22  1  0.615353  0.615377  0.615345  1
  Pd  Pd23  1  0.387082  0.387034  0.838777  1
  Pd  Pd24  1  0.387083  0.838694  0.387091  1
  Pd  Pd25  1  0.615332  0.615365  0.153995  1
  Pd  Pd26  1  0.615316  0.154066  0.615320  1
  Pd  Pd27  1  0.838735  0.387049  0.387104  1
  Pd  Pd28  1  0.154028  0.615352  0.615314  1
