# generated using pymatgen
data_Zr2Np2CN3
_symmetry_space_group_name_H-M   'P 1'
_cell_length_a   11.29576149
_cell_length_b   11.29576155
_cell_length_c   11.29576190
_cell_angle_alpha   17.07017895
_cell_angle_beta   17.07017712
_cell_angle_gamma   17.07018088
_symmetry_Int_Tables_number   1
_chemical_formula_structural   Zr2Np2CN3
_chemical_formula_sum   'Zr2 Np2 C1 N3'
_cell_volume   108.34783988
_cell_formula_units_Z   1
loop_
 _symmetry_equiv_pos_site_id
 _symmetry_equiv_pos_as_xyz
  1  'x, y, z'
loop_
 _atom_site_type_symbol
 _atom_site_label
 _atom_site_symmetry_multiplicity
 _atom_site_fract_x
 _atom_site_fract_y
 _atom_site_fract_z
 _atom_site_occupancy
  Zr  Zr0  1  0.372695  0.372695  0.372695  1
  Zr  Zr1  1  0.627305  0.627305  0.627305  1
  Np  Np2  1  0.876469  0.876469  0.876469  1
  Np  Np3  1  0.123531  0.123531  0.123531  1
  C  C4  1  0.000000  0.000000  0.000000  1
  N  N5  1  0.252954  0.252954  0.252954  1
  N  N6  1  0.500000  0.500000  0.500000  1
  N  N7  1  0.747046  0.747046  0.747046  1
