# generated using pymatgen
data_Tb16MgIn3RuPt3
_symmetry_space_group_name_H-M   'P 1'
_cell_length_a   9.77912764
_cell_length_b   9.71655962
_cell_length_c   9.71656000
_cell_angle_alpha   59.99999871
_cell_angle_beta   60.21142206
_cell_angle_gamma   60.21142512
_symmetry_Int_Tables_number   1
_chemical_formula_structural   Tb16MgIn3RuPt3
_chemical_formula_sum   'Tb16 Mg1 In3 Ru1 Pt3'
_cell_volume   654.92363385
_cell_formula_units_Z   1
loop_
 _symmetry_equiv_pos_site_id
 _symmetry_equiv_pos_as_xyz
  1  'x, y, z'
loop_
 _atom_site_type_symbol
 _atom_site_label
 _atom_site_symmetry_multiplicity
 _atom_site_fract_x
 _atom_site_fract_y
 _atom_site_fract_z
 _atom_site_occupancy
  Tb  Tb0  1  0.603243  0.596220  0.596220  1
  Tb  Tb1  1  0.603243  0.596220  0.204318  1
  Tb  Tb2  1  0.603243  0.204318  0.596220  1
  Tb  Tb3  1  0.196132  0.601290  0.601290  1
  Tb  Tb4  1  0.054096  0.440928  0.440928  1
  Tb  Tb5  1  0.438528  0.060989  0.060989  1
  Tb  Tb6  1  0.438528  0.060989  0.439494  1
  Tb  Tb7  1  0.054096  0.440928  0.064048  1
  Tb  Tb8  1  0.438528  0.439494  0.060989  1
  Tb  Tb9  1  0.054096  0.064048  0.440928  1
  Tb  Tb10  1  0.185814  0.814581  0.814581  1
  Tb  Tb11  1  0.816100  0.186987  0.186987  1
  Tb  Tb12  1  0.816100  0.186987  0.809928  1
  Tb  Tb13  1  0.185814  0.814581  0.185024  1
  Tb  Tb14  1  0.816100  0.809928  0.186987  1
  Tb  Tb15  1  0.185814  0.185024  0.814581  1
  Mg  Mg16  1  0.517807  0.827397  0.827397  1
  In  In17  1  0.832659  0.832908  0.832908  1
  In  In18  1  0.832659  0.832908  0.501523  1
  In  In19  1  0.832659  0.501523  0.832908  1
  Ru  Ru20  1  0.826989  0.391004  0.391004  1
  Pt  Pt21  1  0.389250  0.393422  0.393422  1
  Pt  Pt22  1  0.389250  0.393422  0.823904  1
  Pt  Pt23  1  0.389250  0.823904  0.393422  1
