# generated using pymatgen
data_DyHo4SiPb3
_symmetry_space_group_name_H-M   'P 1'
_cell_length_a   9.30559113
_cell_length_b   9.30559157
_cell_length_c   6.50719200
_cell_angle_alpha   90.00000000
_cell_angle_beta   90.00000000
_cell_angle_gamma   119.98077846
_symmetry_Int_Tables_number   1
_chemical_formula_structural   DyHo4SiPb3
_chemical_formula_sum   'Dy2 Ho8 Si2 Pb6'
_cell_volume   488.08593396
_cell_formula_units_Z   2
loop_
 _symmetry_equiv_pos_site_id
 _symmetry_equiv_pos_as_xyz
  1  'x, y, z'
loop_
 _atom_site_type_symbol
 _atom_site_label
 _atom_site_symmetry_multiplicity
 _atom_site_fract_x
 _atom_site_fract_y
 _atom_site_fract_z
 _atom_site_occupancy
  Dy  Dy0  1  0.248847  0.248847  0.750000  1
  Dy  Dy1  1  0.751153  0.751153  0.250000  1
  Ho  Ho2  1  0.248462  0.999948  0.250000  1
  Ho  Ho3  1  0.000052  0.751538  0.750000  1
  Ho  Ho4  1  0.999948  0.248462  0.250000  1
  Ho  Ho5  1  0.333302  0.666698  0.500000  1
  Ho  Ho6  1  0.751538  0.000052  0.750000  1
  Ho  Ho7  1  0.666698  0.333302  0.500000  1
  Ho  Ho8  1  0.333302  0.666698  0.000000  1
  Ho  Ho9  1  0.666698  0.333302  0.000000  1
  Si  Si10  1  0.000000  0.000000  0.000000  1
  Si  Si11  1  0.000000  0.000000  0.500000  1
  Pb  Pb12  1  0.607090  0.000130  0.250000  1
  Pb  Pb13  1  0.392910  0.999870  0.750000  1
  Pb  Pb14  1  0.000130  0.607090  0.250000  1
  Pb  Pb15  1  0.607255  0.607255  0.750000  1
  Pb  Pb16  1  0.392745  0.392745  0.250000  1
  Pb  Pb17  1  0.999870  0.392910  0.750000  1
