# generated using pymatgen
data_Ho8Er12CoBi8Ir3
_symmetry_space_group_name_H-M   'P 1'
_cell_length_a   7.94581933
_cell_length_b   8.96132000
_cell_length_c   12.43060502
_cell_angle_alpha   90.00000000
_cell_angle_beta   90.19267610
_cell_angle_gamma   90.00000000
_symmetry_Int_Tables_number   1
_chemical_formula_structural   Ho8Er12CoBi8Ir3
_chemical_formula_sum   'Ho8 Er12 Co1 Bi8 Ir3'
_cell_volume   885.11659485
_cell_formula_units_Z   1
loop_
 _symmetry_equiv_pos_site_id
 _symmetry_equiv_pos_as_xyz
  1  'x, y, z'
loop_
 _atom_site_type_symbol
 _atom_site_label
 _atom_site_symmetry_multiplicity
 _atom_site_fract_x
 _atom_site_fract_y
 _atom_site_fract_z
 _atom_site_occupancy
  Ho  Ho0  1  0.657777  0.750000  0.699960  1
  Ho  Ho1  1  0.338434  0.250000  0.292879  1
  Ho  Ho2  1  0.161321  0.250000  0.793057  1
  Ho  Ho3  1  0.838919  0.750000  0.206872  1
  Ho  Ho4  1  0.123373  0.750000  0.808163  1
  Ho  Ho5  1  0.875066  0.250000  0.191424  1
  Ho  Ho6  1  0.624525  0.250000  0.691418  1
  Ho  Ho7  1  0.380503  0.750000  0.314447  1
  Er  Er8  1  0.556423  0.750000  0.997461  1
  Er  Er9  1  0.446587  0.250000  0.001220  1
  Er  Er10  1  0.055266  0.250000  0.501475  1
  Er  Er11  1  0.946746  0.750000  0.498484  1
  Er  Er12  1  0.825515  0.457097  0.932985  1
  Er  Er13  1  0.175577  0.542199  0.066883  1
  Er  Er14  1  0.325303  0.543919  0.565764  1
  Er  Er15  1  0.175577  0.957801  0.066883  1
  Er  Er16  1  0.672976  0.464367  0.435610  1
  Er  Er17  1  0.825515  0.042903  0.932985  1
  Er  Er18  1  0.672976  0.035633  0.435610  1
  Er  Er19  1  0.325303  0.956081  0.565764  1
  Co  Co20  1  0.567761  0.750000  0.492220  1
  Bi  Bi21  1  0.932642  0.008716  0.672014  1
  Bi  Bi22  1  0.066190  0.990867  0.327751  1
  Bi  Bi23  1  0.434063  0.990593  0.826610  1
  Bi  Bi24  1  0.066190  0.509133  0.327751  1
  Bi  Bi25  1  0.565628  0.007994  0.173476  1
  Bi  Bi26  1  0.932642  0.491284  0.672014  1
  Bi  Bi27  1  0.565628  0.492006  0.173476  1
  Bi  Bi28  1  0.434063  0.509407  0.826610  1
  Ir  Ir29  1  0.929297  0.750000  0.991874  1
  Ir  Ir30  1  0.072340  0.250000  0.008892  1
  Ir  Ir31  1  0.429872  0.250000  0.507970  1
