# generated using pymatgen
data_PrEuPt2O7
_symmetry_space_group_name_H-M   'P 1'
_cell_length_a   7.47811664
_cell_length_b   7.45951610
_cell_length_c   7.45951600
_cell_angle_alpha   59.88719181
_cell_angle_beta   59.91747836
_cell_angle_gamma   59.91748299
_symmetry_Int_Tables_number   1
_chemical_formula_structural   PrEuPt2O7
_chemical_formula_sum   'Pr2 Eu2 Pt4 O14'
_cell_volume   293.61959024
_cell_formula_units_Z   2
loop_
 _symmetry_equiv_pos_site_id
 _symmetry_equiv_pos_as_xyz
  1  'x, y, z'
loop_
 _atom_site_type_symbol
 _atom_site_label
 _atom_site_symmetry_multiplicity
 _atom_site_fract_x
 _atom_site_fract_y
 _atom_site_fract_z
 _atom_site_occupancy
  Pr  Pr0  1  0.625000  0.125000  0.125000  1
  Pr  Pr1  1  0.125000  0.125000  0.125000  1
  Eu  Eu2  1  0.125000  0.125000  0.625000  1
  Eu  Eu3  1  0.125000  0.625000  0.125000  1
  Pt  Pt4  1  0.625000  0.625000  0.125000  1
  Pt  Pt5  1  0.625000  0.125000  0.625000  1
  Pt  Pt6  1  0.125000  0.625000  0.625000  1
  Pt  Pt7  1  0.625000  0.625000  0.625000  1
  O  O8  1  0.246408  0.253592  0.253592  1
  O  O9  1  0.003592  0.996408  0.996408  1
  O  O10  1  0.541629  0.958923  0.540966  1
  O  O11  1  0.291518  0.709034  0.291077  1
  O  O12  1  0.541629  0.540966  0.958923  1
  O  O13  1  0.958467  0.541533  0.541533  1
  O  O14  1  0.540612  0.959388  0.959388  1
  O  O15  1  0.958482  0.958923  0.540966  1
  O  O16  1  0.958482  0.540966  0.958923  1
  O  O17  1  0.709388  0.290612  0.290612  1
  O  O18  1  0.291533  0.708467  0.708467  1
  O  O19  1  0.708371  0.291077  0.709034  1
  O  O20  1  0.291518  0.291077  0.709034  1
  O  O21  1  0.708371  0.709034  0.291077  1
