# generated using pymatgen
data_CeTh3S8
_symmetry_space_group_name_H-M   'P 1'
_cell_length_a   15.55847853
_cell_length_b   15.55847861
_cell_length_c   15.55847714
_cell_angle_alpha   17.37074545
_cell_angle_beta   17.37074384
_cell_angle_gamma   17.37074618
_symmetry_Int_Tables_number   1
_chemical_formula_structural   CeTh3S8
_chemical_formula_sum   'Ce1 Th3 S8'
_cell_volume   292.94746113
_cell_formula_units_Z   1
loop_
 _symmetry_equiv_pos_site_id
 _symmetry_equiv_pos_as_xyz
  1  'x, y, z'
loop_
 _atom_site_type_symbol
 _atom_site_label
 _atom_site_symmetry_multiplicity
 _atom_site_fract_x
 _atom_site_fract_y
 _atom_site_fract_z
 _atom_site_occupancy
  Ce  Ce0  1  0.000000  0.000000  0.000000  1
  Th  Th1  1  0.251148  0.251148  0.251148  1
  Th  Th2  1  0.500000  0.500000  0.500000  1
  Th  Th3  1  0.748852  0.748852  0.748852  1
  S  S4  1  0.812044  0.812044  0.812044  1
  S  S5  1  0.061293  0.061293  0.061293  1
  S  S6  1  0.313539  0.313539  0.313539  1
  S  S7  1  0.563150  0.563150  0.563150  1
  S  S8  1  0.436850  0.436850  0.436850  1
  S  S9  1  0.686461  0.686461  0.686461  1
  S  S10  1  0.938707  0.938707  0.938707  1
  S  S11  1  0.187956  0.187956  0.187956  1
