# generated using pymatgen
data_Er6Lu2Ti3Si16Mo9
_symmetry_space_group_name_H-M   'P 1'
_cell_length_a   6.88002312
_cell_length_b   6.88019512
_cell_length_c   12.73004848
_cell_angle_alpha   90.00822028
_cell_angle_beta   90.02619961
_cell_angle_gamma   89.77158771
_symmetry_Int_Tables_number   1
_chemical_formula_structural   Er6Lu2Ti3Si16Mo9
_chemical_formula_sum   'Er6 Lu2 Ti3 Si16 Mo9'
_cell_volume   602.58346343
_cell_formula_units_Z   1
loop_
 _symmetry_equiv_pos_site_id
 _symmetry_equiv_pos_as_xyz
  1  'x, y, z'
loop_
 _atom_site_type_symbol
 _atom_site_label
 _atom_site_symmetry_multiplicity
 _atom_site_fract_x
 _atom_site_fract_y
 _atom_site_fract_z
 _atom_site_occupancy
  Er  Er0  1  0.499163  0.161560  0.217790  1
  Er  Er1  1  0.839291  0.497221  0.280953  1
  Er  Er2  1  0.161752  0.499123  0.782009  1
  Er  Er3  1  0.659439  0.000056  0.968733  1
  Er  Er4  1  0.001796  0.339604  0.531353  1
  Er  Er5  1  0.000293  0.659384  0.030955  1
  Lu  Lu6  1  0.340053  0.000790  0.469069  1
  Lu  Lu7  1  0.497938  0.839540  0.719485  1
  Ti  Ti8  1  0.170164  0.831593  0.249129  1
  Ti  Ti9  1  0.831260  0.169688  0.750964  1
  Ti  Ti10  1  0.668631  0.669218  0.500373  1
  Si  Si11  1  0.201711  0.128822  0.682456  1
  Si  Si12  1  0.373406  0.697647  0.933169  1
  Si  Si13  1  0.628516  0.298241  0.433254  1
  Si  Si14  1  0.697434  0.373429  0.066239  1
  Si  Si15  1  0.299626  0.631293  0.567383  1
  Si  Si16  1  0.796895  0.871435  0.183929  1
  Si  Si17  1  0.130646  0.200326  0.317628  1
  Si  Si18  1  0.870241  0.796720  0.815858  1
  Si  Si19  1  0.288279  0.963699  0.061551  1
  Si  Si20  1  0.538974  0.792275  0.314217  1
  Si  Si21  1  0.458305  0.209210  0.814582  1
  Si  Si22  1  0.791091  0.539648  0.686208  1
  Si  Si23  1  0.210660  0.458397  0.185122  1
  Si  Si24  1  0.707522  0.040251  0.564077  1
  Si  Si25  1  0.963823  0.288101  0.937976  1
  Si  Si26  1  0.041509  0.709840  0.436376  1
  Mo  Mo27  1  0.331488  0.331540  0.999748  1
  Mo  Mo28  1  0.155923  0.000576  0.872235  1
  Mo  Mo29  1  0.496690  0.666888  0.124611  1
  Mo  Mo30  1  0.504713  0.340476  0.624199  1
  Mo  Mo31  1  0.666038  0.496535  0.875113  1
  Mo  Mo32  1  0.340523  0.505658  0.375975  1
  Mo  Mo33  1  0.840952  0.994005  0.374630  1
  Mo  Mo34  1  0.001509  0.156027  0.127177  1
  Mo  Mo35  1  0.993747  0.841185  0.625474  1
