# generated using pymatgen
data_Nd5MnAuO12
_symmetry_space_group_name_H-M   'P 1'
_cell_length_a   7.10041944
_cell_length_b   7.10041972
_cell_length_c   7.55532828
_cell_angle_alpha   74.55359469
_cell_angle_beta   74.55359576
_cell_angle_gamma   50.52276199
_symmetry_Int_Tables_number   1
_chemical_formula_structural   Nd5MnAuO12
_chemical_formula_sum   'Nd5 Mn1 Au1 O12'
_cell_volume   280.97595609
_cell_formula_units_Z   1
loop_
 _symmetry_equiv_pos_site_id
 _symmetry_equiv_pos_as_xyz
  1  'x, y, z'
loop_
 _atom_site_type_symbol
 _atom_site_label
 _atom_site_symmetry_multiplicity
 _atom_site_fract_x
 _atom_site_fract_y
 _atom_site_fract_z
 _atom_site_occupancy
  Nd  Nd0  1  0.297578  0.307885  0.358304  1
  Nd  Nd1  1  0.692115  0.702422  0.641696  1
  Nd  Nd2  1  0.698958  0.693618  0.163539  1
  Nd  Nd3  1  0.306382  0.301042  0.836461  1
  Nd  Nd4  1  0.000151  0.999849  0.500000  1
  Mn  Mn5  1  0.246326  0.753674  0.000000  1
  Au  Au6  1  0.755023  0.244977  0.000000  1
  O  O7  1  0.094605  0.598836  0.576833  1
  O  O8  1  0.011207  0.987376  0.174967  1
  O  O9  1  0.401164  0.905395  0.423167  1
  O  O10  1  0.492456  0.508053  0.175169  1
  O  O11  1  0.104444  0.582252  0.077726  1
  O  O12  1  0.902090  0.402930  0.424292  1
  O  O13  1  0.012624  0.988793  0.825033  1
  O  O14  1  0.597070  0.097909  0.575708  1
  O  O15  1  0.491947  0.507544  0.824831  1
  O  O16  1  0.574609  0.096499  0.081846  1
  O  O17  1  0.417748  0.895556  0.922274  1
  O  O18  1  0.903501  0.425391  0.918154  1
