# generated using pymatgen
data_ZnCrGa11Ir3
_symmetry_space_group_name_H-M   'P 1'
_cell_length_a   6.51286406
_cell_length_b   6.51286405
_cell_length_c   6.82431334
_cell_angle_alpha   89.54027540
_cell_angle_beta   90.45972018
_cell_angle_gamma   90.79530528
_symmetry_Int_Tables_number   1
_chemical_formula_structural   ZnCrGa11Ir3
_chemical_formula_sum   'Zn1 Cr1 Ga11 Ir3'
_cell_volume   289.42335091
_cell_formula_units_Z   1
loop_
 _symmetry_equiv_pos_site_id
 _symmetry_equiv_pos_as_xyz
  1  'x, y, z'
loop_
 _atom_site_type_symbol
 _atom_site_label
 _atom_site_symmetry_multiplicity
 _atom_site_fract_x
 _atom_site_fract_y
 _atom_site_fract_z
 _atom_site_occupancy
  Zn  Zn0  1  0.340832  0.659168  0.248154  1
  Cr  Cr1  1  0.150361  0.849639  0.506612  1
  Ga  Ga2  1  0.016247  0.507795  0.493256  1
  Ga  Ga3  1  0.499762  0.996354  0.005514  1
  Ga  Ga4  1  0.492205  0.983753  0.493256  1
  Ga  Ga5  1  0.003646  0.500238  0.005514  1
  Ga  Ga6  1  0.643833  0.356167  0.239280  1
  Ga  Ga7  1  0.162930  0.146014  0.727770  1
  Ga  Ga8  1  0.853986  0.837070  0.727770  1
  Ga  Ga9  1  0.651221  0.348779  0.761696  1
  Ga  Ga10  1  0.338807  0.661193  0.757184  1
  Ga  Ga11  1  0.853601  0.837995  0.271737  1
  Ga  Ga12  1  0.162005  0.146399  0.271737  1
  Ir  Ir13  1  0.829440  0.170560  0.497533  1
  Ir  Ir14  1  0.338834  0.337711  0.996494  1
  Ir  Ir15  1  0.662289  0.661166  0.996494  1
