# generated using pymatgen
data_Ag5PdAu4
_symmetry_space_group_name_H-M   'P 1'
_cell_length_a   6.49600600
_cell_length_b   6.49600600
_cell_length_c   4.19386500
_cell_angle_alpha   90.00000000
_cell_angle_beta   90.00000000
_cell_angle_gamma   90.00000000
_symmetry_Int_Tables_number   1
_chemical_formula_structural   Ag5PdAu4
_chemical_formula_sum   'Ag5 Pd1 Au4'
_cell_volume   176.97310929
_cell_formula_units_Z   1
loop_
 _symmetry_equiv_pos_site_id
 _symmetry_equiv_pos_as_xyz
  1  'x, y, z'
loop_
 _atom_site_type_symbol
 _atom_site_label
 _atom_site_symmetry_multiplicity
 _atom_site_fract_x
 _atom_site_fract_y
 _atom_site_fract_z
 _atom_site_occupancy
  Ag  Ag0  1  0.297045  0.098844  0.000000  1
  Ag  Ag1  1  0.901157  0.297045  0.000000  1
  Ag  Ag2  1  0.500000  0.500000  0.000000  1
  Ag  Ag3  1  0.098844  0.702956  0.000000  1
  Ag  Ag4  1  0.702956  0.901157  0.000000  1
  Pd  Pd5  1  0.000000  0.000000  0.500001  1
  Au  Au6  1  0.602481  0.198458  0.500001  1
  Au  Au7  1  0.198458  0.397520  0.500001  1
  Au  Au8  1  0.801543  0.602481  0.500001  1
  Au  Au9  1  0.397520  0.801543  0.500001  1
