# generated using pymatgen
data_CaNd4Dy5Si8
_symmetry_space_group_name_H-M   'P 1'
_cell_length_a   7.75313701
_cell_length_b   7.75318000
_cell_length_c   14.52967700
_cell_angle_alpha   90.00000000
_cell_angle_beta   90.00237958
_cell_angle_gamma   90.00000000
_symmetry_Int_Tables_number   1
_chemical_formula_structural   CaNd4Dy5Si8
_chemical_formula_sum   'Ca2 Nd8 Dy10 Si16'
_cell_volume   873.40019552
_cell_formula_units_Z   2
loop_
 _symmetry_equiv_pos_site_id
 _symmetry_equiv_pos_as_xyz
  1  'x, y, z'
loop_
 _atom_site_type_symbol
 _atom_site_label
 _atom_site_symmetry_multiplicity
 _atom_site_fract_x
 _atom_site_fract_y
 _atom_site_fract_z
 _atom_site_occupancy
  Ca  Ca0  1  0.813440  0.186437  0.250589  1
  Ca  Ca1  1  0.686560  0.686437  0.999411  1
  Nd  Nd2  1  0.635684  0.990012  0.455496  1
  Nd  Nd3  1  0.362244  0.010099  0.956602  1
  Nd  Nd4  1  0.989648  0.636993  0.543669  1
  Nd  Nd5  1  0.490189  0.864140  0.205857  1
  Nd  Nd6  1  0.510352  0.136993  0.706331  1
  Nd  Nd7  1  0.864316  0.490012  0.794504  1
  Nd  Nd8  1  0.137756  0.510099  0.293398  1
  Nd  Nd9  1  0.009811  0.364140  0.044143  1
  Dy  Dy10  1  0.491663  0.366796  0.124791  1
  Dy  Dy11  1  0.988432  0.135075  0.625960  1
  Dy  Dy12  1  0.866883  0.009338  0.874554  1
  Dy  Dy13  1  0.134800  0.990081  0.374568  1
  Dy  Dy14  1  0.511568  0.635075  0.624040  1
  Dy  Dy15  1  0.365200  0.490081  0.875432  1
  Dy  Dy16  1  0.633117  0.509338  0.375446  1
  Dy  Dy17  1  0.008337  0.866796  0.125209  1
  Dy  Dy18  1  0.314293  0.312184  0.500936  1
  Dy  Dy19  1  0.185707  0.812184  0.749064  1
  Si  Si20  1  0.288502  0.931639  0.560763  1
  Si  Si21  1  0.712606  0.074921  0.059447  1
  Si  Si22  1  0.933098  0.289151  0.441648  1
  Si  Si23  1  0.423479  0.212666  0.311887  1
  Si  Si24  1  0.566902  0.789151  0.808352  1
  Si  Si25  1  0.211498  0.431639  0.689237  1
  Si  Si26  1  0.787394  0.574921  0.190553  1
  Si  Si27  1  0.076521  0.712666  0.938113  1
  Si  Si28  1  0.799857  0.841395  0.692939  1
  Si  Si29  1  0.207917  0.155114  0.190176  1
  Si  Si30  1  0.844373  0.792867  0.309569  1
  Si  Si31  1  0.342195  0.701097  0.442394  1
  Si  Si32  1  0.655627  0.292867  0.940431  1
  Si  Si33  1  0.700143  0.341395  0.557061  1
  Si  Si34  1  0.292083  0.655114  0.059824  1
  Si  Si35  1  0.157805  0.201097  0.807606  1
