# generated using pymatgen
data_CeEr5(Co3P2)6
_symmetry_space_group_name_H-M   'P 1'
_cell_length_a   3.69313400
_cell_length_b   10.52292600
_cell_length_c   12.15636100
_cell_angle_alpha   90.00000000
_cell_angle_beta   90.00000000
_cell_angle_gamma   90.00000000
_symmetry_Int_Tables_number   1
_chemical_formula_structural   CeEr5(Co3P2)6
_chemical_formula_sum   'Ce1 Er5 Co18 P12'
_cell_volume   472.42750069
_cell_formula_units_Z   1
loop_
 _symmetry_equiv_pos_site_id
 _symmetry_equiv_pos_as_xyz
  1  'x, y, z'
loop_
 _atom_site_type_symbol
 _atom_site_label
 _atom_site_symmetry_multiplicity
 _atom_site_fract_x
 _atom_site_fract_y
 _atom_site_fract_z
 _atom_site_occupancy
  Ce  Ce0  1  0.750000  0.250000  0.474186  1
  Er  Er1  1  0.250000  0.750000  0.522141  1
  Er  Er2  1  0.250000  0.932750  0.793930  1
  Er  Er3  1  0.250000  0.567250  0.793930  1
  Er  Er4  1  0.750000  0.066261  0.204687  1
  Er  Er5  1  0.750000  0.433739  0.204687  1
  Co  Co6  1  0.250000  0.250000  0.843072  1
  Co  Co7  1  0.750000  0.750000  0.159059  1
  Co  Co8  1  0.250000  0.250000  0.299291  1
  Co  Co9  1  0.750000  0.750000  0.703361  1
  Co  Co10  1  0.750000  0.250000  0.014288  1
  Co  Co11  1  0.250000  0.750000  0.985370  1
  Co  Co12  1  0.250000  0.416809  0.005747  1
  Co  Co13  1  0.250000  0.083191  0.005747  1
  Co  Co14  1  0.750000  0.583639  0.994643  1
  Co  Co15  1  0.750000  0.916361  0.994643  1
  Co  Co16  1  0.250000  0.453132  0.569490  1
  Co  Co17  1  0.250000  0.046868  0.569490  1
  Co  Co18  1  0.750000  0.549800  0.430371  1
  Co  Co19  1  0.750000  0.950200  0.430371  1
  Co  Co20  1  0.250000  0.870170  0.289126  1
  Co  Co21  1  0.250000  0.629830  0.289126  1
  Co  Co22  1  0.750000  0.128952  0.710620  1
  Co  Co23  1  0.750000  0.371048  0.710620  1
  P  P24  1  0.250000  0.250000  0.118715  1
  P  P25  1  0.750000  0.750000  0.881690  1
  P  P26  1  0.250000  0.250000  0.658392  1
  P  P27  1  0.750000  0.750000  0.344526  1
  P  P28  1  0.250000  0.443605  0.382859  1
  P  P29  1  0.250000  0.056395  0.382859  1
  P  P30  1  0.750000  0.561761  0.616417  1
  P  P31  1  0.750000  0.938239  0.616417  1
  P  P32  1  0.250000  0.902301  0.106548  1
  P  P33  1  0.250000  0.597699  0.106548  1
  P  P34  1  0.750000  0.096537  0.893518  1
  P  P35  1  0.750000  0.403463  0.893518  1
