# generated using pymatgen
data_Y2Sc3Sn3Au
_symmetry_space_group_name_H-M   'P 1'
_cell_length_a   7.53916500
_cell_length_b   8.00043200
_cell_length_c   14.70822100
_cell_angle_alpha   90.00000000
_cell_angle_beta   90.00000000
_cell_angle_gamma   90.00000000
_symmetry_Int_Tables_number   1
_chemical_formula_structural   Y2Sc3Sn3Au
_chemical_formula_sum   'Y8 Sc12 Sn12 Au4'
_cell_volume   887.14954329
_cell_formula_units_Z   4
loop_
 _symmetry_equiv_pos_site_id
 _symmetry_equiv_pos_as_xyz
  1  'x, y, z'
loop_
 _atom_site_type_symbol
 _atom_site_label
 _atom_site_symmetry_multiplicity
 _atom_site_fract_x
 _atom_site_fract_y
 _atom_site_fract_z
 _atom_site_occupancy
  Y  Y0  1  0.995573  0.179380  0.092922  1
  Y  Y1  1  0.004427  0.820620  0.907078  1
  Y  Y2  1  0.504427  0.679380  0.907078  1
  Y  Y3  1  0.004427  0.820620  0.592922  1
  Y  Y4  1  0.495573  0.320620  0.092922  1
  Y  Y5  1  0.995573  0.179380  0.407078  1
  Y  Y6  1  0.495573  0.320620  0.407078  1
  Y  Y7  1  0.504427  0.679380  0.592922  1
  Sc  Sc8  1  0.177739  0.494557  0.750000  1
  Sc  Sc9  1  0.822261  0.505443  0.250000  1
  Sc  Sc10  1  0.322261  0.994557  0.250000  1
  Sc  Sc11  1  0.677739  0.005443  0.750000  1
  Sc  Sc12  1  0.333123  0.166524  0.632230  1
  Sc  Sc13  1  0.666877  0.833476  0.367770  1
  Sc  Sc14  1  0.166877  0.666524  0.367770  1
  Sc  Sc15  1  0.666877  0.833476  0.132230  1
  Sc  Sc16  1  0.833123  0.333476  0.632230  1
  Sc  Sc17  1  0.333123  0.166524  0.867770  1
  Sc  Sc18  1  0.833123  0.333476  0.867770  1
  Sc  Sc19  1  0.166877  0.666524  0.132230  1
  Sn  Sn20  1  0.298753  0.859061  0.750000  1
  Sn  Sn21  1  0.701247  0.140939  0.250000  1
  Sn  Sn22  1  0.201247  0.359061  0.250000  1
  Sn  Sn23  1  0.798753  0.640939  0.750000  1
  Sn  Sn24  1  0.180664  0.460204  0.541636  1
  Sn  Sn25  1  0.819336  0.539796  0.458364  1
  Sn  Sn26  1  0.319336  0.960204  0.458364  1
  Sn  Sn27  1  0.819336  0.539796  0.041636  1
  Sn  Sn28  1  0.680664  0.039796  0.541636  1
  Sn  Sn29  1  0.180664  0.460204  0.958364  1
  Sn  Sn30  1  0.680664  0.039796  0.958364  1
  Sn  Sn31  1  0.319336  0.960204  0.041636  1
  Au  Au32  1  0.030725  0.121793  0.750000  1
  Au  Au33  1  0.969275  0.878207  0.250000  1
  Au  Au34  1  0.469275  0.621793  0.250000  1
  Au  Au35  1  0.530725  0.378207  0.750000  1
