# generated using pymatgen
data_HfScMn3Os
_symmetry_space_group_name_H-M   'P 1'
_cell_length_a   4.94946123
_cell_length_b   4.94940561
_cell_length_c   8.35964000
_cell_angle_alpha   90.00000236
_cell_angle_beta   90.00008697
_cell_angle_gamma   120.04109879
_symmetry_Int_Tables_number   1
_chemical_formula_structural   HfScMn3Os
_chemical_formula_sum   'Hf2 Sc2 Mn6 Os2'
_cell_volume   177.27568557
_cell_formula_units_Z   2
loop_
 _symmetry_equiv_pos_site_id
 _symmetry_equiv_pos_as_xyz
  1  'x, y, z'
loop_
 _atom_site_type_symbol
 _atom_site_label
 _atom_site_symmetry_multiplicity
 _atom_site_fract_x
 _atom_site_fract_y
 _atom_site_fract_z
 _atom_site_occupancy
  Hf  Hf0  1  0.666656  0.333351  0.063380  1
  Hf  Hf1  1  0.666656  0.333349  0.436610  1
  Sc  Sc2  1  0.333369  0.666647  0.566472  1
  Sc  Sc3  1  0.333371  0.666648  0.933536  1
  Mn  Mn4  1  0.175237  0.350390  0.249982  1
  Mn  Mn5  1  0.175163  0.824837  0.249982  1
  Mn  Mn6  1  0.649579  0.824749  0.249983  1
  Mn  Mn7  1  0.349236  0.174777  0.750019  1
  Mn  Mn8  1  0.825438  0.174633  0.750019  1
  Mn  Mn9  1  0.825239  0.650728  0.750019  1
  Os  Os10  1  0.000028  0.999946  0.999528  1
  Os  Os11  1  0.000027  0.999946  0.500471  1
