# generated using pymatgen
data_TbSmY4RhI10
_symmetry_space_group_name_H-M   'P 1'
_cell_length_a   7.77716882
_cell_length_b   9.73120044
_cell_length_c   9.82900404
_cell_angle_alpha   107.31302723
_cell_angle_beta   96.95053986
_cell_angle_gamma   104.37277536
_symmetry_Int_Tables_number   1
_chemical_formula_structural   TbSmY4RhI10
_chemical_formula_sum   'Tb1 Sm1 Y4 Rh1 I10'
_cell_volume   672.49302290
_cell_formula_units_Z   1
loop_
 _symmetry_equiv_pos_site_id
 _symmetry_equiv_pos_as_xyz
  1  'x, y, z'
loop_
 _atom_site_type_symbol
 _atom_site_label
 _atom_site_symmetry_multiplicity
 _atom_site_fract_x
 _atom_site_fract_y
 _atom_site_fract_z
 _atom_site_occupancy
  Tb  Tb0  1  0.468485  0.776715  0.582562  1
  Sm  Sm1  1  0.531437  0.218655  0.416344  1
  Y  Y2  1  0.149608  0.374883  0.332452  1
  Y  Y3  1  0.850609  0.626782  0.667852  1
  Y  Y4  1  0.614868  0.542021  0.257784  1
  Y  Y5  1  0.386061  0.457902  0.742588  1
  Rh  Rh6  1  0.500564  0.499411  0.499946  1
  I  I7  1  0.143479  0.048352  0.225483  1
  I  I8  1  0.849058  0.951406  0.772191  1
  I  I9  1  0.242799  0.412981  0.037114  1
  I  I10  1  0.758241  0.588440  0.962994  1
  I  I11  1  0.724637  0.245097  0.151571  1
  I  I12  1  0.278913  0.757507  0.845554  1
  I  I13  1  0.046765  0.685049  0.409910  1
  I  I14  1  0.956624  0.317756  0.592489  1
  I  I15  1  0.412028  0.127100  0.681716  1
  I  I16  1  0.585823  0.869942  0.321448  1
