# generated using pymatgen
data_TaCo4Tc(B2W)2
_symmetry_space_group_name_H-M   'P 1'
_cell_length_a   3.25015300
_cell_length_b   5.75232667
_cell_length_c   6.63792746
_cell_angle_alpha   89.88281870
_cell_angle_beta   90.00000000
_cell_angle_gamma   90.00000000
_symmetry_Int_Tables_number   1
_chemical_formula_structural   TaCo4Tc(B2W)2
_chemical_formula_sum   'Ta1 Co4 Tc1 B4 W2'
_cell_volume   124.10204598
_cell_formula_units_Z   1
loop_
 _symmetry_equiv_pos_site_id
 _symmetry_equiv_pos_as_xyz
  1  'x, y, z'
loop_
 _atom_site_type_symbol
 _atom_site_label
 _atom_site_symmetry_multiplicity
 _atom_site_fract_x
 _atom_site_fract_y
 _atom_site_fract_z
 _atom_site_occupancy
  Ta  Ta0  1  0.750000  0.973007  0.173710  1
  Co  Co1  1  0.250000  0.141606  0.442031  1
  Co  Co2  1  0.250000  0.644401  0.057034  1
  Co  Co3  1  0.750000  0.853448  0.558008  1
  Co  Co4  1  0.750000  0.358651  0.942274  1
  Tc  Tc5  1  0.250000  0.028373  0.825245  1
  B  B6  1  0.250000  0.277759  0.121392  1
  B  B7  1  0.250000  0.766383  0.380072  1
  B  B8  1  0.750000  0.729435  0.868562  1
  B  B9  1  0.750000  0.226737  0.628360  1
  W  W10  1  0.250000  0.526873  0.676188  1
  W  W11  1  0.750000  0.473326  0.327130  1
