# generated using pymatgen
data_Cs3InSnI6
_symmetry_space_group_name_H-M   'P 1'
_cell_length_a   10.37834000
_cell_length_b   10.37834036
_cell_length_c   10.37834015
_cell_angle_alpha   91.75587792
_cell_angle_beta   91.75587871
_cell_angle_gamma   91.75588139
_symmetry_Int_Tables_number   1
_chemical_formula_structural   Cs3InSnI6
_chemical_formula_sum   'Cs6 In2 Sn2 I12'
_cell_volume   1116.24284778
_cell_formula_units_Z   2
loop_
 _symmetry_equiv_pos_site_id
 _symmetry_equiv_pos_as_xyz
  1  'x, y, z'
loop_
 _atom_site_type_symbol
 _atom_site_label
 _atom_site_symmetry_multiplicity
 _atom_site_fract_x
 _atom_site_fract_y
 _atom_site_fract_z
 _atom_site_occupancy
  Cs  Cs0  1  0.250000  0.628053  0.871947  1
  Cs  Cs1  1  0.871947  0.250000  0.628053  1
  Cs  Cs2  1  0.628053  0.871947  0.250000  1
  Cs  Cs3  1  0.750000  0.371947  0.128053  1
  Cs  Cs4  1  0.128053  0.750000  0.371947  1
  Cs  Cs5  1  0.371947  0.128053  0.750000  1
  In  In6  1  0.250000  0.250000  0.250000  1
  In  In7  1  0.750000  0.750000  0.750000  1
  Sn  Sn8  1  0.000000  0.000000  0.000000  1
  Sn  Sn9  1  0.500000  0.500000  0.500000  1
  I  I10  1  0.548111  0.204220  0.418880  1
  I  I11  1  0.418880  0.548111  0.204220  1
  I  I12  1  0.204220  0.418880  0.548111  1
  I  I13  1  0.951889  0.081120  0.295780  1
  I  I14  1  0.295780  0.951889  0.081120  1
  I  I15  1  0.081120  0.295780  0.951889  1
  I  I16  1  0.451889  0.795780  0.581120  1
  I  I17  1  0.581120  0.451889  0.795780  1
  I  I18  1  0.795780  0.581120  0.451889  1
  I  I19  1  0.048111  0.918880  0.704220  1
  I  I20  1  0.918880  0.704220  0.048111  1
  I  I21  1  0.704220  0.048111  0.918880  1
