# generated using pymatgen
data_Eu4Ta3CdO14
_symmetry_space_group_name_H-M   'P 1'
_cell_length_a   7.67738037
_cell_length_b   7.67738067
_cell_length_c   7.67738100
_cell_angle_alpha   59.79047190
_cell_angle_beta   59.79047060
_cell_angle_gamma   59.79047190
_symmetry_Int_Tables_number   1
_chemical_formula_structural   Eu4Ta3CdO14
_chemical_formula_sum   'Eu4 Ta3 Cd1 O14'
_cell_volume   318.45895479
_cell_formula_units_Z   1
loop_
 _symmetry_equiv_pos_site_id
 _symmetry_equiv_pos_as_xyz
  1  'x, y, z'
loop_
 _atom_site_type_symbol
 _atom_site_label
 _atom_site_symmetry_multiplicity
 _atom_site_fract_x
 _atom_site_fract_y
 _atom_site_fract_z
 _atom_site_occupancy
  Eu  Eu0  1  0.625000  0.125000  0.125000  1
  Eu  Eu1  1  0.125000  0.625000  0.125000  1
  Eu  Eu2  1  0.125000  0.125000  0.625000  1
  Eu  Eu3  1  0.125000  0.125000  0.125000  1
  Ta  Ta4  1  0.125000  0.625000  0.625000  1
  Ta  Ta5  1  0.625000  0.125000  0.625000  1
  Ta  Ta6  1  0.625000  0.625000  0.125000  1
  Cd  Cd7  1  0.625000  0.625000  0.625000  1
  O  O8  1  0.245329  0.245329  0.245329  1
  O  O9  1  0.004671  0.004671  0.004671  1
  O  O10  1  0.723264  0.723264  0.247289  1
  O  O11  1  0.319707  0.319707  0.707598  1
  O  O12  1  0.723264  0.247289  0.723264  1
  O  O13  1  0.319707  0.707598  0.319707  1
  O  O14  1  0.247289  0.723264  0.723264  1
  O  O15  1  0.707598  0.319707  0.319707  1
  O  O16  1  0.526736  0.526736  0.002711  1
  O  O17  1  0.930293  0.930293  0.542402  1
  O  O18  1  0.526736  0.002711  0.526736  1
  O  O19  1  0.930293  0.542402  0.930293  1
  O  O20  1  0.002711  0.526736  0.526736  1
  O  O21  1  0.542402  0.930293  0.930293  1
