# generated using pymatgen
data_Sc5CrReC7
_symmetry_space_group_name_H-M   'P 1'
_cell_length_a   7.84289921
_cell_length_b   7.84289924
_cell_length_c   3.20805300
_cell_angle_alpha   90.00000000
_cell_angle_beta   90.00000000
_cell_angle_gamma   121.36015730
_symmetry_Int_Tables_number   1
_chemical_formula_structural   Sc5CrReC7
_chemical_formula_sum   'Sc5 Cr1 Re1 C7'
_cell_volume   168.50328629
_cell_formula_units_Z   1
loop_
 _symmetry_equiv_pos_site_id
 _symmetry_equiv_pos_as_xyz
  1  'x, y, z'
loop_
 _atom_site_type_symbol
 _atom_site_label
 _atom_site_symmetry_multiplicity
 _atom_site_fract_x
 _atom_site_fract_y
 _atom_site_fract_z
 _atom_site_occupancy
  Sc  Sc0  1  0.080800  0.337477  0.500000  1
  Sc  Sc1  1  0.340660  0.083033  0.500000  1
  Sc  Sc2  1  0.500660  0.499340  0.000000  1
  Sc  Sc3  1  0.916967  0.659340  0.500000  1
  Sc  Sc4  1  0.662523  0.919200  0.500000  1
  Cr  Cr5  1  0.711034  0.288966  0.000000  1
  Re  Re6  1  0.284111  0.715889  0.000000  1
  C  C7  1  0.999566  0.000434  0.000000  1
  C  C8  1  0.991061  0.491318  0.000000  1
  C  C9  1  0.508682  0.008939  0.000000  1
  C  C10  1  0.175725  0.175938  0.000000  1
  C  C11  1  0.824062  0.824275  0.000000  1
  C  C12  1  0.622673  0.377327  0.500000  1
  C  C13  1  0.381475  0.618525  0.500000  1
