# generated using pymatgen
data_Ca6CeCo4Sn13
_symmetry_space_group_name_H-M   'P 1'
_cell_length_a   11.18678900
_cell_length_b   11.18678900
_cell_length_c   4.65564600
_cell_angle_alpha   90.00000000
_cell_angle_beta   90.00000000
_cell_angle_gamma   90.00000000
_symmetry_Int_Tables_number   1
_chemical_formula_structural   Ca6CeCo4Sn13
_chemical_formula_sum   'Ca6 Ce1 Co4 Sn13'
_cell_volume   582.62731823
_cell_formula_units_Z   1
loop_
 _symmetry_equiv_pos_site_id
 _symmetry_equiv_pos_as_xyz
  1  'x, y, z'
loop_
 _atom_site_type_symbol
 _atom_site_label
 _atom_site_symmetry_multiplicity
 _atom_site_fract_x
 _atom_site_fract_y
 _atom_site_fract_z
 _atom_site_occupancy
  Ca  Ca0  1  0.838236  0.169823  0.000000  1
  Ca  Ca1  1  0.830177  0.838236  0.000000  1
  Ca  Ca2  1  0.161764  0.830177  0.000000  1
  Ca  Ca3  1  0.169823  0.161764  0.000000  1
  Ca  Ca4  1  0.000000  0.500000  0.000000  1
  Ca  Ca5  1  0.500000  0.000000  0.000000  1
  Ce  Ce6  1  0.500000  0.500000  0.500000  1
  Co  Co7  1  0.774028  0.617442  0.500000  1
  Co  Co8  1  0.382558  0.774028  0.500000  1
  Co  Co9  1  0.617442  0.225972  0.500000  1
  Co  Co10  1  0.225972  0.382558  0.500000  1
  Sn  Sn11  1  0.021312  0.286856  0.500000  1
  Sn  Sn12  1  0.978688  0.713144  0.500000  1
  Sn  Sn13  1  0.217560  0.612005  0.500000  1
  Sn  Sn14  1  0.577601  0.305588  0.000000  1
  Sn  Sn15  1  0.694412  0.577601  0.000000  1
  Sn  Sn16  1  0.782440  0.387995  0.500000  1
  Sn  Sn17  1  0.713144  0.021312  0.500000  1
  Sn  Sn18  1  0.000000  0.000000  0.500000  1
  Sn  Sn19  1  0.286856  0.978688  0.500000  1
  Sn  Sn20  1  0.422399  0.694412  0.000000  1
  Sn  Sn21  1  0.612005  0.782440  0.500000  1
  Sn  Sn22  1  0.305588  0.422399  0.000000  1
  Sn  Sn23  1  0.387995  0.217560  0.500000  1
