# generated using pymatgen
data_Ba6Y3Er(WO9)2
_symmetry_space_group_name_H-M   'P 1'
_cell_length_a   6.09754171
_cell_length_b   8.63904864
_cell_length_c   10.56661512
_cell_angle_alpha   65.87117457
_cell_angle_beta   73.23010992
_cell_angle_gamma   90.00000671
_symmetry_Int_Tables_number   1
_chemical_formula_structural   Ba6Y3Er(WO9)2
_chemical_formula_sum   'Ba6 Y3 Er1 W2 O18'
_cell_volume   481.92959923
_cell_formula_units_Z   1
loop_
 _symmetry_equiv_pos_site_id
 _symmetry_equiv_pos_as_xyz
  1  'x, y, z'
loop_
 _atom_site_type_symbol
 _atom_site_label
 _atom_site_symmetry_multiplicity
 _atom_site_fract_x
 _atom_site_fract_y
 _atom_site_fract_z
 _atom_site_occupancy
  Ba  Ba0  1  0.500000  0.266230  0.000000  1
  Ba  Ba1  1  0.839598  0.579639  0.320804  1
  Ba  Ba2  1  0.160402  0.900444  0.679196  1
  Ba  Ba3  1  0.500000  0.733770  0.000000  1
  Ba  Ba4  1  0.839598  0.099556  0.320804  1
  Ba  Ba5  1  0.160402  0.420361  0.679196  1
  Y  Y6  1  0.000000  0.000000  0.000000  1
  Y  Y7  1  0.328902  0.328902  0.342196  1
  Y  Y8  1  0.671098  0.671098  0.657804  1
  Er  Er9  1  0.000000  0.500000  0.000000  1
  W  W10  1  0.334264  0.834264  0.331471  1
  W  W11  1  0.665736  0.165736  0.668528  1
  O  O12  1  0.000000  0.247966  0.000000  1
  O  O13  1  0.330549  0.602033  0.338901  1
  O  O14  1  0.669451  0.940936  0.661099  1
  O  O15  1  0.161061  0.411549  0.176900  1
  O  O16  1  0.489503  0.759575  0.480848  1
  O  O17  1  0.817591  0.089725  0.820548  1
  O  O18  1  0.337960  0.588451  0.823100  1
  O  O19  1  0.638140  0.910275  0.179452  1
  O  O20  1  0.970352  0.240425  0.519152  1
  O  O21  1  0.000000  0.752034  0.000000  1
  O  O22  1  0.330549  0.059064  0.338901  1
  O  O23  1  0.669451  0.397967  0.661099  1
  O  O24  1  0.838939  0.588451  0.823100  1
  O  O25  1  0.182409  0.910275  0.179452  1
  O  O26  1  0.510497  0.240425  0.519152  1
  O  O27  1  0.662040  0.411549  0.176900  1
  O  O28  1  0.029648  0.759575  0.480848  1
  O  O29  1  0.361860  0.089725  0.820548  1
