# generated using pymatgen
data_Ho3Er(SbO4)4
_symmetry_space_group_name_H-M   'P 1'
_cell_length_a   5.37766073
_cell_length_b   7.65981499
_cell_length_c   7.54432553
_cell_angle_alpha   81.17783973
_cell_angle_beta   90.41321533
_cell_angle_gamma   92.02783430
_symmetry_Int_Tables_number   1
_chemical_formula_structural   Ho3Er(SbO4)4
_chemical_formula_sum   'Ho3 Er1 Sb4 O16'
_cell_volume   306.89556692
_cell_formula_units_Z   1
loop_
 _symmetry_equiv_pos_site_id
 _symmetry_equiv_pos_as_xyz
  1  'x, y, z'
loop_
 _atom_site_type_symbol
 _atom_site_label
 _atom_site_symmetry_multiplicity
 _atom_site_fract_x
 _atom_site_fract_y
 _atom_site_fract_z
 _atom_site_occupancy
  Ho  Ho0  1  0.263268  0.133313  0.615584  1
  Ho  Ho1  1  0.737065  0.866536  0.384408  1
  Ho  Ho2  1  0.213879  0.156814  0.109926  1
  Er  Er3  1  0.786317  0.842823  0.889524  1
  Sb  Sb4  1  0.239862  0.663475  0.193681  1
  Sb  Sb5  1  0.760410  0.336599  0.805979  1
  Sb  Sb6  1  0.726272  0.335478  0.308838  1
  Sb  Sb7  1  0.273941  0.664675  0.691421  1
  O  O8  1  0.088015  0.433810  0.689413  1
  O  O9  1  0.912737  0.565886  0.310947  1
  O  O10  1  0.607483  0.325157  0.560907  1
  O  O11  1  0.392286  0.675920  0.438896  1
  O  O12  1  0.875066  0.330620  0.061847  1
  O  O13  1  0.123695  0.669395  0.938105  1
  O  O14  1  0.400605  0.429973  0.195646  1
  O  O15  1  0.599973  0.570433  0.804501  1
  O  O16  1  0.041036  0.886216  0.173309  1
  O  O17  1  0.957854  0.112922  0.826374  1
  O  O18  1  0.511800  0.110155  0.321554  1
  O  O19  1  0.488472  0.889694  0.679771  1
  O  O20  1  0.464252  0.188570  0.878992  1
  O  O21  1  0.536129  0.811779  0.119733  1
  O  O22  1  0.995859  0.169486  0.382490  1
  O  O23  1  0.003723  0.830274  0.618152  1
