# generated using pymatgen
data_Sr12Ge12PtAu11
_symmetry_space_group_name_H-M   'P 1'
_cell_length_a   4.66155300
_cell_length_b   8.00161339
_cell_length_c   23.17779000
_cell_angle_alpha   90.01783688
_cell_angle_beta   90.00000000
_cell_angle_gamma   90.00000000
_symmetry_Int_Tables_number   1
_chemical_formula_structural   Sr12Ge12PtAu11
_chemical_formula_sum   'Sr12 Ge12 Pt1 Au11'
_cell_volume   864.53024784
_cell_formula_units_Z   1
loop_
 _symmetry_equiv_pos_site_id
 _symmetry_equiv_pos_as_xyz
  1  'x, y, z'
loop_
 _atom_site_type_symbol
 _atom_site_label
 _atom_site_symmetry_multiplicity
 _atom_site_fract_x
 _atom_site_fract_y
 _atom_site_fract_z
 _atom_site_occupancy
  Sr  Sr0  1  0.750000  0.208269  0.500001  1
  Sr  Sr1  1  0.250000  0.795275  0.166160  1
  Sr  Sr2  1  0.250000  0.790560  0.503500  1
  Sr  Sr3  1  0.250000  0.795868  0.832415  1
  Sr  Sr4  1  0.250000  0.704747  0.333041  1
  Sr  Sr5  1  0.750000  0.202949  0.833273  1
  Sr  Sr6  1  0.750000  0.286396  0.998608  1
  Sr  Sr7  1  0.750000  0.294484  0.666117  1
  Sr  Sr8  1  0.750000  0.295123  0.334311  1
  Sr  Sr9  1  0.250000  0.707913  0.664763  1
  Sr  Sr10  1  0.250000  0.713381  0.001036  1
  Sr  Sr11  1  0.750000  0.205039  0.167224  1
  Ge  Ge12  1  0.250000  0.399964  0.566984  1
  Ge  Ge13  1  0.250000  0.082108  0.393359  1
  Ge  Ge14  1  0.250000  0.089667  0.066966  1
  Ge  Ge15  1  0.250000  0.416536  0.893077  1
  Ge  Ge16  1  0.750000  0.583690  0.106436  1
  Ge  Ge17  1  0.250000  0.417816  0.773918  1
  Ge  Ge18  1  0.750000  0.581487  0.225787  1
  Ge  Ge19  1  0.750000  0.588784  0.434183  1
  Ge  Ge20  1  0.750000  0.910609  0.934046  1
  Ge  Ge21  1  0.250000  0.082091  0.274435  1
  Ge  Ge22  1  0.750000  0.929856  0.606217  1
  Ge  Ge23  1  0.750000  0.917751  0.725444  1
  Pt  Pt24  1  0.250000  0.086543  0.595497  1
  Au  Au25  1  0.250000  0.085430  0.736408  1
  Au  Au26  1  0.750000  0.585340  0.904248  1
  Au  Au27  1  0.750000  0.913059  0.404395  1
  Au  Au28  1  0.750000  0.582142  0.567555  1
  Au  Au29  1  0.750000  0.586340  0.762179  1
  Au  Au30  1  0.250000  0.418279  0.433054  1
  Au  Au31  1  0.250000  0.414128  0.237676  1
  Au  Au32  1  0.750000  0.917306  0.067962  1
  Au  Au33  1  0.250000  0.414199  0.095435  1
  Au  Au34  1  0.250000  0.082647  0.931645  1
  Au  Au35  1  0.750000  0.914225  0.262645  1
