# generated using pymatgen
data_Ca9Nd(NbN5)2
_symmetry_space_group_name_H-M   'P 1'
_cell_length_a   6.98115398
_cell_length_b   6.96383390
_cell_length_c   8.94632106
_cell_angle_alpha   80.76963779
_cell_angle_beta   80.47813609
_cell_angle_gamma   59.85749022
_symmetry_Int_Tables_number   1
_chemical_formula_structural   Ca9Nd(NbN5)2
_chemical_formula_sum   'Ca9 Nd1 Nb2 N10'
_cell_volume   369.40887814
_cell_formula_units_Z   1
loop_
 _symmetry_equiv_pos_site_id
 _symmetry_equiv_pos_as_xyz
  1  'x, y, z'
loop_
 _atom_site_type_symbol
 _atom_site_label
 _atom_site_symmetry_multiplicity
 _atom_site_fract_x
 _atom_site_fract_y
 _atom_site_fract_z
 _atom_site_occupancy
  Ca  Ca0  1  0.871725  0.870538  0.826477  1
  Ca  Ca1  1  0.740471  0.743437  0.519789  1
  Ca  Ca2  1  0.753879  0.248746  0.502264  1
  Ca  Ca3  1  0.623175  0.135110  0.156628  1
  Ca  Ca4  1  0.362683  0.872396  0.837374  1
  Ca  Ca5  1  0.250467  0.754771  0.507022  1
  Ca  Ca6  1  0.244120  0.243831  0.489647  1
  Ca  Ca7  1  0.144086  0.136659  0.168636  1
  Ca  Ca8  1  0.136539  0.626912  0.154149  1
  Nd  Nd9  1  0.879065  0.350300  0.836728  1
  Nb  Nb10  1  0.631064  0.630503  0.221449  1
  Nb  Nb11  1  0.372580  0.367163  0.773101  1
  N  N12  1  0.915555  0.465837  0.320568  1
  N  N13  1  0.990814  0.007309  0.016133  1
  N  N14  1  0.677838  0.684823  0.000161  1
  N  N15  1  0.540861  0.534325  0.694359  1
  N  N16  1  0.465471  0.914245  0.324923  1
  N  N17  1  0.539958  0.084271  0.675002  1
  N  N18  1  0.463961  0.466284  0.300174  1
  N  N19  1  0.316810  0.317795  0.992720  1
  N  N20  1  0.054809  0.071167  0.651180  1
  N  N21  1  0.086359  0.535866  0.677321  1
