# generated using pymatgen
data_Tb9DyPt18
_symmetry_space_group_name_H-M   'P 1'
_cell_length_a   9.81189222
_cell_length_b   9.81189222
_cell_length_c   5.79273500
_cell_angle_alpha   90.00000000
_cell_angle_beta   90.00000000
_cell_angle_gamma   89.97575472
_symmetry_Int_Tables_number   1
_chemical_formula_structural   Tb9DyPt18
_chemical_formula_sum   'Tb9 Dy1 Pt18'
_cell_volume   557.68525285
_cell_formula_units_Z   1
loop_
 _symmetry_equiv_pos_site_id
 _symmetry_equiv_pos_as_xyz
  1  'x, y, z'
loop_
 _atom_site_type_symbol
 _atom_site_label
 _atom_site_symmetry_multiplicity
 _atom_site_fract_x
 _atom_site_fract_y
 _atom_site_fract_z
 _atom_site_occupancy
  Tb  Tb0  1  0.452299  0.808849  0.000000  1
  Tb  Tb1  1  0.547701  0.191151  0.000000  1
  Tb  Tb2  1  0.191151  0.547701  0.000000  1
  Tb  Tb3  1  0.808849  0.452299  0.000000  1
  Tb  Tb4  1  0.500000  0.500000  0.500000  1
  Tb  Tb5  1  0.308793  0.047664  0.500000  1
  Tb  Tb6  1  0.691207  0.952336  0.500000  1
  Tb  Tb7  1  0.952336  0.691207  0.500000  1
  Tb  Tb8  1  0.047664  0.308793  0.500000  1
  Dy  Dy9  1  0.000000  0.000000  0.000000  1
  Pt  Pt10  1  0.191699  0.808301  0.251024  1
  Pt  Pt11  1  0.808301  0.191699  0.748976  1
  Pt  Pt12  1  0.808301  0.191699  0.251024  1
  Pt  Pt13  1  0.191699  0.808301  0.748976  1
  Pt  Pt14  1  0.440106  0.781714  0.500000  1
  Pt  Pt15  1  0.559894  0.218286  0.500000  1
  Pt  Pt16  1  0.218286  0.559894  0.500000  1
  Pt  Pt17  1  0.781714  0.440106  0.500000  1
  Pt  Pt18  1  0.308118  0.308118  0.248791  1
  Pt  Pt19  1  0.691882  0.691882  0.751209  1
  Pt  Pt20  1  0.691882  0.691882  0.248791  1
  Pt  Pt21  1  0.308118  0.308118  0.751209  1
  Pt  Pt22  1  0.281335  0.059825  0.000000  1
  Pt  Pt23  1  0.718665  0.940175  0.000000  1
  Pt  Pt24  1  0.940175  0.718665  0.000000  1
  Pt  Pt25  1  0.059825  0.281335  0.000000  1
  Pt  Pt26  1  0.000000  0.000000  0.500000  1
  Pt  Pt27  1  0.500000  0.500000  0.000000  1
