# generated using pymatgen
data_Tb7Dy3Si5Ge
_symmetry_space_group_name_H-M   'P 1'
_cell_length_a   8.49031100
_cell_length_b   8.49337166
_cell_length_c   6.40847300
_cell_angle_alpha   89.99985344
_cell_angle_beta   89.99973092
_cell_angle_gamma   119.98872729
_symmetry_Int_Tables_number   1
_chemical_formula_structural   Tb7Dy3Si5Ge
_chemical_formula_sum   'Tb7 Dy3 Si5 Ge1'
_cell_volume   400.25635776
_cell_formula_units_Z   1
loop_
 _symmetry_equiv_pos_site_id
 _symmetry_equiv_pos_as_xyz
  1  'x, y, z'
loop_
 _atom_site_type_symbol
 _atom_site_label
 _atom_site_symmetry_multiplicity
 _atom_site_fract_x
 _atom_site_fract_y
 _atom_site_fract_z
 _atom_site_occupancy
  Tb  Tb0  1  0.333129  0.665422  0.499207  1
  Tb  Tb1  1  0.243015  0.000062  0.249940  1
  Tb  Tb2  1  0.243230  0.244627  0.750061  1
  Tb  Tb3  1  0.998475  0.755312  0.750056  1
  Tb  Tb4  1  0.999824  0.243374  0.249939  1
  Tb  Tb5  1  0.756512  0.756565  0.249942  1
  Tb  Tb6  1  0.757687  0.000060  0.750058  1
  Dy  Dy7  1  0.333128  0.665414  0.000803  1
  Dy  Dy8  1  0.667713  0.334585  0.499205  1
  Dy  Dy9  1  0.667713  0.334582  0.000794  1
  Si  Si10  1  0.606153  0.000188  0.249841  1
  Si  Si11  1  0.605934  0.605840  0.750161  1
  Si  Si12  1  0.999723  0.393977  0.750160  1
  Si  Si13  1  0.999916  0.605945  0.249841  1
  Si  Si14  1  0.394159  0.393867  0.249836  1
  Ge  Ge15  1  0.393687  0.000182  0.750156  1
