# generated using pymatgen
data_MoIrSeBr12
_symmetry_space_group_name_H-M   'P 1'
_cell_length_a   9.62412354
_cell_length_b   9.62412359
_cell_length_c   7.12815615
_cell_angle_alpha   70.60881407
_cell_angle_beta   70.60880509
_cell_angle_gamma   80.95474472
_symmetry_Int_Tables_number   1
_chemical_formula_structural   MoIrSeBr12
_chemical_formula_sum   'Mo1 Ir1 Se1 Br12'
_cell_volume   586.63616214
_cell_formula_units_Z   1
loop_
 _symmetry_equiv_pos_site_id
 _symmetry_equiv_pos_as_xyz
  1  'x, y, z'
loop_
 _atom_site_type_symbol
 _atom_site_label
 _atom_site_symmetry_multiplicity
 _atom_site_fract_x
 _atom_site_fract_y
 _atom_site_fract_z
 _atom_site_occupancy
  Mo  Mo0  1  0.238245  0.238245  0.764509  1
  Ir  Ir1  1  0.014034  0.014034  0.985946  1
  Se  Se2  1  0.737999  0.737999  0.259568  1
  Br  Br3  1  0.969463  0.259125  0.737163  1
  Br  Br4  1  0.259125  0.969463  0.737163  1
  Br  Br5  1  0.043875  0.766237  0.234414  1
  Br  Br6  1  0.766237  0.043875  0.234414  1
  Br  Br7  1  0.198540  0.484302  0.806529  1
  Br  Br8  1  0.484302  0.198540  0.806529  1
  Br  Br9  1  0.786440  0.497538  0.208962  1
  Br  Br10  1  0.497538  0.786440  0.208962  1
  Br  Br11  1  0.126346  0.126346  0.170077  1
  Br  Br12  1  0.892146  0.892146  0.827230  1
  Br  Br13  1  0.654049  0.654049  0.636538  1
  Br  Br14  1  0.331663  0.331663  0.381999  1
