# generated using pymatgen
data_HoScP7Ru11Pt
_symmetry_space_group_name_H-M   'P 1'
_cell_length_a   9.31800945
_cell_length_b   9.44298709
_cell_length_c   3.92985100
_cell_angle_alpha   90.00000000
_cell_angle_beta   90.00000000
_cell_angle_gamma   119.24407282
_symmetry_Int_Tables_number   1
_chemical_formula_structural   HoScP7Ru11Pt
_chemical_formula_sum   'Ho1 Sc1 P7 Ru11 Pt1'
_cell_volume   301.71522954
_cell_formula_units_Z   1
loop_
 _symmetry_equiv_pos_site_id
 _symmetry_equiv_pos_as_xyz
  1  'x, y, z'
loop_
 _atom_site_type_symbol
 _atom_site_label
 _atom_site_symmetry_multiplicity
 _atom_site_fract_x
 _atom_site_fract_y
 _atom_site_fract_z
 _atom_site_occupancy
  Ho  Ho0  1  0.328622  0.658240  0.000000  1
  Sc  Sc1  1  0.671761  0.337909  0.500000  1
  P  P2  1  0.598511  0.705288  0.500000  1
  P  P3  1  0.997855  0.000953  0.000000  1
  P  P4  1  0.269856  0.875734  0.500000  1
  P  P5  1  0.118525  0.400751  0.500000  1
  P  P6  1  0.886038  0.577599  0.000000  1
  P  P7  1  0.431248  0.310826  0.000000  1
  P  P8  1  0.703095  0.129345  0.000000  1
  Ru  Ru9  1  0.392643  0.437528  0.500000  1
  Ru  Ru10  1  0.909874  0.127811  0.500000  1
  Ru  Ru11  1  0.210218  0.085891  0.500000  1
  Ru  Ru12  1  0.876916  0.795469  0.500000  1
  Ru  Ru13  1  0.723010  0.894091  0.000000  1
  Ru  Ru14  1  0.111970  0.838841  0.000000  1
  Ru  Ru15  1  0.164103  0.269900  0.000000  1
  Ru  Ru16  1  0.435369  0.072457  0.000000  1
  Ru  Ru17  1  0.935792  0.364834  0.000000  1
  Ru  Ru18  1  0.642830  0.574280  0.000000  1
  Ru  Ru19  1  0.048773  0.606651  0.500000  1
  Pt  Pt20  1  0.542992  0.935605  0.500000  1
