# generated using pymatgen
data_Ag2BiAsF12
_symmetry_space_group_name_H-M   'P 1'
_cell_length_a   5.73691997
_cell_length_b   5.97980692
_cell_length_c   8.48397071
_cell_angle_alpha   94.69550869
_cell_angle_beta   89.14591816
_cell_angle_gamma   90.86201198
_symmetry_Int_Tables_number   1
_chemical_formula_structural   Ag2BiAsF12
_chemical_formula_sum   'Ag2 Bi1 As1 F12'
_cell_volume   290.01138092
_cell_formula_units_Z   1
loop_
 _symmetry_equiv_pos_site_id
 _symmetry_equiv_pos_as_xyz
  1  'x, y, z'
loop_
 _atom_site_type_symbol
 _atom_site_label
 _atom_site_symmetry_multiplicity
 _atom_site_fract_x
 _atom_site_fract_y
 _atom_site_fract_z
 _atom_site_occupancy
  Ag  Ag0  1  0.000000  0.000000  0.000000  1
  Ag  Ag1  1  0.500000  0.500000  0.500000  1
  Bi  Bi2  1  0.000000  0.000000  0.500000  1
  As  As3  1  0.500000  0.500000  0.000000  1
  F  F4  1  0.928045  0.997701  0.753985  1
  F  F5  1  0.195775  0.317156  0.549004  1
  F  F6  1  0.257087  0.649438  0.935606  1
  F  F7  1  0.371353  0.499013  0.190831  1
  F  F8  1  0.354775  0.240130  0.941965  1
  F  F9  1  0.312331  0.800535  0.531982  1
  F  F10  1  0.687669  0.199465  0.468018  1
  F  F11  1  0.645225  0.759870  0.058035  1
  F  F12  1  0.628647  0.500987  0.809169  1
  F  F13  1  0.742913  0.350562  0.064394  1
  F  F14  1  0.804225  0.682844  0.450996  1
  F  F15  1  0.071955  0.002299  0.246015  1
