# generated using pymatgen
data_Rb4YNbBr12
_symmetry_space_group_name_H-M   'P 1'
_cell_length_a   13.65656995
_cell_length_b   13.65650340
_cell_length_c   13.65665700
_cell_angle_alpha   132.03400519
_cell_angle_beta   132.03504650
_cell_angle_gamma   70.17452006
_symmetry_Int_Tables_number   1
_chemical_formula_structural   Rb4YNbBr12
_chemical_formula_sum   'Rb8 Y2 Nb2 Br24'
_cell_volume   1377.28796166
_cell_formula_units_Z   2
loop_
 _symmetry_equiv_pos_site_id
 _symmetry_equiv_pos_as_xyz
  1  'x, y, z'
loop_
 _atom_site_type_symbol
 _atom_site_label
 _atom_site_symmetry_multiplicity
 _atom_site_fract_x
 _atom_site_fract_y
 _atom_site_fract_z
 _atom_site_occupancy
  Rb  Rb0  1  0.374735  0.343064  0.465342  1
  Rb  Rb1  1  0.090607  0.625278  0.968334  1
  Rb  Rb2  1  0.877720  0.909390  0.534660  1
  Rb  Rb3  1  0.093063  0.127737  0.468350  1
  Rb  Rb4  1  0.375265  0.906936  0.034658  1
  Rb  Rb5  1  0.659393  0.624722  0.531666  1
  Rb  Rb6  1  0.656937  0.122263  0.031650  1
  Rb  Rb7  1  0.872280  0.340610  0.965340  1
  Y  Y8  1  0.750005  0.250004  0.500009  1
  Y  Y9  1  0.999995  0.999996  0.999991  1
  Nb  Nb10  1  0.249999  0.750001  0.500004  1
  Nb  Nb11  1  0.500001  0.499999  0.999996  1
  Br  Br12  1  0.019255  0.770755  0.294240  1
  Br  Br13  1  0.021430  0.257605  0.269186  1
  Br  Br14  1  0.274982  0.980741  0.751491  1
  Br  Br15  1  0.007617  0.238424  0.736189  1
  Br  Br16  1  0.136178  0.636178  0.499991  1
  Br  Br17  1  0.273486  0.524982  0.794239  1
  Br  Br18  1  0.476514  0.725018  0.705761  1
  Br  Br19  1  0.502237  0.271427  0.263817  1
  Br  Br20  1  0.475018  0.269259  0.748509  1
  Br  Br21  1  0.613822  0.613822  0.000009  1
  Br  Br22  1  0.520751  0.726504  0.251485  1
  Br  Br23  1  0.125942  0.125943  0.999998  1
  Br  Br24  1  0.874059  0.874060  0.000003  1
  Br  Br25  1  0.988422  0.752238  0.730812  1
  Br  Br26  1  0.742383  0.011576  0.763811  1
  Br  Br27  1  0.247763  0.978573  0.236183  1
  Br  Br28  1  0.730745  0.479245  0.205760  1
  Br  Br29  1  0.229249  0.523496  0.248515  1
  Br  Br30  1  0.363818  0.863815  0.500007  1
  Br  Br31  1  0.875941  0.375940  0.499997  1
  Br  Br32  1  0.386182  0.386185  0.999993  1
  Br  Br33  1  0.624058  0.124057  0.500002  1
  Br  Br34  1  0.761578  0.497762  0.769188  1
  Br  Br35  1  0.728570  0.992395  0.230814  1
