# generated using pymatgen
data_Cs6Cr(InBr6)3
_symmetry_space_group_name_H-M   'P 1'
_cell_length_a   7.92142500
_cell_length_b   7.92142450
_cell_length_c   20.15184900
_cell_angle_alpha   90.00000000
_cell_angle_beta   90.00000000
_cell_angle_gamma   119.99999790
_symmetry_Int_Tables_number   1
_chemical_formula_structural   Cs6Cr(InBr6)3
_chemical_formula_sum   'Cs6 Cr1 In3 Br18'
_cell_volume   1095.09587565
_cell_formula_units_Z   1
loop_
 _symmetry_equiv_pos_site_id
 _symmetry_equiv_pos_as_xyz
  1  'x, y, z'
loop_
 _atom_site_type_symbol
 _atom_site_label
 _atom_site_symmetry_multiplicity
 _atom_site_fract_x
 _atom_site_fract_y
 _atom_site_fract_z
 _atom_site_occupancy
  Cs  Cs0  1  0.666667  0.333333  0.929814  1
  Cs  Cs1  1  0.333333  0.666667  0.431002  1
  Cs  Cs2  1  0.666667  0.333333  0.568210  1
  Cs  Cs3  1  0.333333  0.666667  0.066766  1
  Cs  Cs4  1  0.000000  0.000000  0.751717  1
  Cs  Cs5  1  0.000000  0.000000  0.249660  1
  Cr  Cr6  1  0.333333  0.666667  0.837381  1
  In  In7  1  0.333333  0.666667  0.658611  1
  In  In8  1  0.666667  0.333333  0.156191  1
  In  In9  1  0.666667  0.333333  0.343444  1
  Br  Br10  1  0.831642  0.663282  0.409710  1
  Br  Br11  1  0.182455  0.364912  0.904353  1
  Br  Br12  1  0.182455  0.817545  0.904353  1
  Br  Br13  1  0.168650  0.337301  0.592117  1
  Br  Br14  1  0.635088  0.817545  0.904353  1
  Br  Br15  1  0.336718  0.168358  0.409710  1
  Br  Br16  1  0.035093  0.517546  0.755873  1
  Br  Br17  1  0.831642  0.168358  0.409710  1
  Br  Br18  1  0.512199  0.024398  0.250073  1
  Br  Br19  1  0.482454  0.517546  0.755873  1
  Br  Br20  1  0.512199  0.487801  0.250073  1
  Br  Br21  1  0.975602  0.487801  0.250073  1
  Br  Br22  1  0.336522  0.168261  0.090275  1
  Br  Br23  1  0.482454  0.964907  0.755873  1
  Br  Br24  1  0.831739  0.663478  0.090275  1
  Br  Br25  1  0.168650  0.831350  0.592117  1
  Br  Br26  1  0.662699  0.831350  0.592117  1
  Br  Br27  1  0.831739  0.168261  0.090275  1
