# generated using pymatgen
data_HfZr2ReMo2P3
_symmetry_space_group_name_H-M   'P 1'
_cell_length_a   6.89610500
_cell_length_b   6.93984371
_cell_length_c   3.43592500
_cell_angle_alpha   90.00000000
_cell_angle_beta   90.00000000
_cell_angle_gamma   119.79173618
_symmetry_Int_Tables_number   1
_chemical_formula_structural   HfZr2ReMo2P3
_chemical_formula_sum   'Hf1 Zr2 Re1 Mo2 P3'
_cell_volume   142.70377263
_cell_formula_units_Z   1
loop_
 _symmetry_equiv_pos_site_id
 _symmetry_equiv_pos_as_xyz
  1  'x, y, z'
loop_
 _atom_site_type_symbol
 _atom_site_label
 _atom_site_symmetry_multiplicity
 _atom_site_fract_x
 _atom_site_fract_y
 _atom_site_fract_z
 _atom_site_occupancy
  Hf  Hf0  1  0.596199  0.000000  0.500000  1
  Zr  Zr1  1  0.998284  0.594007  0.500000  1
  Zr  Zr2  1  0.404278  0.405993  0.500000  1
  Re  Re3  1  0.253435  0.000000  0.000000  1
  Mo  Mo4  1  0.749165  0.749538  0.000000  1
  Mo  Mo5  1  0.999627  0.250462  0.000000  1
  P  P6  1  0.665387  0.330319  0.000000  1
  P  P7  1  0.335068  0.669681  0.000000  1
  P  P8  1  0.998560  0.000000  0.500000  1
