# generated using pymatgen
data_K4CrReP4
_symmetry_space_group_name_H-M   'P 1'
_cell_length_a   8.03038551
_cell_length_b   8.03038572
_cell_length_c   8.03038635
_cell_angle_alpha   137.00814008
_cell_angle_beta   127.48065146
_cell_angle_gamma   70.12653097
_symmetry_Int_Tables_number   1
_chemical_formula_structural   K4CrReP4
_chemical_formula_sum   'K4 Cr1 Re1 P4'
_cell_volume   274.88382385
_cell_formula_units_Z   1
loop_
 _symmetry_equiv_pos_site_id
 _symmetry_equiv_pos_as_xyz
  1  'x, y, z'
loop_
 _atom_site_type_symbol
 _atom_site_label
 _atom_site_symmetry_multiplicity
 _atom_site_fract_x
 _atom_site_fract_y
 _atom_site_fract_z
 _atom_site_occupancy
  K  K0  1  0.308922  0.150868  0.158017  1
  K  K1  1  0.691078  0.849094  0.841945  1
  K  K2  1  0.007150  0.349132  0.658055  1
  K  K3  1  0.992850  0.650906  0.341983  1
  Cr  Cr4  1  0.500000  0.250000  0.750000  1
  Re  Re5  1  0.500000  0.750000  0.250000  1
  P  P6  1  0.422514  0.586846  0.820250  1
  P  P7  1  0.233404  0.913154  0.335667  1
  P  P8  1  0.766596  0.102263  0.679750  1
  P  P9  1  0.577486  0.397737  0.164333  1
