# generated using pymatgen
data_PrHoEr(Si3Pd10)2
_symmetry_space_group_name_H-M   'P 1'
_cell_length_a   8.73788268
_cell_length_b   8.73788289
_cell_length_c   8.73788200
_cell_angle_alpha   59.99999582
_cell_angle_beta   59.99999502
_cell_angle_gamma   59.99999310
_symmetry_Int_Tables_number   1
_chemical_formula_structural   PrHoEr(Si3Pd10)2
_chemical_formula_sum   'Pr1 Ho1 Er1 Si6 Pd20'
_cell_volume   471.74092521
_cell_formula_units_Z   1
loop_
 _symmetry_equiv_pos_site_id
 _symmetry_equiv_pos_as_xyz
  1  'x, y, z'
loop_
 _atom_site_type_symbol
 _atom_site_label
 _atom_site_symmetry_multiplicity
 _atom_site_fract_x
 _atom_site_fract_y
 _atom_site_fract_z
 _atom_site_occupancy
  Pr  Pr0  1  0.250000  0.250000  0.250000  1
  Ho  Ho1  1  0.000000  0.000000  0.000000  1
  Er  Er2  1  0.750000  0.750000  0.750000  1
  Si  Si3  1  0.733033  0.266967  0.266967  1
  Si  Si4  1  0.266967  0.733033  0.733033  1
  Si  Si5  1  0.266967  0.733033  0.266967  1
  Si  Si6  1  0.733033  0.266967  0.733033  1
  Si  Si7  1  0.266967  0.266967  0.733033  1
  Si  Si8  1  0.733033  0.733033  0.266967  1
  Pd  Pd9  1  0.386206  0.386206  0.386206  1
  Pd  Pd10  1  0.617376  0.617376  0.617376  1
  Pd  Pd11  1  0.386206  0.386206  0.841383  1
  Pd  Pd12  1  0.386206  0.841383  0.386206  1
  Pd  Pd13  1  0.617376  0.617376  0.147870  1
  Pd  Pd14  1  0.617376  0.147870  0.617376  1
  Pd  Pd15  1  0.841383  0.386206  0.386206  1
  Pd  Pd16  1  0.147870  0.617376  0.617376  1
  Pd  Pd17  1  0.346453  0.998846  0.998846  1
  Pd  Pd18  1  0.655856  0.998846  0.998846  1
  Pd  Pd19  1  0.998846  0.346453  0.655856  1
  Pd  Pd20  1  0.998846  0.655856  0.346453  1
  Pd  Pd21  1  0.998846  0.346453  0.998846  1
  Pd  Pd22  1  0.655856  0.998846  0.346453  1
  Pd  Pd23  1  0.998846  0.655856  0.998846  1
  Pd  Pd24  1  0.346453  0.998846  0.655856  1
  Pd  Pd25  1  0.998846  0.998846  0.346453  1
  Pd  Pd26  1  0.998846  0.998846  0.655856  1
  Pd  Pd27  1  0.655856  0.346453  0.998846  1
  Pd  Pd28  1  0.346453  0.655856  0.998846  1
