# generated using pymatgen
data_Dy2Ga9TcNi2
_symmetry_space_group_name_H-M   'P 1'
_cell_length_a   7.49281193
_cell_length_b   7.49281523
_cell_length_c   9.51133400
_cell_angle_alpha   90.00000000
_cell_angle_beta   90.00000000
_cell_angle_gamma   120.14939378
_symmetry_Int_Tables_number   1
_chemical_formula_structural   Dy2Ga9TcNi2
_chemical_formula_sum   'Dy4 Ga18 Tc2 Ni4'
_cell_volume   461.74921537
_cell_formula_units_Z   2
loop_
 _symmetry_equiv_pos_site_id
 _symmetry_equiv_pos_as_xyz
  1  'x, y, z'
loop_
 _atom_site_type_symbol
 _atom_site_label
 _atom_site_symmetry_multiplicity
 _atom_site_fract_x
 _atom_site_fract_y
 _atom_site_fract_z
 _atom_site_occupancy
  Dy  Dy0  1  0.337438  0.003992  0.748848  1
  Dy  Dy1  1  0.662562  0.996008  0.248848  1
  Dy  Dy2  1  0.003992  0.337438  0.751152  1
  Dy  Dy3  1  0.996008  0.662562  0.251152  1
  Ga  Ga4  1  0.887059  0.887060  0.750000  1
  Ga  Ga5  1  0.112941  0.112940  0.250000  1
  Ga  Ga6  1  0.665126  0.668350  0.440070  1
  Ga  Ga7  1  0.334874  0.331650  0.940070  1
  Ga  Ga8  1  0.668350  0.665126  0.059930  1
  Ga  Ga9  1  0.331650  0.334874  0.559930  1
  Ga  Ga10  1  0.453391  0.665007  0.751443  1
  Ga  Ga11  1  0.546609  0.334993  0.251443  1
  Ga  Ga12  1  0.665006  0.453391  0.748557  1
  Ga  Ga13  1  0.334994  0.546609  0.248557  1
  Ga  Ga14  1  0.009171  0.331074  0.075753  1
  Ga  Ga15  1  0.990829  0.668926  0.575753  1
  Ga  Ga16  1  0.331074  0.009171  0.424247  1
  Ga  Ga17  1  0.668926  0.990829  0.924247  1
  Ga  Ga18  1  0.005856  0.670825  0.926559  1
  Ga  Ga19  1  0.994144  0.329175  0.426559  1
  Ga  Ga20  1  0.670825  0.005856  0.573441  1
  Ga  Ga21  1  0.329175  0.994144  0.073441  1
  Tc  Tc22  1  0.323827  0.676172  0.500000  1
  Tc  Tc23  1  0.676173  0.323828  0.000000  1
  Ni  Ni24  1  0.999424  0.000575  0.500000  1
  Ni  Ni25  1  0.000576  0.999425  0.000000  1
  Ni  Ni26  1  0.669094  0.330905  0.500000  1
  Ni  Ni27  1  0.330906  0.669095  0.000000  1
