# generated using pymatgen
data_Hf4GaTc24
_symmetry_space_group_name_H-M   'P 1'
_cell_length_a   8.38305823
_cell_length_b   8.38305950
_cell_length_c   8.38305900
_cell_angle_alpha   109.47121942
_cell_angle_beta   109.47122251
_cell_angle_gamma   109.47122593
_symmetry_Int_Tables_number   1
_chemical_formula_structural   Hf4GaTc24
_chemical_formula_sum   'Hf4 Ga1 Tc24'
_cell_volume   453.50870912
_cell_formula_units_Z   1
loop_
 _symmetry_equiv_pos_site_id
 _symmetry_equiv_pos_as_xyz
  1  'x, y, z'
loop_
 _atom_site_type_symbol
 _atom_site_label
 _atom_site_symmetry_multiplicity
 _atom_site_fract_x
 _atom_site_fract_y
 _atom_site_fract_z
 _atom_site_occupancy
  Hf  Hf0  1  0.629718  0.000000  0.000000  1
  Hf  Hf1  1  0.000000  0.629718  0.000000  1
  Hf  Hf2  1  0.000000  0.000000  0.629718  1
  Hf  Hf3  1  0.370282  0.370282  0.370282  1
  Ga  Ga4  1  0.000000  0.000000  0.000000  1
  Tc  Tc5  1  0.392169  0.673320  0.000000  1
  Tc  Tc6  1  0.718849  0.326680  0.326680  1
  Tc  Tc7  1  0.392169  0.000000  0.673320  1
  Tc  Tc8  1  0.673320  0.392169  0.000000  1
  Tc  Tc9  1  0.000000  0.392169  0.673320  1
  Tc  Tc10  1  0.326680  0.718849  0.326680  1
  Tc  Tc11  1  0.326680  0.326680  0.718849  1
  Tc  Tc12  1  0.000000  0.673320  0.392169  1
  Tc  Tc13  1  0.673320  0.000000  0.392169  1
  Tc  Tc14  1  0.607831  0.607831  0.281151  1
  Tc  Tc15  1  0.281151  0.607831  0.607831  1
  Tc  Tc16  1  0.607831  0.281151  0.607831  1
  Tc  Tc17  1  0.373127  0.193163  0.000000  1
  Tc  Tc18  1  0.179964  0.806837  0.806837  1
  Tc  Tc19  1  0.373127  0.000000  0.193163  1
  Tc  Tc20  1  0.193163  0.373127  0.000000  1
  Tc  Tc21  1  0.000000  0.373127  0.193163  1
  Tc  Tc22  1  0.806837  0.179964  0.806837  1
  Tc  Tc23  1  0.806837  0.806837  0.179964  1
  Tc  Tc24  1  0.000000  0.193163  0.373127  1
  Tc  Tc25  1  0.193163  0.000000  0.373127  1
  Tc  Tc26  1  0.626873  0.626873  0.820036  1
  Tc  Tc27  1  0.820036  0.626873  0.626873  1
  Tc  Tc28  1  0.626873  0.820036  0.626873  1
