# generated using pymatgen
data_SmLu3ScSb3
_symmetry_space_group_name_H-M   'P 1'
_cell_length_a   7.95790100
_cell_length_b   9.12696300
_cell_length_c   11.69646800
_cell_angle_alpha   90.00000000
_cell_angle_beta   90.00000000
_cell_angle_gamma   90.00000000
_symmetry_Int_Tables_number   1
_chemical_formula_structural   SmLu3ScSb3
_chemical_formula_sum   'Sm4 Lu12 Sc4 Sb12'
_cell_volume   849.53164108
_cell_formula_units_Z   4
loop_
 _symmetry_equiv_pos_site_id
 _symmetry_equiv_pos_as_xyz
  1  'x, y, z'
loop_
 _atom_site_type_symbol
 _atom_site_label
 _atom_site_symmetry_multiplicity
 _atom_site_fract_x
 _atom_site_fract_y
 _atom_site_fract_z
 _atom_site_occupancy
  Sm  Sm0  1  0.183323  0.750000  0.721581  1
  Sm  Sm1  1  0.683323  0.750000  0.778419  1
  Sm  Sm2  1  0.816677  0.250000  0.278419  1
  Sm  Sm3  1  0.316677  0.250000  0.221581  1
  Lu  Lu4  1  0.196603  0.563004  0.439013  1
  Lu  Lu5  1  0.696603  0.936996  0.060987  1
  Lu  Lu6  1  0.803397  0.063004  0.560987  1
  Lu  Lu7  1  0.303397  0.436996  0.939013  1
  Lu  Lu8  1  0.803397  0.436996  0.560987  1
  Lu  Lu9  1  0.303397  0.063004  0.939013  1
  Lu  Lu10  1  0.196603  0.936996  0.439013  1
  Lu  Lu11  1  0.696603  0.563004  0.060987  1
  Lu  Lu12  1  0.854719  0.750000  0.283641  1
  Lu  Lu13  1  0.354719  0.750000  0.216359  1
  Lu  Lu14  1  0.145281  0.250000  0.716359  1
  Lu  Lu15  1  0.645281  0.250000  0.783641  1
  Sc  Sc16  1  0.027887  0.750000  0.989244  1
  Sc  Sc17  1  0.527887  0.750000  0.510756  1
  Sc  Sc18  1  0.972113  0.250000  0.010756  1
  Sc  Sc19  1  0.472113  0.250000  0.489244  1
  Sb  Sb20  1  0.934002  0.491811  0.832540  1
  Sb  Sb21  1  0.434002  0.008189  0.667460  1
  Sb  Sb22  1  0.065998  0.991811  0.167460  1
  Sb  Sb23  1  0.565998  0.508189  0.332540  1
  Sb  Sb24  1  0.065998  0.508189  0.167460  1
  Sb  Sb25  1  0.565998  0.991811  0.332540  1
  Sb  Sb26  1  0.934002  0.008189  0.832540  1
  Sb  Sb27  1  0.434002  0.491811  0.667460  1
  Sb  Sb28  1  0.905605  0.750000  0.536580  1
  Sb  Sb29  1  0.405605  0.750000  0.963420  1
  Sb  Sb30  1  0.094395  0.250000  0.463420  1
  Sb  Sb31  1  0.594395  0.250000  0.036580  1
