# generated using pymatgen
data_Y15Th(AlPt)4
_symmetry_space_group_name_H-M   'P 1'
_cell_length_a   9.64824169
_cell_length_b   9.64824254
_cell_length_c   9.64824198
_cell_angle_alpha   60.29488707
_cell_angle_beta   60.29488012
_cell_angle_gamma   60.29488773
_symmetry_Int_Tables_number   1
_chemical_formula_structural   Y15Th(AlPt)4
_chemical_formula_sum   'Y15 Th1 Al4 Pt4'
_cell_volume   639.31971726
_cell_formula_units_Z   1
loop_
 _symmetry_equiv_pos_site_id
 _symmetry_equiv_pos_as_xyz
  1  'x, y, z'
loop_
 _atom_site_type_symbol
 _atom_site_label
 _atom_site_symmetry_multiplicity
 _atom_site_fract_x
 _atom_site_fract_y
 _atom_site_fract_z
 _atom_site_occupancy
  Y  Y0  1  0.355069  0.355069  0.933611  1
  Y  Y1  1  0.355069  0.933611  0.355069  1
  Y  Y2  1  0.933611  0.355069  0.355069  1
  Y  Y3  1  0.808552  0.192994  0.192994  1
  Y  Y4  1  0.197205  0.805871  0.805871  1
  Y  Y5  1  0.192994  0.808552  0.192994  1
  Y  Y6  1  0.805871  0.197205  0.805871  1
  Y  Y7  1  0.192994  0.192994  0.808552  1
  Y  Y8  1  0.805871  0.805871  0.197205  1
  Y  Y9  1  0.935089  0.565069  0.565069  1
  Y  Y10  1  0.564333  0.936179  0.936179  1
  Y  Y11  1  0.565069  0.935089  0.565069  1
  Y  Y12  1  0.936179  0.564333  0.936179  1
  Y  Y13  1  0.565069  0.565069  0.935089  1
  Y  Y14  1  0.936179  0.936179  0.564333  1
  Th  Th15  1  0.351142  0.351142  0.351142  1
  Al  Al16  1  0.580285  0.580285  0.580285  1
  Al  Al17  1  0.578290  0.578290  0.265428  1
  Al  Al18  1  0.578290  0.265428  0.578290  1
  Al  Al19  1  0.265428  0.578290  0.578290  1
  Pt  Pt20  1  0.144308  0.144308  0.144308  1
  Pt  Pt21  1  0.141349  0.141349  0.570403  1
  Pt  Pt22  1  0.141349  0.570403  0.141349  1
  Pt  Pt23  1  0.570403  0.141349  0.141349  1
