# generated using pymatgen
data_Y9ErCd4(InPd)4
_symmetry_space_group_name_H-M   'P 1'
_cell_length_a   3.63314900
_cell_length_b   8.10748942
_cell_length_c   18.41203401
_cell_angle_alpha   90.03734250
_cell_angle_beta   90.00000000
_cell_angle_gamma   90.00000000
_symmetry_Int_Tables_number   1
_chemical_formula_structural   Y9ErCd4(InPd)4
_chemical_formula_sum   'Y9 Er1 Cd4 In4 Pd4'
_cell_volume   542.33954922
_cell_formula_units_Z   1
loop_
 _symmetry_equiv_pos_site_id
 _symmetry_equiv_pos_as_xyz
  1  'x, y, z'
loop_
 _atom_site_type_symbol
 _atom_site_label
 _atom_site_symmetry_multiplicity
 _atom_site_fract_x
 _atom_site_fract_y
 _atom_site_fract_z
 _atom_site_occupancy
  Y  Y0  1  0.000000  0.499374  0.499605  1
  Y  Y1  1  0.000000  0.000078  0.000114  1
  Y  Y2  1  0.000000  0.745381  0.282414  1
  Y  Y3  1  0.000000  0.254454  0.717781  1
  Y  Y4  1  0.000000  0.754323  0.781612  1
  Y  Y5  1  0.000000  0.245772  0.218387  1
  Y  Y6  1  0.000000  0.615131  0.084091  1
  Y  Y7  1  0.000000  0.385083  0.916074  1
  Y  Y8  1  0.000000  0.885096  0.583456  1
  Er  Er9  1  0.000000  0.113970  0.415135  1
  Cd  Cd10  1  0.500000  0.709173  0.931841  1
  Cd  Cd11  1  0.500000  0.290975  0.068403  1
  Cd  Cd12  1  0.500000  0.792897  0.432310  1
  Cd  Cd13  1  0.500000  0.208228  0.567069  1
  In  In14  1  0.500000  0.573108  0.647560  1
  In  In15  1  0.500000  0.425170  0.352444  1
  In  In16  1  0.500000  0.926879  0.148366  1
  In  In17  1  0.500000  0.073144  0.852131  1
  Pd  Pd18  1  0.500000  0.528532  0.197457  1
  Pd  Pd19  1  0.500000  0.471732  0.802617  1
  Pd  Pd20  1  0.500000  0.971677  0.697079  1
  Pd  Pd21  1  0.500000  0.029824  0.304055  1
