# generated using pymatgen
data_Sc2Sb2PdRh
_symmetry_space_group_name_H-M   'P 1'
_cell_length_a   7.70663033
_cell_length_b   7.70663108
_cell_length_c   7.70663000
_cell_angle_alpha   33.70391901
_cell_angle_beta   33.70392409
_cell_angle_gamma   33.70391921
_symmetry_Int_Tables_number   1
_chemical_formula_structural   Sc2Sb2PdRh
_chemical_formula_sum   'Sc2 Sb2 Pd1 Rh1'
_cell_volume   125.56627998
_cell_formula_units_Z   1
loop_
 _symmetry_equiv_pos_site_id
 _symmetry_equiv_pos_as_xyz
  1  'x, y, z'
loop_
 _atom_site_type_symbol
 _atom_site_label
 _atom_site_symmetry_multiplicity
 _atom_site_fract_x
 _atom_site_fract_y
 _atom_site_fract_z
 _atom_site_occupancy
  Sc  Sc0  1  0.251685  0.251685  0.251685  1
  Sc  Sc1  1  0.748010  0.748010  0.748010  1
  Sb  Sb2  1  0.001451  0.001451  0.001451  1
  Sb  Sb3  1  0.499025  0.499025  0.499025  1
  Pd  Pd4  1  0.875778  0.875778  0.875778  1
  Rh  Rh5  1  0.374053  0.374053  0.374053  1
