# generated using pymatgen
data_Er4Al22Ga2Pt7Rh2
_symmetry_space_group_name_H-M   'P 1'
_cell_length_a   7.49020032
_cell_length_b   7.48837825
_cell_length_c   13.19354477
_cell_angle_alpha   84.54480653
_cell_angle_beta   100.82625771
_cell_angle_gamma   119.65664887
_symmetry_Int_Tables_number   1
_chemical_formula_structural   Er4Al22Ga2Pt7Rh2
_chemical_formula_sum   'Er4 Al22 Ga2 Pt7 Rh2'
_cell_volume   631.63282159
_cell_formula_units_Z   1
loop_
 _symmetry_equiv_pos_site_id
 _symmetry_equiv_pos_as_xyz
  1  'x, y, z'
loop_
 _atom_site_type_symbol
 _atom_site_label
 _atom_site_symmetry_multiplicity
 _atom_site_fract_x
 _atom_site_fract_y
 _atom_site_fract_z
 _atom_site_occupancy
  Er  Er0  1  0.736183  0.998704  0.190967  1
  Er  Er1  1  0.264281  0.002928  0.808820  1
  Er  Er2  1  0.061193  0.671607  0.191546  1
  Er  Er3  1  0.937547  0.327656  0.808600  1
  Al  Al4  1  0.986041  0.669101  0.946649  1
  Al  Al5  1  0.020551  0.334864  0.052987  1
  Al  Al6  1  0.393808  0.665086  0.819474  1
  Al  Al7  1  0.601978  0.334460  0.182732  1
  Al  Al8  1  0.882524  0.664711  0.672168  1
  Al  Al9  1  0.118656  0.334996  0.327269  1
  Al  Al10  1  0.604332  0.458724  0.816902  1
  Al  Al11  1  0.395384  0.545892  0.181021  1
  Al  Al12  1  0.231602  0.341181  0.670351  1
  Al  Al13  1  0.768741  0.658789  0.329633  1
  Al  Al14  1  0.854025  0.333825  0.558705  1
  Al  Al15  1  0.186768  0.999645  0.559056  1
  Al  Al16  1  0.814333  0.999519  0.440875  1
  Al  Al17  1  0.348790  0.996301  0.053378  1
  Al  Al18  1  0.647515  0.997223  0.947123  1
  Al  Al19  1  0.555966  0.991698  0.672473  1
  Al  Al20  1  0.444416  0.006937  0.327898  1
  Al  Al21  1  0.522362  0.669417  0.560717  1
  Al  Al22  1  0.478331  0.330296  0.439219  1
  Al  Al23  1  0.682506  0.671074  0.044591  1
  Al  Al24  1  0.313540  0.332529  0.955344  1
  Al  Al25  1  0.146630  0.665004  0.441249  1
  Ga  Ga26  1  0.805311  0.866055  0.818323  1
  Ga  Ga27  1  0.194828  0.133368  0.181727  1
  Pt  Pt28  1  0.546948  0.324941  0.637719  1
  Pt  Pt29  1  0.453817  0.673995  0.362272  1
  Pt  Pt30  1  0.888247  0.008913  0.636760  1
  Pt  Pt31  1  0.112532  0.990642  0.363163  1
  Pt  Pt32  1  0.671367  0.328983  0.999801  1
  Pt  Pt33  1  0.204734  0.667340  0.638618  1
  Pt  Pt34  1  0.796065  0.331970  0.361309  1
  Rh  Rh35  1  0.328653  0.671501  0.000400  1
  Rh  Rh36  1  0.999500  0.000124  0.000164  1
