# generated using pymatgen
data_YbScAlSe4
_symmetry_space_group_name_H-M   'P 1'
_cell_length_a   14.32604500
_cell_length_b   8.11025200
_cell_length_c   6.51176500
_cell_angle_alpha   90.00000000
_cell_angle_beta   90.00000000
_cell_angle_gamma   90.00000000
_symmetry_Int_Tables_number   1
_chemical_formula_structural   YbScAlSe4
_chemical_formula_sum   'Yb4 Sc4 Al4 Se16'
_cell_volume   756.58787812
_cell_formula_units_Z   4
loop_
 _symmetry_equiv_pos_site_id
 _symmetry_equiv_pos_as_xyz
  1  'x, y, z'
loop_
 _atom_site_type_symbol
 _atom_site_label
 _atom_site_symmetry_multiplicity
 _atom_site_fract_x
 _atom_site_fract_y
 _atom_site_fract_z
 _atom_site_occupancy
  Yb  Yb0  1  0.738212  0.750001  0.006333  1
  Yb  Yb1  1  0.238212  0.750001  0.493667  1
  Yb  Yb2  1  0.761788  0.250000  0.506333  1
  Yb  Yb3  1  0.261788  0.250000  0.993666  1
  Sc  Sc4  1  0.000000  0.000000  0.000000  1
  Sc  Sc5  1  0.000000  0.499999  0.000000  1
  Sc  Sc6  1  0.500000  0.000000  0.500000  1
  Sc  Sc7  1  0.500000  0.499999  0.500000  1
  Al  Al8  1  0.580261  0.250000  0.101436  1
  Al  Al9  1  0.080261  0.250000  0.398564  1
  Al  Al10  1  0.919739  0.750001  0.601437  1
  Al  Al11  1  0.419739  0.750001  0.898564  1
  Se  Se12  1  0.917651  0.750001  0.232058  1
  Se  Se13  1  0.153782  0.013930  0.244872  1
  Se  Se14  1  0.153782  0.486070  0.244872  1
  Se  Se15  1  0.928307  0.250000  0.234438  1
  Se  Se16  1  0.428307  0.250000  0.265562  1
  Se  Se17  1  0.653782  0.013930  0.255128  1
  Se  Se18  1  0.653782  0.486070  0.255128  1
  Se  Se19  1  0.417650  0.750001  0.267941  1
  Se  Se20  1  0.582349  0.250000  0.732058  1
  Se  Se21  1  0.346218  0.513931  0.744872  1
  Se  Se22  1  0.346218  0.986069  0.744872  1
  Se  Se23  1  0.571693  0.750001  0.734437  1
  Se  Se24  1  0.071693  0.750001  0.765562  1
  Se  Se25  1  0.846218  0.513931  0.755127  1
  Se  Se26  1  0.846218  0.986069  0.755127  1
  Se  Se27  1  0.082350  0.250000  0.767941  1
