# generated using pymatgen
data_RbBaMoN3
_symmetry_space_group_name_H-M   'P 1'
_cell_length_a   6.84153083
_cell_length_b   6.84153002
_cell_length_c   13.38987100
_cell_angle_alpha   90.00000000
_cell_angle_beta   90.00000000
_cell_angle_gamma   126.31681630
_symmetry_Int_Tables_number   1
_chemical_formula_structural   RbBaMoN3
_chemical_formula_sum   'Rb4 Ba4 Mo4 N12'
_cell_volume   504.99334337
_cell_formula_units_Z   4
loop_
 _symmetry_equiv_pos_site_id
 _symmetry_equiv_pos_as_xyz
  1  'x, y, z'
loop_
 _atom_site_type_symbol
 _atom_site_label
 _atom_site_symmetry_multiplicity
 _atom_site_fract_x
 _atom_site_fract_y
 _atom_site_fract_z
 _atom_site_occupancy
  Rb  Rb0  1  0.543671  0.456329  0.640003  1
  Rb  Rb1  1  0.456329  0.543671  0.359997  1
  Rb  Rb2  1  0.956329  0.043671  0.140003  1
  Rb  Rb3  1  0.043671  0.956329  0.859997  1
  Ba  Ba4  1  0.855579  0.144421  0.581424  1
  Ba  Ba5  1  0.144421  0.855579  0.418576  1
  Ba  Ba6  1  0.644421  0.355579  0.081424  1
  Ba  Ba7  1  0.355579  0.644421  0.918576  1
  Mo  Mo8  1  0.728183  0.271817  0.832688  1
  Mo  Mo9  1  0.271817  0.728183  0.167312  1
  Mo  Mo10  1  0.771817  0.228183  0.332688  1
  Mo  Mo11  1  0.228183  0.771817  0.667312  1
  N  N12  1  0.814912  0.185088  0.943064  1
  N  N13  1  0.185088  0.814912  0.056936  1
  N  N14  1  0.685088  0.314912  0.443064  1
  N  N15  1  0.314912  0.685088  0.556936  1
  N  N16  1  0.586483  0.413517  0.876393  1
  N  N17  1  0.413517  0.586483  0.123607  1
  N  N18  1  0.913517  0.086483  0.376393  1
  N  N19  1  0.086483  0.913517  0.623607  1
  N  N20  1  0.513358  0.986642  0.750000  1
  N  N21  1  0.986642  0.513358  0.250000  1
  N  N22  1  0.486642  0.013358  0.250000  1
  N  N23  1  0.013358  0.486642  0.750000  1
