# generated using pymatgen
data_NdHf2Zr(NiAs)4
_symmetry_space_group_name_H-M   'P 1'
_cell_length_a   3.98650900
_cell_length_b   3.98650919
_cell_length_c   14.70463200
_cell_angle_alpha   90.00000000
_cell_angle_beta   90.00000000
_cell_angle_gamma   120.00000670
_symmetry_Int_Tables_number   1
_chemical_formula_structural   NdHf2Zr(NiAs)4
_chemical_formula_sum   'Nd1 Hf2 Zr1 Ni4 As4'
_cell_volume   202.38125346
_cell_formula_units_Z   1
loop_
 _symmetry_equiv_pos_site_id
 _symmetry_equiv_pos_as_xyz
  1  'x, y, z'
loop_
 _atom_site_type_symbol
 _atom_site_label
 _atom_site_symmetry_multiplicity
 _atom_site_fract_x
 _atom_site_fract_y
 _atom_site_fract_z
 _atom_site_occupancy
  Nd  Nd0  1  0.000000  0.000000  0.500000  1
  Hf  Hf1  1  0.000000  0.000000  0.242617  1
  Hf  Hf2  1  0.000000  0.000000  0.757383  1
  Zr  Zr3  1  0.000000  0.000000  0.000000  1
  Ni  Ni4  1  0.333333  0.666667  0.143731  1
  Ni  Ni5  1  0.666667  0.333333  0.856269  1
  Ni  Ni6  1  0.666667  0.333333  0.671310  1
  Ni  Ni7  1  0.333333  0.666667  0.328690  1
  As  As8  1  0.333333  0.666667  0.631924  1
  As  As9  1  0.666667  0.333333  0.368076  1
  As  As10  1  0.666667  0.333333  0.111517  1
  As  As11  1  0.333333  0.666667  0.888483  1
