# generated using pymatgen
data_LiYbCuS2
_symmetry_space_group_name_H-M   'P 1'
_cell_length_a   3.94253700
_cell_length_b   3.94253881
_cell_length_c   6.43144200
_cell_angle_alpha   90.00000000
_cell_angle_beta   90.00000000
_cell_angle_gamma   119.99999319
_symmetry_Int_Tables_number   1
_chemical_formula_structural   LiYbCuS2
_chemical_formula_sum   'Li1 Yb1 Cu1 S2'
_cell_volume   86.57465589
_cell_formula_units_Z   1
loop_
 _symmetry_equiv_pos_site_id
 _symmetry_equiv_pos_as_xyz
  1  'x, y, z'
loop_
 _atom_site_type_symbol
 _atom_site_label
 _atom_site_symmetry_multiplicity
 _atom_site_fract_x
 _atom_site_fract_y
 _atom_site_fract_z
 _atom_site_occupancy
  Li  Li0  1  0.666667  0.333333  0.625349  1
  Yb  Yb1  1  0.000000  0.000000  0.005687  1
  Cu  Cu2  1  0.333333  0.666667  0.366760  1
  S  S3  1  0.666667  0.333333  0.255955  1
  S  S4  1  0.333333  0.666667  0.746249  1
