# generated using pymatgen
data_Tb5Lu(Al3Ru)8
_symmetry_space_group_name_H-M   'P 1'
_cell_length_a   8.80536676
_cell_length_b   8.81344364
_cell_length_c   9.60535900
_cell_angle_alpha   90.00000000
_cell_angle_beta   90.00000000
_cell_angle_gamma   120.03034780
_symmetry_Int_Tables_number   1
_chemical_formula_structural   Tb5Lu(Al3Ru)8
_chemical_formula_sum   'Tb5 Lu1 Al24 Ru8'
_cell_volume   645.36353702
_cell_formula_units_Z   1
loop_
 _symmetry_equiv_pos_site_id
 _symmetry_equiv_pos_as_xyz
  1  'x, y, z'
loop_
 _atom_site_type_symbol
 _atom_site_label
 _atom_site_symmetry_multiplicity
 _atom_site_fract_x
 _atom_site_fract_y
 _atom_site_fract_z
 _atom_site_occupancy
  Tb  Tb0  1  0.193356  0.806682  0.250000  1
  Tb  Tb1  1  0.193356  0.386675  0.250000  1
  Tb  Tb2  1  0.612863  0.806432  0.250000  1
  Tb  Tb3  1  0.806668  0.193378  0.750000  1
  Tb  Tb4  1  0.806668  0.613289  0.750000  1
  Lu  Lu5  1  0.390310  0.195154  0.750000  1
  Al  Al6  1  0.561684  0.438281  0.250000  1
  Al  Al7  1  0.561684  0.123403  0.250000  1
  Al  Al8  1  0.876146  0.438073  0.250000  1
  Al  Al9  1  0.437975  0.560054  0.750000  1
  Al  Al10  1  0.437975  0.877921  0.750000  1
  Al  Al11  1  0.124059  0.562030  0.750000  1
  Al  Al12  1  0.325531  0.162766  0.423860  1
  Al  Al13  1  0.837089  0.162778  0.423475  1
  Al  Al14  1  0.837089  0.674311  0.423475  1
  Al  Al15  1  0.674121  0.837060  0.577711  1
  Al  Al16  1  0.163238  0.838296  0.577356  1
  Al  Al17  1  0.163238  0.324942  0.577356  1
  Al  Al18  1  0.674121  0.837060  0.922289  1
  Al  Al19  1  0.163238  0.838296  0.922644  1
  Al  Al20  1  0.163238  0.324942  0.922644  1
  Al  Al21  1  0.325531  0.162766  0.076140  1
  Al  Al22  1  0.837089  0.162778  0.076525  1
  Al  Al23  1  0.837089  0.674311  0.076525  1
  Al  Al24  1  0.665428  0.332714  0.515992  1
  Al  Al25  1  0.333666  0.666834  0.485095  1
  Al  Al26  1  0.333666  0.666834  0.014905  1
  Al  Al27  1  0.665428  0.332714  0.984008  1
  Al  Al28  1  0.000241  0.000121  0.250000  1
  Al  Al29  1  0.002366  0.001183  0.750000  1
  Ru  Ru30  1  0.999573  0.999787  0.500030  1
  Ru  Ru31  1  0.999573  0.999787  0.999970  1
  Ru  Ru32  1  0.499466  0.498881  0.500751  1
  Ru  Ru33  1  0.499466  0.000585  0.500751  1
  Ru  Ru34  1  0.999419  0.499709  0.500411  1
  Ru  Ru35  1  0.499466  0.498881  0.999249  1
  Ru  Ru36  1  0.499466  0.000585  0.999249  1
  Ru  Ru37  1  0.999419  0.499709  0.999589  1
