# generated using pymatgen
data_Tb3Tm2CoRuO12
_symmetry_space_group_name_H-M   'P 1'
_cell_length_a   6.78493811
_cell_length_b   6.77761828
_cell_length_c   7.23190915
_cell_angle_alpha   74.47245840
_cell_angle_beta   74.48323349
_cell_angle_gamma   50.82651688
_symmetry_Int_Tables_number   1
_chemical_formula_structural   Tb3Tm2CoRuO12
_chemical_formula_sum   'Tb3 Tm2 Co1 Ru1 O12'
_cell_volume   246.24063269
_cell_formula_units_Z   1
loop_
 _symmetry_equiv_pos_site_id
 _symmetry_equiv_pos_as_xyz
  1  'x, y, z'
loop_
 _atom_site_type_symbol
 _atom_site_label
 _atom_site_symmetry_multiplicity
 _atom_site_fract_x
 _atom_site_fract_y
 _atom_site_fract_z
 _atom_site_occupancy
  Tb  Tb0  1  0.994299  0.005054  0.000061  1
  Tb  Tb1  1  0.286396  0.321990  0.857045  1
  Tb  Tb2  1  0.305005  0.313922  0.332528  1
  Tm  Tm3  1  0.685691  0.694285  0.669182  1
  Tm  Tm4  1  0.678189  0.712965  0.141854  1
  Co  Co5  1  0.261538  0.739759  0.499747  1
  Ru  Ru6  1  0.771941  0.229286  0.499786  1
  O  O7  1  0.401917  0.909178  0.920810  1
  O  O8  1  0.580834  0.099054  0.582339  1
  O  O9  1  0.893967  0.426346  0.418244  1
  O  O10  1  0.080449  0.604305  0.079979  1
  O  O11  1  0.018516  0.983467  0.324465  1
  O  O12  1  0.505981  0.496983  0.682467  1
  O  O13  1  0.888156  0.411118  0.928386  1
  O  O14  1  0.092610  0.573441  0.582086  1
  O  O15  1  0.435844  0.896760  0.418154  1
  O  O16  1  0.594559  0.102148  0.071828  1
  O  O17  1  0.505693  0.496973  0.316285  1
  O  O18  1  0.018416  0.982967  0.674754  1
