# generated using pymatgen
data_Hf8TaTcNi2
_symmetry_space_group_name_H-M   'P 1'
_cell_length_a   8.70472147
_cell_length_b   8.70472135
_cell_length_c   8.68209900
_cell_angle_alpha   60.08593622
_cell_angle_beta   60.08593666
_cell_angle_gamma   60.37863258
_symmetry_Int_Tables_number   1
_chemical_formula_structural   Hf8TaTcNi2
_chemical_formula_sum   'Hf16 Ta2 Tc2 Ni4'
_cell_volume   467.10334407
_cell_formula_units_Z   2
loop_
 _symmetry_equiv_pos_site_id
 _symmetry_equiv_pos_as_xyz
  1  'x, y, z'
loop_
 _atom_site_type_symbol
 _atom_site_label
 _atom_site_symmetry_multiplicity
 _atom_site_fract_x
 _atom_site_fract_y
 _atom_site_fract_z
 _atom_site_occupancy
  Hf  Hf0  1  0.694141  0.102693  0.101583  1
  Hf  Hf1  1  0.102693  0.694141  0.101583  1
  Hf  Hf2  1  0.102741  0.102741  0.693964  1
  Hf  Hf3  1  0.102741  0.102741  0.100554  1
  Hf  Hf4  1  0.315132  0.315132  0.684868  1
  Hf  Hf5  1  0.684977  0.684977  0.315023  1
  Hf  Hf6  1  0.314765  0.681246  0.315232  1
  Hf  Hf7  1  0.681246  0.314765  0.688756  1
  Hf  Hf8  1  0.681246  0.314765  0.315232  1
  Hf  Hf9  1  0.314765  0.681246  0.688756  1
  Hf  Hf10  1  0.951683  0.951683  0.548317  1
  Hf  Hf11  1  0.546416  0.546416  0.953584  1
  Hf  Hf12  1  0.950760  0.549560  0.949748  1
  Hf  Hf13  1  0.549560  0.950760  0.549933  1
  Hf  Hf14  1  0.549560  0.950760  0.949748  1
  Hf  Hf15  1  0.950760  0.549560  0.549933  1
  Ta  Ta16  1  0.005913  0.333850  0.330117  1
  Ta  Ta17  1  0.333850  0.005913  0.330117  1
  Tc  Tc18  1  0.334975  0.334975  0.994596  1
  Tc  Tc19  1  0.334975  0.334975  0.335451  1
  Ni  Ni20  1  0.324575  0.889955  0.892735  1
  Ni  Ni21  1  0.889955  0.324575  0.892735  1
  Ni  Ni22  1  0.891285  0.891285  0.323879  1
  Ni  Ni23  1  0.891285  0.891285  0.893552  1
