# generated using pymatgen
data_BaYbZnSb2
_symmetry_space_group_name_H-M   'P 1'
_cell_length_a   4.64270934
_cell_length_b   7.24880200
_cell_length_c   9.46317000
_cell_angle_alpha   90.00000000
_cell_angle_beta   75.80020229
_cell_angle_gamma   90.00000000
_symmetry_Int_Tables_number   1
_chemical_formula_structural   BaYbZnSb2
_chemical_formula_sum   'Ba2 Yb2 Zn2 Sb4'
_cell_volume   308.74369263
_cell_formula_units_Z   2
loop_
 _symmetry_equiv_pos_site_id
 _symmetry_equiv_pos_as_xyz
  1  'x, y, z'
loop_
 _atom_site_type_symbol
 _atom_site_label
 _atom_site_symmetry_multiplicity
 _atom_site_fract_x
 _atom_site_fract_y
 _atom_site_fract_z
 _atom_site_occupancy
  Ba  Ba0  1  0.298038  0.514752  0.403927  1
  Ba  Ba1  1  0.701962  0.014751  0.596073  1
  Yb  Yb2  1  0.485595  0.237674  0.028813  1
  Yb  Yb3  1  0.514405  0.737675  0.971187  1
  Zn  Zn4  1  0.912553  0.893495  0.174893  1
  Zn  Zn5  1  0.087447  0.393495  0.825106  1
  Sb  Sb6  1  0.940219  0.513726  0.119560  1
  Sb  Sb7  1  0.343154  0.996214  0.313693  1
  Sb  Sb8  1  0.656847  0.496214  0.686306  1
  Sb  Sb9  1  0.059782  0.013725  0.880439  1
