# generated using pymatgen
data_Ho2TmLu9Co4
_symmetry_space_group_name_H-M   'P 1'
_cell_length_a   6.10912871
_cell_length_b   6.84826324
_cell_length_c   9.12284000
_cell_angle_alpha   90.00000000
_cell_angle_beta   90.00000000
_cell_angle_gamma   90.14811507
_symmetry_Int_Tables_number   1
_chemical_formula_structural   Ho2TmLu9Co4
_chemical_formula_sum   'Ho2 Tm1 Lu9 Co4'
_cell_volume   381.67026652
_cell_formula_units_Z   1
loop_
 _symmetry_equiv_pos_site_id
 _symmetry_equiv_pos_as_xyz
  1  'x, y, z'
loop_
 _atom_site_type_symbol
 _atom_site_label
 _atom_site_symmetry_multiplicity
 _atom_site_fract_x
 _atom_site_fract_y
 _atom_site_fract_z
 _atom_site_occupancy
  Ho  Ho0  1  0.866551  0.541498  0.250000  1
  Ho  Ho1  1  0.134510  0.458298  0.750000  1
  Tm  Tm2  1  0.633966  0.040270  0.250000  1
  Lu  Lu3  1  0.325064  0.676875  0.065765  1
  Lu  Lu4  1  0.175904  0.174605  0.434019  1
  Lu  Lu5  1  0.674888  0.323263  0.566223  1
  Lu  Lu6  1  0.823790  0.825115  0.933299  1
  Lu  Lu7  1  0.674888  0.323263  0.933777  1
  Lu  Lu8  1  0.823790  0.825115  0.566701  1
  Lu  Lu9  1  0.325064  0.676875  0.434235  1
  Lu  Lu10  1  0.175904  0.174605  0.065981  1
  Lu  Lu11  1  0.365375  0.959716  0.750000  1
  Co  Co12  1  0.046329  0.888254  0.250000  1
  Co  Co13  1  0.453340  0.387320  0.250000  1
  Co  Co14  1  0.954753  0.111421  0.750000  1
  Co  Co15  1  0.545882  0.613507  0.750000  1
