# generated using pymatgen
data_DyHo3B8OsRu3
_symmetry_space_group_name_H-M   'P 1'
_cell_length_a   5.31717100
_cell_length_b   5.90443078
_cell_length_c   6.35547912
_cell_angle_alpha   89.73558988
_cell_angle_beta   90.00000000
_cell_angle_gamma   90.00000000
_symmetry_Int_Tables_number   1
_chemical_formula_structural   DyHo3B8OsRu3
_chemical_formula_sum   'Dy1 Ho3 B8 Os1 Ru3'
_cell_volume   199.52730384
_cell_formula_units_Z   1
loop_
 _symmetry_equiv_pos_site_id
 _symmetry_equiv_pos_as_xyz
  1  'x, y, z'
loop_
 _atom_site_type_symbol
 _atom_site_label
 _atom_site_symmetry_multiplicity
 _atom_site_fract_x
 _atom_site_fract_y
 _atom_site_fract_z
 _atom_site_occupancy
  Dy  Dy0  1  0.250000  0.510509  0.836282  1
  Ho  Ho1  1  0.250000  0.011228  0.664567  1
  Ho  Ho2  1  0.750000  0.489187  0.162662  1
  Ho  Ho3  1  0.750000  0.989008  0.336032  1
  B  B4  1  0.082855  0.867232  0.039676  1
  B  B5  1  0.415914  0.368296  0.462362  1
  B  B6  1  0.584578  0.131536  0.962341  1
  B  B7  1  0.916536  0.632652  0.537431  1
  B  B8  1  0.915422  0.131536  0.962341  1
  B  B9  1  0.583464  0.632652  0.537431  1
  B  B10  1  0.417145  0.867232  0.039676  1
  B  B11  1  0.084086  0.368296  0.462362  1
  Os  Os12  1  0.250000  0.681045  0.317383  1
  Ru  Ru13  1  0.250000  0.181224  0.181558  1
  Ru  Ru14  1  0.750000  0.318971  0.680384  1
  Ru  Ru15  1  0.750000  0.819394  0.817513  1
