# generated using pymatgen
data_Dy3HoLu4(B6Ir)4
_symmetry_space_group_name_H-M   'P 1'
_cell_length_a   3.61051000
_cell_length_b   9.10945800
_cell_length_c   11.47620000
_cell_angle_alpha   90.00121920
_cell_angle_beta   90.00000000
_cell_angle_gamma   90.00000000
_symmetry_Int_Tables_number   1
_chemical_formula_structural   Dy3HoLu4(B6Ir)4
_chemical_formula_sum   'Dy3 Ho1 Lu4 B24 Ir4'
_cell_volume   377.44979900
_cell_formula_units_Z   1
loop_
 _symmetry_equiv_pos_site_id
 _symmetry_equiv_pos_as_xyz
  1  'x, y, z'
loop_
 _atom_site_type_symbol
 _atom_site_label
 _atom_site_symmetry_multiplicity
 _atom_site_fract_x
 _atom_site_fract_y
 _atom_site_fract_z
 _atom_site_occupancy
  Dy  Dy0  1  0.500000  0.321620  0.413592  1
  Dy  Dy1  1  0.500000  0.678395  0.586403  1
  Dy  Dy2  1  0.500000  0.178410  0.913610  1
  Ho  Ho3  1  0.500000  0.821474  0.086317  1
  Lu  Lu4  1  0.500000  0.444657  0.125558  1
  Lu  Lu5  1  0.500000  0.555435  0.874505  1
  Lu  Lu6  1  0.500000  0.055349  0.625599  1
  Lu  Lu7  1  0.500000  0.944613  0.374386  1
  B  B8  1  0.000000  0.105978  0.471306  1
  B  B9  1  0.000000  0.893984  0.528680  1
  B  B10  1  0.000000  0.393924  0.971291  1
  B  B11  1  0.000000  0.606416  0.028803  1
  B  B12  1  0.000000  0.131603  0.316808  1
  B  B13  1  0.000000  0.868352  0.683170  1
  B  B14  1  0.000000  0.368408  0.816896  1
  B  B15  1  0.000000  0.631824  0.182995  1
  B  B16  1  0.000000  0.054141  0.066228  1
  B  B17  1  0.000000  0.945488  0.933951  1
  B  B18  1  0.000000  0.445639  0.566310  1
  B  B19  1  0.000000  0.554403  0.433663  1
  B  B20  1  0.000000  0.482449  0.286159  1
  B  B21  1  0.000000  0.517668  0.713860  1
  B  B22  1  0.000000  0.017575  0.786232  1
  B  B23  1  0.000000  0.982127  0.213643  1
  B  B24  1  0.000000  0.251344  0.079948  1
  B  B25  1  0.000000  0.748708  0.920311  1
  B  B26  1  0.000000  0.248623  0.579943  1
  B  B27  1  0.000000  0.751391  0.420016  1
  B  B28  1  0.000000  0.294479  0.234976  1
  B  B29  1  0.000000  0.705532  0.765092  1
  B  B30  1  0.000000  0.205464  0.735054  1
  B  B31  1  0.000000  0.794611  0.264735  1
  Ir  Ir32  1  0.500000  0.139395  0.179966  1
  Ir  Ir33  1  0.500000  0.860313  0.820098  1
  Ir  Ir34  1  0.500000  0.360212  0.680234  1
  Ir  Ir35  1  0.500000  0.639996  0.319665  1
