# generated using pymatgen
data_Zr7ScTi(In2Co)7
_symmetry_space_group_name_H-M   'P 1'
_cell_length_a   9.43588155
_cell_length_b   9.44409564
_cell_length_c   9.43588200
_cell_angle_alpha   60.02876567
_cell_angle_beta   59.99999842
_cell_angle_gamma   60.02876822
_symmetry_Int_Tables_number   1
_chemical_formula_structural   Zr7ScTi(In2Co)7
_chemical_formula_sum   'Zr7 Sc1 Ti1 In14 Co7'
_cell_volume   594.83847984
_cell_formula_units_Z   1
loop_
 _symmetry_equiv_pos_site_id
 _symmetry_equiv_pos_as_xyz
  1  'x, y, z'
loop_
 _atom_site_type_symbol
 _atom_site_label
 _atom_site_symmetry_multiplicity
 _atom_site_fract_x
 _atom_site_fract_y
 _atom_site_fract_z
 _atom_site_occupancy
  Zr  Zr0  1  0.363306  0.877067  0.879813  1
  Zr  Zr1  1  0.879813  0.877067  0.879813  1
  Zr  Zr2  1  0.634680  0.120098  0.122612  1
  Zr  Zr3  1  0.879813  0.877067  0.363306  1
  Zr  Zr4  1  0.122612  0.120098  0.122612  1
  Zr  Zr5  1  0.879214  0.362356  0.879214  1
  Zr  Zr6  1  0.122612  0.120098  0.634680  1
  Sc  Sc7  1  0.501058  0.496825  0.501058  1
  Ti  Ti8  1  0.114666  0.656004  0.114666  1
  In  In9  1  0.502049  0.837859  0.158043  1
  In  In10  1  0.502049  0.837859  0.502049  1
  In  In11  1  0.499745  0.157006  0.499745  1
  In  In12  1  0.497072  0.499202  0.845022  1
  In  In13  1  0.158703  0.499202  0.497072  1
  In  In14  1  0.843505  0.157006  0.499745  1
  In  In15  1  0.158043  0.837859  0.502049  1
  In  In16  1  0.499745  0.157006  0.843505  1
  In  In17  1  0.158703  0.499202  0.845022  1
  In  In18  1  0.497072  0.499202  0.158703  1
  In  In19  1  0.845022  0.499202  0.497072  1
  In  In20  1  0.845022  0.499202  0.158703  1
  In  In21  1  0.242263  0.273212  0.242263  1
  In  In22  1  0.750296  0.749112  0.750296  1
  Co  Co23  1  0.787882  0.778670  0.216724  1
  Co  Co24  1  0.000692  0.997924  0.000692  1
  Co  Co25  1  0.216724  0.778670  0.216724  1
  Co  Co26  1  0.216724  0.778670  0.787882  1
  Co  Co27  1  0.218779  0.219086  0.781067  1
  Co  Co28  1  0.781067  0.219086  0.781067  1
  Co  Co29  1  0.781067  0.219086  0.218779  1
