# generated using pymatgen
data_Er3In3CoAg2
_symmetry_space_group_name_H-M   'P 1'
_cell_length_a   7.95561700
_cell_length_b   7.95561725
_cell_length_c   3.62973000
_cell_angle_alpha   90.00000000
_cell_angle_beta   90.00000000
_cell_angle_gamma   119.99999481
_symmetry_Int_Tables_number   1
_chemical_formula_structural   Er3In3CoAg2
_chemical_formula_sum   'Er3 In3 Co1 Ag2'
_cell_volume   198.95402199
_cell_formula_units_Z   1
loop_
 _symmetry_equiv_pos_site_id
 _symmetry_equiv_pos_as_xyz
  1  'x, y, z'
loop_
 _atom_site_type_symbol
 _atom_site_label
 _atom_site_symmetry_multiplicity
 _atom_site_fract_x
 _atom_site_fract_y
 _atom_site_fract_z
 _atom_site_occupancy
  Er  Er0  1  0.040038  0.616627  0.500000  1
  Er  Er1  1  0.383373  0.423413  0.500000  1
  Er  Er2  1  0.576587  0.959962  0.500000  1
  In  In3  1  0.279390  0.005734  0.000000  1
  In  In4  1  0.726344  0.720610  0.000000  1
  In  In5  1  0.994266  0.273656  0.000000  1
  Co  Co6  1  0.333333  0.666667  0.000000  1
  Ag  Ag7  1  0.666667  0.333333  0.000000  1
  Ag  Ag8  1  0.000000  0.000000  0.500000  1
