# generated using pymatgen
data_Fe4ReP4W3
_symmetry_space_group_name_H-M   'P 1'
_cell_length_a   3.73468100
_cell_length_b   5.83279240
_cell_length_c   6.69121570
_cell_angle_alpha   90.23907442
_cell_angle_beta   90.00000000
_cell_angle_gamma   90.00000000
_symmetry_Int_Tables_number   1
_chemical_formula_structural   Fe4ReP4W3
_chemical_formula_sum   'Fe4 Re1 P4 W3'
_cell_volume   145.75762438
_cell_formula_units_Z   1
loop_
 _symmetry_equiv_pos_site_id
 _symmetry_equiv_pos_as_xyz
  1  'x, y, z'
loop_
 _atom_site_type_symbol
 _atom_site_label
 _atom_site_symmetry_multiplicity
 _atom_site_fract_x
 _atom_site_fract_y
 _atom_site_fract_z
 _atom_site_occupancy
  Fe  Fe0  1  0.250000  0.861162  0.932548  1
  Fe  Fe1  1  0.250000  0.361225  0.565266  1
  Fe  Fe2  1  0.750000  0.140291  0.066225  1
  Fe  Fe3  1  0.750000  0.639104  0.433575  1
  Re  Re4  1  0.250000  0.965970  0.331212  1
  P  P5  1  0.250000  0.230981  0.877194  1
  P  P6  1  0.250000  0.732193  0.618189  1
  P  P7  1  0.750000  0.772274  0.125262  1
  P  P8  1  0.750000  0.265346  0.378505  1
  W  W9  1  0.250000  0.473797  0.173253  1
  W  W10  1  0.750000  0.029036  0.669658  1
  W  W11  1  0.750000  0.528622  0.829113  1
