# generated using pymatgen
data_NaPr5YIrBr12
_symmetry_space_group_name_H-M   'P 1'
_cell_length_a   9.58170135
_cell_length_b   9.62642836
_cell_length_c   9.54579405
_cell_angle_alpha   107.28174925
_cell_angle_beta   107.10703769
_cell_angle_gamma   106.55484915
_symmetry_Int_Tables_number   1
_chemical_formula_structural   NaPr5YIrBr12
_chemical_formula_sum   'Na1 Pr5 Y1 Ir1 Br12'
_cell_volume   733.62343227
_cell_formula_units_Z   1
loop_
 _symmetry_equiv_pos_site_id
 _symmetry_equiv_pos_as_xyz
  1  'x, y, z'
loop_
 _atom_site_type_symbol
 _atom_site_label
 _atom_site_symmetry_multiplicity
 _atom_site_fract_x
 _atom_site_fract_y
 _atom_site_fract_z
 _atom_site_occupancy
  Na  Na0  1  0.500137  0.499596  0.500404  1
  Pr  Pr1  1  0.114140  0.328638  0.029848  1
  Pr  Pr2  1  0.315519  0.027462  0.109701  1
  Pr  Pr3  1  0.028725  0.107813  0.317132  1
  Pr  Pr4  1  0.969587  0.886719  0.680501  1
  Pr  Pr5  1  0.683977  0.972701  0.890086  1
  Y  Y6  1  0.888128  0.679551  0.969676  1
  Ir  Ir7  1  0.999115  0.999090  0.998451  1
  Br  Br8  1  0.206995  0.682934  0.070849  1
  Br  Br9  1  0.452450  0.369010  0.153530  1
  Br  Br10  1  0.683484  0.074358  0.220457  1
  Br  Br11  1  0.923824  0.774421  0.306056  1
  Br  Br12  1  0.153417  0.451558  0.371582  1
  Br  Br13  1  0.371273  0.153737  0.454331  1
  Br  Br14  1  0.628429  0.845437  0.545268  1
  Br  Br15  1  0.847372  0.547514  0.640209  1
  Br  Br16  1  0.073323  0.217057  0.682110  1
  Br  Br17  1  0.316348  0.924896  0.779030  1
  Br  Br18  1  0.560026  0.630563  0.852835  1
  Br  Br19  1  0.783736  0.326947  0.927950  1
