# generated using pymatgen
data_Tb10Dy2TcRu3
_symmetry_space_group_name_H-M   'P 1'
_cell_length_a   6.32448996
_cell_length_b   7.35963618
_cell_length_c   9.26676531
_cell_angle_alpha   89.98833035
_cell_angle_beta   89.94030626
_cell_angle_gamma   90.02179036
_symmetry_Int_Tables_number   1
_chemical_formula_structural   Tb10Dy2TcRu3
_chemical_formula_sum   'Tb10 Dy2 Tc1 Ru3'
_cell_volume   431.33007519
_cell_formula_units_Z   1
loop_
 _symmetry_equiv_pos_site_id
 _symmetry_equiv_pos_as_xyz
  1  'x, y, z'
loop_
 _atom_site_type_symbol
 _atom_site_label
 _atom_site_symmetry_multiplicity
 _atom_site_fract_x
 _atom_site_fract_y
 _atom_site_fract_z
 _atom_site_occupancy
  Tb  Tb0  1  0.669324  0.323662  0.565010  1
  Tb  Tb1  1  0.833246  0.824449  0.936405  1
  Tb  Tb2  1  0.669120  0.323913  0.934990  1
  Tb  Tb3  1  0.833418  0.824679  0.563582  1
  Tb  Tb4  1  0.331745  0.676033  0.434506  1
  Tb  Tb5  1  0.168674  0.176134  0.065254  1
  Tb  Tb6  1  0.866044  0.540502  0.249976  1
  Tb  Tb7  1  0.629919  0.042214  0.250033  1
  Tb  Tb8  1  0.136401  0.457105  0.750025  1
  Tb  Tb9  1  0.364309  0.957732  0.749973  1
  Dy  Dy10  1  0.331918  0.675825  0.065439  1
  Dy  Dy11  1  0.168581  0.176066  0.434821  1
  Tc  Tc12  1  0.039524  0.886635  0.249954  1
  Ru  Ru13  1  0.459104  0.385561  0.250008  1
  Ru  Ru14  1  0.958561  0.115514  0.749798  1
  Ru  Ru15  1  0.540112  0.613974  0.750225  1
