# generated using pymatgen
data_NdY5TiCo17P12
_symmetry_space_group_name_H-M   'P 1'
_cell_length_a   3.70987800
_cell_length_b   10.58738600
_cell_length_c   12.26923900
_cell_angle_alpha   90.00000000
_cell_angle_beta   90.00000000
_cell_angle_gamma   90.00000000
_symmetry_Int_Tables_number   1
_chemical_formula_structural   NdY5TiCo17P12
_chemical_formula_sum   'Nd1 Y5 Ti1 Co17 P12'
_cell_volume   481.91007010
_cell_formula_units_Z   1
loop_
 _symmetry_equiv_pos_site_id
 _symmetry_equiv_pos_as_xyz
  1  'x, y, z'
loop_
 _atom_site_type_symbol
 _atom_site_label
 _atom_site_symmetry_multiplicity
 _atom_site_fract_x
 _atom_site_fract_y
 _atom_site_fract_z
 _atom_site_occupancy
  Nd  Nd0  1  0.000000  0.500000  0.522559  1
  Y  Y1  1  0.500000  0.000000  0.475687  1
  Y  Y2  1  0.500000  0.818158  0.203628  1
  Y  Y3  1  0.500000  0.181842  0.203628  1
  Y  Y4  1  0.000000  0.681055  0.794310  1
  Y  Y5  1  0.000000  0.318945  0.794310  1
  Ti  Ti6  1  0.000000  0.000000  0.848871  1
  Co  Co7  1  0.500000  0.500000  0.158094  1
  Co  Co8  1  0.500000  0.500000  0.705528  1
  Co  Co9  1  0.000000  0.000000  0.297033  1
  Co  Co10  1  0.000000  0.500000  0.986880  1
  Co  Co11  1  0.500000  0.000000  0.013880  1
  Co  Co12  1  0.500000  0.335232  0.995686  1
  Co  Co13  1  0.500000  0.664768  0.995686  1
  Co  Co14  1  0.000000  0.169443  0.007742  1
  Co  Co15  1  0.000000  0.830557  0.007742  1
  Co  Co16  1  0.500000  0.294323  0.429557  1
  Co  Co17  1  0.500000  0.705677  0.429557  1
  Co  Co18  1  0.000000  0.202094  0.568515  1
  Co  Co19  1  0.000000  0.797906  0.568515  1
  Co  Co20  1  0.500000  0.879316  0.708697  1
  Co  Co21  1  0.500000  0.120684  0.708697  1
  Co  Co22  1  0.000000  0.620552  0.289676  1
  Co  Co23  1  0.000000  0.379448  0.289676  1
  P  P24  1  0.500000  0.500000  0.884068  1
  P  P25  1  0.000000  0.000000  0.117506  1
  P  P26  1  0.500000  0.500000  0.339550  1
  P  P27  1  0.000000  0.000000  0.648387  1
  P  P28  1  0.500000  0.307269  0.615863  1
  P  P29  1  0.500000  0.692731  0.615863  1
  P  P30  1  0.000000  0.189694  0.383029  1
  P  P31  1  0.000000  0.810306  0.383029  1
  P  P32  1  0.500000  0.841747  0.895976  1
  P  P33  1  0.500000  0.158253  0.895976  1
  P  P34  1  0.000000  0.650670  0.108299  1
  P  P35  1  0.000000  0.349330  0.108299  1
