# generated using pymatgen
data_CePrSn5
_symmetry_space_group_name_H-M   'P 1'
_cell_length_a   17.47106525
_cell_length_b   17.47106522
_cell_length_c   4.61591800
_cell_angle_alpha   90.00000000
_cell_angle_beta   90.00000000
_cell_angle_gamma   164.24190217
_symmetry_Int_Tables_number   1
_chemical_formula_structural   CePrSn5
_chemical_formula_sum   'Ce2 Pr2 Sn10'
_cell_volume   382.63879679
_cell_formula_units_Z   2
loop_
 _symmetry_equiv_pos_site_id
 _symmetry_equiv_pos_as_xyz
  1  'x, y, z'
loop_
 _atom_site_type_symbol
 _atom_site_label
 _atom_site_symmetry_multiplicity
 _atom_site_fract_x
 _atom_site_fract_y
 _atom_site_fract_z
 _atom_site_occupancy
  Ce  Ce0  1  0.931806  0.068194  0.500000  1
  Ce  Ce1  1  0.068194  0.931806  0.500000  1
  Pr  Pr2  1  0.798090  0.201910  0.500000  1
  Pr  Pr3  1  0.201910  0.798090  0.500000  1
  Sn  Sn4  1  0.637031  0.362969  0.500000  1
  Sn  Sn5  1  0.362969  0.637031  0.500000  1
  Sn  Sn6  1  0.720601  0.279399  0.000000  1
  Sn  Sn7  1  0.279399  0.720601  0.000000  1
  Sn  Sn8  1  0.500000  0.500000  0.500000  1
  Sn  Sn9  1  0.570084  0.429916  0.000000  1
  Sn  Sn10  1  0.429916  0.570084  0.000000  1
  Sn  Sn11  1  0.864176  0.135824  0.000000  1
  Sn  Sn12  1  0.135824  0.864176  0.000000  1
  Sn  Sn13  1  0.000000  0.000000  0.000000  1
