# generated using pymatgen
data_Tb5DyLuRh3
_symmetry_space_group_name_H-M   'P 1'
_cell_length_a   9.81344200
_cell_length_b   9.81318008
_cell_length_c   6.16658704
_cell_angle_alpha   89.98908536
_cell_angle_beta   90.00000000
_cell_angle_gamma   120.00088967
_symmetry_Int_Tables_number   1
_chemical_formula_structural   Tb5DyLuRh3
_chemical_formula_sum   'Tb10 Dy2 Lu2 Rh6'
_cell_volume   514.28365520
_cell_formula_units_Z   2
loop_
 _symmetry_equiv_pos_site_id
 _symmetry_equiv_pos_as_xyz
  1  'x, y, z'
loop_
 _atom_site_type_symbol
 _atom_site_label
 _atom_site_symmetry_multiplicity
 _atom_site_fract_x
 _atom_site_fract_y
 _atom_site_fract_z
 _atom_site_occupancy
  Tb  Tb0  1  0.876040  0.752080  0.741288  1
  Tb  Tb1  1  0.247903  0.123960  0.741289  1
  Tb  Tb2  1  0.876057  0.123960  0.741289  1
  Tb  Tb3  1  0.123950  0.247900  0.241260  1
  Tb  Tb4  1  0.752102  0.876032  0.241259  1
  Tb  Tb5  1  0.123930  0.876032  0.241259  1
  Tb  Tb6  1  0.459029  0.918061  0.546994  1
  Tb  Tb7  1  0.081917  0.540949  0.546983  1
  Tb  Tb8  1  0.459031  0.540949  0.546983  1
  Tb  Tb9  1  0.541031  0.082061  0.047007  1
  Dy  Dy10  1  0.917942  0.458996  0.047101  1
  Dy  Dy11  1  0.541056  0.458996  0.047101  1
  Lu  Lu12  1  0.666682  0.333364  0.533378  1
  Lu  Lu13  1  0.333318  0.666637  0.033457  1
  Rh  Rh14  1  0.190868  0.381734  0.814191  1
  Rh  Rh15  1  0.618288  0.809108  0.814190  1
  Rh  Rh16  1  0.190823  0.809108  0.814190  1
  Rh  Rh17  1  0.809092  0.618185  0.314015  1
  Rh  Rh18  1  0.381760  0.190945  0.314102  1
  Rh  Rh19  1  0.809183  0.190945  0.314102  1
