# generated using pymatgen
data_K2US6
_symmetry_space_group_name_H-M   'P 1'
_cell_length_a   5.38542300
_cell_length_b   5.38542300
_cell_length_c   16.06510300
_cell_angle_alpha   90.00000000
_cell_angle_beta   90.00000000
_cell_angle_gamma   90.00000000
_symmetry_Int_Tables_number   1
_chemical_formula_structural   K2US6
_chemical_formula_sum   'K4 U2 S12'
_cell_volume   465.93266227
_cell_formula_units_Z   2
loop_
 _symmetry_equiv_pos_site_id
 _symmetry_equiv_pos_as_xyz
  1  'x, y, z'
loop_
 _atom_site_type_symbol
 _atom_site_label
 _atom_site_symmetry_multiplicity
 _atom_site_fract_x
 _atom_site_fract_y
 _atom_site_fract_z
 _atom_site_occupancy
  K  K0  1  0.000000  0.000000  0.132571  1
  K  K1  1  0.500000  0.500000  0.632571  1
  K  K2  1  0.500000  0.500000  0.367429  1
  K  K3  1  0.000000  0.000000  0.867429  1
  U  U4  1  0.000000  0.000000  0.500000  1
  U  U5  1  0.500000  0.500000  0.000000  1
  S  S6  1  0.311012  0.500000  0.155127  1
  S  S7  1  0.688988  0.500000  0.155127  1
  S  S8  1  0.000000  0.811012  0.655127  1
  S  S9  1  0.000000  0.188988  0.655127  1
  S  S10  1  0.188988  0.000000  0.344873  1
  S  S11  1  0.811012  0.000000  0.344873  1
  S  S12  1  0.500000  0.688988  0.844873  1
  S  S13  1  0.500000  0.311012  0.844873  1
  S  S14  1  0.000000  0.500000  0.986953  1
  S  S15  1  0.000000  0.500000  0.486953  1
  S  S16  1  0.500000  0.000000  0.513047  1
  S  S17  1  0.500000  0.000000  0.013047  1
