# generated using pymatgen
data_Tm2Th2C3
_symmetry_space_group_name_H-M   'P 1'
_cell_length_a   6.49156720
_cell_length_b   6.49156714
_cell_length_c   6.26804804
_cell_angle_alpha   103.32251571
_cell_angle_beta   103.32251283
_cell_angle_gamma   33.30106754
_symmetry_Int_Tables_number   1
_chemical_formula_structural   Tm2Th2C3
_chemical_formula_sum   'Tm2 Th2 C3'
_cell_volume   140.76495113
_cell_formula_units_Z   1
loop_
 _symmetry_equiv_pos_site_id
 _symmetry_equiv_pos_as_xyz
  1  'x, y, z'
loop_
 _atom_site_type_symbol
 _atom_site_label
 _atom_site_symmetry_multiplicity
 _atom_site_fract_x
 _atom_site_fract_y
 _atom_site_fract_z
 _atom_site_occupancy
  Tm  Tm0  1  0.142740  0.142740  0.354715  1
  Tm  Tm1  1  0.857260  0.857260  0.645285  1
  Th  Th2  1  0.379604  0.379604  0.131229  1
  Th  Th3  1  0.620396  0.620396  0.868771  1
  C  C4  1  0.000000  0.000000  0.000000  1
  C  C5  1  0.745093  0.745093  0.245497  1
  C  C6  1  0.254907  0.254907  0.754503  1
