# generated using pymatgen
data_Y4Er(Pd4Au)3
_symmetry_space_group_name_H-M   'P 1'
_cell_length_a   4.18450100
_cell_length_b   4.09169900
_cell_length_c   20.96783500
_cell_angle_alpha   90.00000000
_cell_angle_beta   90.00000000
_cell_angle_gamma   90.00000000
_symmetry_Int_Tables_number   1
_chemical_formula_structural   Y4Er(Pd4Au)3
_chemical_formula_sum   'Y4 Er1 Pd12 Au3'
_cell_volume   359.00536962
_cell_formula_units_Z   1
loop_
 _symmetry_equiv_pos_site_id
 _symmetry_equiv_pos_as_xyz
  1  'x, y, z'
loop_
 _atom_site_type_symbol
 _atom_site_label
 _atom_site_symmetry_multiplicity
 _atom_site_fract_x
 _atom_site_fract_y
 _atom_site_fract_z
 _atom_site_occupancy
  Y  Y0  1  0.000000  0.000000  0.199213  1
  Y  Y1  1  0.000000  0.000000  0.404149  1
  Y  Y2  1  0.000000  0.000000  0.597192  1
  Y  Y3  1  0.000000  0.000000  0.803749  1
  Er  Er4  1  0.000000  0.000000  0.995716  1
  Pd  Pd5  1  0.500000  0.500000  0.999652  1
  Pd  Pd6  1  0.500000  0.500000  0.199077  1
  Pd  Pd7  1  0.500000  0.500000  0.400163  1
  Pd  Pd8  1  0.500000  0.500000  0.599258  1
  Pd  Pd9  1  0.500000  0.500000  0.801681  1
  Pd  Pd10  1  0.500000  0.000000  0.499827  1
  Pd  Pd11  1  0.500000  0.000000  0.901523  1
  Pd  Pd12  1  0.000000  0.500000  0.098669  1
  Pd  Pd13  1  0.000000  0.500000  0.299509  1
  Pd  Pd14  1  0.000000  0.500000  0.499865  1
  Pd  Pd15  1  0.000000  0.500000  0.700369  1
  Pd  Pd16  1  0.000000  0.500000  0.901576  1
  Au  Au17  1  0.500000  0.000000  0.098088  1
  Au  Au18  1  0.500000  0.000000  0.300340  1
  Au  Au19  1  0.500000  0.000000  0.700386  1
