# generated using pymatgen
data_Li4Al8Rh3Au
_symmetry_space_group_name_H-M   'P 1'
_cell_length_a   6.07379700
_cell_length_b   4.29783400
_cell_length_c   8.56964300
_cell_angle_alpha   90.00000000
_cell_angle_beta   90.00003773
_cell_angle_gamma   90.00000000
_symmetry_Int_Tables_number   1
_chemical_formula_structural   Li4Al8Rh3Au
_chemical_formula_sum   'Li4 Al8 Rh3 Au1'
_cell_volume   223.70342847
_cell_formula_units_Z   1
loop_
 _symmetry_equiv_pos_site_id
 _symmetry_equiv_pos_as_xyz
  1  'x, y, z'
loop_
 _atom_site_type_symbol
 _atom_site_label
 _atom_site_symmetry_multiplicity
 _atom_site_fract_x
 _atom_site_fract_y
 _atom_site_fract_z
 _atom_site_occupancy
  Li  Li0  1  0.250003  0.250001  0.124994  1
  Li  Li1  1  0.750001  0.750001  0.376958  1
  Li  Li2  1  0.249996  0.250001  0.624989  1
  Li  Li3  1  0.749996  0.750001  0.873081  1
  Al  Al4  1  0.015922  0.750001  0.125012  1
  Al  Al5  1  0.484074  0.750001  0.125013  1
  Al  Al6  1  0.008271  0.250001  0.385109  1
  Al  Al7  1  0.491715  0.250001  0.385103  1
  Al  Al8  1  0.498400  0.750001  0.625009  1
  Al  Al9  1  0.001584  0.750001  0.625010  1
  Al  Al10  1  0.491715  0.250001  0.864894  1
  Al  Al11  1  0.008274  0.250001  0.864889  1
  Rh  Rh12  1  0.249983  0.750001  0.373030  1
  Rh  Rh13  1  0.750076  0.250001  0.624966  1
  Rh  Rh14  1  0.249996  0.750001  0.876964  1
  Au  Au15  1  0.749992  0.250001  0.124976  1
