# generated using pymatgen
data_Ca3PrRuRh3O14
_symmetry_space_group_name_H-M   'P 1'
_cell_length_a   7.27095190
_cell_length_b   7.27095031
_cell_length_c   7.33741361
_cell_angle_alpha   60.29917914
_cell_angle_beta   60.29918516
_cell_angle_gamma   59.99999835
_symmetry_Int_Tables_number   1
_chemical_formula_structural   Ca3PrRuRh3O14
_chemical_formula_sum   'Ca3 Pr1 Ru1 Rh3 O14'
_cell_volume   275.52413868
_cell_formula_units_Z   1
loop_
 _symmetry_equiv_pos_site_id
 _symmetry_equiv_pos_as_xyz
  1  'x, y, z'
loop_
 _atom_site_type_symbol
 _atom_site_label
 _atom_site_symmetry_multiplicity
 _atom_site_fract_x
 _atom_site_fract_y
 _atom_site_fract_z
 _atom_site_occupancy
  Ca  Ca0  1  0.625000  0.125000  0.625000  1
  Ca  Ca1  1  0.125000  0.625000  0.625000  1
  Ca  Ca2  1  0.625000  0.625000  0.625000  1
  Pr  Pr3  1  0.625000  0.625000  0.125000  1
  Ru  Ru4  1  0.125000  0.125000  0.625000  1
  Rh  Rh5  1  0.625000  0.125000  0.125000  1
  Rh  Rh6  1  0.125000  0.625000  0.125000  1
  Rh  Rh7  1  0.125000  0.125000  0.125000  1
  O  O8  1  0.194273  0.194273  0.802556  1
  O  O9  1  0.199197  0.796550  0.207703  1
  O  O10  1  0.453450  0.050803  0.042297  1
  O  O11  1  0.194273  0.808898  0.802556  1
  O  O12  1  0.055727  0.441102  0.447444  1
  O  O13  1  0.796550  0.796550  0.207703  1
  O  O14  1  0.453450  0.453450  0.042297  1
  O  O15  1  0.498063  0.498063  0.505812  1
  O  O16  1  0.055727  0.055727  0.447444  1
  O  O17  1  0.441102  0.055727  0.447444  1
  O  O18  1  0.050803  0.453450  0.042297  1
  O  O19  1  0.751937  0.751937  0.744188  1
  O  O20  1  0.808898  0.194273  0.802556  1
  O  O21  1  0.796550  0.199197  0.207703  1
