# generated using pymatgen
data_Li2Dy5Cr(Co4P3)4
_symmetry_space_group_name_H-M   'P 1'
_cell_length_a   12.01267425
_cell_length_b   12.01267351
_cell_length_c   3.69283100
_cell_angle_alpha   90.00000000
_cell_angle_beta   90.00000000
_cell_angle_gamma   119.74787391
_symmetry_Int_Tables_number   1
_chemical_formula_structural   Li2Dy5Cr(Co4P3)4
_chemical_formula_sum   'Li2 Dy5 Cr1 Co16 P12'
_cell_volume   462.66559555
_cell_formula_units_Z   1
loop_
 _symmetry_equiv_pos_site_id
 _symmetry_equiv_pos_as_xyz
  1  'x, y, z'
loop_
 _atom_site_type_symbol
 _atom_site_label
 _atom_site_symmetry_multiplicity
 _atom_site_fract_x
 _atom_site_fract_y
 _atom_site_fract_z
 _atom_site_occupancy
  Li  Li0  1  0.438554  0.998557  0.000000  1
  Li  Li1  1  0.998557  0.438554  0.000000  1
  Dy  Dy2  1  0.665567  0.335036  0.000000  1
  Dy  Dy3  1  0.335036  0.665567  0.000000  1
  Dy  Dy4  1  0.187561  0.187561  0.500000  1
  Dy  Dy5  1  0.811057  0.998652  0.500000  1
  Dy  Dy6  1  0.998652  0.811057  0.500000  1
  Cr  Cr7  1  0.559176  0.559176  0.000000  1
  Co  Co8  1  0.820980  0.198596  0.000000  1
  Co  Co9  1  0.801374  0.625171  0.000000  1
  Co  Co10  1  0.378819  0.180242  0.000000  1
  Co  Co11  1  0.198596  0.820980  0.000000  1
  Co  Co12  1  0.625171  0.801374  0.000000  1
  Co  Co13  1  0.180242  0.378819  0.000000  1
  Co  Co14  1  0.641383  0.123058  0.500000  1
  Co  Co15  1  0.870112  0.515383  0.500000  1
  Co  Co16  1  0.483222  0.360178  0.500000  1
  Co  Co17  1  0.123058  0.641383  0.500000  1
  Co  Co18  1  0.515383  0.870112  0.500000  1
  Co  Co19  1  0.360178  0.483222  0.500000  1
  Co  Co20  1  0.718382  0.718382  0.500000  1
  Co  Co21  1  0.283853  0.000615  0.500000  1
  Co  Co22  1  0.000615  0.283853  0.500000  1
  Co  Co23  1  0.003927  0.003927  0.000000  1
  P  P24  1  0.367322  0.367322  0.000000  1
  P  P25  1  0.631721  0.999112  0.000000  1
  P  P26  1  0.999112  0.631721  0.000000  1
  P  P27  1  0.828561  0.309178  0.500000  1
  P  P28  1  0.685944  0.522289  0.500000  1
  P  P29  1  0.480812  0.169117  0.500000  1
  P  P30  1  0.309178  0.828561  0.500000  1
  P  P31  1  0.522289  0.685944  0.500000  1
  P  P32  1  0.169117  0.480812  0.500000  1
  P  P33  1  0.822274  0.822274  0.000000  1
  P  P34  1  0.183410  0.000808  0.000000  1
  P  P35  1  0.000808  0.183410  0.000000  1
