# generated using pymatgen
data_Th2B(PdRh2)2
_symmetry_space_group_name_H-M   'P 1'
_cell_length_a   5.99417511
_cell_length_b   5.95449601
_cell_length_c   5.99417349
_cell_angle_alpha   60.21871547
_cell_angle_beta   59.51403473
_cell_angle_gamma   60.21871764
_symmetry_Int_Tables_number   1
_chemical_formula_structural   Th2B(PdRh2)2
_chemical_formula_sum   'Th2 B1 Pd2 Rh4'
_cell_volume   151.21183908
_cell_formula_units_Z   1
loop_
 _symmetry_equiv_pos_site_id
 _symmetry_equiv_pos_as_xyz
  1  'x, y, z'
loop_
 _atom_site_type_symbol
 _atom_site_label
 _atom_site_symmetry_multiplicity
 _atom_site_fract_x
 _atom_site_fract_y
 _atom_site_fract_z
 _atom_site_occupancy
  Th  Th0  1  0.750617  0.749728  0.749928  1
  Th  Th1  1  0.250072  0.250272  0.249383  1
  B  B2  1  0.489116  0.500000  0.510884  1
  Pd  Pd3  1  0.757693  0.757110  0.242307  1
  Pd  Pd4  1  0.757693  0.242890  0.242307  1
  Rh  Rh5  1  0.251426  0.750073  0.248428  1
  Rh  Rh6  1  0.245906  0.243984  0.754094  1
  Rh  Rh7  1  0.751572  0.249927  0.748574  1
  Rh  Rh8  1  0.245906  0.756016  0.754094  1
