# generated using pymatgen
data_Yb(WN)2
_symmetry_space_group_name_H-M   'P 1'
_cell_length_a   2.97786800
_cell_length_b   2.97786816
_cell_length_c   8.02820101
_cell_angle_alpha   90.00419492
_cell_angle_beta   89.99580738
_cell_angle_gamma   119.99732444
_symmetry_Int_Tables_number   1
_chemical_formula_structural   Yb(WN)2
_chemical_formula_sum   'Yb1 W2 N2'
_cell_volume   61.65545186
_cell_formula_units_Z   1
loop_
 _symmetry_equiv_pos_site_id
 _symmetry_equiv_pos_as_xyz
  1  'x, y, z'
loop_
 _atom_site_type_symbol
 _atom_site_label
 _atom_site_symmetry_multiplicity
 _atom_site_fract_x
 _atom_site_fract_y
 _atom_site_fract_z
 _atom_site_occupancy
  Yb  Yb0  1  0.000000  0.000000  0.999992  1
  W  W1  1  0.666662  0.333339  0.351796  1
  W  W2  1  0.333339  0.666662  0.648198  1
  N  N3  1  0.666674  0.333326  0.801007  1
  N  N4  1  0.333326  0.666674  0.199010  1
