# generated using pymatgen
data_YEr15(In3Ir)2
_symmetry_space_group_name_H-M   'P 1'
_cell_length_a   10.32242600
_cell_length_b   10.33568220
_cell_length_c   7.03961511
_cell_angle_alpha   90.03636273
_cell_angle_beta   90.00000000
_cell_angle_gamma   119.95757571
_symmetry_Int_Tables_number   1
_chemical_formula_structural   YEr15(In3Ir)2
_chemical_formula_sum   'Y1 Er15 In6 Ir2'
_cell_volume   650.70756426
_cell_formula_units_Z   1
loop_
 _symmetry_equiv_pos_site_id
 _symmetry_equiv_pos_as_xyz
  1  'x, y, z'
loop_
 _atom_site_type_symbol
 _atom_site_label
 _atom_site_symmetry_multiplicity
 _atom_site_fract_x
 _atom_site_fract_y
 _atom_site_fract_z
 _atom_site_occupancy
  Y  Y0  1  0.532923  0.065847  0.792990  1
  Er  Er1  1  0.932082  0.465883  0.793139  1
  Er  Er2  1  0.533802  0.465883  0.793139  1
  Er  Er3  1  0.465666  0.931332  0.293409  1
  Er  Er4  1  0.067988  0.534214  0.293863  1
  Er  Er5  1  0.466227  0.534214  0.293863  1
  Er  Er6  1  0.823770  0.647542  0.498100  1
  Er  Er7  1  0.353286  0.177296  0.496844  1
  Er  Er8  1  0.824011  0.177296  0.496844  1
  Er  Er9  1  0.176693  0.353386  0.998894  1
  Er  Er10  1  0.647091  0.822670  0.999072  1
  Er  Er11  1  0.175580  0.822670  0.999072  1
  Er  Er12  1  0.666944  0.333886  0.174479  1
  Er  Er13  1  0.332934  0.665869  0.675108  1
  Er  Er14  1  0.000165  0.000329  0.778597  1
  Er  Er15  1  0.999893  0.999785  0.278583  1
  In  In16  1  0.836925  0.673850  0.040206  1
  In  In17  1  0.325182  0.162500  0.040294  1
  In  In18  1  0.837316  0.162500  0.040294  1
  In  In19  1  0.162900  0.325801  0.541077  1
  In  In20  1  0.674332  0.837725  0.540984  1
  In  In21  1  0.163394  0.837725  0.540984  1
  Ir  Ir22  1  0.667592  0.335182  0.567016  1
  Ir  Ir23  1  0.333306  0.666614  0.069058  1
