# generated using pymatgen
data_Lu8B24Mo2OsRu
_symmetry_space_group_name_H-M   'P 1'
_cell_length_a   3.59283300
_cell_length_b   9.09756198
_cell_length_c   11.45804802
_cell_angle_alpha   90.02134552
_cell_angle_beta   90.00000000
_cell_angle_gamma   90.00000000
_symmetry_Int_Tables_number   1
_chemical_formula_structural   Lu8B24Mo2OsRu
_chemical_formula_sum   'Lu8 B24 Mo2 Os1 Ru1'
_cell_volume   374.51797133
_cell_formula_units_Z   1
loop_
 _symmetry_equiv_pos_site_id
 _symmetry_equiv_pos_as_xyz
  1  'x, y, z'
loop_
 _atom_site_type_symbol
 _atom_site_label
 _atom_site_symmetry_multiplicity
 _atom_site_fract_x
 _atom_site_fract_y
 _atom_site_fract_z
 _atom_site_occupancy
  Lu  Lu0  1  0.000000  0.321109  0.413726  1
  Lu  Lu1  1  0.000000  0.678862  0.585724  1
  Lu  Lu2  1  0.000000  0.821167  0.085234  1
  Lu  Lu3  1  0.000000  0.178733  0.913763  1
  Lu  Lu4  1  0.000000  0.941300  0.371814  1
  Lu  Lu5  1  0.000000  0.054950  0.628785  1
  Lu  Lu6  1  0.000000  0.445596  0.129084  1
  Lu  Lu7  1  0.000000  0.558047  0.871885  1
  B  B8  1  0.500000  0.553881  0.432720  1
  B  B9  1  0.500000  0.448932  0.564031  1
  B  B10  1  0.500000  0.050963  0.063780  1
  B  B11  1  0.500000  0.945871  0.932730  1
  B  B12  1  0.500000  0.748975  0.419754  1
  B  B13  1  0.500000  0.247194  0.578344  1
  B  B14  1  0.500000  0.253005  0.077855  1
  B  B15  1  0.500000  0.750761  0.919391  1
  B  B16  1  0.500000  0.791503  0.265610  1
  B  B17  1  0.500000  0.204517  0.736925  1
  B  B18  1  0.500000  0.295585  0.236516  1
  B  B19  1  0.500000  0.708269  0.765431  1
  B  B20  1  0.500000  0.631563  0.184851  1
  B  B21  1  0.500000  0.369729  0.817809  1
  B  B22  1  0.500000  0.130395  0.317595  1
  B  B23  1  0.500000  0.868810  0.684980  1
  B  B24  1  0.500000  0.976861  0.212280  1
  B  B25  1  0.500000  0.017265  0.787894  1
  B  B26  1  0.500000  0.482932  0.287745  1
  B  B27  1  0.500000  0.522843  0.712423  1
  B  B28  1  0.500000  0.603446  0.028685  1
  B  B29  1  0.500000  0.400419  0.972219  1
  B  B30  1  0.500000  0.099849  0.472096  1
  B  B31  1  0.500000  0.896734  0.528745  1
  Mo  Mo32  1  0.000000  0.361627  0.679424  1
  Mo  Mo33  1  0.000000  0.138199  0.179012  1
  Os  Os34  1  0.000000  0.860901  0.820580  1
  Ru  Ru35  1  0.000000  0.639207  0.320560  1
