# generated using pymatgen
data_Er4CuNiPt2
_symmetry_space_group_name_H-M   'P 1'
_cell_length_a   4.41507500
_cell_length_b   5.48025915
_cell_length_c   6.93572426
_cell_angle_alpha   90.27722595
_cell_angle_beta   90.00000000
_cell_angle_gamma   90.00000000
_symmetry_Int_Tables_number   1
_chemical_formula_structural   Er4CuNiPt2
_chemical_formula_sum   'Er4 Cu1 Ni1 Pt2'
_cell_volume   167.81312189
_cell_formula_units_Z   1
loop_
 _symmetry_equiv_pos_site_id
 _symmetry_equiv_pos_as_xyz
  1  'x, y, z'
loop_
 _atom_site_type_symbol
 _atom_site_label
 _atom_site_symmetry_multiplicity
 _atom_site_fract_x
 _atom_site_fract_y
 _atom_site_fract_z
 _atom_site_occupancy
  Er  Er0  1  0.000000  0.114230  0.673468  1
  Er  Er1  1  0.000000  0.883872  0.188747  1
  Er  Er2  1  0.500000  0.387683  0.323117  1
  Er  Er3  1  0.500000  0.611737  0.816949  1
  Cu  Cu4  1  0.500000  0.110068  0.961620  1
  Ni  Ni5  1  0.500000  0.897900  0.459635  1
  Pt  Pt6  1  0.000000  0.611551  0.540841  1
  Pt  Pt7  1  0.000000  0.382958  0.035624  1
