# generated using pymatgen
data_Sm2Er3Sn4
_symmetry_space_group_name_H-M   'P 1'
_cell_length_a   8.04649000
_cell_length_b   8.19905900
_cell_length_c   15.49150600
_cell_angle_alpha   90.00000000
_cell_angle_beta   90.00000000
_cell_angle_gamma   90.00000000
_symmetry_Int_Tables_number   1
_chemical_formula_structural   Sm2Er3Sn4
_chemical_formula_sum   'Sm8 Er12 Sn16'
_cell_volume   1022.03113677
_cell_formula_units_Z   4
loop_
 _symmetry_equiv_pos_site_id
 _symmetry_equiv_pos_as_xyz
  1  'x, y, z'
loop_
 _atom_site_type_symbol
 _atom_site_label
 _atom_site_symmetry_multiplicity
 _atom_site_fract_x
 _atom_site_fract_y
 _atom_site_fract_z
 _atom_site_occupancy
  Sm  Sm0  1  0.519422  0.320754  0.902264  1
  Sm  Sm1  1  0.019422  0.179246  0.597736  1
  Sm  Sm2  1  0.480578  0.679246  0.402264  1
  Sm  Sm3  1  0.980578  0.820754  0.097736  1
  Sm  Sm4  1  0.480578  0.679246  0.097736  1
  Sm  Sm5  1  0.980578  0.820754  0.402264  1
  Sm  Sm6  1  0.519422  0.320754  0.597736  1
  Sm  Sm7  1  0.019422  0.179246  0.902264  1
  Er  Er8  1  0.366180  0.835405  0.877633  1
  Er  Er9  1  0.866180  0.664595  0.622367  1
  Er  Er10  1  0.633820  0.164595  0.377633  1
  Er  Er11  1  0.133820  0.335405  0.122367  1
  Er  Er12  1  0.633820  0.164595  0.122367  1
  Er  Er13  1  0.133820  0.335405  0.377633  1
  Er  Er14  1  0.366180  0.835405  0.622367  1
  Er  Er15  1  0.866180  0.664595  0.877633  1
  Er  Er16  1  0.197756  0.503833  0.750000  1
  Er  Er17  1  0.697756  0.996167  0.750000  1
  Er  Er18  1  0.802244  0.496167  0.250000  1
  Er  Er19  1  0.302244  0.003833  0.250000  1
  Sn  Sn20  1  0.296626  0.037557  0.041911  1
  Sn  Sn21  1  0.796626  0.462443  0.458089  1
  Sn  Sn22  1  0.703374  0.962443  0.541911  1
  Sn  Sn23  1  0.203374  0.537557  0.958089  1
  Sn  Sn24  1  0.703374  0.962443  0.958089  1
  Sn  Sn25  1  0.203374  0.537557  0.541911  1
  Sn  Sn26  1  0.296626  0.037557  0.458089  1
  Sn  Sn27  1  0.796626  0.462443  0.041911  1
  Sn  Sn28  1  0.564406  0.622639  0.750000  1
  Sn  Sn29  1  0.064406  0.877361  0.750000  1
  Sn  Sn30  1  0.435594  0.377361  0.250000  1
  Sn  Sn31  1  0.935594  0.122639  0.250000  1
  Sn  Sn32  1  0.327522  0.143830  0.750000  1
  Sn  Sn33  1  0.827522  0.356170  0.750000  1
  Sn  Sn34  1  0.672478  0.856170  0.250000  1
  Sn  Sn35  1  0.172478  0.643830  0.250000  1
