# generated using pymatgen
data_Dy3Al12(FePt)2
_symmetry_space_group_name_H-M   'P 1'
_cell_length_a   8.75691517
_cell_length_b   8.75691524
_cell_length_c   9.39152808
_cell_angle_alpha   90.04855615
_cell_angle_beta   89.95145065
_cell_angle_gamma   119.94571603
_symmetry_Int_Tables_number   1
_chemical_formula_structural   Dy3Al12(FePt)2
_chemical_formula_sum   'Dy6 Al24 Fe4 Pt4'
_cell_volume   624.03115694
_cell_formula_units_Z   2
loop_
 _symmetry_equiv_pos_site_id
 _symmetry_equiv_pos_as_xyz
  1  'x, y, z'
loop_
 _atom_site_type_symbol
 _atom_site_label
 _atom_site_symmetry_multiplicity
 _atom_site_fract_x
 _atom_site_fract_y
 _atom_site_fract_z
 _atom_site_occupancy
  Dy  Dy0  1  0.191059  0.384895  0.253056  1
  Dy  Dy1  1  0.808941  0.615105  0.746944  1
  Dy  Dy2  1  0.615105  0.808941  0.253056  1
  Dy  Dy3  1  0.384895  0.191059  0.746944  1
  Dy  Dy4  1  0.192473  0.807527  0.250898  1
  Dy  Dy5  1  0.807527  0.192473  0.749102  1
  Al  Al6  1  0.333290  0.666710  0.029151  1
  Al  Al7  1  0.666710  0.333290  0.970849  1
  Al  Al8  1  0.672433  0.327567  0.525324  1
  Al  Al9  1  0.327567  0.672433  0.474676  1
  Al  Al10  1  0.153024  0.321505  0.574181  1
  Al  Al11  1  0.846976  0.678495  0.425819  1
  Al  Al12  1  0.678495  0.846976  0.574181  1
  Al  Al13  1  0.841947  0.683639  0.079427  1
  Al  Al14  1  0.321505  0.153024  0.425819  1
  Al  Al15  1  0.158053  0.316361  0.920573  1
  Al  Al16  1  0.161851  0.838149  0.574265  1
  Al  Al17  1  0.316361  0.158053  0.079427  1
  Al  Al18  1  0.838149  0.161851  0.425735  1
  Al  Al19  1  0.683639  0.841947  0.920573  1
  Al  Al20  1  0.841057  0.158943  0.080299  1
  Al  Al21  1  0.158943  0.841057  0.919701  1
  Al  Al22  1  0.561432  0.122325  0.258888  1
  Al  Al23  1  0.438568  0.877675  0.741112  1
  Al  Al24  1  0.877675  0.438568  0.258888  1
  Al  Al25  1  0.122325  0.561432  0.741112  1
  Al  Al26  1  0.564855  0.435145  0.250269  1
  Al  Al27  1  0.435145  0.564855  0.749731  1
  Al  Al28  1  0.999347  0.000653  0.250863  1
  Al  Al29  1  0.000653  0.999347  0.749137  1
  Fe  Fe30  1  0.500000  0.000000  0.500000  1
  Fe  Fe31  1  0.000000  0.500000  0.500000  1
  Fe  Fe32  1  0.000000  0.000000  0.000000  1
  Fe  Fe33  1  0.000000  0.000000  0.500000  1
  Pt  Pt34  1  0.500000  0.000000  0.000000  1
  Pt  Pt35  1  0.000000  0.500000  0.000000  1
  Pt  Pt36  1  0.500000  0.500000  0.000000  1
  Pt  Pt37  1  0.500000  0.500000  0.500000  1
