# generated using pymatgen
data_La8Cd2FePd
_symmetry_space_group_name_H-M   'P 1'
_cell_length_a   10.08874420
_cell_length_b   10.08874428
_cell_length_c   10.20595800
_cell_angle_alpha   59.61492083
_cell_angle_beta   59.61492056
_cell_angle_gamma   59.90858680
_symmetry_Int_Tables_number   1
_chemical_formula_structural   La8Cd2FePd
_chemical_formula_sum   'La16 Cd4 Fe2 Pd2'
_cell_volume   729.73157365
_cell_formula_units_Z   2
loop_
 _symmetry_equiv_pos_site_id
 _symmetry_equiv_pos_as_xyz
  1  'x, y, z'
loop_
 _atom_site_type_symbol
 _atom_site_label
 _atom_site_symmetry_multiplicity
 _atom_site_fract_x
 _atom_site_fract_y
 _atom_site_fract_z
 _atom_site_occupancy
  La  La0  1  0.341748  0.341748  0.361762  1
  La  La1  1  0.341748  0.341748  0.954741  1
  La  La2  1  0.337406  0.962103  0.350245  1
  La  La3  1  0.962103  0.337406  0.350245  1
  La  La4  1  0.825604  0.189269  0.189115  1
  La  La5  1  0.189269  0.825604  0.796012  1
  La  La6  1  0.189269  0.825604  0.189115  1
  La  La7  1  0.825604  0.189269  0.796012  1
  La  La8  1  0.187581  0.187581  0.812419  1
  La  La9  1  0.804395  0.804395  0.195605  1
  La  La10  1  0.938369  0.559497  0.562954  1
  La  La11  1  0.559497  0.938369  0.939179  1
  La  La12  1  0.559497  0.938369  0.562954  1
  La  La13  1  0.938369  0.559497  0.939179  1
  La  La14  1  0.560414  0.560414  0.939586  1
  La  La15  1  0.938805  0.938805  0.561195  1
  Cd  Cd16  1  0.578631  0.578631  0.579462  1
  Cd  Cd17  1  0.578631  0.578631  0.263276  1
  Cd  Cd18  1  0.579749  0.260950  0.579651  1
  Cd  Cd19  1  0.260950  0.579749  0.579651  1
  Fe  Fe20  1  0.139364  0.139364  0.140151  1
  Fe  Fe21  1  0.139364  0.139364  0.581122  1
  Pd  Pd22  1  0.146340  0.577294  0.138184  1
  Pd  Pd23  1  0.577294  0.146340  0.138184  1
