# generated using pymatgen
data_Mg3Sc8InAu8
_symmetry_space_group_name_H-M   'P 1'
_cell_length_a   7.78062100
_cell_length_b   7.78062100
_cell_length_c   6.84139400
_cell_angle_alpha   90.00000000
_cell_angle_beta   90.00000000
_cell_angle_gamma   90.00000000
_symmetry_Int_Tables_number   1
_chemical_formula_structural   Mg3Sc8InAu8
_chemical_formula_sum   'Mg3 Sc8 In1 Au8'
_cell_volume   414.16474198
_cell_formula_units_Z   1
loop_
 _symmetry_equiv_pos_site_id
 _symmetry_equiv_pos_as_xyz
  1  'x, y, z'
loop_
 _atom_site_type_symbol
 _atom_site_label
 _atom_site_symmetry_multiplicity
 _atom_site_fract_x
 _atom_site_fract_y
 _atom_site_fract_z
 _atom_site_occupancy
  Mg  Mg0  1  0.500000  0.000000  0.250000  1
  Mg  Mg1  1  0.500000  0.000000  0.750000  1
  Mg  Mg2  1  0.000000  0.500000  0.250000  1
  Sc  Sc3  1  0.142729  0.165302  0.000080  1
  Sc  Sc4  1  0.857271  0.834698  0.000080  1
  Sc  Sc5  1  0.665302  0.357271  0.499920  1
  Sc  Sc6  1  0.334698  0.642729  0.499920  1
  Sc  Sc7  1  0.684336  0.336350  0.999943  1
  Sc  Sc8  1  0.315664  0.663650  0.999943  1
  Sc  Sc9  1  0.836350  0.815664  0.500057  1
  Sc  Sc10  1  0.163650  0.184336  0.500057  1
  In  In11  1  0.000000  0.500000  0.750000  1
  Au  Au12  1  0.369253  0.360994  0.230666  1
  Au  Au13  1  0.624577  0.642470  0.770453  1
  Au  Au14  1  0.630747  0.639006  0.230666  1
  Au  Au15  1  0.857530  0.124577  0.729547  1
  Au  Au16  1  0.860994  0.130747  0.269334  1
  Au  Au17  1  0.375423  0.357530  0.770453  1
  Au  Au18  1  0.139006  0.869253  0.269334  1
  Au  Au19  1  0.142470  0.875423  0.729547  1
