# generated using pymatgen
data_DyZr5Fe7Co16
_symmetry_space_group_name_H-M   'P 1'
_cell_length_a   8.21592588
_cell_length_b   8.19733312
_cell_length_c   8.19436000
_cell_angle_alpha   60.13737234
_cell_angle_beta   59.94295470
_cell_angle_gamma   59.88580375
_symmetry_Int_Tables_number   1
_chemical_formula_structural   DyZr5Fe7Co16
_chemical_formula_sum   'Dy1 Zr5 Fe7 Co16'
_cell_volume   390.13358911
_cell_formula_units_Z   1
loop_
 _symmetry_equiv_pos_site_id
 _symmetry_equiv_pos_as_xyz
  1  'x, y, z'
loop_
 _atom_site_type_symbol
 _atom_site_label
 _atom_site_symmetry_multiplicity
 _atom_site_fract_x
 _atom_site_fract_y
 _atom_site_fract_z
 _atom_site_occupancy
  Dy  Dy0  1  0.705400  0.294935  0.294592  1
  Zr  Zr1  1  0.286181  0.287902  0.714177  1
  Zr  Zr2  1  0.290074  0.709516  0.710033  1
  Zr  Zr3  1  0.711579  0.714411  0.288134  1
  Zr  Zr4  1  0.285630  0.713992  0.288294  1
  Zr  Zr5  1  0.711971  0.288300  0.714087  1
  Fe  Fe6  1  0.001543  0.501550  0.998592  1
  Fe  Fe7  1  0.001520  0.998625  0.501519  1
  Fe  Fe8  1  0.999526  0.000454  0.000465  1
  Fe  Fe9  1  0.498306  0.501503  0.998639  1
  Fe  Fe10  1  0.498378  0.998610  0.501533  1
  Fe  Fe11  1  0.499708  0.000323  0.000242  1
  Fe  Fe12  1  0.999870  0.500130  0.500133  1
  Co  Co13  1  0.122285  0.120677  0.635155  1
  Co  Co14  1  0.674556  0.973472  0.677037  1
  Co  Co15  1  0.364667  0.877795  0.878295  1
  Co  Co16  1  0.027356  0.324848  0.324963  1
  Co  Co17  1  0.976797  0.674492  0.674251  1
  Co  Co18  1  0.325693  0.325516  0.023039  1
  Co  Co19  1  0.674863  0.677087  0.973204  1
  Co  Co20  1  0.633674  0.120346  0.119799  1
  Co  Co21  1  0.674418  0.674258  0.674251  1
  Co  Co22  1  0.879689  0.873937  0.366197  1
  Co  Co23  1  0.126664  0.119677  0.120020  1
  Co  Co24  1  0.880600  0.366163  0.873460  1
  Co  Co25  1  0.878690  0.878428  0.878142  1
  Co  Co26  1  0.322912  0.325001  0.325050  1
  Co  Co27  1  0.121449  0.635091  0.121276  1
  Co  Co28  1  0.325998  0.022960  0.325419  1
