# generated using pymatgen
data_RbDy2ErF10
_symmetry_space_group_name_H-M   'P 1'
_cell_length_a   8.24991766
_cell_length_b   8.24991545
_cell_length_c   8.26788100
_cell_angle_alpha   59.92677372
_cell_angle_beta   59.92679528
_cell_angle_gamma   60.14419919
_symmetry_Int_Tables_number   1
_chemical_formula_structural   RbDy2ErF10
_chemical_formula_sum   'Rb2 Dy4 Er2 F20'
_cell_volume   397.89348714
_cell_formula_units_Z   2
loop_
 _symmetry_equiv_pos_site_id
 _symmetry_equiv_pos_as_xyz
  1  'x, y, z'
loop_
 _atom_site_type_symbol
 _atom_site_label
 _atom_site_symmetry_multiplicity
 _atom_site_fract_x
 _atom_site_fract_y
 _atom_site_fract_z
 _atom_site_occupancy
  Rb  Rb0  1  0.250000  0.249998  0.250008  1
  Rb  Rb1  1  0.750000  0.750002  0.749992  1
  Dy  Dy2  1  0.759687  0.240301  0.240316  1
  Dy  Dy3  1  0.240313  0.759699  0.759684  1
  Dy  Dy4  1  0.240301  0.759687  0.240316  1
  Dy  Dy5  1  0.759699  0.240313  0.759684  1
  Er  Er6  1  0.240441  0.240441  0.759560  1
  Er  Er7  1  0.759559  0.759559  0.240440  1
  F  F8  1  0.829212  0.502259  0.497738  1
  F  F9  1  0.170788  0.497741  0.502262  1
  F  F10  1  0.502253  0.829207  0.170790  1
  F  F11  1  0.497747  0.170793  0.829210  1
  F  F12  1  0.502259  0.829212  0.497738  1
  F  F13  1  0.170793  0.497747  0.829210  1
  F  F14  1  0.497741  0.170788  0.502262  1
  F  F15  1  0.829207  0.502253  0.170790  1
  F  F16  1  0.500001  0.500001  0.829999  1
  F  F17  1  0.499999  0.499999  0.170001  1
  F  F18  1  0.169999  0.830001  0.500000  1
  F  F19  1  0.830001  0.169999  0.500000  1
  F  F20  1  0.111345  0.111345  0.108664  1
  F  F21  1  0.888655  0.888655  0.891336  1
  F  F22  1  0.111349  0.111350  0.668650  1
  F  F23  1  0.108642  0.668646  0.111355  1
  F  F24  1  0.888651  0.888650  0.331350  1
  F  F25  1  0.891358  0.331354  0.888645  1
  F  F26  1  0.668647  0.108642  0.111355  1
  F  F27  1  0.331353  0.891358  0.888645  1
