# generated using pymatgen
data_Ti3V11(P6W)2
_symmetry_space_group_name_H-M   'P 1'
_cell_length_a   6.89312526
_cell_length_b   6.89312484
_cell_length_c   17.48373793
_cell_angle_alpha   90.08378399
_cell_angle_beta   89.91621550
_cell_angle_gamma   152.34904726
_symmetry_Int_Tables_number   1
_chemical_formula_structural   Ti3V11(P6W)2
_chemical_formula_sum   'Ti3 V11 P12 W2'
_cell_volume   385.53397487
_cell_formula_units_Z   1
loop_
 _symmetry_equiv_pos_site_id
 _symmetry_equiv_pos_as_xyz
  1  'x, y, z'
loop_
 _atom_site_type_symbol
 _atom_site_label
 _atom_site_symmetry_multiplicity
 _atom_site_fract_x
 _atom_site_fract_y
 _atom_site_fract_z
 _atom_site_occupancy
  Ti  Ti0  1  0.736145  0.263855  0.657790  1
  Ti  Ti1  1  0.263728  0.736272  0.339775  1
  Ti  Ti2  1  0.736169  0.263831  0.842944  1
  V  V3  1  0.262414  0.737586  0.157197  1
  V  V4  1  0.534832  0.465168  0.619260  1
  V  V5  1  0.464826  0.535174  0.378962  1
  V  V6  1  0.534448  0.465552  0.882105  1
  V  V7  1  0.466011  0.533989  0.119366  1
  V  V8  1  0.666155  0.333845  0.471477  1
  V  V9  1  0.333833  0.666167  0.527640  1
  V  V10  1  0.667559  0.332441  0.028558  1
  V  V11  1  0.332553  0.667447  0.975013  1
  V  V12  1  0.999794  0.000206  0.499454  1
  V  V13  1  0.000381  0.999619  0.001050  1
  P  P14  1  0.905461  0.094539  0.613827  1
  P  P15  1  0.094730  0.905270  0.385474  1
  P  P16  1  0.904841  0.095159  0.887450  1
  P  P17  1  0.096806  0.903194  0.114354  1
  P  P18  1  0.842897  0.157103  0.426830  1
  P  P19  1  0.156600  0.843400  0.571825  1
  P  P20  1  0.842955  0.157045  0.075859  1
  P  P21  1  0.156745  0.843255  0.928296  1
  P  P22  1  0.700805  0.299195  0.246567  1
  P  P23  1  0.300177  0.699823  0.750312  1
  P  P24  1  0.415316  0.584684  0.248336  1
  P  P25  1  0.583677  0.416323  0.750514  1
  W  W26  1  0.057033  0.942967  0.249273  1
  W  W27  1  0.943108  0.056892  0.750493  1
