# generated using pymatgen
data_Sr4As2O9
_symmetry_space_group_name_H-M   'P 1'
_cell_length_a   13.00935200
_cell_length_b   7.59901955
_cell_length_c   10.27241800
_cell_angle_alpha   89.02352930
_cell_angle_beta   90.00000000
_cell_angle_gamma   90.00000000
_symmetry_Int_Tables_number   1
_chemical_formula_structural   Sr4As2O9
_chemical_formula_sum   'Sr16 As8 O36'
_cell_volume   1015.36651201
_cell_formula_units_Z   4
loop_
 _symmetry_equiv_pos_site_id
 _symmetry_equiv_pos_as_xyz
  1  'x, y, z'
loop_
 _atom_site_type_symbol
 _atom_site_label
 _atom_site_symmetry_multiplicity
 _atom_site_fract_x
 _atom_site_fract_y
 _atom_site_fract_z
 _atom_site_occupancy
  Sr  Sr0  1  0.420504  0.750186  0.012562  1
  Sr  Sr1  1  0.946158  0.514454  0.410297  1
  Sr  Sr2  1  0.431055  0.012287  0.634163  1
  Sr  Sr3  1  0.931055  0.987713  0.365837  1
  Sr  Sr4  1  0.446158  0.485546  0.589703  1
  Sr  Sr5  1  0.920504  0.249814  0.987438  1
  Sr  Sr6  1  0.394538  0.258820  0.258692  1
  Sr  Sr7  1  0.894538  0.741180  0.741308  1
  Sr  Sr8  1  0.200752  0.730283  0.250283  1
  Sr  Sr9  1  0.700752  0.269717  0.749717  1
  Sr  Sr10  1  0.197404  0.231544  0.529181  1
  Sr  Sr11  1  0.697404  0.768456  0.470819  1
  Sr  Sr12  1  0.202037  0.467910  0.896962  1
  Sr  Sr13  1  0.702037  0.532090  0.103038  1
  Sr  Sr14  1  0.157659  0.967066  0.895441  1
  Sr  Sr15  1  0.657659  0.032934  0.104559  1
  As  As16  1  0.608676  0.766981  0.785536  1
  As  As17  1  0.108676  0.233019  0.214464  1
  As  As18  1  0.675159  0.289200  0.377493  1
  As  As19  1  0.175159  0.710800  0.622507  1
  As  As20  1  0.959338  0.236105  0.680982  1
  As  As21  1  0.459338  0.763895  0.319018  1
  As  As22  1  0.923879  0.763521  0.089484  1
  As  As23  1  0.423879  0.236479  0.910516  1
  O  O24  1  0.503725  0.285418  0.780902  1
  O  O25  1  0.812684  0.839636  0.162755  1
  O  O26  1  0.391426  0.415830  0.002796  1
  O  O27  1  0.891426  0.584170  0.997204  1
  O  O28  1  0.569413  0.755516  0.224610  1
  O  O29  1  0.069413  0.244484  0.775390  1
  O  O30  1  0.387098  0.576303  0.308420  1
  O  O31  1  0.887098  0.423697  0.691580  1
  O  O32  1  0.372913  0.233763  0.489712  1
  O  O33  1  0.872913  0.766237  0.510288  1
  O  O34  1  0.238371  0.733182  0.015087  1
  O  O35  1  0.738371  0.266818  0.984913  1
  O  O36  1  0.474938  0.077279  0.011829  1
  O  O37  1  0.974938  0.922721  0.988171  1
  O  O38  1  0.312684  0.160364  0.837245  1
  O  O39  1  0.132917  0.040258  0.299495  1
  O  O40  1  0.477054  0.728771  0.775330  1
  O  O41  1  0.977054  0.271229  0.224670  1
  O  O42  1  0.681819  0.611718  0.708651  1
  O  O43  1  0.181819  0.388282  0.291349  1
  O  O44  1  0.632917  0.959742  0.700505  1
  O  O45  1  0.379515  0.924784  0.258748  1
  O  O46  1  0.635343  0.769157  0.949717  1
  O  O47  1  0.135343  0.230843  0.050283  1
  O  O48  1  0.590267  0.286497  0.246631  1
  O  O49  1  0.090267  0.713503  0.753369  1
  O  O50  1  0.737952  0.088773  0.375693  1
  O  O51  1  0.237952  0.911227  0.624307  1
  O  O52  1  0.757741  0.464444  0.342433  1
  O  O53  1  0.257741  0.535556  0.657567  1
  O  O54  1  0.615839  0.330276  0.521854  1
  O  O55  1  0.115839  0.669724  0.478146  1
  O  O56  1  0.997647  0.215568  0.521019  1
  O  O57  1  0.497647  0.784432  0.478981  1
  O  O58  1  0.879515  0.075216  0.741252  1
  O  O59  1  0.003725  0.714582  0.219098  1
