# generated using pymatgen
data_SmMgPaZnRh2
_symmetry_space_group_name_H-M   'P 1'
_cell_length_a   3.87067200
_cell_length_b   7.32324386
_cell_length_c   8.70264693
_cell_angle_alpha   93.90593312
_cell_angle_beta   90.00000000
_cell_angle_gamma   90.00000000
_symmetry_Int_Tables_number   1
_chemical_formula_structural   SmMgPaZnRh2
_chemical_formula_sum   'Sm2 Mg2 Pa2 Zn2 Rh4'
_cell_volume   246.11115128
_cell_formula_units_Z   2
loop_
 _symmetry_equiv_pos_site_id
 _symmetry_equiv_pos_as_xyz
  1  'x, y, z'
loop_
 _atom_site_type_symbol
 _atom_site_label
 _atom_site_symmetry_multiplicity
 _atom_site_fract_x
 _atom_site_fract_y
 _atom_site_fract_z
 _atom_site_occupancy
  Sm  Sm0  1  0.250000  0.059031  0.327731  1
  Sm  Sm1  1  0.750000  0.940969  0.672269  1
  Mg  Mg2  1  0.250000  0.133234  0.937893  1
  Mg  Mg3  1  0.750000  0.866766  0.062107  1
  Pa  Pa4  1  0.250000  0.539899  0.197169  1
  Pa  Pa5  1  0.750000  0.460101  0.802831  1
  Zn  Zn6  1  0.250000  0.625205  0.555306  1
  Zn  Zn7  1  0.750000  0.374795  0.444694  1
  Rh  Rh8  1  0.750000  0.736203  0.354633  1
  Rh  Rh9  1  0.250000  0.263797  0.645367  1
  Rh  Rh10  1  0.750000  0.290373  0.127717  1
  Rh  Rh11  1  0.250000  0.709627  0.872283  1
