# generated using pymatgen
data_Yb6PrHo(Si3Pd)4
_symmetry_space_group_name_H-M   'P 1'
_cell_length_a   8.24377400
_cell_length_b   8.24377425
_cell_length_c   8.23949100
_cell_angle_alpha   90.00000000
_cell_angle_beta   90.00000000
_cell_angle_gamma   119.99999898
_symmetry_Int_Tables_number   1
_chemical_formula_structural   Yb6PrHo(Si3Pd)4
_chemical_formula_sum   'Yb6 Pr1 Ho1 Si12 Pd4'
_cell_volume   484.93461748
_cell_formula_units_Z   1
loop_
 _symmetry_equiv_pos_site_id
 _symmetry_equiv_pos_as_xyz
  1  'x, y, z'
loop_
 _atom_site_type_symbol
 _atom_site_label
 _atom_site_symmetry_multiplicity
 _atom_site_fract_x
 _atom_site_fract_y
 _atom_site_fract_z
 _atom_site_occupancy
  Yb  Yb0  1  0.499439  0.500561  0.750000  1
  Yb  Yb1  1  0.500559  0.499441  0.250000  1
  Yb  Yb2  1  0.001122  0.500561  0.750000  1
  Yb  Yb3  1  0.998881  0.499441  0.250000  1
  Yb  Yb4  1  0.499439  0.998878  0.750000  1
  Yb  Yb5  1  0.500559  0.001119  0.250000  1
  Pr  Pr6  1  0.000000  0.000000  0.250000  1
  Ho  Ho7  1  0.000000  0.000000  0.750000  1
  Si  Si8  1  0.835186  0.164814  0.996100  1
  Si  Si9  1  0.164806  0.835194  0.995638  1
  Si  Si10  1  0.329626  0.164814  0.996100  1
  Si  Si11  1  0.164806  0.835194  0.504362  1
  Si  Si12  1  0.670387  0.835194  0.995638  1
  Si  Si13  1  0.835186  0.164814  0.503900  1
  Si  Si14  1  0.835186  0.670374  0.996100  1
  Si  Si15  1  0.670387  0.835194  0.504362  1
  Si  Si16  1  0.164806  0.329613  0.995638  1
  Si  Si17  1  0.329626  0.164814  0.503900  1
  Si  Si18  1  0.164806  0.329613  0.504362  1
  Si  Si19  1  0.835186  0.670374  0.503900  1
  Pd  Pd20  1  0.666667  0.333333  0.997249  1
  Pd  Pd21  1  0.333333  0.666667  0.000521  1
  Pd  Pd22  1  0.333333  0.666667  0.499479  1
  Pd  Pd23  1  0.666667  0.333333  0.502751  1
