# generated using pymatgen
data_La2(PSe3)3
_symmetry_space_group_name_H-M   'P 1'
_cell_length_a   21.69623666
_cell_length_b   7.61758300
_cell_length_c   9.62847600
_cell_angle_alpha   90.00000000
_cell_angle_beta   91.28280456
_cell_angle_gamma   90.00000000
_symmetry_Int_Tables_number   1
_chemical_formula_structural   La2(PSe3)3
_chemical_formula_sum   'La8 P12 Se36'
_cell_volume   1590.92716360
_cell_formula_units_Z   4
loop_
 _symmetry_equiv_pos_site_id
 _symmetry_equiv_pos_as_xyz
  1  'x, y, z'
loop_
 _atom_site_type_symbol
 _atom_site_label
 _atom_site_symmetry_multiplicity
 _atom_site_fract_x
 _atom_site_fract_y
 _atom_site_fract_z
 _atom_site_occupancy
  La  La0  1  0.171141  0.932290  0.252903  1
  La  La1  1  0.843587  0.836681  0.248552  1
  La  La2  1  0.656413  0.336679  0.251448  1
  La  La3  1  0.328859  0.432290  0.247096  1
  La  La4  1  0.671141  0.567709  0.752904  1
  La  La5  1  0.343587  0.663320  0.748552  1
  La  La6  1  0.156413  0.163320  0.751448  1
  La  La7  1  0.828859  0.067709  0.747097  1
  P  P8  1  0.454366  0.564716  0.029263  1
  P  P9  1  0.814771  0.342897  0.058634  1
  P  P10  1  0.144679  0.439514  0.069240  1
  P  P11  1  0.355320  0.939512  0.430761  1
  P  P12  1  0.685229  0.842898  0.441366  1
  P  P13  1  0.045634  0.064718  0.470738  1
  P  P14  1  0.954366  0.935283  0.529262  1
  P  P15  1  0.314771  0.157103  0.558634  1
  P  P16  1  0.644680  0.060488  0.569239  1
  P  P17  1  0.855320  0.560487  0.930760  1
  P  P18  1  0.185229  0.657102  0.941366  1
  P  P19  1  0.545635  0.435283  0.970737  1
  Se  Se20  1  0.616260  0.631014  0.045147  1
  Se  Se21  1  0.271102  0.757350  0.048836  1
  Se  Se22  1  0.886892  0.139064  0.048896  1
  Se  Se23  1  0.932705  0.652261  0.059932  1
  Se  Se24  1  0.221730  0.242983  0.062327  1
  Se  Se25  1  0.550702  0.189001  0.086713  1
  Se  Se26  1  0.372566  0.051708  0.226030  1
  Se  Se27  1  0.704713  0.950326  0.231667  1
  Se  Se28  1  0.045504  0.094178  0.243807  1
  Se  Se29  1  0.454496  0.594180  0.256192  1
  Se  Se30  1  0.795288  0.450327  0.268333  1
  Se  Se31  1  0.127433  0.551709  0.273970  1
  Se  Se32  1  0.949298  0.689002  0.413288  1
  Se  Se33  1  0.278270  0.742981  0.437672  1
  Se  Se34  1  0.567295  0.152263  0.440068  1
  Se  Se35  1  0.613108  0.639065  0.451104  1
  Se  Se36  1  0.228898  0.257350  0.451163  1
  Se  Se37  1  0.883740  0.131016  0.454853  1
  Se  Se38  1  0.116260  0.868985  0.545147  1
  Se  Se39  1  0.771102  0.742650  0.548837  1
  Se  Se40  1  0.386892  0.360936  0.548896  1
  Se  Se41  1  0.432706  0.847738  0.559932  1
  Se  Se42  1  0.721730  0.257018  0.562328  1
  Se  Se43  1  0.050702  0.310999  0.586712  1
  Se  Se44  1  0.872567  0.448292  0.726030  1
  Se  Se45  1  0.204712  0.549674  0.731667  1
  Se  Se46  1  0.545504  0.405821  0.743808  1
  Se  Se47  1  0.954496  0.905821  0.756193  1
  Se  Se48  1  0.295287  0.049674  0.768333  1
  Se  Se49  1  0.627433  0.948292  0.773970  1
  Se  Se50  1  0.449298  0.810999  0.913287  1
  Se  Se51  1  0.778270  0.757018  0.937673  1
  Se  Se52  1  0.067295  0.347738  0.940068  1
  Se  Se53  1  0.113108  0.860936  0.951104  1
  Se  Se54  1  0.728899  0.242651  0.951164  1
  Se  Se55  1  0.383740  0.368985  0.954854  1
