# generated using pymatgen
data_NiPdBr18
_symmetry_space_group_name_H-M   'P 1'
_cell_length_a   9.08189228
_cell_length_b   9.08302298
_cell_length_c   9.08377200
_cell_angle_alpha   92.05563491
_cell_angle_beta   92.04233009
_cell_angle_gamma   92.05105466
_symmetry_Int_Tables_number   1
_chemical_formula_structural   NiPdBr18
_chemical_formula_sum   'Ni1 Pd1 Br18'
_cell_volume   747.85620917
_cell_formula_units_Z   1
loop_
 _symmetry_equiv_pos_site_id
 _symmetry_equiv_pos_as_xyz
  1  'x, y, z'
loop_
 _atom_site_type_symbol
 _atom_site_label
 _atom_site_symmetry_multiplicity
 _atom_site_fract_x
 _atom_site_fract_y
 _atom_site_fract_z
 _atom_site_occupancy
  Ni  Ni0  1  0.000000  0.000000  0.000000  1
  Pd  Pd1  1  0.500000  0.500000  0.500000  1
  Br  Br2  1  0.725455  0.976642  0.030138  1
  Br  Br3  1  0.745266  0.128966  0.615765  1
  Br  Br4  1  0.030120  0.725395  0.976569  1
  Br  Br5  1  0.254734  0.871034  0.384235  1
  Br  Br6  1  0.128989  0.615754  0.745265  1
  Br  Br7  1  0.023419  0.969850  0.274570  1
  Br  Br8  1  0.615740  0.745235  0.129028  1
  Br  Br9  1  0.969880  0.274605  0.023431  1
  Br  Br10  1  0.871011  0.384246  0.254735  1
  Br  Br11  1  0.384260  0.254765  0.870972  1
  Br  Br12  1  0.976581  0.030150  0.725430  1
  Br  Br13  1  0.274545  0.023358  0.969862  1
  Br  Br14  1  0.776762  0.529947  0.488431  1
  Br  Br15  1  0.511515  0.223256  0.470124  1
  Br  Br16  1  0.470104  0.511505  0.223355  1
  Br  Br17  1  0.488485  0.776744  0.529876  1
  Br  Br18  1  0.529896  0.488495  0.776645  1
  Br  Br19  1  0.223238  0.470053  0.511569  1
