# generated using pymatgen
data_Ca21Al(Ga6Sb)2
_symmetry_space_group_name_H-M   'P 1'
_cell_length_a   11.35901385
_cell_length_b   11.35901486
_cell_length_c   11.42851500
_cell_angle_alpha   59.79739146
_cell_angle_beta   59.79738849
_cell_angle_gamma   59.99081778
_symmetry_Int_Tables_number   1
_chemical_formula_structural   Ca21Al(Ga6Sb)2
_chemical_formula_sum   'Ca21 Al1 Ga12 Sb2'
_cell_volume   1039.41582576
_cell_formula_units_Z   1
loop_
 _symmetry_equiv_pos_site_id
 _symmetry_equiv_pos_as_xyz
  1  'x, y, z'
loop_
 _atom_site_type_symbol
 _atom_site_label
 _atom_site_symmetry_multiplicity
 _atom_site_fract_x
 _atom_site_fract_y
 _atom_site_fract_z
 _atom_site_occupancy
  Ca  Ca0  1  0.998336  0.001664  0.000000  1
  Ca  Ca1  1  0.127870  0.134467  0.126623  1
  Ca  Ca2  1  0.391358  0.876267  0.866187  1
  Ca  Ca3  1  0.870395  0.388781  0.870412  1
  Ca  Ca4  1  0.865533  0.872130  0.388959  1
  Ca  Ca5  1  0.123733  0.608642  0.133813  1
  Ca  Ca6  1  0.127870  0.134467  0.611041  1
  Ca  Ca7  1  0.611219  0.129605  0.129588  1
  Ca  Ca8  1  0.865533  0.872130  0.873377  1
  Ca  Ca9  1  0.504866  0.820578  0.495062  1
  Ca  Ca10  1  0.821041  0.499296  0.501194  1
  Ca  Ca11  1  0.504866  0.820578  0.179495  1
  Ca  Ca12  1  0.179422  0.495134  0.820505  1
  Ca  Ca13  1  0.821041  0.499296  0.178469  1
  Ca  Ca14  1  0.505824  0.494176  0.820796  1
  Ca  Ca15  1  0.178831  0.821169  0.500000  1
  Ca  Ca16  1  0.500704  0.178959  0.821531  1
  Ca  Ca17  1  0.505824  0.494176  0.179204  1
  Ca  Ca18  1  0.820721  0.179279  0.500000  1
  Ca  Ca19  1  0.179422  0.495134  0.504938  1
  Ca  Ca20  1  0.500704  0.178959  0.498806  1
  Al  Al21  1  0.501002  0.498998  0.500000  1
  Ga  Ga22  1  0.787857  0.212143  0.211046  1
  Ga  Ga23  1  0.784093  0.787445  0.214231  1
  Ga  Ga24  1  0.212555  0.215907  0.785769  1
  Ga  Ga25  1  0.787857  0.212143  0.788954  1
  Ga  Ga26  1  0.309518  0.309650  0.308825  1
  Ga  Ga27  1  0.927302  0.692542  0.690078  1
  Ga  Ga28  1  0.691100  0.931501  0.688700  1
  Ga  Ga29  1  0.690350  0.690483  0.927993  1
  Ga  Ga30  1  0.307458  0.072698  0.309922  1
  Ga  Ga31  1  0.309517  0.309650  0.072007  1
  Ga  Ga32  1  0.068499  0.308900  0.311300  1
  Ga  Ga33  1  0.690350  0.690483  0.691174  1
  Sb  Sb34  1  0.213716  0.786284  0.210183  1
  Sb  Sb35  1  0.213716  0.786284  0.789817  1
