# generated using pymatgen
data_LaGaNiSn
_symmetry_space_group_name_H-M   'P 1'
_cell_length_a   4.44341500
_cell_length_b   4.43932372
_cell_length_c   9.17282379
_cell_angle_alpha   75.99643305
_cell_angle_beta   90.00000000
_cell_angle_gamma   90.00000000
_symmetry_Int_Tables_number   1
_chemical_formula_structural   LaGaNiSn
_chemical_formula_sum   'La2 Ga2 Ni2 Sn2'
_cell_volume   175.56345508
_cell_formula_units_Z   2
loop_
 _symmetry_equiv_pos_site_id
 _symmetry_equiv_pos_as_xyz
  1  'x, y, z'
loop_
 _atom_site_type_symbol
 _atom_site_label
 _atom_site_symmetry_multiplicity
 _atom_site_fract_x
 _atom_site_fract_y
 _atom_site_fract_z
 _atom_site_occupancy
  La  La0  1  0.250000  0.890986  0.218029  1
  La  La1  1  0.750000  0.109873  0.780256  1
  Ga  Ga2  1  0.750000  0.452369  0.095263  1
  Ga  Ga3  1  0.250000  0.251524  0.496952  1
  Ni  Ni4  1  0.750000  0.321031  0.357939  1
  Ni  Ni5  1  0.250000  0.682548  0.634907  1
  Sn  Sn6  1  0.750000  0.750872  0.498259  1
  Sn  Sn7  1  0.250000  0.540804  0.918394  1
