# generated using pymatgen
data_Nb4Al4Zn3Cu
_symmetry_space_group_name_H-M   'P 1'
_cell_length_a   5.01786718
_cell_length_b   5.10974484
_cell_length_c   8.33303000
_cell_angle_alpha   90.00000000
_cell_angle_beta   90.00000000
_cell_angle_gamma   120.60735457
_symmetry_Int_Tables_number   1
_chemical_formula_structural   Nb4Al4Zn3Cu
_chemical_formula_sum   'Nb4 Al4 Zn3 Cu1'
_cell_volume   183.89137333
_cell_formula_units_Z   1
loop_
 _symmetry_equiv_pos_site_id
 _symmetry_equiv_pos_as_xyz
  1  'x, y, z'
loop_
 _atom_site_type_symbol
 _atom_site_label
 _atom_site_symmetry_multiplicity
 _atom_site_fract_x
 _atom_site_fract_y
 _atom_site_fract_z
 _atom_site_occupancy
  Nb  Nb0  1  0.673580  0.336790  0.566155  1
  Nb  Nb1  1  0.321929  0.660964  0.439183  1
  Nb  Nb2  1  0.321929  0.660964  0.060817  1
  Nb  Nb3  1  0.673580  0.336790  0.933845  1
  Al  Al4  1  0.987776  0.993888  0.498054  1
  Al  Al5  1  0.987776  0.993888  0.001946  1
  Al  Al6  1  0.186613  0.351429  0.750000  1
  Al  Al7  1  0.186611  0.835183  0.750000  1
  Zn  Zn8  1  0.822757  0.652380  0.250000  1
  Zn  Zn9  1  0.822761  0.170381  0.250000  1
  Zn  Zn10  1  0.340647  0.170322  0.250000  1
  Cu  Cu11  1  0.674041  0.837022  0.750000  1
