# generated using pymatgen
data_LiY9Cd3Pt
_symmetry_space_group_name_H-M   'P 1'
_cell_length_a   9.57810100
_cell_length_b   9.57810094
_cell_length_c   9.72048500
_cell_angle_alpha   90.00000000
_cell_angle_beta   90.00000000
_cell_angle_gamma   119.99999677
_symmetry_Int_Tables_number   1
_chemical_formula_structural   LiY9Cd3Pt
_chemical_formula_sum   'Li2 Y18 Cd6 Pt2'
_cell_volume   772.28464843
_cell_formula_units_Z   2
loop_
 _symmetry_equiv_pos_site_id
 _symmetry_equiv_pos_as_xyz
  1  'x, y, z'
loop_
 _atom_site_type_symbol
 _atom_site_label
 _atom_site_symmetry_multiplicity
 _atom_site_fract_x
 _atom_site_fract_y
 _atom_site_fract_z
 _atom_site_occupancy
  Li  Li0  1  0.000000  0.000000  0.000000  1
  Li  Li1  1  0.000000  0.000000  0.500000  1
  Y  Y2  1  0.205387  0.794613  0.942368  1
  Y  Y3  1  0.205387  0.410773  0.942368  1
  Y  Y4  1  0.589227  0.794613  0.942368  1
  Y  Y5  1  0.794613  0.205387  0.057632  1
  Y  Y6  1  0.794613  0.589227  0.057632  1
  Y  Y7  1  0.410773  0.205387  0.057632  1
  Y  Y8  1  0.794613  0.205387  0.442368  1
  Y  Y9  1  0.794613  0.589227  0.442368  1
  Y  Y10  1  0.410773  0.205387  0.442368  1
  Y  Y11  1  0.205387  0.794613  0.557632  1
  Y  Y12  1  0.205387  0.410773  0.557632  1
  Y  Y13  1  0.589227  0.794613  0.557632  1
  Y  Y14  1  0.542470  0.457530  0.750000  1
  Y  Y15  1  0.542470  0.084940  0.750000  1
  Y  Y16  1  0.915060  0.457530  0.750000  1
  Y  Y17  1  0.457530  0.542470  0.250000  1
  Y  Y18  1  0.457530  0.915060  0.250000  1
  Y  Y19  1  0.084940  0.542470  0.250000  1
  Cd  Cd20  1  0.891848  0.108152  0.750000  1
  Cd  Cd21  1  0.891848  0.783697  0.750000  1
  Cd  Cd22  1  0.216303  0.108152  0.750000  1
  Cd  Cd23  1  0.108152  0.891848  0.250000  1
  Cd  Cd24  1  0.108152  0.216303  0.250000  1
  Cd  Cd25  1  0.783697  0.891848  0.250000  1
  Pt  Pt26  1  0.333333  0.666667  0.750000  1
  Pt  Pt27  1  0.666667  0.333333  0.250000  1
