# generated using pymatgen
data_Tb2Er6Ti3Si16Mo9
_symmetry_space_group_name_H-M   'P 1'
_cell_length_a   6.90282437
_cell_length_b   6.90284949
_cell_length_c   12.78227243
_cell_angle_alpha   89.98594832
_cell_angle_beta   89.97190666
_cell_angle_gamma   89.78757671
_symmetry_Int_Tables_number   1
_chemical_formula_structural   Tb2Er6Ti3Si16Mo9
_chemical_formula_sum   'Tb2 Er6 Ti3 Si16 Mo9'
_cell_volume   609.06023767
_cell_formula_units_Z   1
loop_
 _symmetry_equiv_pos_site_id
 _symmetry_equiv_pos_as_xyz
  1  'x, y, z'
loop_
 _atom_site_type_symbol
 _atom_site_label
 _atom_site_symmetry_multiplicity
 _atom_site_fract_x
 _atom_site_fract_y
 _atom_site_fract_z
 _atom_site_occupancy
  Tb  Tb0  1  0.339002  0.002462  0.468282  1
  Tb  Tb1  1  0.496625  0.838512  0.719324  1
  Er  Er2  1  0.499116  0.161651  0.217271  1
  Er  Er3  1  0.839137  0.497412  0.280453  1
  Er  Er4  1  0.161310  0.498907  0.782766  1
  Er  Er5  1  0.659543  0.000393  0.968934  1
  Er  Er6  1  0.001373  0.339610  0.531473  1
  Er  Er7  1  0.000090  0.659379  0.031225  1
  Ti  Ti8  1  0.169808  0.831454  0.248351  1
  Ti  Ti9  1  0.831588  0.170086  0.751588  1
  Ti  Ti10  1  0.669085  0.668602  0.499852  1
  Si  Si11  1  0.200025  0.130283  0.683916  1
  Si  Si12  1  0.373258  0.697137  0.934314  1
  Si  Si13  1  0.630007  0.299762  0.433195  1
  Si  Si14  1  0.697460  0.373390  0.066270  1
  Si  Si15  1  0.297999  0.626953  0.566276  1
  Si  Si16  1  0.796735  0.871390  0.183711  1
  Si  Si17  1  0.128545  0.201814  0.316000  1
  Si  Si18  1  0.872696  0.796539  0.816517  1
  Si  Si19  1  0.288211  0.963535  0.061723  1
  Si  Si20  1  0.539940  0.790947  0.312971  1
  Si  Si21  1  0.458245  0.211869  0.815397  1
  Si  Si22  1  0.792295  0.538735  0.686580  1
  Si  Si23  1  0.210435  0.458449  0.184871  1
  Si  Si24  1  0.711459  0.041965  0.563653  1
  Si  Si25  1  0.963383  0.288268  0.938457  1
  Si  Si26  1  0.040249  0.708766  0.436023  1
  Mo  Mo27  1  0.331325  0.331398  0.000114  1
  Mo  Mo28  1  0.155322  0.002126  0.873620  1
  Mo  Mo29  1  0.496498  0.666247  0.124353  1
  Mo  Mo30  1  0.506343  0.340814  0.624763  1
  Mo  Mo31  1  0.666994  0.496310  0.875937  1
  Mo  Mo32  1  0.340482  0.505514  0.375143  1
  Mo  Mo33  1  0.840630  0.993430  0.373890  1
  Mo  Mo34  1  0.001408  0.155678  0.126781  1
  Mo  Mo35  1  0.993379  0.840215  0.626009  1
