# generated using pymatgen
data_Tm4V3B16Mo
_symmetry_space_group_name_H-M   'P 1'
_cell_length_a   3.45181000
_cell_length_b   5.98948692
_cell_length_c   11.58705734
_cell_angle_alpha   89.98215441
_cell_angle_beta   90.00000000
_cell_angle_gamma   90.00000000
_symmetry_Int_Tables_number   1
_chemical_formula_structural   Tm4V3B16Mo
_chemical_formula_sum   'Tm4 V3 B16 Mo1'
_cell_volume   239.55742619
_cell_formula_units_Z   1
loop_
 _symmetry_equiv_pos_site_id
 _symmetry_equiv_pos_as_xyz
  1  'x, y, z'
loop_
 _atom_site_type_symbol
 _atom_site_label
 _atom_site_symmetry_multiplicity
 _atom_site_fract_x
 _atom_site_fract_y
 _atom_site_fract_z
 _atom_site_occupancy
  Tm  Tm0  1  0.500000  0.125524  0.652381  1
  Tm  Tm1  1  0.500000  0.872858  0.347551  1
  Tm  Tm2  1  0.500000  0.624315  0.849394  1
  Tm  Tm3  1  0.500000  0.376029  0.148981  1
  V  V4  1  0.500000  0.127712  0.916929  1
  V  V5  1  0.500000  0.871993  0.082913  1
  V  V6  1  0.500000  0.629690  0.584027  1
  B  B7  1  0.000000  0.478376  0.694070  1
  B  B8  1  0.000000  0.526001  0.304986  1
  B  B9  1  0.000000  0.977350  0.807217  1
  B  B10  1  0.000000  0.021426  0.192049  1
  B  B11  1  0.000000  0.287863  0.814624  1
  B  B12  1  0.000000  0.713130  0.184952  1
  B  B13  1  0.000000  0.787635  0.686485  1
  B  B14  1  0.000000  0.208742  0.311802  1
  B  B15  1  0.000000  0.365259  0.967702  1
  B  B16  1  0.000000  0.634819  0.032051  1
  B  B17  1  0.000000  0.865773  0.533433  1
  B  B18  1  0.000000  0.130587  0.469461  1
  B  B19  1  0.000000  0.386034  0.550410  1
  B  B20  1  0.000000  0.618721  0.453245  1
  B  B21  1  0.000000  0.884696  0.951942  1
  B  B22  1  0.000000  0.114978  0.047603  1
  Mo  Mo23  1  0.500000  0.370491  0.415790  1
