# generated using pymatgen
data_Ho4Er4Sc12Si15P
_symmetry_space_group_name_H-M   'P 1'
_cell_length_a   7.06707910
_cell_length_b   7.35066009
_cell_length_c   13.93343001
_cell_angle_alpha   90.00077727
_cell_angle_beta   90.00318861
_cell_angle_gamma   90.10262193
_symmetry_Int_Tables_number   1
_chemical_formula_structural   Ho4Er4Sc12Si15P
_chemical_formula_sum   'Ho4 Er4 Sc12 Si15 P1'
_cell_volume   723.80842813
_cell_formula_units_Z   1
loop_
 _symmetry_equiv_pos_site_id
 _symmetry_equiv_pos_as_xyz
  1  'x, y, z'
loop_
 _atom_site_type_symbol
 _atom_site_label
 _atom_site_symmetry_multiplicity
 _atom_site_fract_x
 _atom_site_fract_y
 _atom_site_fract_z
 _atom_site_occupancy
  Ho  Ho0  1  0.511099  0.324176  0.095774  1
  Ho  Ho1  1  0.009982  0.175268  0.403904  1
  Ho  Ho2  1  0.511189  0.324294  0.403982  1
  Ho  Ho3  1  0.490328  0.675585  0.595995  1
  Er  Er4  1  0.010007  0.175423  0.096197  1
  Er  Er5  1  0.991155  0.826021  0.900673  1
  Er  Er6  1  0.490234  0.675822  0.904091  1
  Er  Er7  1  0.991184  0.826200  0.599738  1
  Sc  Sc8  1  0.160397  0.502367  0.750118  1
  Sc  Sc9  1  0.838196  0.497187  0.249847  1
  Sc  Sc10  1  0.338632  0.002694  0.249863  1
  Sc  Sc11  1  0.663323  0.998625  0.750133  1
  Sc  Sc12  1  0.327582  0.172837  0.627498  1
  Sc  Sc13  1  0.667833  0.823643  0.375351  1
  Sc  Sc14  1  0.167509  0.677805  0.375125  1
  Sc  Sc15  1  0.667655  0.823471  0.124405  1
  Sc  Sc16  1  0.832490  0.322906  0.626442  1
  Sc  Sc17  1  0.327517  0.172884  0.872671  1
  Sc  Sc18  1  0.832755  0.322849  0.873565  1
  Sc  Sc19  1  0.167612  0.677389  0.124587  1
  Si  Si20  1  0.964515  0.884860  0.249774  1
  Si  Si21  1  0.465371  0.614884  0.249910  1
  Si  Si22  1  0.531688  0.383448  0.750197  1
  Si  Si23  1  0.296190  0.862092  0.750290  1
  Si  Si24  1  0.714172  0.127144  0.249734  1
  Si  Si25  1  0.214146  0.372702  0.249781  1
  Si  Si26  1  0.787329  0.629798  0.750275  1
  Si  Si27  1  0.158546  0.463978  0.540104  1
  Si  Si28  1  0.841372  0.536271  0.461703  1
  Si  Si29  1  0.339485  0.965310  0.460982  1
  Si  Si30  1  0.841334  0.535769  0.038395  1
  Si  Si31  1  0.661069  0.036376  0.540357  1
  Si  Si32  1  0.159070  0.463803  0.959947  1
  Si  Si33  1  0.660995  0.036023  0.959536  1
  Si  Si34  1  0.338801  0.965185  0.038976  1
  P  P35  1  0.029238  0.124911  0.750085  1
