# generated using pymatgen
data_DyY3Al4RuPt3
_symmetry_space_group_name_H-M   'P 1'
_cell_length_a   4.37381800
_cell_length_b   6.87613358
_cell_length_c   7.87183914
_cell_angle_alpha   89.81823276
_cell_angle_beta   90.00000000
_cell_angle_gamma   90.00000000
_symmetry_Int_Tables_number   1
_chemical_formula_structural   DyY3Al4RuPt3
_chemical_formula_sum   'Dy1 Y3 Al4 Ru1 Pt3'
_cell_volume   236.74403100
_cell_formula_units_Z   1
loop_
 _symmetry_equiv_pos_site_id
 _symmetry_equiv_pos_as_xyz
  1  'x, y, z'
loop_
 _atom_site_type_symbol
 _atom_site_label
 _atom_site_symmetry_multiplicity
 _atom_site_fract_x
 _atom_site_fract_y
 _atom_site_fract_z
 _atom_site_occupancy
  Dy  Dy0  1  0.750000  0.022761  0.679873  1
  Y  Y1  1  0.250000  0.470378  0.181295  1
  Y  Y2  1  0.750000  0.531928  0.814531  1
  Y  Y3  1  0.250000  0.967321  0.321941  1
  Al  Al4  1  0.250000  0.855075  0.937072  1
  Al  Al5  1  0.750000  0.142642  0.062776  1
  Al  Al6  1  0.750000  0.644855  0.438945  1
  Al  Al7  1  0.250000  0.361431  0.563893  1
  Ru  Ru8  1  0.250000  0.735213  0.617730  1
  Pt  Pt9  1  0.750000  0.270882  0.380969  1
  Pt  Pt10  1  0.750000  0.770727  0.118563  1
  Pt  Pt11  1  0.250000  0.226788  0.882412  1
