# generated using pymatgen
data_La9Pr(CoPd2)2
_symmetry_space_group_name_H-M   'P 1'
_cell_length_a   8.76501633
_cell_length_b   8.36811600
_cell_length_c   12.14423731
_cell_angle_alpha   90.00000000
_cell_angle_beta   90.24709454
_cell_angle_gamma   90.00000000
_symmetry_Int_Tables_number   1
_chemical_formula_structural   La9Pr(CoPd2)2
_chemical_formula_sum   'La18 Pr2 Co4 Pd8'
_cell_volume   890.73112348
_cell_formula_units_Z   2
loop_
 _symmetry_equiv_pos_site_id
 _symmetry_equiv_pos_as_xyz
  1  'x, y, z'
loop_
 _atom_site_type_symbol
 _atom_site_label
 _atom_site_symmetry_multiplicity
 _atom_site_fract_x
 _atom_site_fract_y
 _atom_site_fract_z
 _atom_site_occupancy
  La  La0  1  0.833469  0.750000  0.795234  1
  La  La1  1  0.166531  0.250000  0.204766  1
  La  La2  1  0.334445  0.250000  0.705088  1
  La  La3  1  0.665555  0.750000  0.294912  1
  La  La4  1  0.376384  0.750000  0.694961  1
  La  La5  1  0.623616  0.250000  0.305039  1
  La  La6  1  0.875314  0.250000  0.805436  1
  La  La7  1  0.124686  0.750000  0.194564  1
  La  La8  1  0.965221  0.750000  0.495845  1
  La  La9  1  0.034779  0.250000  0.504155  1
  La  La10  1  0.671321  0.033277  0.581920  1
  La  La11  1  0.328679  0.966723  0.418080  1
  La  La12  1  0.171823  0.966591  0.918155  1
  La  La13  1  0.328679  0.533277  0.418080  1
  La  La14  1  0.828177  0.033409  0.081845  1
  La  La15  1  0.671321  0.466723  0.581920  1
  La  La16  1  0.828177  0.466591  0.081845  1
  La  La17  1  0.171823  0.533409  0.918155  1
  Pr  Pr18  1  0.465773  0.250000  0.004886  1
  Pr  Pr19  1  0.534227  0.750000  0.995114  1
  Co  Co20  1  0.561685  0.750000  0.509863  1
  Co  Co21  1  0.438315  0.250000  0.490137  1
  Co  Co22  1  0.061837  0.250000  0.990189  1
  Co  Co23  1  0.938163  0.750000  0.009811  1
  Pd  Pd24  1  0.562540  0.476019  0.824892  1
  Pd  Pd25  1  0.437460  0.523981  0.175108  1
  Pd  Pd26  1  0.062145  0.523649  0.674482  1
  Pd  Pd27  1  0.437460  0.976019  0.175108  1
  Pd  Pd28  1  0.937855  0.476351  0.325518  1
  Pd  Pd29  1  0.562540  0.023981  0.824892  1
  Pd  Pd30  1  0.937855  0.023649  0.325518  1
  Pd  Pd31  1  0.062145  0.976351  0.674482  1
