# generated using pymatgen
data_VSbCl10
_symmetry_space_group_name_H-M   'P 1'
_cell_length_a   7.41375568
_cell_length_b   7.66208885
_cell_length_c   14.31271357
_cell_angle_alpha   90.49475552
_cell_angle_beta   91.25248305
_cell_angle_gamma   106.65520282
_symmetry_Int_Tables_number   1
_chemical_formula_structural   VSbCl10
_chemical_formula_sum   'V2 Sb2 Cl20'
_cell_volume   778.64207276
_cell_formula_units_Z   2
loop_
 _symmetry_equiv_pos_site_id
 _symmetry_equiv_pos_as_xyz
  1  'x, y, z'
loop_
 _atom_site_type_symbol
 _atom_site_label
 _atom_site_symmetry_multiplicity
 _atom_site_fract_x
 _atom_site_fract_y
 _atom_site_fract_z
 _atom_site_occupancy
  V  V0  1  0.382830  0.591428  0.760831  1
  V  V1  1  0.617170  0.408572  0.239169  1
  Sb  Sb2  1  0.000000  0.000000  0.500000  1
  Sb  Sb3  1  0.000000  0.000000  0.000000  1
  Cl  Cl4  1  0.296717  0.079181  0.921327  1
  Cl  Cl5  1  0.703283  0.920819  0.078673  1
  Cl  Cl6  1  0.111131  0.270772  0.098112  1
  Cl  Cl7  1  0.888869  0.729228  0.901888  1
  Cl  Cl8  1  0.125350  0.827644  0.111610  1
  Cl  Cl9  1  0.874650  0.172356  0.888390  1
  Cl  Cl10  1  0.228178  0.293472  0.478220  1
  Cl  Cl11  1  0.771822  0.706528  0.521780  1
  Cl  Cl12  1  0.231291  0.847716  0.457246  1
  Cl  Cl13  1  0.768709  0.152284  0.542754  1
  Cl  Cl14  1  0.099288  0.004299  0.661713  1
  Cl  Cl15  1  0.900712  0.995701  0.338287  1
  Cl  Cl16  1  0.662272  0.409790  0.095973  1
  Cl  Cl17  1  0.337728  0.590210  0.904027  1
  Cl  Cl18  1  0.876545  0.482283  0.310543  1
  Cl  Cl19  1  0.123455  0.517717  0.689457  1
  Cl  Cl20  1  0.464880  0.149671  0.280852  1
  Cl  Cl21  1  0.535120  0.850329  0.719148  1
  Cl  Cl22  1  0.470880  0.595598  0.274380  1
  Cl  Cl23  1  0.529120  0.404402  0.725620  1
