# generated using pymatgen
data_Ca7Pr(Si4Mo3)4
_symmetry_space_group_name_H-M   'P 1'
_cell_length_a   6.76516841
_cell_length_b   6.98334357
_cell_length_c   13.12587495
_cell_angle_alpha   90.05789679
_cell_angle_beta   90.04046109
_cell_angle_gamma   89.97459262
_symmetry_Int_Tables_number   1
_chemical_formula_structural   Ca7Pr(Si4Mo3)4
_chemical_formula_sum   'Ca7 Pr1 Si16 Mo12'
_cell_volume   620.11167991
_cell_formula_units_Z   1
loop_
 _symmetry_equiv_pos_site_id
 _symmetry_equiv_pos_as_xyz
  1  'x, y, z'
loop_
 _atom_site_type_symbol
 _atom_site_label
 _atom_site_symmetry_multiplicity
 _atom_site_fract_x
 _atom_site_fract_y
 _atom_site_fract_z
 _atom_site_occupancy
  Ca  Ca0  1  0.498688  0.333563  0.091058  1
  Ca  Ca1  1  0.998441  0.166859  0.408520  1
  Ca  Ca2  1  0.501210  0.667196  0.591775  1
  Ca  Ca3  1  0.001453  0.832034  0.906105  1
  Ca  Ca4  1  0.501920  0.666996  0.906851  1
  Ca  Ca5  1  0.001093  0.832392  0.591783  1
  Ca  Ca6  1  0.498464  0.333984  0.410266  1
  Pr  Pr7  1  0.001276  0.167439  0.092471  1
  Si  Si8  1  0.657168  0.043254  0.546260  1
  Si  Si9  1  0.158238  0.460148  0.952039  1
  Si  Si10  1  0.347369  0.952599  0.045187  1
  Si  Si11  1  0.843125  0.543241  0.454172  1
  Si  Si12  1  0.342735  0.956746  0.454515  1
  Si  Si13  1  0.841213  0.549064  0.044795  1
  Si  Si14  1  0.656089  0.042828  0.951820  1
  Si  Si15  1  0.156877  0.456073  0.546491  1
  Si  Si16  1  0.534998  0.371647  0.749705  1
  Si  Si17  1  0.034954  0.127821  0.749584  1
  Si  Si18  1  0.465217  0.629143  0.249835  1
  Si  Si19  1  0.963804  0.867866  0.252049  1
  Si  Si20  1  0.800851  0.627288  0.749344  1
  Si  Si21  1  0.301431  0.872340  0.749569  1
  Si  Si22  1  0.201385  0.375582  0.252648  1
  Si  Si23  1  0.693505  0.127433  0.252822  1
  Mo  Mo24  1  0.834895  0.330249  0.627946  1
  Mo  Mo25  1  0.333866  0.169002  0.871813  1
  Mo  Mo26  1  0.165014  0.668769  0.127820  1
  Mo  Mo27  1  0.664720  0.829502  0.372537  1
  Mo  Mo28  1  0.165890  0.669578  0.372387  1
  Mo  Mo29  1  0.666794  0.831521  0.128293  1
  Mo  Mo30  1  0.834723  0.331188  0.871686  1
  Mo  Mo31  1  0.334561  0.168943  0.628160  1
  Mo  Mo32  1  0.660984  0.011768  0.749554  1
  Mo  Mo33  1  0.161453  0.488441  0.749822  1
  Mo  Mo34  1  0.338156  0.988069  0.250818  1
  Mo  Mo35  1  0.837439  0.509434  0.249503  1
