# generated using pymatgen
data_Sr3Nd2Si12Ir19
_symmetry_space_group_name_H-M   'P 1'
_cell_length_a   12.92215700
_cell_length_b   12.92215791
_cell_length_c   4.05424500
_cell_angle_alpha   90.00000000
_cell_angle_beta   90.00000000
_cell_angle_gamma   120.00000022
_symmetry_Int_Tables_number   1
_chemical_formula_structural   Sr3Nd2Si12Ir19
_chemical_formula_sum   'Sr3 Nd2 Si12 Ir19'
_cell_volume   586.28755790
_cell_formula_units_Z   1
loop_
 _symmetry_equiv_pos_site_id
 _symmetry_equiv_pos_as_xyz
  1  'x, y, z'
loop_
 _atom_site_type_symbol
 _atom_site_label
 _atom_site_symmetry_multiplicity
 _atom_site_fract_x
 _atom_site_fract_y
 _atom_site_fract_z
 _atom_site_occupancy
  Sr  Sr0  1  0.000000  0.816424  0.500000  1
  Sr  Sr1  1  0.183576  0.183576  0.500000  1
  Sr  Sr2  1  0.816424  0.000000  0.500000  1
  Nd  Nd3  1  0.333333  0.666667  0.000000  1
  Nd  Nd4  1  0.666667  0.333333  0.000000  1
  Si  Si5  1  0.000000  0.185934  0.000000  1
  Si  Si6  1  0.814066  0.814066  0.000000  1
  Si  Si7  1  0.185934  0.000000  0.000000  1
  Si  Si8  1  0.521326  0.689898  0.500000  1
  Si  Si9  1  0.310102  0.831428  0.500000  1
  Si  Si10  1  0.168572  0.478674  0.500000  1
  Si  Si11  1  0.478674  0.168572  0.500000  1
  Si  Si12  1  0.689898  0.521326  0.500000  1
  Si  Si13  1  0.831428  0.310102  0.500000  1
  Si  Si14  1  0.000000  0.629439  0.000000  1
  Si  Si15  1  0.370561  0.370561  0.000000  1
  Si  Si16  1  0.629439  0.000000  0.000000  1
  Ir  Ir17  1  0.000000  0.286203  0.500000  1
  Ir  Ir18  1  0.713797  0.713797  0.500000  1
  Ir  Ir19  1  0.286203  0.000000  0.500000  1
  Ir  Ir20  1  0.619104  0.803223  0.000000  1
  Ir  Ir21  1  0.196777  0.815880  0.000000  1
  Ir  Ir22  1  0.184120  0.380896  0.000000  1
  Ir  Ir23  1  0.380896  0.184120  0.000000  1
  Ir  Ir24  1  0.803223  0.619104  0.000000  1
  Ir  Ir25  1  0.815880  0.196777  0.000000  1
  Ir  Ir26  1  0.511249  0.874814  0.500000  1
  Ir  Ir27  1  0.125186  0.636436  0.500000  1
  Ir  Ir28  1  0.363564  0.488751  0.500000  1
  Ir  Ir29  1  0.488751  0.363564  0.500000  1
  Ir  Ir30  1  0.874814  0.511249  0.500000  1
  Ir  Ir31  1  0.636436  0.125186  0.500000  1
  Ir  Ir32  1  0.000000  0.000000  0.000000  1
  Ir  Ir33  1  0.000000  0.447640  0.000000  1
  Ir  Ir34  1  0.552360  0.552360  0.000000  1
  Ir  Ir35  1  0.447640  0.000000  0.000000  1
