# generated using pymatgen
data_BaPPt8Pb
_symmetry_space_group_name_H-M   'P 1'
_cell_length_a   9.35331179
_cell_length_b   9.42203569
_cell_length_c   4.29295000
_cell_angle_alpha   90.00000000
_cell_angle_beta   90.00000000
_cell_angle_gamma   145.47900503
_symmetry_Int_Tables_number   1
_chemical_formula_structural   BaPPt8Pb
_chemical_formula_sum   'Ba1 P1 Pt8 Pb1'
_cell_volume   214.40034119
_cell_formula_units_Z   1
loop_
 _symmetry_equiv_pos_site_id
 _symmetry_equiv_pos_as_xyz
  1  'x, y, z'
loop_
 _atom_site_type_symbol
 _atom_site_label
 _atom_site_symmetry_multiplicity
 _atom_site_fract_x
 _atom_site_fract_y
 _atom_site_fract_z
 _atom_site_occupancy
  Ba  Ba0  1  0.620315  0.382005  0.500000  1
  P  P1  1  0.207479  0.201983  0.000000  1
  Pt  Pt2  1  0.109469  0.884809  0.000000  1
  Pt  Pt3  1  0.887623  0.100136  0.000000  1
  Pt  Pt4  1  0.501766  0.995307  0.000000  1
  Pt  Pt5  1  0.998788  0.493524  0.000000  1
  Pt  Pt6  1  0.204130  0.793388  0.500000  1
  Pt  Pt7  1  0.807980  0.196891  0.500000  1
  Pt  Pt8  1  0.002458  0.999496  0.500000  1
  Pt  Pt9  1  0.590551  0.624877  0.000000  1
  Pb  Pb10  1  0.383040  0.641184  0.500000  1
