# generated using pymatgen
data_Ce4Ho8Tc3Os
_symmetry_space_group_name_H-M   'P 1'
_cell_length_a   6.36666900
_cell_length_b   7.32237705
_cell_length_c   9.46619900
_cell_angle_alpha   90.00000000
_cell_angle_beta   90.00000000
_cell_angle_gamma   89.92050833
_symmetry_Int_Tables_number   1
_chemical_formula_structural   Ce4Ho8Tc3Os
_chemical_formula_sum   'Ce4 Ho8 Tc3 Os1'
_cell_volume   441.30573541
_cell_formula_units_Z   1
loop_
 _symmetry_equiv_pos_site_id
 _symmetry_equiv_pos_as_xyz
  1  'x, y, z'
loop_
 _atom_site_type_symbol
 _atom_site_label
 _atom_site_symmetry_multiplicity
 _atom_site_fract_x
 _atom_site_fract_y
 _atom_site_fract_z
 _atom_site_occupancy
  Ce  Ce0  1  0.856993  0.559033  0.250000  1
  Ce  Ce1  1  0.642475  0.058625  0.250000  1
  Ce  Ce2  1  0.144992  0.440574  0.750000  1
  Ce  Ce3  1  0.345732  0.950855  0.750000  1
  Ho  Ho4  1  0.330807  0.673615  0.062384  1
  Ho  Ho5  1  0.166647  0.174062  0.432882  1
  Ho  Ho6  1  0.665630  0.329328  0.566076  1
  Ho  Ho7  1  0.828209  0.824624  0.933054  1
  Ho  Ho8  1  0.665630  0.329328  0.933924  1
  Ho  Ho9  1  0.828209  0.824624  0.566946  1
  Ho  Ho10  1  0.330807  0.673615  0.437616  1
  Ho  Ho11  1  0.166647  0.174062  0.067118  1
  Tc  Tc12  1  0.999935  0.859304  0.250000  1
  Tc  Tc13  1  0.499727  0.360714  0.250000  1
  Tc  Tc14  1  0.005030  0.137805  0.750000  1
  Os  Os15  1  0.522534  0.629830  0.750000  1
