# generated using pymatgen
data_Lu4Al9Ga8SiIr6
_symmetry_space_group_name_H-M   'P 1'
_cell_length_a   7.52581455
_cell_length_b   7.51755189
_cell_length_c   9.40211038
_cell_angle_alpha   90.06447074
_cell_angle_beta   89.92437842
_cell_angle_gamma   119.85709720
_symmetry_Int_Tables_number   1
_chemical_formula_structural   Lu4Al9Ga8SiIr6
_chemical_formula_sum   'Lu4 Al9 Ga8 Si1 Ir6'
_cell_volume   461.32719820
_cell_formula_units_Z   1
loop_
 _symmetry_equiv_pos_site_id
 _symmetry_equiv_pos_as_xyz
  1  'x, y, z'
loop_
 _atom_site_type_symbol
 _atom_site_label
 _atom_site_symmetry_multiplicity
 _atom_site_fract_x
 _atom_site_fract_y
 _atom_site_fract_z
 _atom_site_occupancy
  Lu  Lu0  1  0.995905  0.672450  0.248752  1
  Lu  Lu1  1  0.002844  0.334239  0.752373  1
  Lu  Lu2  1  0.675467  0.997394  0.249017  1
  Lu  Lu3  1  0.327849  0.999793  0.749969  1
  Al  Al4  1  0.337161  0.000807  0.421585  1
  Al  Al5  1  0.000703  0.335854  0.423438  1
  Al  Al6  1  0.666199  0.999582  0.574889  1
  Al  Al7  1  0.665078  0.998423  0.924242  1
  Al  Al8  1  0.337232  0.001138  0.078266  1
  Al  Al9  1  0.331575  0.331502  0.559476  1
  Al  Al10  1  0.664729  0.664520  0.442459  1
  Al  Al11  1  0.664303  0.664204  0.057376  1
  Al  Al12  1  0.331230  0.331486  0.941197  1
  Ga  Ga13  1  0.875200  0.879109  0.749633  1
  Ga  Ga14  1  0.997509  0.335758  0.083076  1
  Ga  Ga15  1  0.001126  0.667377  0.921104  1
  Ga  Ga16  1  0.000866  0.666092  0.577874  1
  Ga  Ga17  1  0.338776  0.550557  0.249840  1
  Ga  Ga18  1  0.657665  0.449733  0.749459  1
  Ga  Ga19  1  0.549821  0.339163  0.249650  1
  Ga  Ga20  1  0.453187  0.660327  0.749696  1
  Si  Si21  1  0.128159  0.124412  0.249942  1
  Ir  Ir22  1  0.666696  0.324507  0.998839  1
  Ir  Ir23  1  0.330742  0.673077  0.000075  1
  Ir  Ir24  1  0.328995  0.671087  0.499203  1
  Ir  Ir25  1  0.669601  0.324620  0.499111  1
  Ir  Ir26  1  0.000809  0.000265  0.010584  1
  Ir  Ir27  1  0.000577  0.002525  0.488874  1
