# generated using pymatgen
data_Y2Ho14MgAg3PdRh3
_symmetry_space_group_name_H-M   'P 1'
_cell_length_a   9.54297069
_cell_length_b   9.56239168
_cell_length_c   9.53742200
_cell_angle_alpha   60.08598899
_cell_angle_beta   60.01898950
_cell_angle_gamma   60.06485477
_symmetry_Int_Tables_number   1
_chemical_formula_structural   Y2Ho14MgAg3PdRh3
_chemical_formula_sum   'Y2 Ho14 Mg1 Ag3 Pd1 Rh3'
_cell_volume   616.20139494
_cell_formula_units_Z   1
loop_
 _symmetry_equiv_pos_site_id
 _symmetry_equiv_pos_as_xyz
  1  'x, y, z'
loop_
 _atom_site_type_symbol
 _atom_site_label
 _atom_site_symmetry_multiplicity
 _atom_site_fract_x
 _atom_site_fract_y
 _atom_site_fract_z
 _atom_site_occupancy
  Y  Y0  1  0.814747  0.816008  0.184700  1
  Y  Y1  1  0.183394  0.184583  0.817077  1
  Ho  Ho2  1  0.600577  0.598739  0.598754  1
  Ho  Ho3  1  0.603117  0.601101  0.198964  1
  Ho  Ho4  1  0.603251  0.199432  0.600660  1
  Ho  Ho5  1  0.182667  0.607679  0.606643  1
  Ho  Ho6  1  0.055628  0.439102  0.440313  1
  Ho  Ho7  1  0.435398  0.063180  0.063980  1
  Ho  Ho8  1  0.436761  0.058894  0.437899  1
  Ho  Ho9  1  0.060193  0.437834  0.062307  1
  Ho  Ho10  1  0.436833  0.437186  0.059536  1
  Ho  Ho11  1  0.060283  0.061203  0.439063  1
  Ho  Ho12  1  0.185032  0.813525  0.813913  1
  Ho  Ho13  1  0.815864  0.185565  0.184997  1
  Ho  Ho14  1  0.814258  0.186031  0.814249  1
  Ho  Ho15  1  0.184280  0.815297  0.187050  1
  Mg  Mg16  1  0.538379  0.820931  0.820498  1
  Ag  Ag17  1  0.833303  0.835807  0.833108  1
  Ag  Ag18  1  0.833346  0.835625  0.498159  1
  Ag  Ag19  1  0.832390  0.497988  0.834844  1
  Pd  Pd20  1  0.390235  0.396046  0.394767  1
  Rh  Rh21  1  0.389589  0.395685  0.820456  1
  Rh  Rh22  1  0.389759  0.819827  0.395114  1
  Rh  Rh23  1  0.820714  0.392736  0.392951  1
