# generated using pymatgen
data_CsGeAsRh2
_symmetry_space_group_name_H-M   'P 1'
_cell_length_a   8.06424750
_cell_length_b   8.06424771
_cell_length_c   8.06424609
_cell_angle_alpha   150.62352980
_cell_angle_beta   150.62353682
_cell_angle_gamma   42.02688748
_symmetry_Int_Tables_number   1
_chemical_formula_structural   CsGeAsRh2
_chemical_formula_sum   'Cs1 Ge1 As1 Rh2'
_cell_volume   125.89925154
_cell_formula_units_Z   1
loop_
 _symmetry_equiv_pos_site_id
 _symmetry_equiv_pos_as_xyz
  1  'x, y, z'
loop_
 _atom_site_type_symbol
 _atom_site_label
 _atom_site_symmetry_multiplicity
 _atom_site_fract_x
 _atom_site_fract_y
 _atom_site_fract_z
 _atom_site_occupancy
  Cs  Cs0  1  0.001598  0.001598  0.000000  1
  Ge  Ge1  1  0.340420  0.340420  0.000000  1
  As  As2  1  0.660505  0.660505  0.000000  1
  Rh  Rh3  1  0.748738  0.248738  0.500000  1
  Rh  Rh4  1  0.248738  0.748738  0.500000  1
