# generated using pymatgen
data_Ce2MnC2
_symmetry_space_group_name_H-M   'P 1'
_cell_length_a   5.23260100
_cell_length_b   6.26178000
_cell_length_c   9.70633900
_cell_angle_alpha   90.00000000
_cell_angle_beta   90.00000000
_cell_angle_gamma   90.00000000
_symmetry_Int_Tables_number   1
_chemical_formula_structural   Ce2MnC2
_chemical_formula_sum   'Ce8 Mn4 C8'
_cell_volume   318.03204386
_cell_formula_units_Z   4
loop_
 _symmetry_equiv_pos_site_id
 _symmetry_equiv_pos_as_xyz
  1  'x, y, z'
loop_
 _atom_site_type_symbol
 _atom_site_label
 _atom_site_symmetry_multiplicity
 _atom_site_fract_x
 _atom_site_fract_y
 _atom_site_fract_z
 _atom_site_occupancy
  Ce  Ce0  1  0.250000  0.993023  0.778374  1
  Ce  Ce1  1  0.750000  0.506977  0.278374  1
  Ce  Ce2  1  0.250000  0.493023  0.721626  1
  Ce  Ce3  1  0.750000  0.006977  0.221626  1
  Ce  Ce4  1  0.250000  0.297671  0.043945  1
  Ce  Ce5  1  0.750000  0.202329  0.543945  1
  Ce  Ce6  1  0.250000  0.797671  0.456055  1
  Ce  Ce7  1  0.750000  0.702329  0.956055  1
  Mn  Mn8  1  0.250000  0.764523  0.143516  1
  Mn  Mn9  1  0.750000  0.735477  0.643516  1
  Mn  Mn10  1  0.250000  0.264523  0.356484  1
  Mn  Mn11  1  0.750000  0.235477  0.856484  1
  C  C12  1  0.250000  0.182585  0.540824  1
  C  C13  1  0.750000  0.317415  0.040824  1
  C  C14  1  0.250000  0.682585  0.959176  1
  C  C15  1  0.750000  0.817415  0.459176  1
  C  C16  1  0.250000  0.523227  0.254940  1
  C  C17  1  0.750000  0.976773  0.754940  1
  C  C18  1  0.250000  0.023227  0.245060  1
  C  C19  1  0.750000  0.476773  0.745060  1
