# generated using pymatgen
data_HoTm(SeO4)3
_symmetry_space_group_name_H-M   'P 1'
_cell_length_a   9.90567109
_cell_length_b   9.90567035
_cell_length_c   9.90567133
_cell_angle_alpha   57.93085119
_cell_angle_beta   57.93084952
_cell_angle_gamma   57.93084389
_symmetry_Int_Tables_number   1
_chemical_formula_structural   HoTm(SeO4)3
_chemical_formula_sum   'Ho2 Tm2 Se6 O24'
_cell_volume   654.65133392
_cell_formula_units_Z   2
loop_
 _symmetry_equiv_pos_site_id
 _symmetry_equiv_pos_as_xyz
  1  'x, y, z'
loop_
 _atom_site_type_symbol
 _atom_site_label
 _atom_site_symmetry_multiplicity
 _atom_site_fract_x
 _atom_site_fract_y
 _atom_site_fract_z
 _atom_site_occupancy
  Ho  Ho0  1  0.143617  0.143617  0.143617  1
  Ho  Ho1  1  0.856383  0.856383  0.856383  1
  Tm  Tm2  1  0.644096  0.644096  0.644096  1
  Tm  Tm3  1  0.355904  0.355904  0.355904  1
  Se  Se4  1  0.748218  0.037176  0.463088  1
  Se  Se5  1  0.962823  0.536913  0.251782  1
  Se  Se6  1  0.536913  0.251782  0.962824  1
  Se  Se7  1  0.463087  0.748218  0.037177  1
  Se  Se8  1  0.037177  0.463087  0.748218  1
  Se  Se9  1  0.251782  0.962823  0.536913  1
  O  O10  1  0.917507  0.063671  0.290402  1
  O  O11  1  0.773978  0.008743  0.630280  1
  O  O12  1  0.991257  0.369720  0.226022  1
  O  O13  1  0.709598  0.082493  0.936329  1
  O  O14  1  0.579080  0.209512  0.435647  1
  O  O15  1  0.868938  0.493519  0.722799  1
  O  O16  1  0.506481  0.277201  0.131062  1
  O  O17  1  0.790488  0.564353  0.420920  1
  O  O18  1  0.936329  0.709598  0.082493  1
  O  O19  1  0.564353  0.420920  0.790488  1
  O  O20  1  0.369720  0.226022  0.991257  1
  O  O21  1  0.277201  0.131062  0.506481  1
  O  O22  1  0.722799  0.868938  0.493519  1
  O  O23  1  0.630280  0.773978  0.008743  1
  O  O24  1  0.435647  0.579080  0.209512  1
  O  O25  1  0.063671  0.290402  0.917507  1
  O  O26  1  0.209512  0.435647  0.579080  1
  O  O27  1  0.493519  0.722799  0.868938  1
  O  O28  1  0.131062  0.506481  0.277201  1
  O  O29  1  0.420920  0.790488  0.564353  1
  O  O30  1  0.290402  0.917507  0.063671  1
  O  O31  1  0.008743  0.630280  0.773978  1
  O  O32  1  0.226022  0.991257  0.369720  1
  O  O33  1  0.082493  0.936329  0.709598  1
