# generated using pymatgen
data_Na4VFe3P8(O3F)8
_symmetry_space_group_name_H-M   'P 1'
_cell_length_a   14.40797100
_cell_length_b   6.55292599
_cell_length_c   6.56675400
_cell_angle_alpha   83.94683646
_cell_angle_beta   90.00000000
_cell_angle_gamma   90.00000000
_symmetry_Int_Tables_number   1
_chemical_formula_structural   Na4VFe3P8(O3F)8
_chemical_formula_sum   'Na4 V1 Fe3 P8 O24 F8'
_cell_volume   616.53912470
_cell_formula_units_Z   1
loop_
 _symmetry_equiv_pos_site_id
 _symmetry_equiv_pos_as_xyz
  1  'x, y, z'
loop_
 _atom_site_type_symbol
 _atom_site_label
 _atom_site_symmetry_multiplicity
 _atom_site_fract_x
 _atom_site_fract_y
 _atom_site_fract_z
 _atom_site_occupancy
  Na  Na0  1  0.423436  0.689186  0.496578  1
  Na  Na1  1  0.923028  0.310721  0.004276  1
  Na  Na2  1  0.577583  0.310703  0.505012  1
  Na  Na3  1  0.076931  0.689357  0.995485  1
  V  V4  1  0.608110  0.728005  0.138435  1
  Fe  Fe5  1  0.108725  0.270668  0.364807  1
  Fe  Fe6  1  0.390956  0.270987  0.864727  1
  Fe  Fe7  1  0.891041  0.729317  0.634791  1
  P  P8  1  0.655255  0.771375  0.631363  1
  P  P9  1  0.155318  0.228915  0.869169  1
  P  P10  1  0.344668  0.228929  0.369077  1
  P  P11  1  0.845252  0.771246  0.130603  1
  P  P12  1  0.393790  0.755182  0.979336  1
  P  P13  1  0.894553  0.244984  0.519886  1
  P  P14  1  0.605339  0.244886  0.019185  1
  P  P15  1  0.105484  0.755026  0.480153  1
  O  O16  1  0.467433  0.737490  0.149455  1
  O  O17  1  0.968293  0.260493  0.350464  1
  O  O18  1  0.531490  0.260704  0.850378  1
  O  O19  1  0.031781  0.739546  0.649371  1
  O  O20  1  0.384610  0.965496  0.860492  1
  O  O21  1  0.884952  0.034919  0.639525  1
  O  O22  1  0.614992  0.035600  0.140181  1
  O  O23  1  0.115264  0.965191  0.360478  1
  O  O24  1  0.601497  0.746488  0.829534  1
  O  O25  1  0.101931  0.254428  0.669171  1
  O  O26  1  0.398216  0.254362  0.169135  1
  O  O27  1  0.898818  0.746216  0.330426  1
  O  O28  1  0.398539  0.586209  0.836814  1
  O  O29  1  0.899089  0.413843  0.662868  1
  O  O30  1  0.601151  0.413045  0.163281  1
  O  O31  1  0.101065  0.586200  0.336955  1
  O  O32  1  0.754926  0.700752  0.641973  1
  O  O33  1  0.254820  0.299725  0.857795  1
  O  O34  1  0.245199  0.299593  0.357505  1
  O  O35  1  0.745842  0.700920  0.142987  1
  O  O36  1  0.597692  0.687508  0.461294  1
  O  O37  1  0.097945  0.311253  0.040380  1
  O  O38  1  0.402037  0.311272  0.540396  1
  O  O39  1  0.902451  0.688430  0.959425  1
  F  F40  1  0.340222  0.985947  0.430114  1
  F  F41  1  0.840437  0.014113  0.069473  1
  F  F42  1  0.660356  0.014213  0.567832  1
  F  F43  1  0.159969  0.986080  0.930271  1
  F  F44  1  0.300645  0.715209  0.107214  1
  F  F45  1  0.801282  0.285359  0.392078  1
  F  F46  1  0.698716  0.285177  0.892165  1
  F  F47  1  0.198873  0.714731  0.607690  1
