# generated using pymatgen
data_Lu8TaB24IrRh2
_symmetry_space_group_name_H-M   'P 1'
_cell_length_a   3.59314500
_cell_length_b   9.10430388
_cell_length_c   11.47806513
_cell_angle_alpha   90.36074478
_cell_angle_beta   90.00000000
_cell_angle_gamma   90.00000000
_symmetry_Int_Tables_number   1
_chemical_formula_structural   Lu8TaB24IrRh2
_chemical_formula_sum   'Lu8 Ta1 B24 Ir1 Rh2'
_cell_volume   375.47546605
_cell_formula_units_Z   1
loop_
 _symmetry_equiv_pos_site_id
 _symmetry_equiv_pos_as_xyz
  1  'x, y, z'
loop_
 _atom_site_type_symbol
 _atom_site_label
 _atom_site_symmetry_multiplicity
 _atom_site_fract_x
 _atom_site_fract_y
 _atom_site_fract_z
 _atom_site_occupancy
  Lu  Lu0  1  0.500000  0.318899  0.412632  1
  Lu  Lu1  1  0.500000  0.676713  0.584244  1
  Lu  Lu2  1  0.500000  0.180997  0.914826  1
  Lu  Lu3  1  0.500000  0.820872  0.086736  1
  Lu  Lu4  1  0.500000  0.447955  0.125067  1
  Lu  Lu5  1  0.500000  0.557013  0.871468  1
  Lu  Lu6  1  0.500000  0.056806  0.628630  1
  Lu  Lu7  1  0.500000  0.943153  0.376124  1
  Ta  Ta8  1  0.500000  0.138587  0.178671  1
  B  B9  1  0.000000  0.105619  0.474193  1
  B  B10  1  0.000000  0.892474  0.530778  1
  B  B11  1  0.000000  0.399148  0.968893  1
  B  B12  1  0.000000  0.607206  0.027628  1
  B  B13  1  0.000000  0.131579  0.320156  1
  B  B14  1  0.000000  0.867677  0.683210  1
  B  B15  1  0.000000  0.368350  0.816851  1
  B  B16  1  0.000000  0.633064  0.183603  1
  B  B17  1  0.000000  0.048637  0.061361  1
  B  B18  1  0.000000  0.945992  0.932601  1
  B  B19  1  0.000000  0.445646  0.564585  1
  B  B20  1  0.000000  0.552342  0.434720  1
  B  B21  1  0.000000  0.482698  0.287855  1
  B  B22  1  0.000000  0.518869  0.710632  1
  B  B23  1  0.000000  0.018343  0.786684  1
  B  B24  1  0.000000  0.974424  0.214867  1
  B  B25  1  0.000000  0.254511  0.075698  1
  B  B26  1  0.000000  0.750635  0.919475  1
  B  B27  1  0.000000  0.250131  0.579351  1
  B  B28  1  0.000000  0.748309  0.422162  1
  B  B29  1  0.000000  0.298940  0.238319  1
  B  B30  1  0.000000  0.705474  0.763090  1
  B  B31  1  0.000000  0.207197  0.737666  1
  B  B32  1  0.000000  0.791616  0.266223  1
  Ir  Ir33  1  0.500000  0.859983  0.819389  1
  Rh  Rh34  1  0.500000  0.361439  0.680040  1
  Rh  Rh35  1  0.500000  0.638704  0.321571  1
