# generated using pymatgen
data_Ba4Sr2La2Ga4O15
_symmetry_space_group_name_H-M   'P 1'
_cell_length_a   11.82145539
_cell_length_b   11.82145550
_cell_length_c   7.07063864
_cell_angle_alpha   89.81549553
_cell_angle_beta   89.81549494
_cell_angle_gamma   119.90762483
_symmetry_Int_Tables_number   1
_chemical_formula_structural   Ba4Sr2La2Ga4O15
_chemical_formula_sum   'Ba8 Sr4 La4 Ga8 O30'
_cell_volume   856.49670176
_cell_formula_units_Z   2
loop_
 _symmetry_equiv_pos_site_id
 _symmetry_equiv_pos_as_xyz
  1  'x, y, z'
loop_
 _atom_site_type_symbol
 _atom_site_label
 _atom_site_symmetry_multiplicity
 _atom_site_fract_x
 _atom_site_fract_y
 _atom_site_fract_z
 _atom_site_occupancy
  Ba  Ba0  1  0.666446  0.329210  0.980848  1
  Ba  Ba1  1  0.329210  0.666446  0.480848  1
  Ba  Ba2  1  0.343735  0.168036  0.667445  1
  Ba  Ba3  1  0.831678  0.657840  0.660376  1
  Ba  Ba4  1  0.826697  0.171676  0.661909  1
  Ba  Ba5  1  0.657840  0.831678  0.160376  1
  Ba  Ba6  1  0.168036  0.343735  0.167445  1
  Ba  Ba7  1  0.171676  0.826697  0.161909  1
  Sr  Sr8  1  0.000104  0.000219  0.477964  1
  Sr  Sr9  1  0.000219  0.000104  0.977964  1
  Sr  Sr10  1  0.956699  0.478805  0.330772  1
  Sr  Sr11  1  0.478805  0.956699  0.830772  1
  La  La12  1  0.521041  0.042848  0.330268  1
  La  La13  1  0.521009  0.478587  0.333194  1
  La  La14  1  0.042848  0.521041  0.830268  1
  La  La15  1  0.478587  0.521009  0.833194  1
  Ga  Ga16  1  0.349858  0.176199  0.160087  1
  Ga  Ga17  1  0.823371  0.646403  0.156362  1
  Ga  Ga18  1  0.825129  0.177901  0.158176  1
  Ga  Ga19  1  0.646403  0.823371  0.656362  1
  Ga  Ga20  1  0.176199  0.349858  0.660087  1
  Ga  Ga21  1  0.177901  0.825129  0.658176  1
  Ga  Ga22  1  0.670031  0.336330  0.525686  1
  Ga  Ga23  1  0.336330  0.670031  0.025686  1
  O  O24  1  0.605430  0.670801  0.523000  1
  O  O25  1  0.067747  0.393558  0.529754  1
  O  O26  1  0.325300  0.934980  0.513247  1
  O  O27  1  0.329622  0.393373  0.524501  1
  O  O28  1  0.608886  0.933064  0.513242  1
  O  O29  1  0.066550  0.674465  0.527618  1
  O  O30  1  0.393373  0.329622  0.024501  1
  O  O31  1  0.933064  0.608886  0.013242  1
  O  O32  1  0.674465  0.066550  0.027618  1
  O  O33  1  0.670801  0.605430  0.023000  1
  O  O34  1  0.393558  0.067747  0.029754  1
  O  O35  1  0.934980  0.325300  0.013247  1
  O  O36  1  0.830990  0.416918  0.668073  1
  O  O37  1  0.584769  0.170864  0.653953  1
  O  O38  1  0.583711  0.418170  0.660841  1
  O  O39  1  0.170864  0.584769  0.153953  1
  O  O40  1  0.416918  0.830990  0.168073  1
  O  O41  1  0.418170  0.583711  0.160841  1
  O  O42  1  0.491612  0.249125  0.336869  1
  O  O43  1  0.747215  0.503665  0.334492  1
  O  O44  1  0.749288  0.246773  0.332725  1
  O  O45  1  0.503665  0.747215  0.834492  1
  O  O46  1  0.249125  0.491612  0.836869  1
  O  O47  1  0.246773  0.749288  0.832725  1
  O  O48  1  0.814840  0.906464  0.747276  1
  O  O49  1  0.093612  0.179962  0.744301  1
  O  O50  1  0.095461  0.911757  0.748809  1
  O  O51  1  0.179962  0.093612  0.244301  1
  O  O52  1  0.906464  0.814840  0.247276  1
  O  O53  1  0.911757  0.095461  0.248809  1
