# generated using pymatgen
data_Nb4V2SiNi2P3
_symmetry_space_group_name_H-M   'P 1'
_cell_length_a   3.50446200
_cell_length_b   6.29006610
_cell_length_c   7.48821889
_cell_angle_alpha   91.13147648
_cell_angle_beta   90.00000000
_cell_angle_gamma   90.00000000
_symmetry_Int_Tables_number   1
_chemical_formula_structural   Nb4V2SiNi2P3
_chemical_formula_sum   'Nb4 V2 Si1 Ni2 P3'
_cell_volume   165.03285264
_cell_formula_units_Z   1
loop_
 _symmetry_equiv_pos_site_id
 _symmetry_equiv_pos_as_xyz
  1  'x, y, z'
loop_
 _atom_site_type_symbol
 _atom_site_label
 _atom_site_symmetry_multiplicity
 _atom_site_fract_x
 _atom_site_fract_y
 _atom_site_fract_z
 _atom_site_occupancy
  Nb  Nb0  1  0.250000  0.039049  0.830814  1
  Nb  Nb1  1  0.250000  0.520187  0.668554  1
  Nb  Nb2  1  0.750000  0.962146  0.165660  1
  Nb  Nb3  1  0.750000  0.473488  0.330783  1
  V  V4  1  0.250000  0.638543  0.060830  1
  V  V5  1  0.750000  0.360390  0.936130  1
  Si  Si6  1  0.250000  0.775592  0.380787  1
  Ni  Ni7  1  0.250000  0.145460  0.441136  1
  Ni  Ni8  1  0.750000  0.860923  0.565276  1
  P  P9  1  0.250000  0.261675  0.142194  1
  P  P10  1  0.750000  0.224978  0.621470  1
  P  P11  1  0.750000  0.737571  0.856370  1
