# generated using pymatgen
data_ZrPa3(InRh2)2
_symmetry_space_group_name_H-M   'P 1'
_cell_length_a   7.64608147
_cell_length_b   7.64608247
_cell_length_c   3.57298500
_cell_angle_alpha   90.00000000
_cell_angle_beta   90.00000000
_cell_angle_gamma   92.13446651
_symmetry_Int_Tables_number   1
_chemical_formula_structural   ZrPa3(InRh2)2
_chemical_formula_sum   'Zr1 Pa3 In2 Rh4'
_cell_volume   208.74095256
_cell_formula_units_Z   1
loop_
 _symmetry_equiv_pos_site_id
 _symmetry_equiv_pos_as_xyz
  1  'x, y, z'
loop_
 _atom_site_type_symbol
 _atom_site_label
 _atom_site_symmetry_multiplicity
 _atom_site_fract_x
 _atom_site_fract_y
 _atom_site_fract_z
 _atom_site_occupancy
  Zr  Zr0  1  0.175051  0.324949  0.500000  1
  Pa  Pa1  1  0.669301  0.173676  0.500000  1
  Pa  Pa2  1  0.326324  0.830699  0.500000  1
  Pa  Pa3  1  0.832525  0.667475  0.500000  1
  In  In4  1  0.486284  0.495923  0.000000  1
  In  In5  1  0.004077  0.013716  0.000000  1
  Rh  Rh6  1  0.377738  0.122262  0.000000  1
  Rh  Rh7  1  0.129558  0.641535  0.000000  1
  Rh  Rh8  1  0.858465  0.370442  0.000000  1
  Rh  Rh9  1  0.640675  0.859325  0.000000  1
