# generated using pymatgen
data_Ce2ThNp(NiB10)2
_symmetry_space_group_name_H-M   'P 1'
_cell_length_a   4.15143000
_cell_length_b   5.59318710
_cell_length_c   11.11705918
_cell_angle_alpha   90.15847844
_cell_angle_beta   90.00000000
_cell_angle_gamma   90.00000000
_symmetry_Int_Tables_number   1
_chemical_formula_structural   Ce2ThNp(NiB10)2
_chemical_formula_sum   'Ce2 Th1 Np1 Ni2 B20'
_cell_volume   258.13406646
_cell_formula_units_Z   1
loop_
 _symmetry_equiv_pos_site_id
 _symmetry_equiv_pos_as_xyz
  1  'x, y, z'
loop_
 _atom_site_type_symbol
 _atom_site_label
 _atom_site_symmetry_multiplicity
 _atom_site_fract_x
 _atom_site_fract_y
 _atom_site_fract_z
 _atom_site_occupancy
  Ce  Ce0  1  0.500000  0.688120  0.134036  1
  Ce  Ce1  1  0.500000  0.812653  0.641548  1
  Th  Th2  1  0.500000  0.191539  0.362657  1
  Np  Np3  1  0.500000  0.317430  0.860048  1
  Ni  Ni4  1  0.000000  0.500061  0.500802  1
  Ni  Ni5  1  0.000000  0.998358  0.999629  1
  B  B6  1  0.000000  0.125108  0.542398  1
  B  B7  1  0.000000  0.874587  0.460075  1
  B  B8  1  0.000000  0.620927  0.958306  1
  B  B9  1  0.000000  0.370055  0.036597  1
  B  B10  1  0.000000  0.156469  0.700415  1
  B  B11  1  0.000000  0.845131  0.302098  1
  B  B12  1  0.301581  0.199684  0.111606  1
  B  B13  1  0.301816  0.798056  0.886637  1
  B  B14  1  0.699199  0.700556  0.385956  1
  B  B15  1  0.698487  0.298565  0.616520  1
  B  B16  1  0.698184  0.798056  0.886637  1
  B  B17  1  0.698419  0.199684  0.111606  1
  B  B18  1  0.301513  0.298565  0.616520  1
  B  B19  1  0.300801  0.700556  0.385956  1
  B  B20  1  0.000000  0.033075  0.187313  1
  B  B21  1  0.000000  0.970447  0.814485  1
  B  B22  1  0.000000  0.533937  0.311068  1
  B  B23  1  0.000000  0.467805  0.689188  1
  B  B24  1  0.000000  0.345447  0.195279  1
  B  B25  1  0.000000  0.655128  0.802623  1
