# generated using pymatgen
data_Ti5SiGe2O
_symmetry_space_group_name_H-M   'P 1'
_cell_length_a   7.51630343
_cell_length_b   7.51630395
_cell_length_c   5.20935700
_cell_angle_alpha   90.00000000
_cell_angle_beta   90.00000000
_cell_angle_gamma   120.15025544
_symmetry_Int_Tables_number   1
_chemical_formula_structural   Ti5SiGe2O
_chemical_formula_sum   'Ti10 Si2 Ge4 O2'
_cell_volume   254.48596954
_cell_formula_units_Z   2
loop_
 _symmetry_equiv_pos_site_id
 _symmetry_equiv_pos_as_xyz
  1  'x, y, z'
loop_
 _atom_site_type_symbol
 _atom_site_label
 _atom_site_symmetry_multiplicity
 _atom_site_fract_x
 _atom_site_fract_y
 _atom_site_fract_z
 _atom_site_occupancy
  Ti  Ti0  1  0.234910  0.003808  0.750000  1
  Ti  Ti1  1  0.765090  0.996192  0.250000  1
  Ti  Ti2  1  0.003808  0.234910  0.750000  1
  Ti  Ti3  1  0.996192  0.765090  0.250000  1
  Ti  Ti4  1  0.761460  0.761460  0.750000  1
  Ti  Ti5  1  0.238540  0.238540  0.250000  1
  Ti  Ti6  1  0.335986  0.664014  0.500000  1
  Ti  Ti7  1  0.664014  0.335986  0.500000  1
  Ti  Ti8  1  0.664014  0.335986  0.000000  1
  Ti  Ti9  1  0.335986  0.664014  0.000000  1
  Si  Si10  1  0.406852  0.406852  0.750000  1
  Si  Si11  1  0.593148  0.593148  0.250000  1
  Ge  Ge12  1  0.595802  0.001322  0.750000  1
  Ge  Ge13  1  0.404198  0.998678  0.250000  1
  Ge  Ge14  1  0.001322  0.595802  0.750000  1
  Ge  Ge15  1  0.998678  0.404198  0.250000  1
  O  O16  1  0.000000  0.000000  0.500000  1
  O  O17  1  0.000000  0.000000  0.000000  1
