# generated using pymatgen
data_Dy14Ho2Cd4CoRu3
_symmetry_space_group_name_H-M   'P 1'
_cell_length_a   9.62523947
_cell_length_b   9.63332245
_cell_length_c   9.56378744
_cell_angle_alpha   59.75920290
_cell_angle_beta   59.72424546
_cell_angle_gamma   59.97222175
_symmetry_Int_Tables_number   1
_chemical_formula_structural   Dy14Ho2Cd4CoRu3
_chemical_formula_sum   'Dy14 Ho2 Cd4 Co1 Ru3'
_cell_volume   624.46118300
_cell_formula_units_Z   1
loop_
 _symmetry_equiv_pos_site_id
 _symmetry_equiv_pos_as_xyz
  1  'x, y, z'
loop_
 _atom_site_type_symbol
 _atom_site_label
 _atom_site_symmetry_multiplicity
 _atom_site_fract_x
 _atom_site_fract_y
 _atom_site_fract_z
 _atom_site_occupancy
  Dy  Dy0  1  0.938035  0.937699  0.559972  1
  Dy  Dy1  1  0.811354  0.190288  0.187104  1
  Dy  Dy2  1  0.938035  0.564293  0.559972  1
  Dy  Dy3  1  0.939631  0.560597  0.939175  1
  Dy  Dy4  1  0.811354  0.811255  0.187104  1
  Dy  Dy5  1  0.344139  0.344485  0.351066  1
  Dy  Dy6  1  0.560899  0.939109  0.938979  1
  Dy  Dy7  1  0.564663  0.937551  0.560234  1
  Dy  Dy8  1  0.188572  0.815269  0.807842  1
  Dy  Dy9  1  0.188572  0.188316  0.807842  1
  Dy  Dy10  1  0.346144  0.346374  0.961109  1
  Dy  Dy11  1  0.344139  0.960312  0.351066  1
  Dy  Dy12  1  0.814995  0.188917  0.807171  1
  Dy  Dy13  1  0.560899  0.561013  0.938979  1
  Ho  Ho14  1  0.189679  0.811499  0.187324  1
  Ho  Ho15  1  0.961545  0.343824  0.350809  1
  Cd  Cd16  1  0.580485  0.580826  0.257864  1
  Cd  Cd17  1  0.258731  0.580894  0.579483  1
  Cd  Cd18  1  0.580601  0.580736  0.579434  1
  Cd  Cd19  1  0.580601  0.259231  0.579434  1
  Co  Co20  1  0.140028  0.140069  0.579834  1
  Ru  Ru21  1  0.580720  0.138206  0.142870  1
  Ru  Ru22  1  0.138091  0.138248  0.142668  1
  Ru  Ru23  1  0.138091  0.580994  0.142668  1
