# generated using pymatgen
data_Rb5Mg2Tl11
_symmetry_space_group_name_H-M   'P 1'
_cell_length_a   5.85741000
_cell_length_b   11.16681926
_cell_length_c   11.16681830
_cell_angle_alpha   108.39250881
_cell_angle_beta   90.00000000
_cell_angle_gamma   90.00000000
_symmetry_Int_Tables_number   1
_chemical_formula_structural   Rb5Mg2Tl11
_chemical_formula_sum   'Rb5 Mg2 Tl11'
_cell_volume   693.09523546
_cell_formula_units_Z   1
loop_
 _symmetry_equiv_pos_site_id
 _symmetry_equiv_pos_as_xyz
  1  'x, y, z'
loop_
 _atom_site_type_symbol
 _atom_site_label
 _atom_site_symmetry_multiplicity
 _atom_site_fract_x
 _atom_site_fract_y
 _atom_site_fract_z
 _atom_site_occupancy
  Rb  Rb0  1  0.000000  0.631642  0.631642  1
  Rb  Rb1  1  0.500000  0.890272  0.511367  1
  Rb  Rb2  1  0.500000  0.511367  0.890272  1
  Rb  Rb3  1  0.000000  0.223903  0.608159  1
  Rb  Rb4  1  0.000000  0.608159  0.223903  1
  Mg  Mg5  1  0.750252  0.063963  0.063963  1
  Mg  Mg6  1  0.249749  0.063963  0.063963  1
  Tl  Tl7  1  0.000000  0.784794  0.980913  1
  Tl  Tl8  1  0.000000  0.980913  0.784794  1
  Tl  Tl9  1  0.500000  0.836702  0.836702  1
  Tl  Tl10  1  0.500000  0.837138  0.151831  1
  Tl  Tl11  1  0.500000  0.151831  0.837138  1
  Tl  Tl12  1  0.500000  0.443500  0.443500  1
  Tl  Tl13  1  0.000000  0.288293  0.288293  1
  Tl  Tl14  1  0.000000  0.970390  0.286647  1
  Tl  Tl15  1  0.000000  0.286647  0.970390  1
  Tl  Tl16  1  0.500000  0.140999  0.348428  1
  Tl  Tl17  1  0.500000  0.348428  0.140999  1
