# generated using pymatgen
data_La16Cd4TcRuPt2
_symmetry_space_group_name_H-M   'P 1'
_cell_length_a   10.13154864
_cell_length_b   10.10851133
_cell_length_c   10.17481984
_cell_angle_alpha   60.21533934
_cell_angle_beta   60.37383980
_cell_angle_gamma   60.07517960
_symmetry_Int_Tables_number   1
_chemical_formula_structural   La16Cd4TcRuPt2
_chemical_formula_sum   'La16 Cd4 Tc1 Ru1 Pt2'
_cell_volume   740.52706648
_cell_formula_units_Z   1
loop_
 _symmetry_equiv_pos_site_id
 _symmetry_equiv_pos_as_xyz
  1  'x, y, z'
loop_
 _atom_site_type_symbol
 _atom_site_label
 _atom_site_symmetry_multiplicity
 _atom_site_fract_x
 _atom_site_fract_y
 _atom_site_fract_z
 _atom_site_occupancy
  La  La0  1  0.901526  0.906901  0.901713  1
  La  La1  1  0.448228  0.433375  0.060689  1
  La  La2  1  0.061031  0.058868  0.447491  1
  La  La3  1  0.448228  0.057709  0.060689  1
  La  La4  1  0.311533  0.688795  0.310877  1
  La  La5  1  0.687657  0.691029  0.309145  1
  La  La6  1  0.687657  0.312169  0.309145  1
  La  La7  1  0.295729  0.903799  0.896673  1
  La  La8  1  0.901526  0.289861  0.901713  1
  La  La9  1  0.308216  0.693384  0.687361  1
  La  La10  1  0.895924  0.904008  0.296061  1
  La  La11  1  0.056284  0.443417  0.056883  1
  La  La12  1  0.308216  0.311040  0.687361  1
  La  La13  1  0.061031  0.432609  0.447491  1
  La  La14  1  0.437651  0.061694  0.438960  1
  La  La15  1  0.690761  0.310576  0.688087  1
  Cd  Cd16  1  0.670385  0.670561  0.988490  1
  Cd  Cd17  1  0.988034  0.670759  0.670447  1
  Cd  Cd18  1  0.671048  0.987367  0.670853  1
  Cd  Cd19  1  0.671048  0.670732  0.670853  1
  Tc  Tc20  1  0.114370  0.111543  0.662544  1
  Ru  Ru21  1  0.665899  0.109964  0.114171  1
  Pt  Pt22  1  0.109008  0.106479  0.111150  1
  Pt  Pt23  1  0.109008  0.673361  0.111150  1
