# generated using pymatgen
data_PrY3(B4Ir)4
_symmetry_space_group_name_H-M   'P 1'
_cell_length_a   7.03827617
_cell_length_b   7.03827603
_cell_length_c   7.03827700
_cell_angle_alpha   111.59451731
_cell_angle_beta   111.59450812
_cell_angle_gamma   105.30331067
_symmetry_Int_Tables_number   1
_chemical_formula_structural   PrY3(B4Ir)4
_chemical_formula_sum   'Pr1 Y3 B16 Ir4'
_cell_volume   267.34160361
_cell_formula_units_Z   1
loop_
 _symmetry_equiv_pos_site_id
 _symmetry_equiv_pos_as_xyz
  1  'x, y, z'
loop_
 _atom_site_type_symbol
 _atom_site_label
 _atom_site_symmetry_multiplicity
 _atom_site_fract_x
 _atom_site_fract_y
 _atom_site_fract_z
 _atom_site_occupancy
  Pr  Pr0  1  0.786820  0.787042  0.000222  1
  Y  Y1  1  0.217326  0.217503  0.000177  1
  Y  Y2  1  0.748240  0.248288  0.500048  1
  Y  Y3  1  0.248236  0.748401  0.500165  1
  B  B4  1  0.265827  0.108795  0.371686  1
  B  B5  1  0.736874  0.894121  0.628068  1
  B  B6  1  0.266054  0.894121  0.157248  1
  B  B7  1  0.737108  0.108795  0.842968  1
  B  B8  1  0.108815  0.737056  0.842913  1
  B  B9  1  0.894114  0.265962  0.157177  1
  B  B10  1  0.108785  0.265962  0.371847  1
  B  B11  1  0.894143  0.737056  0.628242  1
  B  B12  1  0.111021  0.111022  0.524922  1
  B  B13  1  0.586019  0.586020  0.474765  1
  B  B14  1  0.111252  0.586020  0.000001  1
  B  B15  1  0.586102  0.111022  0.000001  1
  B  B16  1  0.887164  0.887163  0.472372  1
  B  B17  1  0.414686  0.414693  0.527290  1
  B  B18  1  0.887403  0.414693  0.000007  1
  B  B19  1  0.414791  0.887163  0.999998  1
  Ir  Ir20  1  0.255277  0.497238  0.757901  1
  Ir  Ir21  1  0.739337  0.497238  0.241961  1
  Ir  Ir22  1  0.497255  0.739288  0.242033  1
  Ir  Ir23  1  0.497352  0.255338  0.757987  1
