# generated using pymatgen
data_TbHoLu4(Al3Ru)8
_symmetry_space_group_name_H-M   'P 1'
_cell_length_a   8.75850711
_cell_length_b   8.75478759
_cell_length_c   9.57621900
_cell_angle_alpha   89.99943001
_cell_angle_beta   90.00071894
_cell_angle_gamma   120.03245467
_symmetry_Int_Tables_number   1
_chemical_formula_structural   TbHoLu4(Al3Ru)8
_chemical_formula_sum   'Tb1 Ho1 Lu4 Al24 Ru8'
_cell_volume   635.70888228
_cell_formula_units_Z   1
loop_
 _symmetry_equiv_pos_site_id
 _symmetry_equiv_pos_as_xyz
  1  'x, y, z'
loop_
 _atom_site_type_symbol
 _atom_site_label
 _atom_site_symmetry_multiplicity
 _atom_site_fract_x
 _atom_site_fract_y
 _atom_site_fract_z
 _atom_site_occupancy
  Tb  Tb0  1  0.192503  0.385111  0.749911  1
  Ho  Ho1  1  0.610526  0.805245  0.749987  1
  Lu  Lu2  1  0.389625  0.195041  0.249997  1
  Lu  Lu3  1  0.805413  0.195057  0.249991  1
  Lu  Lu4  1  0.805693  0.611400  0.249997  1
  Lu  Lu5  1  0.195377  0.804461  0.749979  1
  Al  Al6  1  0.439178  0.878353  0.250002  1
  Al  Al7  1  0.122088  0.561544  0.250047  1
  Al  Al8  1  0.439443  0.561563  0.250051  1
  Al  Al9  1  0.561063  0.123113  0.750006  1
  Al  Al10  1  0.876138  0.438954  0.750065  1
  Al  Al11  1  0.562727  0.438079  0.750064  1
  Al  Al12  1  0.162673  0.837724  0.421907  1
  Al  Al13  1  0.162646  0.325288  0.420314  1
  Al  Al14  1  0.675055  0.837731  0.421433  1
  Al  Al15  1  0.836588  0.162822  0.576877  1
  Al  Al16  1  0.837457  0.674489  0.576688  1
  Al  Al17  1  0.326088  0.162542  0.576837  1
  Al  Al18  1  0.836588  0.162767  0.923099  1
  Al  Al19  1  0.837445  0.674466  0.923369  1
  Al  Al20  1  0.326029  0.162482  0.923143  1
  Al  Al21  1  0.162663  0.837638  0.078074  1
  Al  Al22  1  0.162645  0.325290  0.079678  1
  Al  Al23  1  0.674981  0.837650  0.078556  1
  Al  Al24  1  0.333051  0.666819  0.517938  1
  Al  Al25  1  0.666782  0.333678  0.478595  1
  Al  Al26  1  0.666741  0.333586  0.021385  1
  Al  Al27  1  0.332974  0.666683  0.981958  1
  Al  Al28  1  0.000319  0.000952  0.249962  1
  Al  Al29  1  0.998518  0.995877  0.749956  1
  Ru  Ru30  1  0.000147  0.000306  0.500164  1
  Ru  Ru31  1  0.000160  0.000335  0.999747  1
  Ru  Ru32  1  0.500149  0.000784  0.499445  1
  Ru  Ru33  1  0.999248  0.500576  0.499091  1
  Ru  Ru34  1  0.501038  0.500337  0.498976  1
  Ru  Ru35  1  0.500069  0.000627  0.000506  1
  Ru  Ru36  1  0.999248  0.500415  0.001037  1
  Ru  Ru37  1  0.500920  0.500218  0.001164  1
