# generated using pymatgen
data_Ho4TmCo2Rh
_symmetry_space_group_name_H-M   'P 1'
_cell_length_a   7.07396396
_cell_length_b   7.07396354
_cell_length_c   8.70545600
_cell_angle_alpha   113.97228980
_cell_angle_beta   113.97228993
_cell_angle_gamma   89.99999914
_symmetry_Int_Tables_number   1
_chemical_formula_structural   Ho4TmCo2Rh
_chemical_formula_sum   'Ho8 Tm2 Co4 Rh2'
_cell_volume   356.53788147
_cell_formula_units_Z   2
loop_
 _symmetry_equiv_pos_site_id
 _symmetry_equiv_pos_as_xyz
  1  'x, y, z'
loop_
 _atom_site_type_symbol
 _atom_site_label
 _atom_site_symmetry_multiplicity
 _atom_site_fract_x
 _atom_site_fract_y
 _atom_site_fract_z
 _atom_site_occupancy
  Ho  Ho0  1  0.463861  0.318571  0.282432  1
  Ho  Ho1  1  0.963862  0.463861  0.282432  1
  Ho  Ho2  1  0.318571  0.818570  0.282432  1
  Ho  Ho3  1  0.818570  0.963862  0.282432  1
  Ho  Ho4  1  0.181429  0.036139  0.717567  1
  Ho  Ho5  1  0.681428  0.181429  0.717567  1
  Ho  Ho6  1  0.036139  0.536138  0.717567  1
  Ho  Ho7  1  0.536138  0.681428  0.717567  1
  Tm  Tm8  1  0.000000  0.000000  0.000000  1
  Tm  Tm9  1  0.500000  0.500000  0.000000  1
  Co  Co10  1  0.612491  0.112491  0.000000  1
  Co  Co11  1  0.112491  0.387510  0.000000  1
  Co  Co12  1  0.887509  0.612491  0.000000  1
  Co  Co13  1  0.387510  0.887509  0.000000  1
  Rh  Rh14  1  0.250000  0.250000  0.500000  1
  Rh  Rh15  1  0.750000  0.750000  0.500000  1
