# generated using pymatgen
data_Tb6Y10Cd4NiIr3
_symmetry_space_group_name_H-M   'P 1'
_cell_length_a   9.63169827
_cell_length_b   9.68203220
_cell_length_c   9.68203168
_cell_angle_alpha   59.91478156
_cell_angle_beta   59.79444288
_cell_angle_gamma   59.79444509
_symmetry_Int_Tables_number   1
_chemical_formula_structural   Tb6Y10Cd4NiIr3
_chemical_formula_sum   'Tb6 Y10 Cd4 Ni1 Ir3'
_cell_volume   636.04201716
_cell_formula_units_Z   1
loop_
 _symmetry_equiv_pos_site_id
 _symmetry_equiv_pos_as_xyz
  1  'x, y, z'
loop_
 _atom_site_type_symbol
 _atom_site_label
 _atom_site_symmetry_multiplicity
 _atom_site_fract_x
 _atom_site_fract_y
 _atom_site_fract_z
 _atom_site_occupancy
  Tb  Tb0  1  0.600909  0.596913  0.596913  1
  Tb  Tb1  1  0.602609  0.598133  0.202340  1
  Tb  Tb2  1  0.602609  0.202340  0.598133  1
  Tb  Tb3  1  0.201405  0.600088  0.600088  1
  Tb  Tb4  1  0.058724  0.439268  0.439268  1
  Tb  Tb5  1  0.437282  0.060775  0.060775  1
  Y  Y6  1  0.439200  0.059294  0.440697  1
  Y  Y7  1  0.059138  0.438521  0.061797  1
  Y  Y8  1  0.439200  0.440697  0.059294  1
  Y  Y9  1  0.059138  0.061797  0.438521  1
  Y  Y10  1  0.188571  0.812343  0.812343  1
  Y  Y11  1  0.810948  0.186629  0.186629  1
  Y  Y12  1  0.811043  0.187983  0.815692  1
  Y  Y13  1  0.188409  0.811591  0.188214  1
  Y  Y14  1  0.811043  0.815692  0.187983  1
  Y  Y15  1  0.188409  0.188214  0.811591  1
  Cd  Cd16  1  0.830016  0.830614  0.830614  1
  Cd  Cd17  1  0.830217  0.831503  0.506415  1
  Cd  Cd18  1  0.830217  0.506415  0.831503  1
  Cd  Cd19  1  0.506473  0.830858  0.830858  1
  Ni  Ni20  1  0.824169  0.392604  0.392604  1
  Ir  Ir21  1  0.392546  0.392623  0.392623  1
  Ir  Ir22  1  0.393864  0.391998  0.823101  1
  Ir  Ir23  1  0.393864  0.823101  0.391998  1
