# generated using pymatgen
data_Y6Si6Ir2OsRh
_symmetry_space_group_name_H-M   'P 1'
_cell_length_a   5.76806211
_cell_length_b   5.76806255
_cell_length_c   13.68013030
_cell_angle_alpha   90.02888501
_cell_angle_beta   89.97111332
_cell_angle_gamma   137.44386604
_symmetry_Int_Tables_number   1
_chemical_formula_structural   Y6Si6Ir2OsRh
_chemical_formula_sum   'Y6 Si6 Ir2 Os1 Rh1'
_cell_volume   307.82032201
_cell_formula_units_Z   1
loop_
 _symmetry_equiv_pos_site_id
 _symmetry_equiv_pos_as_xyz
  1  'x, y, z'
loop_
 _atom_site_type_symbol
 _atom_site_label
 _atom_site_symmetry_multiplicity
 _atom_site_fract_x
 _atom_site_fract_y
 _atom_site_fract_z
 _atom_site_occupancy
  Y  Y0  1  0.922067  0.077933  0.384140  1
  Y  Y1  1  0.077787  0.922213  0.615473  1
  Y  Y2  1  0.924965  0.075035  0.115076  1
  Y  Y3  1  0.076652  0.923348  0.885113  1
  Y  Y4  1  0.644046  0.355954  0.249478  1
  Y  Y5  1  0.356264  0.643736  0.749311  1
  Si  Si6  1  0.610286  0.389714  0.460848  1
  Si  Si7  1  0.388278  0.611722  0.539649  1
  Si  Si8  1  0.614611  0.385389  0.039168  1
  Si  Si9  1  0.383333  0.616667  0.959385  1
  Si  Si10  1  0.334461  0.665539  0.248711  1
  Si  Si11  1  0.670033  0.329967  0.751720  1
  Ir  Ir12  1  0.213633  0.786367  0.081202  1
  Ir  Ir13  1  0.784397  0.215603  0.580040  1
  Os  Os14  1  0.784440  0.215560  0.919052  1
  Rh  Rh15  1  0.214749  0.785251  0.421636  1
