# generated using pymatgen
data_Tm3Sc(Co4P3)2
_symmetry_space_group_name_H-M   'P 1'
_cell_length_a   3.69835200
_cell_length_b   10.61430500
_cell_length_c   12.27648700
_cell_angle_alpha   90.00000000
_cell_angle_beta   90.00000000
_cell_angle_gamma   90.00000000
_symmetry_Int_Tables_number   1
_chemical_formula_structural   Tm3Sc(Co4P3)2
_chemical_formula_sum   'Tm6 Sc2 Co16 P12'
_cell_volume   481.91885127
_cell_formula_units_Z   2
loop_
 _symmetry_equiv_pos_site_id
 _symmetry_equiv_pos_as_xyz
  1  'x, y, z'
loop_
 _atom_site_type_symbol
 _atom_site_label
 _atom_site_symmetry_multiplicity
 _atom_site_fract_x
 _atom_site_fract_y
 _atom_site_fract_z
 _atom_site_occupancy
  Tm  Tm0  1  0.000000  0.500000  0.528013  1
  Tm  Tm1  1  0.500000  0.000000  0.471987  1
  Tm  Tm2  1  0.500000  0.822879  0.205770  1
  Tm  Tm3  1  0.500000  0.177121  0.205770  1
  Tm  Tm4  1  0.000000  0.677121  0.794230  1
  Tm  Tm5  1  0.000000  0.322879  0.794230  1
  Sc  Sc6  1  0.500000  0.500000  0.158134  1
  Sc  Sc7  1  0.000000  0.000000  0.841866  1
  Co  Co8  1  0.500000  0.500000  0.704879  1
  Co  Co9  1  0.000000  0.000000  0.295121  1
  Co  Co10  1  0.000000  0.500000  0.987379  1
  Co  Co11  1  0.500000  0.000000  0.012621  1
  Co  Co12  1  0.500000  0.331227  0.994506  1
  Co  Co13  1  0.500000  0.668773  0.994506  1
  Co  Co14  1  0.000000  0.168773  0.005494  1
  Co  Co15  1  0.000000  0.831227  0.005494  1
  Co  Co16  1  0.500000  0.295501  0.433155  1
  Co  Co17  1  0.500000  0.704499  0.433155  1
  Co  Co18  1  0.000000  0.204499  0.566845  1
  Co  Co19  1  0.000000  0.795501  0.566845  1
  Co  Co20  1  0.500000  0.877117  0.702565  1
  Co  Co21  1  0.500000  0.122883  0.702565  1
  Co  Co22  1  0.000000  0.622883  0.297435  1
  Co  Co23  1  0.000000  0.377117  0.297435  1
  P  P24  1  0.500000  0.500000  0.884731  1
  P  P25  1  0.000000  0.000000  0.115269  1
  P  P26  1  0.500000  0.500000  0.361630  1
  P  P27  1  0.000000  0.000000  0.638370  1
  P  P28  1  0.500000  0.311030  0.616106  1
  P  P29  1  0.500000  0.688970  0.616106  1
  P  P30  1  0.000000  0.188970  0.383894  1
  P  P31  1  0.000000  0.811030  0.383894  1
  P  P32  1  0.500000  0.838665  0.891435  1
  P  P33  1  0.500000  0.161335  0.891435  1
  P  P34  1  0.000000  0.661335  0.108565  1
  P  P35  1  0.000000  0.338665  0.108565  1
