# generated using pymatgen
data_Be3Nb3FeRu2
_symmetry_space_group_name_H-M   'P 1'
_cell_length_a   6.45643459
_cell_length_b   6.31410835
_cell_length_c   7.23829814
_cell_angle_alpha   115.85910570
_cell_angle_beta   116.48677081
_cell_angle_gamma   90.00000087
_symmetry_Int_Tables_number   1
_chemical_formula_structural   Be3Nb3FeRu2
_chemical_formula_sum   'Be6 Nb6 Fe2 Ru4'
_cell_volume   230.62740226
_cell_formula_units_Z   2
loop_
 _symmetry_equiv_pos_site_id
 _symmetry_equiv_pos_as_xyz
  1  'x, y, z'
loop_
 _atom_site_type_symbol
 _atom_site_label
 _atom_site_symmetry_multiplicity
 _atom_site_fract_x
 _atom_site_fract_y
 _atom_site_fract_z
 _atom_site_occupancy
  Be  Be0  1  0.169244  0.668820  0.332893  1
  Be  Be1  1  0.836351  0.331180  0.667107  1
  Be  Be2  1  0.169244  0.164072  0.332893  1
  Be  Be3  1  0.836351  0.835928  0.667107  1
  Be  Be4  1  0.509841  0.749161  0.998321  1
  Be  Be5  1  0.511521  0.250839  0.001679  1
  Nb  Nb6  1  0.907314  0.950874  0.401748  1
  Nb  Nb7  1  0.505567  0.049126  0.598252  1
  Nb  Nb8  1  0.505794  0.547431  0.594860  1
  Nb  Nb9  1  0.910934  0.452569  0.405140  1
  Nb  Nb10  1  0.083554  0.749086  0.998172  1
  Nb  Nb11  1  0.085381  0.250914  0.001828  1
  Fe  Fe12  1  0.758965  0.500000  0.000000  1
  Fe  Fe13  1  0.758965  0.000000  0.000000  1
  Ru  Ru14  1  0.251354  0.874473  0.748223  1
  Ru  Ru15  1  0.503131  0.125527  0.251777  1
  Ru  Ru16  1  0.251354  0.373750  0.748223  1
  Ru  Ru17  1  0.503131  0.626250  0.251777  1
