# generated using pymatgen
data_K2LiLuSb2
_symmetry_space_group_name_H-M   'P 1'
_cell_length_a   10.85181054
_cell_length_b   10.85180964
_cell_length_c   7.06477400
_cell_angle_alpha   90.00000000
_cell_angle_beta   90.00000000
_cell_angle_gamma   98.92992134
_symmetry_Int_Tables_number   1
_chemical_formula_structural   K2LiLuSb2
_chemical_formula_sum   'K8 Li4 Lu4 Sb8'
_cell_volume   821.87613385
_cell_formula_units_Z   4
loop_
 _symmetry_equiv_pos_site_id
 _symmetry_equiv_pos_as_xyz
  1  'x, y, z'
loop_
 _atom_site_type_symbol
 _atom_site_label
 _atom_site_symmetry_multiplicity
 _atom_site_fract_x
 _atom_site_fract_y
 _atom_site_fract_z
 _atom_site_occupancy
  K  K0  1  0.069258  0.430742  0.750000  1
  K  K1  1  0.677091  0.322909  0.787980  1
  K  K2  1  0.322909  0.677091  0.212020  1
  K  K3  1  0.569258  0.930742  0.750000  1
  K  K4  1  0.430742  0.069258  0.250000  1
  K  K5  1  0.930742  0.569258  0.250000  1
  K  K6  1  0.822909  0.177091  0.287980  1
  K  K7  1  0.177091  0.822909  0.712020  1
  Li  Li8  1  0.119748  0.119748  0.500000  1
  Li  Li9  1  0.880252  0.880252  0.500000  1
  Li  Li10  1  0.380252  0.380252  0.000000  1
  Li  Li11  1  0.619748  0.619748  0.000000  1
  Lu  Lu12  1  0.869955  0.869955  0.000000  1
  Lu  Lu13  1  0.369955  0.369955  0.500000  1
  Lu  Lu14  1  0.630045  0.630045  0.500000  1
  Lu  Lu15  1  0.130045  0.130045  0.000000  1
  Sb  Sb16  1  0.850284  0.649716  0.750000  1
  Sb  Sb17  1  0.099221  0.900779  0.238401  1
  Sb  Sb18  1  0.400779  0.599221  0.738401  1
  Sb  Sb19  1  0.599221  0.400779  0.261599  1
  Sb  Sb20  1  0.649716  0.850284  0.250000  1
  Sb  Sb21  1  0.149716  0.350284  0.250000  1
  Sb  Sb22  1  0.350284  0.149716  0.750000  1
  Sb  Sb23  1  0.900779  0.099221  0.761599  1
