# generated using pymatgen
data_DyTh5PtBr15
_symmetry_space_group_name_H-M   'P 1'
_cell_length_a   10.21917172
_cell_length_b   10.21917147
_cell_length_c   10.21917092
_cell_angle_alpha   109.91645066
_cell_angle_beta   109.24906181
_cell_angle_gamma   109.24906956
_symmetry_Int_Tables_number   1
_chemical_formula_structural   DyTh5PtBr15
_chemical_formula_sum   'Dy1 Th5 Pt1 Br15'
_cell_volume   821.49602358
_cell_formula_units_Z   1
loop_
 _symmetry_equiv_pos_site_id
 _symmetry_equiv_pos_as_xyz
  1  'x, y, z'
loop_
 _atom_site_type_symbol
 _atom_site_label
 _atom_site_symmetry_multiplicity
 _atom_site_fract_x
 _atom_site_fract_y
 _atom_site_fract_z
 _atom_site_occupancy
  Dy  Dy0  1  0.000000  0.241580  0.241580  1
  Th  Th1  1  0.000000  0.751051  0.751051  1
  Th  Th2  1  0.241969  0.003808  0.245777  1
  Th  Th3  1  0.758031  0.003808  0.761838  1
  Th  Th4  1  0.241969  0.245777  0.003808  1
  Th  Th5  1  0.758031  0.761838  0.003808  1
  Pt  Pt6  1  0.000000  0.995529  0.995529  1
  Br  Br7  1  0.497119  0.248455  0.248455  1
  Br  Br8  1  0.502881  0.751337  0.751337  1
  Br  Br9  1  0.000000  0.248455  0.751337  1
  Br  Br10  1  0.000000  0.751337  0.248455  1
  Br  Br11  1  0.242858  0.493484  0.250624  1
  Br  Br12  1  0.757142  0.007766  0.250624  1
  Br  Br13  1  0.751257  0.502456  0.751199  1
  Br  Br14  1  0.248743  0.999942  0.751199  1
  Br  Br15  1  0.242858  0.250624  0.493484  1
  Br  Br16  1  0.751257  0.751199  0.502456  1
  Br  Br17  1  0.757142  0.250624  0.007766  1
  Br  Br18  1  0.248743  0.751199  0.999942  1
  Br  Br19  1  0.000000  0.495809  0.495809  1
  Br  Br20  1  0.500000  0.996963  0.496963  1
  Br  Br21  1  0.500000  0.496963  0.996963  1
