# generated using pymatgen
data_DyHo2Tm(GaCo)4
_symmetry_space_group_name_H-M   'P 1'
_cell_length_a   4.41503400
_cell_length_b   6.83889128
_cell_length_c   6.98460475
_cell_angle_alpha   90.00325029
_cell_angle_beta   90.00000000
_cell_angle_gamma   90.00000000
_symmetry_Int_Tables_number   1
_chemical_formula_structural   DyHo2Tm(GaCo)4
_chemical_formula_sum   'Dy1 Ho2 Tm1 Ga4 Co4'
_cell_volume   210.89271927
_cell_formula_units_Z   1
loop_
 _symmetry_equiv_pos_site_id
 _symmetry_equiv_pos_as_xyz
  1  'x, y, z'
loop_
 _atom_site_type_symbol
 _atom_site_label
 _atom_site_symmetry_multiplicity
 _atom_site_fract_x
 _atom_site_fract_y
 _atom_site_fract_z
 _atom_site_occupancy
  Dy  Dy0  1  0.750000  0.694602  0.478002  1
  Ho  Ho1  1  0.250000  0.196566  0.022905  1
  Ho  Ho2  1  0.750000  0.804314  0.977810  1
  Tm  Tm3  1  0.250000  0.302261  0.523057  1
  Ga  Ga4  1  0.250000  0.895239  0.695358  1
  Ga  Ga5  1  0.250000  0.605453  0.194417  1
  Ga  Ga6  1  0.750000  0.106994  0.305936  1
  Ga  Ga7  1  0.750000  0.393583  0.804342  1
  Co  Co8  1  0.250000  0.938277  0.343966  1
  Co  Co9  1  0.250000  0.562065  0.842189  1
  Co  Co10  1  0.750000  0.063874  0.656018  1
  Co  Co11  1  0.750000  0.436771  0.156002  1
