# generated using pymatgen
data_Y8Tl2PdPt
_symmetry_space_group_name_H-M   'P 1'
_cell_length_a   9.78599915
_cell_length_b   9.78608978
_cell_length_c   9.77210000
_cell_angle_alpha   59.86829036
_cell_angle_beta   59.86943784
_cell_angle_gamma   59.87115505
_symmetry_Int_Tables_number   1
_chemical_formula_structural   Y8Tl2PdPt
_chemical_formula_sum   'Y16 Tl4 Pd2 Pt2'
_cell_volume   659.78221536
_cell_formula_units_Z   2
loop_
 _symmetry_equiv_pos_site_id
 _symmetry_equiv_pos_as_xyz
  1  'x, y, z'
loop_
 _atom_site_type_symbol
 _atom_site_label
 _atom_site_symmetry_multiplicity
 _atom_site_fract_x
 _atom_site_fract_y
 _atom_site_fract_z
 _atom_site_occupancy
  Y  Y0  1  0.352154  0.352154  0.348867  1
  Y  Y1  1  0.352314  0.352315  0.944319  1
  Y  Y2  1  0.352420  0.942816  0.351030  1
  Y  Y3  1  0.942811  0.352420  0.351027  1
  Y  Y4  1  0.810558  0.189413  0.188802  1
  Y  Y5  1  0.190712  0.809046  0.811343  1
  Y  Y6  1  0.189416  0.810555  0.188800  1
  Y  Y7  1  0.809047  0.190714  0.811341  1
  Y  Y8  1  0.189220  0.189216  0.812241  1
  Y  Y9  1  0.810605  0.810607  0.190333  1
  Y  Y10  1  0.935848  0.563778  0.561790  1
  Y  Y11  1  0.562417  0.938560  0.938692  1
  Y  Y12  1  0.563780  0.935849  0.561791  1
  Y  Y13  1  0.938566  0.562407  0.938695  1
  Y  Y14  1  0.562337  0.562328  0.936050  1
  Y  Y15  1  0.938087  0.938081  0.562101  1
  Tl  Tl16  1  0.587706  0.587711  0.587902  1
  Tl  Tl17  1  0.585732  0.585735  0.241863  1
  Tl  Tl18  1  0.585397  0.242473  0.585712  1
  Tl  Tl19  1  0.242474  0.585398  0.585712  1
  Pd  Pd20  1  0.143801  0.143808  0.144430  1
  Pd  Pd21  1  0.142553  0.142562  0.570114  1
  Pt  Pt22  1  0.141844  0.570202  0.143522  1
  Pt  Pt23  1  0.570202  0.141847  0.143523  1
