# generated using pymatgen
data_BaAsS2F
_symmetry_space_group_name_H-M   'P 1'
_cell_length_a   6.05888098
_cell_length_b   6.36840821
_cell_length_c   13.52296627
_cell_angle_alpha   94.82519894
_cell_angle_beta   92.90891615
_cell_angle_gamma   89.71205879
_symmetry_Int_Tables_number   1
_chemical_formula_structural   BaAsS2F
_chemical_formula_sum   'Ba4 As4 S8 F4'
_cell_volume   519.27008313
_cell_formula_units_Z   4
loop_
 _symmetry_equiv_pos_site_id
 _symmetry_equiv_pos_as_xyz
  1  'x, y, z'
loop_
 _atom_site_type_symbol
 _atom_site_label
 _atom_site_symmetry_multiplicity
 _atom_site_fract_x
 _atom_site_fract_y
 _atom_site_fract_z
 _atom_site_occupancy
  Ba  Ba0  1  0.266661  0.524813  0.616227  1
  Ba  Ba1  1  0.233019  0.983472  0.384772  1
  Ba  Ba2  1  0.733339  0.475187  0.383773  1
  Ba  Ba3  1  0.766981  0.016528  0.615228  1
  As  As4  1  0.755518  0.991150  0.135875  1
  As  As5  1  0.251943  0.366152  0.136153  1
  As  As6  1  0.244482  0.008850  0.864125  1
  As  As7  1  0.748057  0.633848  0.863847  1
  S  S8  1  0.361861  0.665199  0.881378  1
  S  S9  1  0.276508  0.036349  0.702657  1
  S  S10  1  0.225858  0.463495  0.296703  1
  S  S11  1  0.638139  0.334801  0.118622  1
  S  S12  1  0.774142  0.536505  0.703297  1
  S  S13  1  0.854157  0.984463  0.872044  1
  S  S14  1  0.145843  0.015537  0.127956  1
  S  S15  1  0.723492  0.963651  0.297343  1
  F  F16  1  0.999864  0.253549  0.502919  1
  F  F17  1  0.500147  0.249459  0.502639  1
  F  F18  1  0.499853  0.750541  0.497361  1
  F  F19  1  0.000136  0.746451  0.497081  1
