# generated using pymatgen
data_AcCu9Ge4
_symmetry_space_group_name_H-M   'P 1'
_cell_length_a   8.36123313
_cell_length_b   8.36123362
_cell_length_c   8.45304534
_cell_angle_alpha   119.64135266
_cell_angle_beta   119.64135471
_cell_angle_gamma   89.99999600
_symmetry_Int_Tables_number   1
_chemical_formula_structural   AcCu9Ge4
_chemical_formula_sum   'Ac2 Cu18 Ge8'
_cell_volume   422.35765745
_cell_formula_units_Z   2
loop_
 _symmetry_equiv_pos_site_id
 _symmetry_equiv_pos_as_xyz
  1  'x, y, z'
loop_
 _atom_site_type_symbol
 _atom_site_label
 _atom_site_symmetry_multiplicity
 _atom_site_fract_x
 _atom_site_fract_y
 _atom_site_fract_z
 _atom_site_occupancy
  Ac  Ac0  1  0.250000  0.250000  0.500000  1
  Ac  Ac1  1  0.750000  0.750000  0.500000  1
  Cu  Cu2  1  0.500000  0.000000  0.000000  1
  Cu  Cu3  1  0.202091  0.061213  0.000000  1
  Cu  Cu4  1  0.938787  0.202091  0.000000  1
  Cu  Cu5  1  0.438787  0.297909  0.000000  1
  Cu  Cu6  1  0.702091  0.438787  0.000000  1
  Cu  Cu7  1  0.000000  0.500000  0.000000  1
  Cu  Cu8  1  0.297909  0.561213  0.000000  1
  Cu  Cu9  1  0.561213  0.702091  0.000000  1
  Cu  Cu10  1  0.061213  0.797909  0.000000  1
  Cu  Cu11  1  0.797909  0.938787  0.000000  1
  Cu  Cu12  1  0.795419  0.059560  0.354980  1
  Cu  Cu13  1  0.559560  0.295419  0.354980  1
  Cu  Cu14  1  0.059560  0.559560  0.354980  1
  Cu  Cu15  1  0.295419  0.795419  0.354980  1
  Cu  Cu16  1  0.704581  0.204581  0.645021  1
  Cu  Cu17  1  0.940440  0.440440  0.645021  1
  Cu  Cu18  1  0.440440  0.704581  0.645021  1
  Cu  Cu19  1  0.204581  0.940440  0.645021  1
  Ge  Ge20  1  0.799979  0.299979  0.243983  1
  Ge  Ge21  1  0.299979  0.444004  0.243983  1
  Ge  Ge22  1  0.944002  0.799979  0.243983  1
  Ge  Ge23  1  0.444004  0.944002  0.243983  1
  Ge  Ge24  1  0.555997  0.055997  0.756018  1
  Ge  Ge25  1  0.055997  0.200021  0.756018  1
  Ge  Ge26  1  0.700021  0.555997  0.756018  1
  Ge  Ge27  1  0.200021  0.700021  0.756018  1
