# generated using pymatgen
data_Th3CoSn3RuRh
_symmetry_space_group_name_H-M   'P 1'
_cell_length_a   7.55452000
_cell_length_b   7.55451980
_cell_length_c   4.05928000
_cell_angle_alpha   90.00000000
_cell_angle_beta   90.00000000
_cell_angle_gamma   120.00000089
_symmetry_Int_Tables_number   1
_chemical_formula_structural   Th3CoSn3RuRh
_chemical_formula_sum   'Th3 Co1 Sn3 Ru1 Rh1'
_cell_volume   200.62884631
_cell_formula_units_Z   1
loop_
 _symmetry_equiv_pos_site_id
 _symmetry_equiv_pos_as_xyz
  1  'x, y, z'
loop_
 _atom_site_type_symbol
 _atom_site_label
 _atom_site_symmetry_multiplicity
 _atom_site_fract_x
 _atom_site_fract_y
 _atom_site_fract_z
 _atom_site_occupancy
  Th  Th0  1  0.412907  0.409120  0.500000  1
  Th  Th1  1  0.590880  0.003787  0.500000  1
  Th  Th2  1  0.996213  0.587093  0.500000  1
  Co  Co3  1  0.000000  0.000000  0.500000  1
  Sn  Sn4  1  0.756379  0.755259  0.000000  1
  Sn  Sn5  1  0.244741  0.001120  0.000000  1
  Sn  Sn6  1  0.998880  0.243621  0.000000  1
  Ru  Ru7  1  0.666667  0.333333  0.000000  1
  Rh  Rh8  1  0.333333  0.666667  0.000000  1
