# generated using pymatgen
data_Na4AgSb2Au
_symmetry_space_group_name_H-M   'P 1'
_cell_length_a   6.07564627
_cell_length_b   6.07564617
_cell_length_c   5.87396707
_cell_angle_alpha   89.44033261
_cell_angle_beta   89.44033408
_cell_angle_gamma   101.46480177
_symmetry_Int_Tables_number   1
_chemical_formula_structural   Na4AgSb2Au
_chemical_formula_sum   'Na4 Ag1 Sb2 Au1'
_cell_volume   212.47686121
_cell_formula_units_Z   1
loop_
 _symmetry_equiv_pos_site_id
 _symmetry_equiv_pos_as_xyz
  1  'x, y, z'
loop_
 _atom_site_type_symbol
 _atom_site_label
 _atom_site_symmetry_multiplicity
 _atom_site_fract_x
 _atom_site_fract_y
 _atom_site_fract_z
 _atom_site_occupancy
  Na  Na0  1  0.015970  0.657881  0.248031  1
  Na  Na1  1  0.984030  0.342119  0.751969  1
  Na  Na2  1  0.657881  0.015970  0.248031  1
  Na  Na3  1  0.342119  0.984030  0.751969  1
  Ag  Ag4  1  0.500000  0.500000  0.500000  1
  Sb  Sb5  1  0.797116  0.797116  0.749087  1
  Sb  Sb6  1  0.202884  0.202884  0.250913  1
  Au  Au7  1  0.500000  0.500000  0.000000  1
