# generated using pymatgen
data_Eu4MnPN6
_symmetry_space_group_name_H-M   'P 1'
_cell_length_a   6.00423586
_cell_length_b   6.00423462
_cell_length_c   11.83357500
_cell_angle_alpha   90.00000000
_cell_angle_beta   90.00000000
_cell_angle_gamma   125.58816868
_symmetry_Int_Tables_number   1
_chemical_formula_structural   Eu4MnPN6
_chemical_formula_sum   'Eu8 Mn2 P2 N12'
_cell_volume   346.92845690
_cell_formula_units_Z   2
loop_
 _symmetry_equiv_pos_site_id
 _symmetry_equiv_pos_as_xyz
  1  'x, y, z'
loop_
 _atom_site_type_symbol
 _atom_site_label
 _atom_site_symmetry_multiplicity
 _atom_site_fract_x
 _atom_site_fract_y
 _atom_site_fract_z
 _atom_site_occupancy
  Eu  Eu0  1  0.358451  0.641549  0.077340  1
  Eu  Eu1  1  0.862357  0.137643  0.423810  1
  Eu  Eu2  1  0.141549  0.858451  0.577340  1
  Eu  Eu3  1  0.637643  0.362357  0.923810  1
  Eu  Eu4  1  0.446676  0.553324  0.640398  1
  Eu  Eu5  1  0.550276  0.449724  0.351465  1
  Eu  Eu6  1  0.053324  0.946676  0.140398  1
  Eu  Eu7  1  0.949724  0.050276  0.851465  1
  Mn  Mn8  1  0.754587  0.245413  0.663677  1
  Mn  Mn9  1  0.745413  0.254587  0.163677  1
  P  P10  1  0.245852  0.754148  0.337901  1
  P  P11  1  0.254148  0.745852  0.837901  1
  N  N12  1  0.972630  0.549959  0.759782  1
  N  N13  1  0.527370  0.950041  0.259782  1
  N  N14  1  0.049959  0.472630  0.259782  1
  N  N15  1  0.450041  0.027370  0.759782  1
  N  N16  1  0.407353  0.592647  0.860577  1
  N  N17  1  0.578463  0.421537  0.133809  1
  N  N18  1  0.092647  0.907353  0.360577  1
  N  N19  1  0.653495  0.346505  0.539950  1
  N  N20  1  0.163424  0.836576  0.951509  1
  N  N21  1  0.846505  0.153495  0.039950  1
  N  N22  1  0.336576  0.663424  0.451509  1
  N  N23  1  0.921537  0.078463  0.633809  1
