# generated using pymatgen
data_Cd2P7Ru12
_symmetry_space_group_name_H-M   'P 1'
_cell_length_a   9.53018000
_cell_length_b   9.53017875
_cell_length_c   3.81231600
_cell_angle_alpha   90.00000000
_cell_angle_beta   90.00000000
_cell_angle_gamma   119.99999877
_symmetry_Int_Tables_number   1
_chemical_formula_structural   Cd2P7Ru12
_chemical_formula_sum   'Cd2 P7 Ru12'
_cell_volume   299.86216936
_cell_formula_units_Z   1
loop_
 _symmetry_equiv_pos_site_id
 _symmetry_equiv_pos_as_xyz
  1  'x, y, z'
loop_
 _atom_site_type_symbol
 _atom_site_label
 _atom_site_symmetry_multiplicity
 _atom_site_fract_x
 _atom_site_fract_y
 _atom_site_fract_z
 _atom_site_occupancy
  Cd  Cd0  1  0.666667  0.333333  0.500000  1
  Cd  Cd1  1  0.333333  0.666667  0.000000  1
  P  P2  1  0.613500  0.695568  0.500000  1
  P  P3  1  0.000000  0.000000  0.000000  1
  P  P4  1  0.304432  0.917932  0.500000  1
  P  P5  1  0.082068  0.386500  0.500000  1
  P  P6  1  0.913293  0.609994  0.000000  1
  P  P7  1  0.390006  0.303299  0.000000  1
  P  P8  1  0.696701  0.086707  0.000000  1
  Ru  Ru9  1  0.540633  0.907806  0.500000  1
  Ru  Ru10  1  0.367175  0.459367  0.500000  1
  Ru  Ru11  1  0.874472  0.117624  0.500000  1
  Ru  Ru12  1  0.243152  0.125528  0.500000  1
  Ru  Ru13  1  0.882376  0.756848  0.500000  1
  Ru  Ru14  1  0.731357  0.861858  0.000000  1
  Ru  Ru15  1  0.138142  0.869497  0.000000  1
  Ru  Ru16  1  0.130503  0.268643  0.000000  1
  Ru  Ru17  1  0.457701  0.094266  0.000000  1
  Ru  Ru18  1  0.905734  0.363436  0.000000  1
  Ru  Ru19  1  0.636564  0.542299  0.000000  1
  Ru  Ru20  1  0.092194  0.632825  0.500000  1
