# generated using pymatgen
data_YNpCrO6
_symmetry_space_group_name_H-M   'P 1'
_cell_length_a   5.34315401
_cell_length_b   5.34176943
_cell_length_c   9.83271601
_cell_angle_alpha   90.00794210
_cell_angle_beta   89.99602750
_cell_angle_gamma   119.99141964
_symmetry_Int_Tables_number   1
_chemical_formula_structural   YNpCrO6
_chemical_formula_sum   'Y2 Np2 Cr2 O12'
_cell_volume   243.06615873
_cell_formula_units_Z   2
loop_
 _symmetry_equiv_pos_site_id
 _symmetry_equiv_pos_as_xyz
  1  'x, y, z'
loop_
 _atom_site_type_symbol
 _atom_site_label
 _atom_site_symmetry_multiplicity
 _atom_site_fract_x
 _atom_site_fract_y
 _atom_site_fract_z
 _atom_site_occupancy
  Y  Y0  1  0.000000  0.000000  0.000000  1
  Y  Y1  1  0.000000  0.000000  0.500000  1
  Np  Np2  1  0.333600  0.666799  0.750000  1
  Np  Np3  1  0.666400  0.333201  0.250000  1
  Cr  Cr4  1  0.332805  0.666403  0.250000  1
  Cr  Cr5  1  0.667195  0.333597  0.750000  1
  O  O6  1  0.347827  0.355236  0.138232  1
  O  O7  1  0.644527  0.992576  0.138254  1
  O  O8  1  0.007202  0.651965  0.138212  1
  O  O9  1  0.652173  0.644764  0.861768  1
  O  O10  1  0.355473  0.007424  0.861746  1
  O  O11  1  0.992798  0.348035  0.861788  1
  O  O12  1  0.644527  0.651951  0.361746  1
  O  O13  1  0.347827  0.992591  0.361768  1
  O  O14  1  0.007202  0.355238  0.361788  1
  O  O15  1  0.355473  0.348049  0.638254  1
  O  O16  1  0.652173  0.007409  0.638232  1
  O  O17  1  0.992798  0.644762  0.638212  1
