# generated using pymatgen
data_V2Co2SiAs
_symmetry_space_group_name_H-M   'P 1'
_cell_length_a   3.61633400
_cell_length_b   5.98995300
_cell_length_c   6.88189200
_cell_angle_alpha   90.00000000
_cell_angle_beta   90.00000000
_cell_angle_gamma   90.00000000
_symmetry_Int_Tables_number   1
_chemical_formula_structural   V2Co2SiAs
_chemical_formula_sum   'V4 Co4 Si2 As2'
_cell_volume   149.07327824
_cell_formula_units_Z   2
loop_
 _symmetry_equiv_pos_site_id
 _symmetry_equiv_pos_as_xyz
  1  'x, y, z'
loop_
 _atom_site_type_symbol
 _atom_site_label
 _atom_site_symmetry_multiplicity
 _atom_site_fract_x
 _atom_site_fract_y
 _atom_site_fract_z
 _atom_site_occupancy
  V  V0  1  0.750000  0.470280  0.673919  1
  V  V1  1  0.250000  0.025231  0.177914  1
  V  V2  1  0.750000  0.970280  0.826081  1
  V  V3  1  0.250000  0.525231  0.322086  1
  Co  Co4  1  0.250000  0.645658  0.945799  1
  Co  Co5  1  0.250000  0.145658  0.554201  1
  Co  Co6  1  0.750000  0.860267  0.434363  1
  Co  Co7  1  0.750000  0.360267  0.065637  1
  Si  Si8  1  0.750000  0.235034  0.375034  1
  Si  Si9  1  0.750000  0.735034  0.124966  1
  As  As10  1  0.250000  0.763529  0.623957  1
  As  As11  1  0.250000  0.263529  0.876043  1
