# generated using pymatgen
data_Y2Si7(NiRu3)3
_symmetry_space_group_name_H-M   'P 1'
_cell_length_a   3.82928400
_cell_length_b   9.55065128
_cell_length_c   9.55065100
_cell_angle_alpha   119.99999557
_cell_angle_beta   90.00000000
_cell_angle_gamma   90.00000000
_symmetry_Int_Tables_number   1
_chemical_formula_structural   Y2Si7(NiRu3)3
_chemical_formula_sum   'Y2 Si7 Ni3 Ru9'
_cell_volume   302.49220775
_cell_formula_units_Z   1
loop_
 _symmetry_equiv_pos_site_id
 _symmetry_equiv_pos_as_xyz
  1  'x, y, z'
loop_
 _atom_site_type_symbol
 _atom_site_label
 _atom_site_symmetry_multiplicity
 _atom_site_fract_x
 _atom_site_fract_y
 _atom_site_fract_z
 _atom_site_occupancy
  Y  Y0  1  0.000000  0.666667  0.333333  1
  Y  Y1  1  0.500000  0.333333  0.666667  1
  Si  Si2  1  0.000000  0.000000  0.000000  1
  Si  Si3  1  0.500000  0.713182  0.105625  1
  Si  Si4  1  0.500000  0.392443  0.286818  1
  Si  Si5  1  0.500000  0.894375  0.607557  1
  Si  Si6  1  0.000000  0.599589  0.708266  1
  Si  Si7  1  0.000000  0.108676  0.400411  1
  Si  Si8  1  0.000000  0.291734  0.891324  1
  Ni  Ni9  1  0.000000  0.877842  0.151357  1
  Ni  Ni10  1  0.000000  0.273515  0.122158  1
  Ni  Ni11  1  0.000000  0.848643  0.726485  1
  Ru  Ru12  1  0.000000  0.571195  0.941999  1
  Ru  Ru13  1  0.000000  0.370803  0.428805  1
  Ru  Ru14  1  0.000000  0.058001  0.629197  1
  Ru  Ru15  1  0.500000  0.794730  0.903483  1
  Ru  Ru16  1  0.500000  0.108753  0.205270  1
  Ru  Ru17  1  0.500000  0.096517  0.891247  1
  Ru  Ru18  1  0.500000  0.943377  0.378511  1
  Ru  Ru19  1  0.500000  0.435132  0.056623  1
  Ru  Ru20  1  0.500000  0.621489  0.564868  1
