# generated using pymatgen
data_Tb5SiSn2Pb
_symmetry_space_group_name_H-M   'P 1'
_cell_length_a   9.31154425
_cell_length_b   9.31154487
_cell_length_c   6.53342100
_cell_angle_alpha   90.00000000
_cell_angle_beta   90.00000000
_cell_angle_gamma   120.15255943
_symmetry_Int_Tables_number   1
_chemical_formula_structural   Tb5SiSn2Pb
_chemical_formula_sum   'Tb10 Si2 Sn4 Pb2'
_cell_volume   489.82961184
_cell_formula_units_Z   2
loop_
 _symmetry_equiv_pos_site_id
 _symmetry_equiv_pos_as_xyz
  1  'x, y, z'
loop_
 _atom_site_type_symbol
 _atom_site_label
 _atom_site_symmetry_multiplicity
 _atom_site_fract_x
 _atom_site_fract_y
 _atom_site_fract_z
 _atom_site_occupancy
  Tb  Tb0  1  0.250818  0.997534  0.250000  1
  Tb  Tb1  1  0.749182  0.002466  0.750000  1
  Tb  Tb2  1  0.997534  0.250818  0.250000  1
  Tb  Tb3  1  0.002466  0.749182  0.750000  1
  Tb  Tb4  1  0.751009  0.751009  0.250000  1
  Tb  Tb5  1  0.248991  0.248991  0.750000  1
  Tb  Tb6  1  0.331485  0.668515  0.000000  1
  Tb  Tb7  1  0.668515  0.331485  0.000000  1
  Tb  Tb8  1  0.668515  0.331485  0.500000  1
  Tb  Tb9  1  0.331485  0.668515  0.500000  1
  Si  Si10  1  0.000000  0.000000  0.000000  1
  Si  Si11  1  0.000000  0.000000  0.500000  1
  Sn  Sn12  1  0.608070  0.000084  0.250000  1
  Sn  Sn13  1  0.391930  0.999916  0.750000  1
  Sn  Sn14  1  0.000084  0.608070  0.250000  1
  Sn  Sn15  1  0.999916  0.391930  0.750000  1
  Pb  Pb16  1  0.391571  0.391571  0.250000  1
  Pb  Pb17  1  0.608429  0.608429  0.750000  1
