# generated using pymatgen
data_Sc8Ti5Si16Mo7
_symmetry_space_group_name_H-M   'P 1'
_cell_length_a   6.58559615
_cell_length_b   6.78243402
_cell_length_c   12.86586631
_cell_angle_alpha   90.00777402
_cell_angle_beta   90.02407097
_cell_angle_gamma   90.00097534
_symmetry_Int_Tables_number   1
_chemical_formula_structural   Sc8Ti5Si16Mo7
_chemical_formula_sum   'Sc8 Ti5 Si16 Mo7'
_cell_volume   574.67150592
_cell_formula_units_Z   1
loop_
 _symmetry_equiv_pos_site_id
 _symmetry_equiv_pos_as_xyz
  1  'x, y, z'
loop_
 _atom_site_type_symbol
 _atom_site_label
 _atom_site_symmetry_multiplicity
 _atom_site_fract_x
 _atom_site_fract_y
 _atom_site_fract_z
 _atom_site_occupancy
  Sc  Sc0  1  0.499759  0.325360  0.094293  1
  Sc  Sc1  1  0.998464  0.171092  0.405920  1
  Sc  Sc2  1  0.500245  0.673645  0.593710  1
  Sc  Sc3  1  0.001177  0.826327  0.906145  1
  Sc  Sc4  1  0.501886  0.671054  0.906889  1
  Sc  Sc5  1  0.002012  0.828998  0.594122  1
  Sc  Sc6  1  0.500284  0.326776  0.405986  1
  Sc  Sc7  1  0.998365  0.171630  0.093503  1
  Ti  Ti8  1  0.834174  0.330379  0.625943  1
  Ti  Ti9  1  0.334855  0.168991  0.874307  1
  Ti  Ti10  1  0.164172  0.669769  0.125341  1
  Ti  Ti11  1  0.667359  0.831405  0.373800  1
  Ti  Ti12  1  0.167513  0.670463  0.373654  1
  Si  Si13  1  0.665541  0.036514  0.542293  1
  Si  Si14  1  0.165039  0.463516  0.957955  1
  Si  Si15  1  0.334640  0.964105  0.042315  1
  Si  Si16  1  0.832563  0.535586  0.458308  1
  Si  Si17  1  0.332380  0.962613  0.459627  1
  Si  Si18  1  0.830954  0.537533  0.041656  1
  Si  Si19  1  0.668087  0.038595  0.958559  1
  Si  Si20  1  0.167871  0.463075  0.541494  1
  Si  Si21  1  0.533333  0.382984  0.749142  1
  Si  Si22  1  0.033486  0.117637  0.751358  1
  Si  Si23  1  0.467260  0.618047  0.248789  1
  Si  Si24  1  0.964689  0.884222  0.249863  1
  Si  Si25  1  0.797452  0.639046  0.748994  1
  Si  Si26  1  0.297611  0.860201  0.750859  1
  Si  Si27  1  0.204722  0.360301  0.250113  1
  Si  Si28  1  0.702456  0.139346  0.250181  1
  Mo  Mo29  1  0.670939  0.832555  0.123234  1
  Mo  Mo30  1  0.829080  0.332827  0.875425  1
  Mo  Mo31  1  0.330053  0.168075  0.625972  1
  Mo  Mo32  1  0.661399  0.005237  0.749921  1
  Mo  Mo33  1  0.161239  0.493438  0.750796  1
  Mo  Mo34  1  0.338106  0.993180  0.249615  1
  Mo  Mo35  1  0.840834  0.505480  0.249918  1
