# generated using pymatgen
data_Tm12Fe2TcPb2
_symmetry_space_group_name_H-M   'P 1'
_cell_length_a   8.31553806
_cell_length_b   8.31554237
_cell_length_c   8.31553956
_cell_angle_alpha   108.60507149
_cell_angle_beta   108.60249530
_cell_angle_gamma   111.22035928
_symmetry_Int_Tables_number   1
_chemical_formula_structural   Tm12Fe2TcPb2
_chemical_formula_sum   'Tm12 Fe2 Tc1 Pb2'
_cell_volume   442.32846566
_cell_formula_units_Z   1
loop_
 _symmetry_equiv_pos_site_id
 _symmetry_equiv_pos_as_xyz
  1  'x, y, z'
loop_
 _atom_site_type_symbol
 _atom_site_label
 _atom_site_symmetry_multiplicity
 _atom_site_fract_x
 _atom_site_fract_y
 _atom_site_fract_z
 _atom_site_occupancy
  Tm  Tm0  1  0.193524  0.428790  0.235266  1
  Tm  Tm1  1  0.806476  0.571210  0.764734  1
  Tm  Tm2  1  0.193524  0.958257  0.764732  1
  Tm  Tm3  1  0.958267  0.193534  0.764733  1
  Tm  Tm4  1  0.806476  0.041743  0.235268  1
  Tm  Tm5  1  0.041733  0.806466  0.235267  1
  Tm  Tm6  1  0.428800  0.193534  0.235267  1
  Tm  Tm7  1  0.571200  0.806466  0.764733  1
  Tm  Tm8  1  0.308260  0.308272  0.616533  1
  Tm  Tm9  1  0.691740  0.691728  0.383467  1
  Tm  Tm10  1  0.691738  0.308272  0.000012  1
  Tm  Tm11  1  0.308262  0.691728  0.999988  1
  Fe  Fe12  1  0.385481  0.385480  0.999999  1
  Fe  Fe13  1  0.614519  0.614520  0.000001  1
  Tc  Tc14  1  0.000000  0.000000  0.000000  1
  Pb  Pb15  1  0.000000  0.500000  0.500000  1
  Pb  Pb16  1  0.500000  0.000000  0.500000  1
