# generated using pymatgen
data_HfSc(Al3Ir)3
_symmetry_space_group_name_H-M   'P 1'
_cell_length_a   7.47552195
_cell_length_b   7.47191744
_cell_length_c   9.27281200
_cell_angle_alpha   90.00000000
_cell_angle_beta   90.00000000
_cell_angle_gamma   119.79799118
_symmetry_Int_Tables_number   1
_chemical_formula_structural   HfSc(Al3Ir)3
_chemical_formula_sum   'Hf2 Sc2 Al18 Ir6'
_cell_volume   449.46524651
_cell_formula_units_Z   2
loop_
 _symmetry_equiv_pos_site_id
 _symmetry_equiv_pos_as_xyz
  1  'x, y, z'
loop_
 _atom_site_type_symbol
 _atom_site_label
 _atom_site_symmetry_multiplicity
 _atom_site_fract_x
 _atom_site_fract_y
 _atom_site_fract_z
 _atom_site_occupancy
  Hf  Hf0  1  0.995740  0.672371  0.250000  1
  Hf  Hf1  1  0.004260  0.327629  0.750000  1
  Sc  Sc2  1  0.671395  0.994473  0.250000  1
  Sc  Sc3  1  0.328605  0.005527  0.750000  1
  Al  Al4  1  0.124271  0.123533  0.250000  1
  Al  Al5  1  0.875729  0.876467  0.750000  1
  Al  Al6  1  0.997248  0.334254  0.078054  1
  Al  Al7  1  0.002752  0.665746  0.921946  1
  Al  Al8  1  0.002752  0.665746  0.578054  1
  Al  Al9  1  0.335426  0.998624  0.421870  1
  Al  Al10  1  0.997248  0.334254  0.421946  1
  Al  Al11  1  0.664574  0.001376  0.578130  1
  Al  Al12  1  0.664574  0.001376  0.921870  1
  Al  Al13  1  0.335426  0.998624  0.078130  1
  Al  Al14  1  0.331458  0.331237  0.559547  1
  Al  Al15  1  0.668542  0.668763  0.440453  1
  Al  Al16  1  0.668542  0.668763  0.059547  1
  Al  Al17  1  0.331458  0.331237  0.940453  1
  Al  Al18  1  0.337497  0.551736  0.250000  1
  Al  Al19  1  0.662503  0.448264  0.750000  1
  Al  Al20  1  0.554448  0.341693  0.250000  1
  Al  Al21  1  0.445552  0.658307  0.750000  1
  Ir  Ir22  1  0.673446  0.328227  0.999516  1
  Ir  Ir23  1  0.326554  0.671773  0.000484  1
  Ir  Ir24  1  0.326554  0.671773  0.499516  1
  Ir  Ir25  1  0.673446  0.328227  0.500484  1
  Ir  Ir26  1  0.000000  0.000000  0.000000  1
  Ir  Ir27  1  0.000000  0.000000  0.500000  1
