# generated using pymatgen
data_LiAl11Tc3
_symmetry_space_group_name_H-M   'P 1'
_cell_length_a   5.17089790
_cell_length_b   5.19315037
_cell_length_c   9.07218726
_cell_angle_alpha   105.35495330
_cell_angle_beta   88.32977100
_cell_angle_gamma   99.92576109
_symmetry_Int_Tables_number   1
_chemical_formula_structural   LiAl11Tc3
_chemical_formula_sum   'Li1 Al11 Tc3'
_cell_volume   231.37028608
_cell_formula_units_Z   1
loop_
 _symmetry_equiv_pos_site_id
 _symmetry_equiv_pos_as_xyz
  1  'x, y, z'
loop_
 _atom_site_type_symbol
 _atom_site_label
 _atom_site_symmetry_multiplicity
 _atom_site_fract_x
 _atom_site_fract_y
 _atom_site_fract_z
 _atom_site_occupancy
  Li  Li0  1  0.325846  0.154724  0.607336  1
  Al  Al1  1  0.014736  0.995381  0.981310  1
  Al  Al2  1  0.930281  0.822340  0.663477  1
  Al  Al3  1  0.049326  0.139957  0.303254  1
  Al  Al4  1  0.828951  0.284440  0.628048  1
  Al  Al5  1  0.846886  0.547552  0.131806  1
  Al  Al6  1  0.148964  0.467664  0.878800  1
  Al  Al7  1  0.485328  0.900130  0.132538  1
  Al  Al8  1  0.540876  0.111445  0.886608  1
  Al  Al9  1  0.579493  0.337396  0.369541  1
  Al  Al10  1  0.413743  0.674555  0.633082  1
  Al  Al11  1  0.161514  0.700375  0.381388  1
  Tc  Tc12  1  0.682058  0.861843  0.400340  1
  Tc  Tc13  1  0.661132  0.614203  0.868350  1
  Tc  Tc14  1  0.330864  0.387994  0.134122  1
