# generated using pymatgen
data_LiZr2CuF11
_symmetry_space_group_name_H-M   'P 1'
_cell_length_a   5.44193537
_cell_length_b   5.69091658
_cell_length_c   7.66509557
_cell_angle_alpha   108.53378353
_cell_angle_beta   97.03552093
_cell_angle_gamma   105.31438619
_symmetry_Int_Tables_number   1
_chemical_formula_structural   LiZr2CuF11
_chemical_formula_sum   'Li1 Zr2 Cu1 F11'
_cell_volume   211.47754049
_cell_formula_units_Z   1
loop_
 _symmetry_equiv_pos_site_id
 _symmetry_equiv_pos_as_xyz
  1  'x, y, z'
loop_
 _atom_site_type_symbol
 _atom_site_label
 _atom_site_symmetry_multiplicity
 _atom_site_fract_x
 _atom_site_fract_y
 _atom_site_fract_z
 _atom_site_occupancy
  Li  Li0  1  0.000000  0.000000  0.000000  1
  Zr  Zr1  1  0.494399  0.259520  0.770744  1
  Zr  Zr2  1  0.505601  0.740480  0.229256  1
  Cu  Cu3  1  0.000000  0.500000  0.500000  1
  F  F4  1  0.233194  0.847500  0.104135  1
  F  F5  1  0.194792  0.932976  0.727679  1
  F  F6  1  0.759933  0.483696  0.661194  1
  F  F7  1  0.766806  0.152500  0.895865  1
  F  F8  1  0.335746  0.336891  0.022900  1
  F  F9  1  0.805208  0.067024  0.272321  1
  F  F10  1  0.776722  0.605466  0.344267  1
  F  F11  1  0.223278  0.394534  0.655733  1
  F  F12  1  0.240067  0.516304  0.338806  1
  F  F13  1  0.500000  0.000000  0.500000  1
  F  F14  1  0.664254  0.663109  0.977100  1
