# generated using pymatgen
data_Y3Ho10Th3MgHg3Rh4
_symmetry_space_group_name_H-M   'P 1'
_cell_length_a   9.65657929
_cell_length_b   9.69344312
_cell_length_c   9.69360893
_cell_angle_alpha   59.96118635
_cell_angle_beta   59.82956412
_cell_angle_gamma   59.81415741
_symmetry_Int_Tables_number   1
_chemical_formula_structural   Y3Ho10Th3MgHg3Rh4
_chemical_formula_sum   'Y3 Ho10 Th3 Mg1 Hg3 Rh4'
_cell_volume   639.69117733
_cell_formula_units_Z   1
loop_
 _symmetry_equiv_pos_site_id
 _symmetry_equiv_pos_as_xyz
  1  'x, y, z'
loop_
 _atom_site_type_symbol
 _atom_site_label
 _atom_site_symmetry_multiplicity
 _atom_site_fract_x
 _atom_site_fract_y
 _atom_site_fract_z
 _atom_site_occupancy
  Y  Y0  1  0.185752  0.813958  0.185874  1
  Y  Y1  1  0.814608  0.816279  0.185488  1
  Y  Y2  1  0.185291  0.185605  0.814010  1
  Ho  Ho3  1  0.186389  0.605451  0.605478  1
  Ho  Ho4  1  0.060009  0.440109  0.440791  1
  Ho  Ho5  1  0.433871  0.065085  0.064877  1
  Ho  Ho6  1  0.434524  0.063905  0.437701  1
  Ho  Ho7  1  0.060469  0.439285  0.060009  1
  Ho  Ho8  1  0.434756  0.437368  0.063882  1
  Ho  Ho9  1  0.060295  0.060057  0.439667  1
  Ho  Ho10  1  0.186390  0.814564  0.814022  1
  Ho  Ho11  1  0.812906  0.186108  0.185744  1
  Ho  Ho12  1  0.814291  0.186231  0.815639  1
  Th  Th13  1  0.597061  0.599204  0.599493  1
  Th  Th14  1  0.599630  0.600604  0.200476  1
  Th  Th15  1  0.599663  0.200442  0.600852  1
  Mg  Mg16  1  0.528102  0.823300  0.823314  1
  Hg  Hg17  1  0.835682  0.837489  0.836843  1
  Hg  Hg18  1  0.834643  0.837423  0.489298  1
  Hg  Hg19  1  0.834608  0.488556  0.837492  1
  Rh  Rh20  1  0.394840  0.393288  0.393286  1
  Rh  Rh21  1  0.394385  0.392514  0.819335  1
  Rh  Rh22  1  0.394235  0.819413  0.392521  1
  Rh  Rh23  1  0.817596  0.393766  0.393911  1
