# generated using pymatgen
data_Ba3Pu2O7
_symmetry_space_group_name_H-M   'P 1'
_cell_length_a   11.55180158
_cell_length_b   11.55180191
_cell_length_c   6.19869700
_cell_angle_alpha   90.00000000
_cell_angle_beta   90.00000000
_cell_angle_gamma   148.13696908
_symmetry_Int_Tables_number   1
_chemical_formula_structural   Ba3Pu2O7
_chemical_formula_sum   'Ba6 Pu4 O14'
_cell_volume   436.66025013
_cell_formula_units_Z   2
loop_
 _symmetry_equiv_pos_site_id
 _symmetry_equiv_pos_as_xyz
  1  'x, y, z'
loop_
 _atom_site_type_symbol
 _atom_site_label
 _atom_site_symmetry_multiplicity
 _atom_site_fract_x
 _atom_site_fract_y
 _atom_site_fract_z
 _atom_site_occupancy
  Ba  Ba0  1  0.048633  0.424233  0.750000  1
  Ba  Ba1  1  0.575767  0.951367  0.250000  1
  Ba  Ba2  1  0.951367  0.575767  0.250000  1
  Ba  Ba3  1  0.424233  0.048633  0.750000  1
  Ba  Ba4  1  0.754345  0.754345  0.250000  1
  Ba  Ba5  1  0.245655  0.245655  0.750000  1
  Pu  Pu6  1  0.153770  0.350506  0.250000  1
  Pu  Pu7  1  0.649494  0.846230  0.750000  1
  Pu  Pu8  1  0.846230  0.649494  0.750000  1
  Pu  Pu9  1  0.350506  0.153770  0.250000  1
  O  O10  1  0.915292  0.084708  0.000000  1
  O  O11  1  0.915292  0.084708  0.500000  1
  O  O12  1  0.387933  0.612067  0.500000  1
  O  O13  1  0.387933  0.612067  0.000000  1
  O  O14  1  0.990809  0.382792  0.250000  1
  O  O15  1  0.617208  0.009191  0.750000  1
  O  O16  1  0.382792  0.990809  0.250000  1
  O  O17  1  0.009191  0.617208  0.750000  1
  O  O18  1  0.612067  0.387933  0.000000  1
  O  O19  1  0.612067  0.387933  0.500000  1
  O  O20  1  0.084708  0.915292  0.500000  1
  O  O21  1  0.084708  0.915292  0.000000  1
  O  O22  1  0.679115  0.679115  0.750000  1
  O  O23  1  0.320885  0.320885  0.250000  1
