# generated using pymatgen
data_Er2TiCo16
_symmetry_space_group_name_H-M   'P 1'
_cell_length_a   6.28234554
_cell_length_b   6.28234527
_cell_length_c   6.28234485
_cell_angle_alpha   82.93852982
_cell_angle_beta   82.93853283
_cell_angle_gamma   82.93853766
_symmetry_Int_Tables_number   1
_chemical_formula_structural   Er2TiCo16
_chemical_formula_sum   'Er2 Ti1 Co16'
_cell_volume   242.73571114
_cell_formula_units_Z   1
loop_
 _symmetry_equiv_pos_site_id
 _symmetry_equiv_pos_as_xyz
  1  'x, y, z'
loop_
 _atom_site_type_symbol
 _atom_site_label
 _atom_site_symmetry_multiplicity
 _atom_site_fract_x
 _atom_site_fract_y
 _atom_site_fract_z
 _atom_site_occupancy
  Er  Er0  1  0.656206  0.656206  0.656206  1
  Er  Er1  1  0.352101  0.352101  0.352101  1
  Ti  Ti2  1  0.092669  0.092669  0.092669  1
  Co  Co3  1  0.292907  0.706454  0.997922  1
  Co  Co4  1  0.706454  0.997922  0.292907  1
  Co  Co5  1  0.997922  0.292907  0.706454  1
  Co  Co6  1  0.292907  0.997922  0.706454  1
  Co  Co7  1  0.997922  0.706454  0.292907  1
  Co  Co8  1  0.706454  0.292907  0.997922  1
  Co  Co9  1  0.998558  0.998558  0.504633  1
  Co  Co10  1  0.998558  0.504633  0.998558  1
  Co  Co11  1  0.504633  0.998558  0.998558  1
  Co  Co12  1  0.348374  0.348374  0.847774  1
  Co  Co13  1  0.348374  0.847774  0.348374  1
  Co  Co14  1  0.847774  0.348374  0.348374  1
  Co  Co15  1  0.654064  0.654064  0.150235  1
  Co  Co16  1  0.654064  0.150235  0.654064  1
  Co  Co17  1  0.150235  0.654064  0.654064  1
  Co  Co18  1  0.899821  0.899821  0.899821  1
