# generated using pymatgen
data_Gd5AlWO12
_symmetry_space_group_name_H-M   'P 1'
_cell_length_a   6.91202466
_cell_length_b   6.91202647
_cell_length_c   7.40862781
_cell_angle_alpha   74.38862249
_cell_angle_beta   74.38861835
_cell_angle_gamma   50.63313408
_symmetry_Int_Tables_number   1
_chemical_formula_structural   Gd5AlWO12
_chemical_formula_sum   'Gd5 Al1 W1 O12'
_cell_volume   261.23568217
_cell_formula_units_Z   1
loop_
 _symmetry_equiv_pos_site_id
 _symmetry_equiv_pos_as_xyz
  1  'x, y, z'
loop_
 _atom_site_type_symbol
 _atom_site_label
 _atom_site_symmetry_multiplicity
 _atom_site_fract_x
 _atom_site_fract_y
 _atom_site_fract_z
 _atom_site_occupancy
  Gd  Gd0  1  0.693698  0.694678  0.666310  1
  Gd  Gd1  1  0.682805  0.710999  0.141093  1
  Gd  Gd2  1  0.997983  0.002017  0.000000  1
  Gd  Gd3  1  0.289001  0.317195  0.858907  1
  Gd  Gd4  1  0.305322  0.306302  0.333690  1
  Al  Al5  1  0.257207  0.742793  0.500000  1
  W  W6  1  0.769043  0.230957  0.500000  1
  O  O7  1  0.398546  0.910354  0.922701  1
  O  O8  1  0.578104  0.099128  0.581313  1
  O  O9  1  0.900872  0.421896  0.418687  1
  O  O10  1  0.089646  0.601454  0.077299  1
  O  O11  1  0.002059  0.998129  0.321731  1
  O  O12  1  0.510826  0.490616  0.676880  1
  O  O13  1  0.897610  0.405419  0.925891  1
  O  O14  1  0.103757  0.582313  0.579035  1
  O  O15  1  0.417687  0.896243  0.420965  1
  O  O16  1  0.594581  0.102390  0.074109  1
  O  O17  1  0.509384  0.489174  0.323120  1
  O  O18  1  0.001871  0.997941  0.678269  1
