# generated using pymatgen
data_Nb12AlSi(Pt3N2)2
_symmetry_space_group_name_H-M   'P 1'
_cell_length_a   7.06365160
_cell_length_b   7.05855215
_cell_length_c   7.04242855
_cell_angle_alpha   89.89353120
_cell_angle_beta   89.55205101
_cell_angle_gamma   89.91065060
_symmetry_Int_Tables_number   1
_chemical_formula_structural   Nb12AlSi(Pt3N2)2
_chemical_formula_sum   'Nb12 Al1 Si1 Pt6 N4'
_cell_volume   351.11776753
_cell_formula_units_Z   1
loop_
 _symmetry_equiv_pos_site_id
 _symmetry_equiv_pos_as_xyz
  1  'x, y, z'
loop_
 _atom_site_type_symbol
 _atom_site_label
 _atom_site_symmetry_multiplicity
 _atom_site_fract_x
 _atom_site_fract_y
 _atom_site_fract_z
 _atom_site_occupancy
  Nb  Nb0  1  0.787786  0.953981  0.374010  1
  Nb  Nb1  1  0.702324  0.044512  0.875452  1
  Nb  Nb2  1  0.212553  0.455243  0.126645  1
  Nb  Nb3  1  0.296430  0.545115  0.623127  1
  Nb  Nb4  1  0.952971  0.381928  0.792024  1
  Nb  Nb5  1  0.047295  0.880835  0.705796  1
  Nb  Nb6  1  0.456425  0.128094  0.206251  1
  Nb  Nb7  1  0.544688  0.627888  0.294841  1
  Nb  Nb8  1  0.377236  0.790626  0.948606  1
  Nb  Nb9  1  0.869950  0.702436  0.040078  1
  Nb  Nb10  1  0.128874  0.205137  0.460677  1
  Nb  Nb11  1  0.623303  0.290795  0.551133  1
  Al  Al12  1  0.067152  0.068520  0.074733  1
  Si  Si13  1  0.932075  0.568900  0.424879  1
  Pt  Pt14  1  0.167198  0.811985  0.312098  1
  Pt  Pt15  1  0.301818  0.179591  0.829074  1
  Pt  Pt16  1  0.830965  0.317691  0.192654  1
  Pt  Pt17  1  0.701094  0.677638  0.667918  1
  Pt  Pt18  1  0.566460  0.434664  0.936659  1
  Pt  Pt19  1  0.433262  0.934527  0.563139  1
  N  N20  1  0.872487  0.124712  0.626020  1
  N  N21  1  0.619432  0.874525  0.123620  1
  N  N22  1  0.127147  0.625732  0.874071  1
  N  N23  1  0.381076  0.374924  0.376497  1
