# generated using pymatgen
data_Mg5Ta6SbRu12
_symmetry_space_group_name_H-M   'P 1'
_cell_length_a   4.44911200
_cell_length_b   6.30251900
_cell_length_c   13.32518400
_cell_angle_alpha   90.00000000
_cell_angle_beta   90.00030503
_cell_angle_gamma   90.00000000
_symmetry_Int_Tables_number   1
_chemical_formula_structural   Mg5Ta6SbRu12
_chemical_formula_sum   'Mg5 Ta6 Sb1 Ru12'
_cell_volume   373.64632654
_cell_formula_units_Z   1
loop_
 _symmetry_equiv_pos_site_id
 _symmetry_equiv_pos_as_xyz
  1  'x, y, z'
loop_
 _atom_site_type_symbol
 _atom_site_label
 _atom_site_symmetry_multiplicity
 _atom_site_fract_x
 _atom_site_fract_y
 _atom_site_fract_z
 _atom_site_occupancy
  Mg  Mg0  1  0.499987  0.000000  0.167549  1
  Mg  Mg1  1  0.999986  0.500001  0.333745  1
  Mg  Mg2  1  0.499999  0.000000  0.500000  1
  Mg  Mg3  1  0.000014  0.500001  0.666255  1
  Mg  Mg4  1  0.500013  0.000000  0.832451  1
  Ta  Ta5  1  0.000000  0.000000  0.000000  1
  Ta  Ta6  1  0.499989  0.500001  0.173271  1
  Ta  Ta7  1  0.999993  0.000000  0.336049  1
  Ta  Ta8  1  0.499999  0.500001  0.500000  1
  Ta  Ta9  1  0.000007  0.000000  0.663951  1
  Ta  Ta10  1  0.500011  0.500001  0.826729  1
  Sb  Sb11  1  0.000000  0.500001  0.000000  1
  Ru  Ru12  1  0.499999  0.248498  0.000000  1
  Ru  Ru13  1  0.499999  0.751502  0.000000  1
  Ru  Ru14  1  0.999985  0.249702  0.166639  1
  Ru  Ru15  1  0.999985  0.750298  0.166639  1
  Ru  Ru16  1  0.499995  0.249302  0.333058  1
  Ru  Ru17  1  0.499995  0.750698  0.333058  1
  Ru  Ru18  1  0.000000  0.251400  0.500000  1
  Ru  Ru19  1  0.000000  0.748600  0.500000  1
  Ru  Ru20  1  0.500005  0.249302  0.666942  1
  Ru  Ru21  1  0.500005  0.750698  0.666942  1
  Ru  Ru22  1  0.000015  0.249702  0.833361  1
  Ru  Ru23  1  0.000015  0.750298  0.833361  1
