# generated using pymatgen
data_Y8MnOsI8
_symmetry_space_group_name_H-M   'P 1'
_cell_length_a   11.41219942
_cell_length_b   11.41220114
_cell_length_c   6.13285603
_cell_angle_alpha   90.00844287
_cell_angle_beta   90.00845905
_cell_angle_gamma   88.61609544
_symmetry_Int_Tables_number   1
_chemical_formula_structural   Y8MnOsI8
_chemical_formula_sum   'Y8 Mn1 Os1 I8'
_cell_volume   798.49984101
_cell_formula_units_Z   1
loop_
 _symmetry_equiv_pos_site_id
 _symmetry_equiv_pos_as_xyz
  1  'x, y, z'
loop_
 _atom_site_type_symbol
 _atom_site_label
 _atom_site_symmetry_multiplicity
 _atom_site_fract_x
 _atom_site_fract_y
 _atom_site_fract_z
 _atom_site_occupancy
  Y  Y0  1  0.803196  0.083830  0.002972  1
  Y  Y1  1  0.083826  0.803182  0.495301  1
  Y  Y2  1  0.077466  0.193571  0.004210  1
  Y  Y3  1  0.193584  0.077464  0.496463  1
  Y  Y4  1  0.922536  0.806416  0.003537  1
  Y  Y5  1  0.916170  0.196804  0.497028  1
  Y  Y6  1  0.196818  0.916174  0.004699  1
  Y  Y7  1  0.806429  0.922534  0.495790  1
  Mn  Mn8  1  0.999909  0.000091  0.250000  1
  Os  Os9  1  0.000099  0.999901  0.750000  1
  I  I10  1  0.644649  0.152287  0.508953  1
  I  I11  1  0.857978  0.648558  0.504956  1
  I  I12  1  0.351442  0.142022  0.995044  1
  I  I13  1  0.141999  0.351469  0.493841  1
  I  I14  1  0.648531  0.858001  0.006159  1
  I  I15  1  0.355399  0.847745  0.489894  1
  I  I16  1  0.152255  0.644601  0.010106  1
  I  I17  1  0.847713  0.355351  0.991047  1
