# generated using pymatgen
data_Hf8Zr2ZnGePb6
_symmetry_space_group_name_H-M   'P 1'
_cell_length_a   8.78188015
_cell_length_b   8.77978739
_cell_length_c   5.91282019
_cell_angle_alpha   90.02870958
_cell_angle_beta   89.98564480
_cell_angle_gamma   119.99211521
_symmetry_Int_Tables_number   1
_chemical_formula_structural   Hf8Zr2ZnGePb6
_chemical_formula_sum   'Hf8 Zr2 Zn1 Ge1 Pb6'
_cell_volume   394.84919263
_cell_formula_units_Z   1
loop_
 _symmetry_equiv_pos_site_id
 _symmetry_equiv_pos_as_xyz
  1  'x, y, z'
loop_
 _atom_site_type_symbol
 _atom_site_label
 _atom_site_symmetry_multiplicity
 _atom_site_fract_x
 _atom_site_fract_y
 _atom_site_fract_z
 _atom_site_occupancy
  Hf  Hf0  1  0.332784  0.666393  0.000000  1
  Hf  Hf1  1  0.666584  0.333291  0.500000  1
  Hf  Hf2  1  0.666514  0.333257  0.000000  1
  Hf  Hf3  1  0.332994  0.666498  0.500000  1
  Hf  Hf4  1  0.263119  0.999734  0.248755  1
  Hf  Hf5  1  0.263119  0.263385  0.751245  1
  Hf  Hf6  1  0.000050  0.736766  0.751380  1
  Hf  Hf7  1  0.000050  0.263285  0.248620  1
  Zr  Zr8  1  0.736604  0.736283  0.249094  1
  Zr  Zr9  1  0.736604  0.000321  0.750906  1
  Zn  Zn10  1  0.001278  0.000639  0.500000  1
  Ge  Ge11  1  0.001181  0.000590  0.000000  1
  Pb  Pb12  1  0.611379  0.000339  0.251803  1
  Pb  Pb13  1  0.611379  0.611040  0.748197  1
  Pb  Pb14  1  0.000288  0.389034  0.748317  1
  Pb  Pb15  1  0.000288  0.611253  0.251683  1
  Pb  Pb16  1  0.387892  0.387922  0.251480  1
  Pb  Pb17  1  0.387892  0.999970  0.748520  1
