# generated using pymatgen
data_Sm5As2IO10
_symmetry_space_group_name_H-M   'P 1'
_cell_length_a   5.72702925
_cell_length_b   6.84457457
_cell_length_c   8.97437455
_cell_angle_alpha   95.09572846
_cell_angle_beta   108.60710480
_cell_angle_gamma   114.73126309
_symmetry_Int_Tables_number   1
_chemical_formula_structural   Sm5As2IO10
_chemical_formula_sum   'Sm5 As2 I1 O10'
_cell_volume   292.54664802
_cell_formula_units_Z   1
loop_
 _symmetry_equiv_pos_site_id
 _symmetry_equiv_pos_as_xyz
  1  'x, y, z'
loop_
 _atom_site_type_symbol
 _atom_site_label
 _atom_site_symmetry_multiplicity
 _atom_site_fract_x
 _atom_site_fract_y
 _atom_site_fract_z
 _atom_site_occupancy
  Sm  Sm0  1  0.000000  0.000000  0.000000  1
  Sm  Sm1  1  0.376202  0.633262  0.119142  1
  Sm  Sm2  1  0.787223  0.286692  0.287756  1
  Sm  Sm3  1  0.212778  0.713309  0.712245  1
  Sm  Sm4  1  0.623797  0.366737  0.880858  1
  As  As5  1  0.169417  0.951939  0.386893  1
  As  As6  1  0.830583  0.048061  0.613107  1
  I  I7  1  0.500000  0.500000  0.500000  1
  O  O8  1  0.458494  0.325185  0.085642  1
  O  O9  1  0.952332  0.325185  0.085642  1
  O  O10  1  0.335277  0.956276  0.240517  1
  O  O11  1  0.861515  0.956276  0.240517  1
  O  O12  1  0.034287  0.669749  0.398823  1
  O  O13  1  0.965712  0.330249  0.601177  1
  O  O14  1  0.138485  0.043725  0.759483  1
  O  O15  1  0.664723  0.043725  0.759483  1
  O  O16  1  0.047668  0.674816  0.914357  1
  O  O17  1  0.541506  0.674816  0.914357  1
