# generated using pymatgen
data_DyY(TaSe2)8
_symmetry_space_group_name_H-M   'P 1'
_cell_length_a   7.02710500
_cell_length_b   7.02710486
_cell_length_c   14.55900600
_cell_angle_alpha   90.00000000
_cell_angle_beta   90.00000000
_cell_angle_gamma   120.00000534
_symmetry_Int_Tables_number   1
_chemical_formula_structural   DyY(TaSe2)8
_chemical_formula_sum   'Dy1 Y1 Ta8 Se16'
_cell_volume   622.60873686
_cell_formula_units_Z   1
loop_
 _symmetry_equiv_pos_site_id
 _symmetry_equiv_pos_as_xyz
  1  'x, y, z'
loop_
 _atom_site_type_symbol
 _atom_site_label
 _atom_site_symmetry_multiplicity
 _atom_site_fract_x
 _atom_site_fract_y
 _atom_site_fract_z
 _atom_site_occupancy
  Dy  Dy0  1  0.000000  0.000000  0.000000  1
  Y  Y1  1  0.000000  0.000000  0.500000  1
  Ta  Ta2  1  0.507346  0.492654  0.750612  1
  Ta  Ta3  1  0.014691  0.507346  0.249388  1
  Ta  Ta4  1  0.492654  0.985309  0.249388  1
  Ta  Ta5  1  0.507346  0.014691  0.750612  1
  Ta  Ta6  1  0.985309  0.492654  0.750612  1
  Ta  Ta7  1  0.492654  0.507346  0.249388  1
  Ta  Ta8  1  0.000000  0.000000  0.750641  1
  Ta  Ta9  1  0.000000  0.000000  0.249359  1
  Se  Se10  1  0.830619  0.169381  0.363060  1
  Se  Se11  1  0.830619  0.661237  0.363060  1
  Se  Se12  1  0.338763  0.169381  0.363060  1
  Se  Se13  1  0.661169  0.830584  0.864154  1
  Se  Se14  1  0.169381  0.338763  0.636940  1
  Se  Se15  1  0.169416  0.830584  0.864154  1
  Se  Se16  1  0.169416  0.338831  0.864154  1
  Se  Se17  1  0.830584  0.169416  0.135846  1
  Se  Se18  1  0.338831  0.169416  0.135846  1
  Se  Se19  1  0.661237  0.830619  0.636940  1
  Se  Se20  1  0.333333  0.666667  0.130990  1
  Se  Se21  1  0.666667  0.333333  0.632275  1
  Se  Se22  1  0.666667  0.333333  0.869010  1
  Se  Se23  1  0.333333  0.666667  0.367725  1
  Se  Se24  1  0.830584  0.661169  0.135846  1
  Se  Se25  1  0.169381  0.830619  0.636940  1
