# generated using pymatgen
data_Li6TbNp2N6
_symmetry_space_group_name_H-M   'P 1'
_cell_length_a   6.02187800
_cell_length_b   6.02187858
_cell_length_c   5.48757900
_cell_angle_alpha   90.00000000
_cell_angle_beta   90.00000000
_cell_angle_gamma   119.99999680
_symmetry_Int_Tables_number   1
_chemical_formula_structural   Li6TbNp2N6
_chemical_formula_sum   'Li6 Tb1 Np2 N6'
_cell_volume   172.33575004
_cell_formula_units_Z   1
loop_
 _symmetry_equiv_pos_site_id
 _symmetry_equiv_pos_as_xyz
  1  'x, y, z'
loop_
 _atom_site_type_symbol
 _atom_site_label
 _atom_site_symmetry_multiplicity
 _atom_site_fract_x
 _atom_site_fract_y
 _atom_site_fract_z
 _atom_site_occupancy
  Li  Li0  1  0.986213  0.659638  0.606701  1
  Li  Li1  1  0.340362  0.326575  0.606701  1
  Li  Li2  1  0.673425  0.013787  0.606701  1
  Li  Li3  1  0.013787  0.340362  0.393299  1
  Li  Li4  1  0.659638  0.673425  0.393299  1
  Li  Li5  1  0.326575  0.986213  0.393299  1
  Tb  Tb6  1  0.000000  0.000000  0.000000  1
  Np  Np7  1  0.333333  0.666667  0.994970  1
  Np  Np8  1  0.666667  0.333333  0.005030  1
  N  N9  1  0.000733  0.652222  0.225530  1
  N  N10  1  0.347778  0.348511  0.225530  1
  N  N11  1  0.651489  0.999267  0.225530  1
  N  N12  1  0.999267  0.347778  0.774470  1
  N  N13  1  0.652222  0.651489  0.774470  1
  N  N14  1  0.348511  0.000733  0.774470  1
