# generated using pymatgen
data_Ca2La3Nd5Ir4
_symmetry_space_group_name_H-M   'P 1'
_cell_length_a   8.99278087
_cell_length_b   8.99983998
_cell_length_c   7.44531631
_cell_angle_alpha   83.51523081
_cell_angle_beta   83.52887787
_cell_angle_gamma   43.69855909
_symmetry_Int_Tables_number   1
_chemical_formula_structural   Ca2La3Nd5Ir4
_chemical_formula_sum   'Ca2 La3 Nd5 Ir4'
_cell_volume   413.21145674
_cell_formula_units_Z   1
loop_
 _symmetry_equiv_pos_site_id
 _symmetry_equiv_pos_as_xyz
  1  'x, y, z'
loop_
 _atom_site_type_symbol
 _atom_site_label
 _atom_site_symmetry_multiplicity
 _atom_site_fract_x
 _atom_site_fract_y
 _atom_site_fract_z
 _atom_site_occupancy
  Ca  Ca0  1  0.014999  0.800286  0.916649  1
  Ca  Ca1  1  0.200924  0.984314  0.583262  1
  La  La2  1  0.985305  0.200643  0.087656  1
  La  La3  1  0.800864  0.013563  0.412044  1
  La  La4  1  0.353699  0.216138  0.817529  1
  Nd  Nd5  1  0.783787  0.647541  0.681030  1
  Nd  Nd6  1  0.652619  0.785874  0.183111  1
  Nd  Nd7  1  0.213035  0.347510  0.318096  1
  Nd  Nd8  1  0.562446  0.439700  0.749620  1
  Nd  Nd9  1  0.428106  0.571131  0.249815  1
  Ir  Ir10  1  0.178933  0.587789  0.571286  1
  Ir  Ir11  1  0.410386  0.821394  0.930840  1
  Ir  Ir12  1  0.818385  0.401609  0.421107  1
  Ir  Ir13  1  0.596512  0.182508  0.077956  1
