# generated using pymatgen
data_CuHg2(P3Pd10)2
_symmetry_space_group_name_H-M   'P 1'
_cell_length_a   8.58125540
_cell_length_b   8.58125526
_cell_length_c   8.58125600
_cell_angle_alpha   59.99999713
_cell_angle_beta   59.99999769
_cell_angle_gamma   59.99999122
_symmetry_Int_Tables_number   1
_chemical_formula_structural   CuHg2(P3Pd10)2
_chemical_formula_sum   'Cu1 Hg2 P6 Pd20'
_cell_volume   446.82499896
_cell_formula_units_Z   1
loop_
 _symmetry_equiv_pos_site_id
 _symmetry_equiv_pos_as_xyz
  1  'x, y, z'
loop_
 _atom_site_type_symbol
 _atom_site_label
 _atom_site_symmetry_multiplicity
 _atom_site_fract_x
 _atom_site_fract_y
 _atom_site_fract_z
 _atom_site_occupancy
  Cu  Cu0  1  0.000000  0.000000  0.000000  1
  Hg  Hg1  1  0.250000  0.250000  0.250000  1
  Hg  Hg2  1  0.750000  0.750000  0.750000  1
  P  P3  1  0.735016  0.735016  0.264984  1
  P  P4  1  0.264984  0.264984  0.735016  1
  P  P5  1  0.264984  0.735016  0.735016  1
  P  P6  1  0.735016  0.264984  0.735016  1
  P  P7  1  0.264984  0.735016  0.264984  1
  P  P8  1  0.735016  0.264984  0.264984  1
  Pd  Pd9  1  0.616277  0.616277  0.616277  1
  Pd  Pd10  1  0.383723  0.848828  0.383723  1
  Pd  Pd11  1  0.659156  0.340844  0.000000  1
  Pd  Pd12  1  0.000000  0.340844  0.659156  1
  Pd  Pd13  1  0.659156  0.000000  0.000000  1
  Pd  Pd14  1  0.616277  0.616277  0.151172  1
  Pd  Pd15  1  0.000000  0.000000  0.659156  1
  Pd  Pd16  1  0.000000  0.340844  0.000000  1
  Pd  Pd17  1  0.659156  0.000000  0.340844  1
  Pd  Pd18  1  0.340844  0.000000  0.000000  1
  Pd  Pd19  1  0.000000  0.659156  0.000000  1
  Pd  Pd20  1  0.340844  0.000000  0.659156  1
  Pd  Pd21  1  0.000000  0.659156  0.340844  1
  Pd  Pd22  1  0.340844  0.659156  0.000000  1
  Pd  Pd23  1  0.151172  0.616277  0.616277  1
  Pd  Pd24  1  0.383723  0.383723  0.383723  1
  Pd  Pd25  1  0.848828  0.383723  0.383723  1
  Pd  Pd26  1  0.383723  0.383723  0.848828  1
  Pd  Pd27  1  0.616277  0.151172  0.616277  1
  Pd  Pd28  1  0.000000  0.000000  0.340844  1
