# generated using pymatgen
data_TbGaF6
_symmetry_space_group_name_H-M   'P 1'
_cell_length_a   5.81750825
_cell_length_b   5.81750852
_cell_length_c   5.81750800
_cell_angle_alpha   60.00000298
_cell_angle_beta   60.00000140
_cell_angle_gamma   60.00000251
_symmetry_Int_Tables_number   1
_chemical_formula_structural   TbGaF6
_chemical_formula_sum   'Tb1 Ga1 F6'
_cell_volume   139.21821142
_cell_formula_units_Z   1
loop_
 _symmetry_equiv_pos_site_id
 _symmetry_equiv_pos_as_xyz
  1  'x, y, z'
loop_
 _atom_site_type_symbol
 _atom_site_label
 _atom_site_symmetry_multiplicity
 _atom_site_fract_x
 _atom_site_fract_y
 _atom_site_fract_z
 _atom_site_occupancy
  Tb  Tb0  1  0.500001  0.500001  0.500001  1
  Ga  Ga1  1  0.000000  0.000000  0.000000  1
  F  F2  1  0.233065  0.766936  0.233065  1
  F  F3  1  0.766934  0.766934  0.233067  1
  F  F4  1  0.766936  0.233065  0.233065  1
  F  F5  1  0.766934  0.233067  0.766934  1
  F  F6  1  0.233065  0.233065  0.766936  1
  F  F7  1  0.233067  0.766934  0.766934  1
