# generated using pymatgen
data_Pr3Nd5(ZnI5)2
_symmetry_space_group_name_H-M   'P 1'
_cell_length_a   4.22191300
_cell_length_b   9.32262236
_cell_length_c   19.04828573
_cell_angle_alpha   89.96819117
_cell_angle_beta   90.00000000
_cell_angle_gamma   90.00000000
_symmetry_Int_Tables_number   1
_chemical_formula_structural   Pr3Nd5(ZnI5)2
_chemical_formula_sum   'Pr3 Nd5 Zn2 I10'
_cell_volume   749.72708729
_cell_formula_units_Z   1
loop_
 _symmetry_equiv_pos_site_id
 _symmetry_equiv_pos_as_xyz
  1  'x, y, z'
loop_
 _atom_site_type_symbol
 _atom_site_label
 _atom_site_symmetry_multiplicity
 _atom_site_fract_x
 _atom_site_fract_y
 _atom_site_fract_z
 _atom_site_occupancy
  Pr  Pr0  1  0.000000  0.373658  0.153336  1
  Pr  Pr1  1  0.500000  0.626287  0.346121  1
  Pr  Pr2  1  0.500000  0.626175  0.653659  1
  Nd  Nd3  1  0.000000  0.373651  0.847100  1
  Nd  Nd4  1  0.500000  0.596606  0.999783  1
  Nd  Nd5  1  0.000000  0.847031  0.499982  1
  Nd  Nd6  1  0.000000  0.402916  0.500330  1
  Nd  Nd7  1  0.500000  0.153310  0.999860  1
  Zn  Zn8  1  0.500000  0.624897  0.500043  1
  Zn  Zn9  1  0.000000  0.375055  0.999472  1
  I  I10  1  0.500000  0.114046  0.168050  1
  I  I11  1  0.000000  0.359557  0.671274  1
  I  I12  1  0.000000  0.872880  0.999782  1
  I  I13  1  0.000000  0.886022  0.331739  1
  I  I14  1  0.500000  0.118723  0.831155  1
  I  I15  1  0.500000  0.636103  0.829975  1
  I  I16  1  0.000000  0.885955  0.668429  1
  I  I17  1  0.000000  0.359166  0.330125  1
  I  I18  1  0.500000  0.640786  0.169692  1
  I  I19  1  0.500000  0.127176  0.500095  1
