# generated using pymatgen
data_Y5Er15Sn16
_symmetry_space_group_name_H-M   'P 1'
_cell_length_a   8.01639468
_cell_length_b   8.12962275
_cell_length_c   15.38431512
_cell_angle_alpha   90.04414931
_cell_angle_beta   89.92814465
_cell_angle_gamma   89.93977560
_symmetry_Int_Tables_number   1
_chemical_formula_structural   Y5Er15Sn16
_chemical_formula_sum   'Y5 Er15 Sn16'
_cell_volume   1002.59824641
_cell_formula_units_Z   1
loop_
 _symmetry_equiv_pos_site_id
 _symmetry_equiv_pos_as_xyz
  1  'x, y, z'
loop_
 _atom_site_type_symbol
 _atom_site_label
 _atom_site_symmetry_multiplicity
 _atom_site_fract_x
 _atom_site_fract_y
 _atom_site_fract_z
 _atom_site_occupancy
  Y  Y0  1  0.979594  0.821079  0.096574  1
  Y  Y1  1  0.479228  0.678082  0.096307  1
  Y  Y2  1  0.978737  0.821458  0.403496  1
  Y  Y3  1  0.521176  0.321730  0.596642  1
  Y  Y4  1  0.020047  0.178724  0.903663  1
  Er  Er5  1  0.366450  0.837487  0.876934  1
  Er  Er6  1  0.867303  0.661968  0.622380  1
  Er  Er7  1  0.632118  0.162146  0.377370  1
  Er  Er8  1  0.133021  0.337814  0.122830  1
  Er  Er9  1  0.632368  0.162752  0.122958  1
  Er  Er10  1  0.131717  0.337631  0.377760  1
  Er  Er11  1  0.368479  0.837703  0.622609  1
  Er  Er12  1  0.867358  0.662235  0.877161  1
  Er  Er13  1  0.521914  0.321516  0.902741  1
  Er  Er14  1  0.022110  0.178622  0.597171  1
  Er  Er15  1  0.477672  0.678330  0.402879  1
  Er  Er16  1  0.198912  0.504010  0.749752  1
  Er  Er17  1  0.698834  0.996308  0.749905  1
  Er  Er18  1  0.801159  0.495809  0.250201  1
  Er  Er19  1  0.301227  0.003959  0.250377  1
  Sn  Sn20  1  0.294638  0.038593  0.041488  1
  Sn  Sn21  1  0.792042  0.462956  0.458203  1
  Sn  Sn22  1  0.708075  0.963601  0.542003  1
  Sn  Sn23  1  0.207257  0.536879  0.958166  1
  Sn  Sn24  1  0.704641  0.961988  0.958353  1
  Sn  Sn25  1  0.206467  0.538402  0.541302  1
  Sn  Sn26  1  0.293126  0.038136  0.458825  1
  Sn  Sn27  1  0.793968  0.460933  0.040937  1
  Sn  Sn28  1  0.565427  0.618028  0.749948  1
  Sn  Sn29  1  0.064520  0.881663  0.749404  1
  Sn  Sn30  1  0.434932  0.381230  0.250631  1
  Sn  Sn31  1  0.935185  0.118779  0.250187  1
  Sn  Sn32  1  0.331797  0.149099  0.750476  1
  Sn  Sn33  1  0.832193  0.351060  0.749644  1
  Sn  Sn34  1  0.667384  0.850893  0.250358  1
  Sn  Sn35  1  0.168925  0.648399  0.250366  1
