# generated using pymatgen
data_FeCo2(MoP)3
_symmetry_space_group_name_H-M   'P 1'
_cell_length_a   3.74686300
_cell_length_b   5.85123557
_cell_length_c   20.19945076
_cell_angle_alpha   89.90520051
_cell_angle_beta   90.00000000
_cell_angle_gamma   90.00000000
_symmetry_Int_Tables_number   1
_chemical_formula_structural   FeCo2(MoP)3
_chemical_formula_sum   'Fe4 Co8 Mo12 P12'
_cell_volume   442.84766943
_cell_formula_units_Z   4
loop_
 _symmetry_equiv_pos_site_id
 _symmetry_equiv_pos_as_xyz
  1  'x, y, z'
loop_
 _atom_site_type_symbol
 _atom_site_label
 _atom_site_symmetry_multiplicity
 _atom_site_fract_x
 _atom_site_fract_y
 _atom_site_fract_z
 _atom_site_occupancy
  Fe  Fe0  1  0.500000  0.361789  0.812240  1
  Fe  Fe1  1  0.500000  0.361744  0.478769  1
  Fe  Fe2  1  0.500000  0.361360  0.145446  1
  Fe  Fe3  1  0.500000  0.862646  0.687515  1
  Co  Co4  1  0.500000  0.860811  0.355159  1
  Co  Co5  1  0.500000  0.860619  0.022130  1
  Co  Co6  1  0.000000  0.639625  0.855567  1
  Co  Co7  1  0.000000  0.641005  0.522608  1
  Co  Co8  1  0.000000  0.640486  0.188909  1
  Co  Co9  1  0.000000  0.139411  0.977498  1
  Co  Co10  1  0.000000  0.140242  0.643930  1
  Co  Co11  1  0.000000  0.139552  0.310636  1
  Mo  Mo12  1  0.500000  0.467185  0.943036  1
  Mo  Mo13  1  0.500000  0.467718  0.610000  1
  Mo  Mo14  1  0.500000  0.467553  0.276353  1
  Mo  Mo15  1  0.500000  0.966871  0.889456  1
  Mo  Mo16  1  0.500000  0.966806  0.556459  1
  Mo  Mo17  1  0.500000  0.966341  0.222695  1
  Mo  Mo18  1  0.000000  0.529303  0.723849  1
  Mo  Mo19  1  0.000000  0.530594  0.390522  1
  Mo  Mo20  1  0.000000  0.530090  0.057099  1
  Mo  Mo21  1  0.000000  0.029897  0.776084  1
  Mo  Mo22  1  0.000000  0.032875  0.443595  1
  Mo  Mo23  1  0.000000  0.032783  0.110325  1
  P  P24  1  0.500000  0.732533  0.792141  1
  P  P25  1  0.500000  0.731942  0.459755  1
  P  P26  1  0.500000  0.731316  0.126414  1
  P  P27  1  0.500000  0.233103  0.707422  1
  P  P28  1  0.500000  0.234734  0.373791  1
  P  P29  1  0.500000  0.234139  0.040556  1
  P  P30  1  0.000000  0.267211  0.872771  1
  P  P31  1  0.000000  0.268685  0.539640  1
  P  P32  1  0.000000  0.268708  0.206416  1
  P  P33  1  0.000000  0.766245  0.960089  1
  P  P34  1  0.000000  0.767714  0.627483  1
  P  P35  1  0.000000  0.766361  0.293640  1
