# generated using pymatgen
data_Dy16Al3ZnCo4
_symmetry_space_group_name_H-M   'P 1'
_cell_length_a   9.35569210
_cell_length_b   9.38577837
_cell_length_c   9.38577800
_cell_angle_alpha   60.00000130
_cell_angle_beta   59.89356552
_cell_angle_gamma   59.89356174
_symmetry_Int_Tables_number   1
_chemical_formula_structural   Dy16Al3ZnCo4
_chemical_formula_sum   'Dy16 Al3 Zn1 Co4'
_cell_volume   581.83646527
_cell_formula_units_Z   1
loop_
 _symmetry_equiv_pos_site_id
 _symmetry_equiv_pos_as_xyz
  1  'x, y, z'
loop_
 _atom_site_type_symbol
 _atom_site_label
 _atom_site_symmetry_multiplicity
 _atom_site_fract_x
 _atom_site_fract_y
 _atom_site_fract_z
 _atom_site_occupancy
  Dy  Dy0  1  0.599624  0.599140  0.599140  1
  Dy  Dy1  1  0.599624  0.599140  0.202097  1
  Dy  Dy2  1  0.599624  0.202097  0.599140  1
  Dy  Dy3  1  0.201956  0.599348  0.599348  1
  Dy  Dy4  1  0.056204  0.443663  0.443663  1
  Dy  Dy5  1  0.442448  0.057815  0.057815  1
  Dy  Dy6  1  0.442448  0.057815  0.441922  1
  Dy  Dy7  1  0.056204  0.443663  0.056471  1
  Dy  Dy8  1  0.442448  0.441922  0.057815  1
  Dy  Dy9  1  0.056204  0.056471  0.443663  1
  Dy  Dy10  1  0.191079  0.811589  0.811589  1
  Dy  Dy11  1  0.813311  0.187397  0.187397  1
  Dy  Dy12  1  0.813311  0.187397  0.811894  1
  Dy  Dy13  1  0.191079  0.811589  0.185743  1
  Dy  Dy14  1  0.813311  0.811894  0.187397  1
  Dy  Dy15  1  0.191079  0.185743  0.811589  1
  Al  Al16  1  0.824887  0.827103  0.827103  1
  Al  Al17  1  0.824887  0.827103  0.520909  1
  Al  Al18  1  0.824887  0.520909  0.827103  1
  Zn  Zn19  1  0.517231  0.827590  0.827590  1
  Co  Co20  1  0.390041  0.390406  0.390406  1
  Co  Co21  1  0.390041  0.390406  0.829148  1
  Co  Co22  1  0.390041  0.829148  0.390406  1
  Co  Co23  1  0.828036  0.390655  0.390655  1
