# generated using pymatgen
data_Sc11TlTc3
_symmetry_space_group_name_H-M   'P 1'
_cell_length_a   9.74487439
_cell_length_b   9.53771223
_cell_length_c   9.74487400
_cell_angle_alpha   60.70077148
_cell_angle_beta   58.59843922
_cell_angle_gamma   60.70077349
_symmetry_Int_Tables_number   1
_chemical_formula_structural   Sc11TlTc3
_chemical_formula_sum   'Sc22 Tl2 Tc6'
_cell_volume   639.87781501
_cell_formula_units_Z   2
loop_
 _symmetry_equiv_pos_site_id
 _symmetry_equiv_pos_as_xyz
  1  'x, y, z'
loop_
 _atom_site_type_symbol
 _atom_site_label
 _atom_site_symmetry_multiplicity
 _atom_site_fract_x
 _atom_site_fract_y
 _atom_site_fract_z
 _atom_site_occupancy
  Sc  Sc0  1  0.805529  0.805529  0.194471  1
  Sc  Sc1  1  0.196791  0.803209  0.196791  1
  Sc  Sc2  1  0.805529  0.194471  0.194471  1
  Sc  Sc3  1  0.194471  0.194471  0.805529  1
  Sc  Sc4  1  0.803209  0.196791  0.803209  1
  Sc  Sc5  1  0.194471  0.805529  0.805529  1
  Sc  Sc6  1  0.604693  0.621012  0.153282  1
  Sc  Sc7  1  0.621012  0.153282  0.621012  1
  Sc  Sc8  1  0.153282  0.621012  0.604693  1
  Sc  Sc9  1  0.621012  0.604693  0.621012  1
  Sc  Sc10  1  0.395307  0.378988  0.846718  1
  Sc  Sc11  1  0.378988  0.846718  0.378988  1
  Sc  Sc12  1  0.846718  0.378988  0.395307  1
  Sc  Sc13  1  0.378988  0.395307  0.378988  1
  Sc  Sc14  1  0.860716  0.833546  0.472192  1
  Sc  Sc15  1  0.833546  0.472192  0.833546  1
  Sc  Sc16  1  0.472192  0.833546  0.860716  1
  Sc  Sc17  1  0.833546  0.860716  0.833546  1
  Sc  Sc18  1  0.139284  0.166454  0.527808  1
  Sc  Sc19  1  0.166454  0.527808  0.166454  1
  Sc  Sc20  1  0.527808  0.166454  0.139284  1
  Sc  Sc21  1  0.166454  0.139284  0.166454  1
  Tl  Tl22  1  0.500000  0.000000  0.500000  1
  Tl  Tl23  1  0.000000  0.500000  0.000000  1
  Tc  Tc24  1  0.000000  0.000000  0.000000  1
  Tc  Tc25  1  0.500000  0.500000  0.500000  1
  Tc  Tc26  1  0.000000  0.000000  0.500000  1
  Tc  Tc27  1  0.000000  0.500000  0.500000  1
  Tc  Tc28  1  0.500000  0.500000  0.000000  1
  Tc  Tc29  1  0.500000  0.000000  0.000000  1
