# generated using pymatgen
data_Ba3ErRhO6
_symmetry_space_group_name_H-M   'P 1'
_cell_length_a   7.15876777
_cell_length_b   7.15854592
_cell_length_c   7.15871225
_cell_angle_alpha   93.41727244
_cell_angle_beta   93.41293600
_cell_angle_gamma   93.41380145
_symmetry_Int_Tables_number   1
_chemical_formula_structural   Ba3ErRhO6
_chemical_formula_sum   'Ba6 Er2 Rh2 O12'
_cell_volume   364.82262270
_cell_formula_units_Z   2
loop_
 _symmetry_equiv_pos_site_id
 _symmetry_equiv_pos_as_xyz
  1  'x, y, z'
loop_
 _atom_site_type_symbol
 _atom_site_label
 _atom_site_symmetry_multiplicity
 _atom_site_fract_x
 _atom_site_fract_y
 _atom_site_fract_z
 _atom_site_occupancy
  Ba  Ba0  1  0.617031  0.882967  0.250020  1
  Ba  Ba1  1  0.250003  0.617045  0.882965  1
  Ba  Ba2  1  0.882974  0.250008  0.617038  1
  Ba  Ba3  1  0.382976  0.117039  0.749980  1
  Ba  Ba4  1  0.749989  0.382956  0.117025  1
  Ba  Ba5  1  0.117030  0.749986  0.382958  1
  Er  Er6  1  0.249995  0.249996  0.249989  1
  Er  Er7  1  0.750018  0.750005  0.750029  1
  Rh  Rh8  1  0.999999  0.000003  0.999999  1
  Rh  Rh9  1  0.500003  0.500002  0.500004  1
  O  O10  1  0.284351  0.968436  0.093534  1
  O  O11  1  0.093597  0.284359  0.968457  1
  O  O12  1  0.968458  0.093570  0.284352  1
  O  O13  1  0.531539  0.215565  0.406388  1
  O  O14  1  0.406403  0.531563  0.215601  1
  O  O15  1  0.215580  0.406422  0.531562  1
  O  O16  1  0.715648  0.031561  0.906462  1
  O  O17  1  0.906408  0.715644  0.031547  1
  O  O18  1  0.031548  0.906432  0.715641  1
  O  O19  1  0.468454  0.784425  0.593606  1
  O  O20  1  0.593585  0.468442  0.784405  1
  O  O21  1  0.784413  0.593570  0.468437  1
