# generated using pymatgen
data_Ca2Yb(GaCo)4
_symmetry_space_group_name_H-M   'P 1'
_cell_length_a   6.37541140
_cell_length_b   6.37541107
_cell_length_c   6.37541132
_cell_angle_alpha   110.07439033
_cell_angle_beta   109.17048486
_cell_angle_gamma   109.17047695
_symmetry_Int_Tables_number   1
_chemical_formula_structural   Ca2Yb(GaCo)4
_chemical_formula_sum   'Ca2 Yb1 Ga4 Co4'
_cell_volume   199.46494208
_cell_formula_units_Z   1
loop_
 _symmetry_equiv_pos_site_id
 _symmetry_equiv_pos_as_xyz
  1  'x, y, z'
loop_
 _atom_site_type_symbol
 _atom_site_label
 _atom_site_symmetry_multiplicity
 _atom_site_fract_x
 _atom_site_fract_y
 _atom_site_fract_z
 _atom_site_occupancy
  Ca  Ca0  1  0.499999  0.499999  0.000000  1
  Ca  Ca1  1  0.499999  0.000000  0.499999  1
  Yb  Yb2  1  0.000000  0.499999  0.499999  1
  Ga  Ga3  1  0.397242  0.998846  0.998846  1
  Ga  Ga4  1  0.000000  0.398397  0.001154  1
  Ga  Ga5  1  0.000000  0.001154  0.398397  1
  Ga  Ga6  1  0.602757  0.601602  0.601602  1
  Co  Co7  1  0.767037  0.001714  0.001714  1
  Co  Co8  1  0.000000  0.765323  0.998286  1
  Co  Co9  1  0.232962  0.234676  0.234676  1
  Co  Co10  1  0.000000  0.998286  0.765323  1
