# generated using pymatgen
data_Cs8V6MoWN16
_symmetry_space_group_name_H-M   'P 1'
_cell_length_a   6.00451003
_cell_length_b   8.51933600
_cell_length_c   12.01529607
_cell_angle_alpha   90.00000000
_cell_angle_beta   89.98788467
_cell_angle_gamma   90.00000000
_symmetry_Int_Tables_number   1
_chemical_formula_structural   Cs8V6MoWN16
_chemical_formula_sum   'Cs8 V6 Mo1 W1 N16'
_cell_volume   614.63570988
_cell_formula_units_Z   1
loop_
 _symmetry_equiv_pos_site_id
 _symmetry_equiv_pos_as_xyz
  1  'x, y, z'
loop_
 _atom_site_type_symbol
 _atom_site_label
 _atom_site_symmetry_multiplicity
 _atom_site_fract_x
 _atom_site_fract_y
 _atom_site_fract_z
 _atom_site_occupancy
  Cs  Cs0  1  0.750000  0.128572  0.000000  1
  Cs  Cs1  1  0.250000  0.870699  0.500000  1
  Cs  Cs2  1  0.250000  0.889475  0.000000  1
  Cs  Cs3  1  0.750000  0.112822  0.500000  1
  Cs  Cs4  1  0.736303  0.370060  0.257638  1
  Cs  Cs5  1  0.236475  0.629301  0.244007  1
  Cs  Cs6  1  0.263525  0.629301  0.755993  1
  Cs  Cs7  1  0.763697  0.370060  0.742362  1
  V  V8  1  0.250000  0.363969  0.000000  1
  V  V9  1  0.750000  0.634836  0.500000  1
  V  V10  1  0.241177  0.121279  0.248648  1
  V  V11  1  0.741203  0.879359  0.252292  1
  V  V12  1  0.758797  0.879359  0.747708  1
  V  V13  1  0.258823  0.121279  0.751352  1
  Mo  Mo14  1  0.250000  0.377282  0.500000  1
  W  W15  1  0.750000  0.622541  0.000000  1
  N  N16  1  0.984784  0.006482  0.250587  1
  N  N17  1  0.485508  0.994276  0.250940  1
  N  N18  1  0.014492  0.994276  0.749060  1
  N  N19  1  0.515216  0.006482  0.749413  1
  N  N20  1  0.248355  0.250549  0.371639  1
  N  N21  1  0.748625  0.749995  0.127795  1
  N  N22  1  0.751375  0.749995  0.872205  1
  N  N23  1  0.251645  0.250549  0.628361  1
  N  N24  1  0.751367  0.757854  0.623001  1
  N  N25  1  0.251163  0.241615  0.877774  1
  N  N26  1  0.248837  0.241615  0.122226  1
  N  N27  1  0.748633  0.757854  0.376999  1
  N  N28  1  0.502539  0.506560  0.499862  1
  N  N29  1  0.001732  0.492573  0.000193  1
  N  N30  1  0.498268  0.492573  0.999807  1
  N  N31  1  0.997461  0.506560  0.500138  1
