# generated using pymatgen
data_Be8V2TcW
_symmetry_space_group_name_H-M   'P 1'
_cell_length_a   4.37487500
_cell_length_b   4.37487398
_cell_length_c   7.13418900
_cell_angle_alpha   90.00000000
_cell_angle_beta   90.00000000
_cell_angle_gamma   120.00000015
_symmetry_Int_Tables_number   1
_chemical_formula_structural   Be8V2TcW
_chemical_formula_sum   'Be8 V2 Tc1 W1'
_cell_volume   118.25143998
_cell_formula_units_Z   1
loop_
 _symmetry_equiv_pos_site_id
 _symmetry_equiv_pos_as_xyz
  1  'x, y, z'
loop_
 _atom_site_type_symbol
 _atom_site_label
 _atom_site_symmetry_multiplicity
 _atom_site_fract_x
 _atom_site_fract_y
 _atom_site_fract_z
 _atom_site_occupancy
  Be  Be0  1  0.000000  0.000000  0.001212  1
  Be  Be1  1  0.000000  0.000000  0.500824  1
  Be  Be2  1  0.829791  0.659584  0.249790  1
  Be  Be3  1  0.170204  0.829796  0.750190  1
  Be  Be4  1  0.659594  0.829796  0.750190  1
  Be  Be5  1  0.340416  0.170209  0.249790  1
  Be  Be6  1  0.829791  0.170209  0.249790  1
  Be  Be7  1  0.170204  0.340406  0.750190  1
  V  V8  1  0.666667  0.333333  0.939003  1
  V  V9  1  0.333333  0.666667  0.432232  1
  Tc  Tc10  1  0.333333  0.666667  0.062550  1
  W  W11  1  0.666667  0.333333  0.564240  1
