# generated using pymatgen
data_La8Ho12Ga9Si7
_symmetry_space_group_name_H-M   'P 1'
_cell_length_a   7.59994680
_cell_length_b   7.98079190
_cell_length_c   15.27953434
_cell_angle_alpha   90.02124571
_cell_angle_beta   89.98750481
_cell_angle_gamma   90.05046084
_symmetry_Int_Tables_number   1
_chemical_formula_structural   La8Ho12Ga9Si7
_chemical_formula_sum   'La8 Ho12 Ga9 Si7'
_cell_volume   926.75822506
_cell_formula_units_Z   1
loop_
 _symmetry_equiv_pos_site_id
 _symmetry_equiv_pos_as_xyz
  1  'x, y, z'
loop_
 _atom_site_type_symbol
 _atom_site_label
 _atom_site_symmetry_multiplicity
 _atom_site_fract_x
 _atom_site_fract_y
 _atom_site_fract_z
 _atom_site_occupancy
  La  La0  1  0.978389  0.824172  0.096501  1
  La  La1  1  0.478672  0.677313  0.403732  1
  La  La2  1  0.521623  0.323360  0.903086  1
  La  La3  1  0.021331  0.177211  0.596416  1
  La  La4  1  0.023622  0.174583  0.902911  1
  La  La5  1  0.524204  0.324395  0.596663  1
  La  La6  1  0.477497  0.676786  0.096841  1
  La  La7  1  0.975878  0.824690  0.403506  1
  Ho  Ho8  1  0.653770  0.992759  0.250839  1
  Ho  Ho9  1  0.153495  0.506346  0.249369  1
  Ho  Ho10  1  0.846174  0.493274  0.749514  1
  Ho  Ho11  1  0.346891  0.006698  0.751359  1
  Ho  Ho12  1  0.679592  0.822647  0.876243  1
  Ho  Ho13  1  0.180316  0.677682  0.623328  1
  Ho  Ho14  1  0.818838  0.323351  0.123387  1
  Ho  Ho15  1  0.319721  0.177219  0.376773  1
  Ho  Ho16  1  0.318384  0.176200  0.122904  1
  Ho  Ho17  1  0.817030  0.321221  0.378024  1
  Ho  Ho18  1  0.182105  0.678028  0.877065  1
  Ho  Ho19  1  0.682769  0.821625  0.622088  1
  Ga  Ga20  1  0.766859  0.618351  0.250411  1
  Ga  Ga21  1  0.266438  0.881848  0.250562  1
  Ga  Ga22  1  0.733135  0.118117  0.749657  1
  Ga  Ga23  1  0.233384  0.381489  0.749302  1
  Ga  Ga24  1  0.851350  0.533462  0.958394  1
  Ga  Ga25  1  0.352929  0.966749  0.540672  1
  Ga  Ga26  1  0.646734  0.032865  0.040121  1
  Ga  Ga27  1  0.146816  0.466862  0.459353  1
  Ga  Ga28  1  0.148497  0.466600  0.040793  1
  Si  Si29  1  0.023328  0.119095  0.250382  1
  Si  Si30  1  0.524131  0.381135  0.251917  1
  Si  Si31  1  0.475399  0.619137  0.749641  1
  Si  Si32  1  0.976038  0.881308  0.748478  1
  Si  Si33  1  0.645285  0.033364  0.460109  1
  Si  Si34  1  0.354725  0.966360  0.959580  1
  Si  Si35  1  0.854652  0.533697  0.540077  1
