# generated using pymatgen
data_Ho3(Sn2Rh)2
_symmetry_space_group_name_H-M   'P 1'
_cell_length_a   7.50088000
_cell_length_b   7.50088045
_cell_length_c   4.20421000
_cell_angle_alpha   90.00000000
_cell_angle_beta   90.00000000
_cell_angle_gamma   120.00000036
_symmetry_Int_Tables_number   1
_chemical_formula_structural   Ho3(Sn2Rh)2
_chemical_formula_sum   'Ho3 Sn4 Rh2'
_cell_volume   204.85166232
_cell_formula_units_Z   1
loop_
 _symmetry_equiv_pos_site_id
 _symmetry_equiv_pos_as_xyz
  1  'x, y, z'
loop_
 _atom_site_type_symbol
 _atom_site_label
 _atom_site_symmetry_multiplicity
 _atom_site_fract_x
 _atom_site_fract_y
 _atom_site_fract_z
 _atom_site_occupancy
  Ho  Ho0  1  0.023185  0.416924  0.000000  1
  Ho  Ho1  1  0.583076  0.606261  0.000000  1
  Ho  Ho2  1  0.393739  0.976815  0.000000  1
  Sn  Sn3  1  0.238713  0.257358  0.500000  1
  Sn  Sn4  1  0.018646  0.761287  0.500000  1
  Sn  Sn5  1  0.742642  0.981354  0.500000  1
  Sn  Sn6  1  0.666667  0.333333  0.500000  1
  Rh  Rh7  1  0.333333  0.666667  0.500000  1
  Rh  Rh8  1  0.000000  0.000000  0.000000  1
