# generated using pymatgen
data_Cs4SbIrCl12
_symmetry_space_group_name_H-M   'P 1'
_cell_length_a   7.49661300
_cell_length_b   7.49661300
_cell_length_c   10.74572700
_cell_angle_alpha   90.00000000
_cell_angle_beta   90.00000000
_cell_angle_gamma   89.99977071
_symmetry_Int_Tables_number   1
_chemical_formula_structural   Cs4SbIrCl12
_chemical_formula_sum   'Cs4 Sb1 Ir1 Cl12'
_cell_volume   603.90133036
_cell_formula_units_Z   1
loop_
 _symmetry_equiv_pos_site_id
 _symmetry_equiv_pos_as_xyz
  1  'x, y, z'
loop_
 _atom_site_type_symbol
 _atom_site_label
 _atom_site_symmetry_multiplicity
 _atom_site_fract_x
 _atom_site_fract_y
 _atom_site_fract_z
 _atom_site_occupancy
  Cs  Cs0  1  0.500000  0.000000  0.767768  1
  Cs  Cs1  1  0.000000  0.500000  0.232232  1
  Cs  Cs2  1  0.500000  0.000000  0.232232  1
  Cs  Cs3  1  0.000000  0.500000  0.767768  1
  Sb  Sb4  1  0.500000  0.500000  0.500000  1
  Ir  Ir5  1  0.000000  0.000000  0.000000  1
  Cl  Cl6  1  0.000000  0.000000  0.779798  1
  Cl  Cl7  1  0.500000  0.500000  0.268072  1
  Cl  Cl8  1  0.734226  0.734226  0.500000  1
  Cl  Cl9  1  0.222869  0.222869  0.000000  1
  Cl  Cl10  1  0.734225  0.265775  0.500000  1
  Cl  Cl11  1  0.222869  0.777131  0.000000  1
  Cl  Cl12  1  0.000000  0.000000  0.220202  1
  Cl  Cl13  1  0.500000  0.500000  0.731928  1
  Cl  Cl14  1  0.265774  0.265774  0.500000  1
  Cl  Cl15  1  0.777131  0.777131  0.000000  1
  Cl  Cl16  1  0.265775  0.734225  0.500000  1
  Cl  Cl17  1  0.777131  0.222869  0.000000  1
