# generated using pymatgen
data_ThPa(NiAs)2
_symmetry_space_group_name_H-M   'P 1'
_cell_length_a   4.13751100
_cell_length_b   4.13751120
_cell_length_c   15.39939900
_cell_angle_alpha   90.00000000
_cell_angle_beta   90.00000000
_cell_angle_gamma   120.00002238
_symmetry_Int_Tables_number   1
_chemical_formula_structural   ThPa(NiAs)2
_chemical_formula_sum   'Th2 Pa2 Ni4 As4'
_cell_volume   228.30354198
_cell_formula_units_Z   2
loop_
 _symmetry_equiv_pos_site_id
 _symmetry_equiv_pos_as_xyz
  1  'x, y, z'
loop_
 _atom_site_type_symbol
 _atom_site_label
 _atom_site_symmetry_multiplicity
 _atom_site_fract_x
 _atom_site_fract_y
 _atom_site_fract_z
 _atom_site_occupancy
  Th  Th0  1  0.000000  0.000000  0.000000  1
  Th  Th1  1  0.000000  0.000000  0.500000  1
  Pa  Pa2  1  0.000000  0.000000  0.250000  1
  Pa  Pa3  1  0.000000  0.000000  0.750000  1
  Ni  Ni4  1  0.333333  0.666667  0.153830  1
  Ni  Ni5  1  0.666667  0.333333  0.846170  1
  Ni  Ni6  1  0.666667  0.333333  0.653830  1
  Ni  Ni7  1  0.333333  0.666667  0.346170  1
  As  As8  1  0.333333  0.666667  0.624425  1
  As  As9  1  0.666667  0.333333  0.375575  1
  As  As10  1  0.666667  0.333333  0.124425  1
  As  As11  1  0.333333  0.666667  0.875575  1
