# generated using pymatgen
data_Ce2InGeIr
_symmetry_space_group_name_H-M   'P 1'
_cell_length_a   7.68402900
_cell_length_b   7.67905200
_cell_length_c   3.94810600
_cell_angle_alpha   90.00000000
_cell_angle_beta   90.00000000
_cell_angle_gamma   90.00000000
_symmetry_Int_Tables_number   1
_chemical_formula_structural   Ce2InGeIr
_chemical_formula_sum   'Ce4 In2 Ge2 Ir2'
_cell_volume   232.96217265
_cell_formula_units_Z   2
loop_
 _symmetry_equiv_pos_site_id
 _symmetry_equiv_pos_as_xyz
  1  'x, y, z'
loop_
 _atom_site_type_symbol
 _atom_site_label
 _atom_site_symmetry_multiplicity
 _atom_site_fract_x
 _atom_site_fract_y
 _atom_site_fract_z
 _atom_site_occupancy
  Ce  Ce0  1  0.323300  0.162099  0.500001  1
  Ce  Ce1  1  0.823300  0.337902  0.500001  1
  Ce  Ce2  1  0.175196  0.687649  0.500001  1
  Ce  Ce3  1  0.675195  0.812351  0.500001  1
  In  In4  1  0.999827  0.988213  0.000000  1
  In  In5  1  0.499826  0.511786  0.000000  1
  Ge  Ge6  1  0.622630  0.121203  0.000000  1
  Ge  Ge7  1  0.122631  0.378798  0.000000  1
  Ir  Ir8  1  0.879049  0.616686  0.000000  1
  Ir  Ir9  1  0.379049  0.883314  0.000000  1
