# generated using pymatgen
data_Zr2V2OsW
_symmetry_space_group_name_H-M   'P 1'
_cell_length_a   5.27187513
_cell_length_b   5.25834839
_cell_length_c   5.27187538
_cell_angle_alpha   119.79086225
_cell_angle_beta   120.03497868
_cell_angle_gamma   90.22464251
_symmetry_Int_Tables_number   1
_chemical_formula_structural   Zr2V2OsW
_chemical_formula_sum   'Zr2 V2 Os1 W1'
_cell_volume   103.40728054
_cell_formula_units_Z   1
loop_
 _symmetry_equiv_pos_site_id
 _symmetry_equiv_pos_as_xyz
  1  'x, y, z'
loop_
 _atom_site_type_symbol
 _atom_site_label
 _atom_site_symmetry_multiplicity
 _atom_site_fract_x
 _atom_site_fract_y
 _atom_site_fract_z
 _atom_site_occupancy
  Zr  Zr0  1  0.373922  0.122126  0.248203  1
  Zr  Zr1  1  0.626078  0.877874  0.751797  1
  V  V2  1  0.500000  0.500000  0.000000  1
  V  V3  1  0.000000  0.500000  0.500000  1
  Os  Os4  1  0.000000  0.000000  0.500000  1
  W  W5  1  0.000000  0.500000  0.000000  1
