# generated using pymatgen
data_Ho2Er6In3Fe
_symmetry_space_group_name_H-M   'P 1'
_cell_length_a   10.27839400
_cell_length_b   10.27298619
_cell_length_c   6.97475554
_cell_angle_alpha   90.04231796
_cell_angle_beta   90.00000000
_cell_angle_gamma   120.01740862
_symmetry_Int_Tables_number   1
_chemical_formula_structural   Ho2Er6In3Fe
_chemical_formula_sum   'Ho4 Er12 In6 Fe2'
_cell_volume   637.68355717
_cell_formula_units_Z   2
loop_
 _symmetry_equiv_pos_site_id
 _symmetry_equiv_pos_as_xyz
  1  'x, y, z'
loop_
 _atom_site_type_symbol
 _atom_site_label
 _atom_site_symmetry_multiplicity
 _atom_site_fract_x
 _atom_site_fract_y
 _atom_site_fract_z
 _atom_site_occupancy
  Ho  Ho0  1  0.534764  0.069526  0.792142  1
  Ho  Ho1  1  0.930781  0.465391  0.792525  1
  Ho  Ho2  1  0.534611  0.465391  0.792525  1
  Ho  Ho3  1  0.464991  0.929981  0.292251  1
  Er  Er4  1  0.069856  0.534938  0.292662  1
  Er  Er5  1  0.465082  0.534938  0.292662  1
  Er  Er6  1  0.821284  0.642569  0.497784  1
  Er  Er7  1  0.357043  0.178651  0.497831  1
  Er  Er8  1  0.821608  0.178651  0.497831  1
  Er  Er9  1  0.178760  0.357520  0.998527  1
  Er  Er10  1  0.642728  0.821277  0.998227  1
  Er  Er11  1  0.178549  0.821277  0.998227  1
  Er  Er12  1  0.666873  0.333745  0.180887  1
  Er  Er13  1  0.333204  0.666410  0.680408  1
  Er  Er14  1  0.000092  0.000184  0.779419  1
  Er  Er15  1  0.000051  0.000101  0.279762  1
  In  In16  1  0.836947  0.673897  0.039411  1
  In  In17  1  0.326197  0.163121  0.039363  1
  In  In18  1  0.836923  0.163121  0.039363  1
  In  In19  1  0.163087  0.326172  0.539015  1
  In  In20  1  0.673785  0.836771  0.539183  1
  In  In21  1  0.162987  0.836771  0.539183  1
  Fe  Fe22  1  0.666660  0.333320  0.568158  1
  Fe  Fe23  1  0.333138  0.666276  0.068563  1
