# generated using pymatgen
data_Dy3Er5Re3B24Ir
_symmetry_space_group_name_H-M   'P 1'
_cell_length_a   3.66115500
_cell_length_b   9.14160577
_cell_length_c   11.52417000
_cell_angle_alpha   90.12897867
_cell_angle_beta   90.00000000
_cell_angle_gamma   90.00000000
_symmetry_Int_Tables_number   1
_chemical_formula_structural   Dy3Er5Re3B24Ir
_chemical_formula_sum   'Dy3 Er5 Re3 B24 Ir1'
_cell_volume   385.69957482
_cell_formula_units_Z   1
loop_
 _symmetry_equiv_pos_site_id
 _symmetry_equiv_pos_as_xyz
  1  'x, y, z'
loop_
 _atom_site_type_symbol
 _atom_site_label
 _atom_site_symmetry_multiplicity
 _atom_site_fract_x
 _atom_site_fract_y
 _atom_site_fract_z
 _atom_site_occupancy
  Dy  Dy0  1  0.000000  0.318140  0.415491  1
  Dy  Dy1  1  0.000000  0.678736  0.591153  1
  Dy  Dy2  1  0.000000  0.826749  0.081537  1
  Er  Er3  1  0.000000  0.177180  0.912614  1
  Er  Er4  1  0.000000  0.944446  0.370526  1
  Er  Er5  1  0.000000  0.055836  0.628984  1
  Er  Er6  1  0.000000  0.440968  0.128111  1
  Er  Er7  1  0.000000  0.556446  0.871602  1
  Re  Re8  1  0.000000  0.362307  0.677898  1
  Re  Re9  1  0.000000  0.138563  0.179879  1
  Re  Re10  1  0.000000  0.861777  0.820932  1
  B  B11  1  0.500000  0.554071  0.433623  1
  B  B12  1  0.500000  0.446607  0.566740  1
  B  B13  1  0.500000  0.053519  0.066524  1
  B  B14  1  0.500000  0.947072  0.932744  1
  B  B15  1  0.500000  0.749638  0.420067  1
  B  B16  1  0.500000  0.250210  0.581122  1
  B  B17  1  0.500000  0.249305  0.080909  1
  B  B18  1  0.500000  0.751193  0.918855  1
  B  B19  1  0.500000  0.791426  0.265307  1
  B  B20  1  0.500000  0.208057  0.734299  1
  B  B21  1  0.500000  0.291932  0.234855  1
  B  B22  1  0.500000  0.707929  0.765989  1
  B  B23  1  0.500000  0.631518  0.184308  1
  B  B24  1  0.500000  0.369295  0.814369  1
  B  B25  1  0.500000  0.130862  0.314868  1
  B  B26  1  0.500000  0.868688  0.685501  1
  B  B27  1  0.500000  0.982942  0.212252  1
  B  B28  1  0.500000  0.017664  0.787074  1
  B  B29  1  0.500000  0.482888  0.287661  1
  B  B30  1  0.500000  0.518099  0.712564  1
  B  B31  1  0.500000  0.603118  0.029198  1
  B  B32  1  0.500000  0.397358  0.971903  1
  B  B33  1  0.500000  0.101807  0.471242  1
  B  B34  1  0.500000  0.895715  0.528190  1
  Ir  Ir35  1  0.000000  0.637943  0.321105  1
