# generated using pymatgen
data_HoEr9(InBi2)2
_symmetry_space_group_name_H-M   'P 1'
_cell_length_a   9.01336047
_cell_length_b   9.01336150
_cell_length_c   6.46296100
_cell_angle_alpha   90.00000000
_cell_angle_beta   90.00000000
_cell_angle_gamma   119.65846799
_symmetry_Int_Tables_number   1
_chemical_formula_structural   HoEr9(InBi2)2
_chemical_formula_sum   'Ho1 Er9 In2 Bi4'
_cell_volume   456.26804995
_cell_formula_units_Z   1
loop_
 _symmetry_equiv_pos_site_id
 _symmetry_equiv_pos_as_xyz
  1  'x, y, z'
loop_
 _atom_site_type_symbol
 _atom_site_label
 _atom_site_symmetry_multiplicity
 _atom_site_fract_x
 _atom_site_fract_y
 _atom_site_fract_z
 _atom_site_occupancy
  Ho  Ho0  1  0.762631  0.762631  0.750000  1
  Er  Er1  1  0.668908  0.329098  0.003796  1
  Er  Er2  1  0.329098  0.668908  0.003796  1
  Er  Er3  1  0.329098  0.668908  0.496204  1
  Er  Er4  1  0.668908  0.329098  0.496204  1
  Er  Er5  1  0.234023  0.997889  0.750000  1
  Er  Er6  1  0.997889  0.234023  0.750000  1
  Er  Er7  1  0.233631  0.233631  0.250000  1
  Er  Er8  1  0.766578  0.008779  0.250000  1
  Er  Er9  1  0.008779  0.766578  0.250000  1
  In  In10  1  0.396723  0.002129  0.250000  1
  In  In11  1  0.002129  0.396723  0.250000  1
  Bi  Bi12  1  0.393513  0.393513  0.750000  1
  Bi  Bi13  1  0.602161  0.996836  0.750000  1
  Bi  Bi14  1  0.996836  0.602161  0.750000  1
  Bi  Bi15  1  0.609096  0.609096  0.250000  1
