# generated using pymatgen
data_TbY3(Os3W)2
_symmetry_space_group_name_H-M   'P 1'
_cell_length_a   5.53740300
_cell_length_b   5.53740354
_cell_length_c   8.44580600
_cell_angle_alpha   90.00000000
_cell_angle_beta   90.00000000
_cell_angle_gamma   120.00000277
_symmetry_Int_Tables_number   1
_chemical_formula_structural   TbY3(Os3W)2
_chemical_formula_sum   'Tb1 Y3 Os6 W2'
_cell_volume   224.27663244
_cell_formula_units_Z   1
loop_
 _symmetry_equiv_pos_site_id
 _symmetry_equiv_pos_as_xyz
  1  'x, y, z'
loop_
 _atom_site_type_symbol
 _atom_site_label
 _atom_site_symmetry_multiplicity
 _atom_site_fract_x
 _atom_site_fract_y
 _atom_site_fract_z
 _atom_site_occupancy
  Tb  Tb0  1  0.333333  0.666667  0.435956  1
  Y  Y1  1  0.666667  0.333333  0.564883  1
  Y  Y2  1  0.666667  0.333333  0.935078  1
  Y  Y3  1  0.333333  0.666667  0.064592  1
  Os  Os4  1  0.827493  0.172507  0.249862  1
  Os  Os5  1  0.827493  0.654985  0.249862  1
  Os  Os6  1  0.345015  0.172507  0.249862  1
  Os  Os7  1  0.172420  0.827580  0.750083  1
  Os  Os8  1  0.172420  0.344839  0.750083  1
  Os  Os9  1  0.655161  0.827580  0.750083  1
  W  W10  1  0.000000  0.000000  0.499874  1
  W  W11  1  0.000000  0.000000  0.999777  1
