# generated using pymatgen
data_Ca14Mn3Nb2VN18
_symmetry_space_group_name_H-M   'P 1'
_cell_length_a   6.07622754
_cell_length_b   10.01817300
_cell_length_c   9.04912045
_cell_angle_alpha   90.00000000
_cell_angle_beta   92.19553870
_cell_angle_gamma   90.00000000
_symmetry_Int_Tables_number   1
_chemical_formula_structural   Ca14Mn3Nb2VN18
_chemical_formula_sum   'Ca14 Mn3 Nb2 V1 N18'
_cell_volume   550.44000870
_cell_formula_units_Z   1
loop_
 _symmetry_equiv_pos_site_id
 _symmetry_equiv_pos_as_xyz
  1  'x, y, z'
loop_
 _atom_site_type_symbol
 _atom_site_label
 _atom_site_symmetry_multiplicity
 _atom_site_fract_x
 _atom_site_fract_y
 _atom_site_fract_z
 _atom_site_occupancy
  Ca  Ca0  1  0.066307  0.418511  0.170060  1
  Ca  Ca1  1  0.927005  0.919712  0.831298  1
  Ca  Ca2  1  0.927005  0.580288  0.831298  1
  Ca  Ca3  1  0.066307  0.081490  0.170060  1
  Ca  Ca4  1  0.246212  0.918516  0.507928  1
  Ca  Ca5  1  0.752518  0.420027  0.492581  1
  Ca  Ca6  1  0.752518  0.079973  0.492581  1
  Ca  Ca7  1  0.246212  0.581484  0.507928  1
  Ca  Ca8  1  0.575638  0.936067  0.162411  1
  Ca  Ca9  1  0.428611  0.434001  0.837947  1
  Ca  Ca10  1  0.428611  0.065999  0.837947  1
  Ca  Ca11  1  0.575638  0.563933  0.162411  1
  Ca  Ca12  1  0.908173  0.250000  0.803847  1
  Ca  Ca13  1  0.084755  0.750000  0.199182  1
  Mn  Mn14  1  0.457075  0.250000  0.278109  1
  Mn  Mn15  1  0.543849  0.750000  0.717289  1
  Mn  Mn16  1  0.669997  0.250000  0.069220  1
  Nb  Nb17  1  0.277175  0.250000  0.561701  1
  Nb  Nb18  1  0.716646  0.750000  0.439965  1
  V  V19  1  0.333011  0.750000  0.931479  1
  N  N20  1  0.115102  0.401868  0.657276  1
  N  N21  1  0.886420  0.902236  0.341214  1
  N  N22  1  0.886420  0.597764  0.341214  1
  N  N23  1  0.115102  0.098132  0.657276  1
  N  N24  1  0.235429  0.903556  0.018012  1
  N  N25  1  0.771276  0.404113  0.979679  1
  N  N26  1  0.771276  0.095887  0.979679  1
  N  N27  1  0.235429  0.596444  0.018012  1
  N  N28  1  0.364945  0.392745  0.370925  1
  N  N29  1  0.637008  0.894401  0.625582  1
  N  N30  1  0.637008  0.605599  0.625582  1
  N  N31  1  0.364945  0.107255  0.370925  1
  N  N32  1  0.361423  0.250000  0.080031  1
  N  N33  1  0.642847  0.750000  0.929849  1
  N  N34  1  0.553907  0.250000  0.668688  1
  N  N35  1  0.442418  0.750000  0.330588  1
  N  N36  1  0.763644  0.250000  0.271070  1
  N  N37  1  0.232139  0.750000  0.729154  1
