# generated using pymatgen
data_Na2AlGaAu2
_symmetry_space_group_name_H-M   'P 1'
_cell_length_a   4.34799000
_cell_length_b   7.55566201
_cell_length_c   7.62761929
_cell_angle_alpha   91.90232016
_cell_angle_beta   90.00000000
_cell_angle_gamma   90.00000000
_symmetry_Int_Tables_number   1
_chemical_formula_structural   Na2AlGaAu2
_chemical_formula_sum   'Na4 Al2 Ga2 Au4'
_cell_volume   250.44401017
_cell_formula_units_Z   2
loop_
 _symmetry_equiv_pos_site_id
 _symmetry_equiv_pos_as_xyz
  1  'x, y, z'
loop_
 _atom_site_type_symbol
 _atom_site_label
 _atom_site_symmetry_multiplicity
 _atom_site_fract_x
 _atom_site_fract_y
 _atom_site_fract_z
 _atom_site_occupancy
  Na  Na0  1  0.250000  0.005515  0.328059  1
  Na  Na1  1  0.250000  0.509888  0.163514  1
  Na  Na2  1  0.750000  0.994485  0.671941  1
  Na  Na3  1  0.750000  0.490112  0.836486  1
  Al  Al4  1  0.250000  0.648115  0.570165  1
  Al  Al5  1  0.750000  0.351885  0.429835  1
  Ga  Ga6  1  0.750000  0.842708  0.077152  1
  Ga  Ga7  1  0.250000  0.157292  0.922848  1
  Au  Au8  1  0.250000  0.802208  0.878972  1
  Au  Au9  1  0.750000  0.197792  0.121028  1
  Au  Au10  1  0.750000  0.694011  0.388710  1
  Au  Au11  1  0.250000  0.305989  0.611290  1
