# generated using pymatgen
data_La7SmGaPd24
_symmetry_space_group_name_H-M   'P 1'
_cell_length_a   8.54149600
_cell_length_b   8.54149600
_cell_length_c   8.54149600
_cell_angle_alpha   90.00135499
_cell_angle_beta   89.99864501
_cell_angle_gamma   89.99864501
_symmetry_Int_Tables_number   1
_chemical_formula_structural   La7SmGaPd24
_chemical_formula_sum   'La7 Sm1 Ga1 Pd24'
_cell_volume   623.16323810
_cell_formula_units_Z   1
loop_
 _symmetry_equiv_pos_site_id
 _symmetry_equiv_pos_as_xyz
  1  'x, y, z'
loop_
 _atom_site_type_symbol
 _atom_site_label
 _atom_site_symmetry_multiplicity
 _atom_site_fract_x
 _atom_site_fract_y
 _atom_site_fract_z
 _atom_site_occupancy
  La  La0  1  0.252269  0.252249  0.252249  1
  La  La1  1  0.747834  0.747782  0.747782  1
  La  La2  1  0.747751  0.747731  0.252249  1
  La  La3  1  0.747751  0.252249  0.747731  1
  La  La4  1  0.252218  0.252166  0.747782  1
  La  La5  1  0.252218  0.747782  0.252166  1
  La  La6  1  0.252094  0.747906  0.747906  1
  Sm  Sm7  1  0.748061  0.251939  0.251939  1
  Ga  Ga8  1  0.999879  0.000121  0.000121  1
  Pd  Pd9  1  0.260537  0.500089  0.999926  1
  Pd  Pd10  1  0.739451  0.499111  0.000955  1
  Pd  Pd11  1  0.999045  0.260549  0.499111  1
  Pd  Pd12  1  0.500889  0.260549  0.000955  1
  Pd  Pd13  1  0.000074  0.739463  0.500089  1
  Pd  Pd14  1  0.499911  0.739463  0.999926  1
  Pd  Pd15  1  0.500889  0.000955  0.260549  1
  Pd  Pd16  1  0.260537  0.999926  0.500089  1
  Pd  Pd17  1  0.499911  0.999926  0.739463  1
  Pd  Pd18  1  0.739451  0.000955  0.499111  1
  Pd  Pd19  1  0.999045  0.499111  0.260549  1
  Pd  Pd20  1  0.000074  0.500089  0.739463  1
  Pd  Pd21  1  0.253131  0.500080  0.500080  1
  Pd  Pd22  1  0.746854  0.499005  0.499005  1
  Pd  Pd23  1  0.500995  0.253146  0.499005  1
  Pd  Pd24  1  0.499920  0.746869  0.500080  1
  Pd  Pd25  1  0.500995  0.499005  0.253146  1
  Pd  Pd26  1  0.499920  0.500080  0.746869  1
  Pd  Pd27  1  0.293504  0.999970  0.999970  1
  Pd  Pd28  1  0.706649  0.000960  0.000960  1
  Pd  Pd29  1  0.999040  0.293351  0.000960  1
  Pd  Pd30  1  0.000030  0.706496  0.999970  1
  Pd  Pd31  1  0.999040  0.000960  0.293351  1
  Pd  Pd32  1  0.000030  0.999970  0.706496  1
