# generated using pymatgen
data_Y4TmCo19SiP11
_symmetry_space_group_name_H-M   'P 1'
_cell_length_a   12.01141100
_cell_length_b   12.00229484
_cell_length_c   3.67951400
_cell_angle_alpha   90.00000000
_cell_angle_beta   90.00000000
_cell_angle_gamma   120.02513116
_symmetry_Int_Tables_number   1
_chemical_formula_structural   Y4TmCo19SiP11
_chemical_formula_sum   'Y4 Tm1 Co19 Si1 P11'
_cell_volume   459.27137119
_cell_formula_units_Z   1
loop_
 _symmetry_equiv_pos_site_id
 _symmetry_equiv_pos_as_xyz
  1  'x, y, z'
loop_
 _atom_site_type_symbol
 _atom_site_label
 _atom_site_symmetry_multiplicity
 _atom_site_fract_x
 _atom_site_fract_y
 _atom_site_fract_z
 _atom_site_occupancy
  Y  Y0  1  0.333722  0.667834  0.000000  1
  Y  Y1  1  0.665890  0.332166  0.000000  1
  Y  Y2  1  0.000724  0.187906  0.500000  1
  Y  Y3  1  0.812818  0.812094  0.500000  1
  Tm  Tm4  1  0.185231  0.000000  0.500000  1
  Co  Co5  1  0.199674  0.377993  0.000000  1
  Co  Co6  1  0.623103  0.821752  0.000000  1
  Co  Co7  1  0.174629  0.797434  0.000000  1
  Co  Co8  1  0.821682  0.622007  0.000000  1
  Co  Co9  1  0.801350  0.178248  0.000000  1
  Co  Co10  1  0.377195  0.202566  0.000000  1
  Co  Co11  1  0.557463  0.000000  0.000000  1
  Co  Co12  1  0.997744  0.551901  0.000000  1
  Co  Co13  1  0.445844  0.448099  0.000000  1
  Co  Co14  1  0.124391  0.483807  0.500000  1
  Co  Co15  1  0.516143  0.641437  0.500000  1
  Co  Co16  1  0.358551  0.873385  0.500000  1
  Co  Co17  1  0.640584  0.516193  0.500000  1
  Co  Co18  1  0.874706  0.358563  0.500000  1
  Co  Co19  1  0.485166  0.126615  0.500000  1
  Co  Co20  1  0.716754  0.000000  0.500000  1
  Co  Co21  1  0.999351  0.714696  0.500000  1
  Co  Co22  1  0.284655  0.285304  0.500000  1
  Co  Co23  1  0.001412  0.000000  0.000000  1
  Si  Si24  1  0.368485  0.000000  0.000000  1
  P  P25  1  0.999982  0.369188  0.000000  1
  P  P26  1  0.630795  0.630812  0.000000  1
  P  P27  1  0.313479  0.479880  0.500000  1
  P  P28  1  0.521342  0.835400  0.500000  1
  P  P29  1  0.165967  0.686870  0.500000  1
  P  P30  1  0.833598  0.520120  0.500000  1
  P  P31  1  0.685941  0.164600  0.500000  1
  P  P32  1  0.479097  0.313130  0.500000  1
  P  P33  1  0.820126  0.000000  0.000000  1
  P  P34  1  0.000850  0.819295  0.000000  1
  P  P35  1  0.181555  0.180705  0.000000  1
