# generated using pymatgen
data_Li12GdDy3(BO3)8
_symmetry_space_group_name_H-M   'P 1'
_cell_length_a   6.46483661
_cell_length_b   8.71851374
_cell_length_c   9.92890552
_cell_angle_alpha   114.76446550
_cell_angle_beta   89.89516488
_cell_angle_gamma   89.94499343
_symmetry_Int_Tables_number   1
_chemical_formula_structural   Li12GdDy3(BO3)8
_chemical_formula_sum   'Li12 Gd1 Dy3 B8 O24'
_cell_volume   508.16369428
_cell_formula_units_Z   1
loop_
 _symmetry_equiv_pos_site_id
 _symmetry_equiv_pos_as_xyz
  1  'x, y, z'
loop_
 _atom_site_type_symbol
 _atom_site_label
 _atom_site_symmetry_multiplicity
 _atom_site_fract_x
 _atom_site_fract_y
 _atom_site_fract_z
 _atom_site_occupancy
  Li  Li0  1  0.438855  0.038335  0.333540  1
  Li  Li1  1  0.744985  0.125972  0.521627  1
  Li  Li2  1  0.755469  0.626665  0.021112  1
  Li  Li3  1  0.244362  0.373129  0.977702  1
  Li  Li4  1  0.219469  0.294614  0.459097  1
  Li  Li5  1  0.938805  0.461167  0.165858  1
  Li  Li6  1  0.561064  0.961904  0.666769  1
  Li  Li7  1  0.781203  0.704504  0.541446  1
  Li  Li8  1  0.254634  0.874884  0.478800  1
  Li  Li9  1  0.720036  0.203356  0.040868  1
  Li  Li10  1  0.280357  0.795942  0.958933  1
  Li  Li11  1  0.060658  0.538958  0.833644  1
  Gd  Gd12  1  0.472752  0.482623  0.300264  1
  Dy  Dy13  1  0.026457  0.982657  0.800410  1
  Dy  Dy14  1  0.527331  0.517151  0.700046  1
  Dy  Dy15  1  0.973515  0.017369  0.198986  1
  B  B16  1  0.337560  0.219160  0.678892  1
  B  B17  1  0.325883  0.159173  0.106575  1
  B  B18  1  0.664333  0.783109  0.321535  1
  B  B19  1  0.160677  0.719372  0.177899  1
  B  B20  1  0.828605  0.338387  0.392829  1
  B  B21  1  0.673179  0.838622  0.891820  1
  B  B22  1  0.837483  0.280859  0.821130  1
  B  B23  1  0.172505  0.661619  0.609737  1
  O  O24  1  0.287848  0.071367  0.691131  1
  O  O25  1  0.560702  0.786168  0.447434  1
  O  O26  1  0.208507  0.024589  0.012768  1
  O  O27  1  0.711684  0.930823  0.308754  1
  O  O28  1  0.179340  0.702132  0.760860  1
  O  O29  1  0.788304  0.428824  0.809008  1
  O  O30  1  0.441942  0.216513  0.553470  1
  O  O31  1  0.293287  0.380187  0.788094  1
  O  O32  1  0.057201  0.718336  0.053050  1
  O  O33  1  0.941322  0.283221  0.946435  1
  O  O34  1  0.713933  0.474340  0.488567  1
  O  O35  1  0.789210  0.974059  0.986073  1
  O  O36  1  0.563146  0.733778  0.937533  1
  O  O37  1  0.208744  0.570631  0.188704  1
  O  O38  1  0.206167  0.879472  0.287699  1
  O  O39  1  0.064048  0.766064  0.562606  1
  O  O40  1  0.680812  0.800072  0.740908  1
  O  O41  1  0.436248  0.262628  0.059701  1
  O  O42  1  0.820396  0.300185  0.241668  1
  O  O43  1  0.710177  0.622617  0.212300  1
  O  O44  1  0.793188  0.120106  0.712136  1
  O  O45  1  0.288016  0.524682  0.516651  1
  O  O46  1  0.938040  0.232443  0.437390  1
  O  O47  1  0.317561  0.197229  0.257544  1
