# generated using pymatgen
data_La7Ce(MgCo)2
_symmetry_space_group_name_H-M   'P 1'
_cell_length_a   9.89015928
_cell_length_b   10.09302279
_cell_length_c   10.09302193
_cell_angle_alpha   58.67463422
_cell_angle_beta   60.66268637
_cell_angle_gamma   60.66267881
_symmetry_Int_Tables_number   1
_chemical_formula_structural   La7Ce(MgCo)2
_chemical_formula_sum   'La14 Ce2 Mg4 Co4'
_cell_volume   711.84691387
_cell_formula_units_Z   2
loop_
 _symmetry_equiv_pos_site_id
 _symmetry_equiv_pos_as_xyz
  1  'x, y, z'
loop_
 _atom_site_type_symbol
 _atom_site_label
 _atom_site_symmetry_multiplicity
 _atom_site_fract_x
 _atom_site_fract_y
 _atom_site_fract_z
 _atom_site_occupancy
  La  La0  1  0.188210  0.811790  0.188210  1
  La  La1  1  0.811790  0.188210  0.811790  1
  La  La2  1  0.188210  0.188210  0.811790  1
  La  La3  1  0.811790  0.811790  0.188210  1
  La  La4  1  0.931439  0.568561  0.568561  1
  La  La5  1  0.568561  0.931439  0.931439  1
  La  La6  1  0.557119  0.942881  0.557119  1
  La  La7  1  0.942881  0.557119  0.942881  1
  La  La8  1  0.557119  0.557119  0.942881  1
  La  La9  1  0.942881  0.942881  0.557119  1
  La  La10  1  0.340996  0.346058  0.346058  1
  La  La11  1  0.346058  0.340996  0.966888  1
  La  La12  1  0.346058  0.966888  0.340996  1
  La  La13  1  0.966888  0.346058  0.346058  1
  Ce  Ce14  1  0.816774  0.183226  0.183226  1
  Ce  Ce15  1  0.183226  0.816774  0.816774  1
  Mg  Mg16  1  0.579313  0.578058  0.578058  1
  Mg  Mg17  1  0.578058  0.579313  0.264572  1
  Mg  Mg18  1  0.578058  0.264572  0.579313  1
  Mg  Mg19  1  0.264572  0.578058  0.578058  1
  Co  Co20  1  0.077147  0.160564  0.160564  1
  Co  Co21  1  0.160564  0.077147  0.601725  1
  Co  Co22  1  0.160564  0.601725  0.077147  1
  Co  Co23  1  0.601725  0.160564  0.160564  1
