# generated using pymatgen
data_LiTm9(Bi3C)2
_symmetry_space_group_name_H-M   'P 1'
_cell_length_a   8.97664900
_cell_length_b   8.97664782
_cell_length_c   6.39716800
_cell_angle_alpha   90.00000000
_cell_angle_beta   90.00000000
_cell_angle_gamma   120.00000067
_symmetry_Int_Tables_number   1
_chemical_formula_structural   LiTm9(Bi3C)2
_chemical_formula_sum   'Li1 Tm9 Bi6 C2'
_cell_volume   446.42326119
_cell_formula_units_Z   1
loop_
 _symmetry_equiv_pos_site_id
 _symmetry_equiv_pos_as_xyz
  1  'x, y, z'
loop_
 _atom_site_type_symbol
 _atom_site_label
 _atom_site_symmetry_multiplicity
 _atom_site_fract_x
 _atom_site_fract_y
 _atom_site_fract_z
 _atom_site_occupancy
  Li  Li0  1  0.666667  0.333333  0.000000  1
  Tm  Tm1  1  0.333333  0.666667  0.000000  1
  Tm  Tm2  1  0.333333  0.666667  0.500000  1
  Tm  Tm3  1  0.666667  0.333333  0.500000  1
  Tm  Tm4  1  0.791852  0.792576  0.750006  1
  Tm  Tm5  1  0.207424  0.999276  0.750006  1
  Tm  Tm6  1  0.000724  0.208148  0.750006  1
  Tm  Tm7  1  0.207424  0.208148  0.249994  1
  Tm  Tm8  1  0.791852  0.999276  0.249994  1
  Tm  Tm9  1  0.000724  0.792576  0.249994  1
  Bi  Bi10  1  0.405127  0.401068  0.754600  1
  Bi  Bi11  1  0.598932  0.004060  0.754600  1
  Bi  Bi12  1  0.995940  0.594873  0.754600  1
  Bi  Bi13  1  0.598932  0.594873  0.245400  1
  Bi  Bi14  1  0.405127  0.004060  0.245400  1
  Bi  Bi15  1  0.995940  0.401068  0.245400  1
  C  C16  1  0.000000  0.000000  0.000000  1
  C  C17  1  0.000000  0.000000  0.500000  1
