# generated using pymatgen
data_CaDy3(PbAu2)2
_symmetry_space_group_name_H-M   'P 1'
_cell_length_a   8.18047955
_cell_length_b   8.18047955
_cell_length_c   3.69620500
_cell_angle_alpha   90.00000000
_cell_angle_beta   90.00000000
_cell_angle_gamma   89.49148257
_symmetry_Int_Tables_number   1
_chemical_formula_structural   CaDy3(PbAu2)2
_chemical_formula_sum   'Ca1 Dy3 Pb2 Au4'
_cell_volume   247.34120454
_cell_formula_units_Z   1
loop_
 _symmetry_equiv_pos_site_id
 _symmetry_equiv_pos_as_xyz
  1  'x, y, z'
loop_
 _atom_site_type_symbol
 _atom_site_label
 _atom_site_symmetry_multiplicity
 _atom_site_fract_x
 _atom_site_fract_y
 _atom_site_fract_z
 _atom_site_occupancy
  Ca  Ca0  1  0.329060  0.829060  0.500000  1
  Dy  Dy1  1  0.668869  0.168869  0.500000  1
  Dy  Dy2  1  0.169003  0.331264  0.500000  1
  Dy  Dy3  1  0.831264  0.669003  0.500000  1
  Pb  Pb4  1  0.002615  0.000249  0.000000  1
  Pb  Pb5  1  0.500249  0.502615  0.000000  1
  Au  Au6  1  0.121126  0.621126  0.000000  1
  Au  Au7  1  0.628513  0.877024  0.000000  1
  Au  Au8  1  0.377024  0.128513  0.000000  1
  Au  Au9  1  0.872276  0.372276  0.000000  1
