# generated using pymatgen
data_Er2UAlGa2Ir3
_symmetry_space_group_name_H-M   'P 1'
_cell_length_a   7.15780554
_cell_length_b   7.24322596
_cell_length_c   3.82992000
_cell_angle_alpha   90.00000000
_cell_angle_beta   90.00000000
_cell_angle_gamma   120.39556675
_symmetry_Int_Tables_number   1
_chemical_formula_structural   Er2UAlGa2Ir3
_chemical_formula_sum   'Er2 U1 Al1 Ga2 Ir3'
_cell_volume   171.27237939
_cell_formula_units_Z   1
loop_
 _symmetry_equiv_pos_site_id
 _symmetry_equiv_pos_as_xyz
  1  'x, y, z'
loop_
 _atom_site_type_symbol
 _atom_site_label
 _atom_site_symmetry_multiplicity
 _atom_site_fract_x
 _atom_site_fract_y
 _atom_site_fract_z
 _atom_site_occupancy
  Er  Er0  1  0.410027  0.412275  0.500000  1
  Er  Er1  1  0.589973  0.002248  0.500000  1
  U  U2  1  0.000000  0.583721  0.500000  1
  Al  Al3  1  0.000000  0.230895  0.000000  1
  Ga  Ga4  1  0.737014  0.750231  0.000000  1
  Ga  Ga5  1  0.262986  0.013217  0.000000  1
  Ir  Ir6  1  0.702667  0.359592  0.000000  1
  Ir  Ir7  1  0.297333  0.656926  0.000000  1
  Ir  Ir8  1  0.000000  0.990894  0.500000  1
