# generated using pymatgen
data_Nd2Zr3Si4
_symmetry_space_group_name_H-M   'P 1'
_cell_length_a   7.45022300
_cell_length_b   7.24108551
_cell_length_c   7.43295285
_cell_angle_alpha   71.90588858
_cell_angle_beta   90.00000000
_cell_angle_gamma   90.00000000
_symmetry_Int_Tables_number   1
_chemical_formula_structural   Nd2Zr3Si4
_chemical_formula_sum   'Nd4 Zr6 Si8'
_cell_volume   381.16079298
_cell_formula_units_Z   2
loop_
 _symmetry_equiv_pos_site_id
 _symmetry_equiv_pos_as_xyz
  1  'x, y, z'
loop_
 _atom_site_type_symbol
 _atom_site_label
 _atom_site_symmetry_multiplicity
 _atom_site_fract_x
 _atom_site_fract_y
 _atom_site_fract_z
 _atom_site_occupancy
  Nd  Nd0  1  0.670648  0.925471  0.690909  1
  Nd  Nd1  1  0.329352  0.074529  0.309091  1
  Nd  Nd2  1  0.170648  0.574529  0.309091  1
  Nd  Nd3  1  0.829352  0.425471  0.690909  1
  Zr  Zr4  1  0.678461  0.750448  0.246360  1
  Zr  Zr5  1  0.321539  0.249552  0.753640  1
  Zr  Zr6  1  0.178461  0.749552  0.753640  1
  Zr  Zr7  1  0.821539  0.250448  0.246360  1
  Zr  Zr8  1  0.000000  0.000000  0.000000  1
  Zr  Zr9  1  0.500000  0.500000  0.000000  1
  Si  Si10  1  0.964794  0.875806  0.416902  1
  Si  Si11  1  0.035206  0.124194  0.583098  1
  Si  Si12  1  0.464794  0.624194  0.583098  1
  Si  Si13  1  0.535206  0.375806  0.416902  1
  Si  Si14  1  0.878196  0.627830  0.995534  1
  Si  Si15  1  0.121804  0.372170  0.004466  1
  Si  Si16  1  0.378196  0.872170  0.004466  1
  Si  Si17  1  0.621804  0.127830  0.995534  1
