# generated using pymatgen
data_Pr2Re13Mo4C3
_symmetry_space_group_name_H-M   'P 1'
_cell_length_a   7.09208618
_cell_length_b   7.09208645
_cell_length_c   7.11137724
_cell_angle_alpha   82.82860224
_cell_angle_beta   82.82860462
_cell_angle_gamma   82.88479363
_symmetry_Int_Tables_number   1
_chemical_formula_structural   Pr2Re13Mo4C3
_chemical_formula_sum   'Pr2 Re13 Mo4 C3'
_cell_volume   349.97493262
_cell_formula_units_Z   1
loop_
 _symmetry_equiv_pos_site_id
 _symmetry_equiv_pos_as_xyz
  1  'x, y, z'
loop_
 _atom_site_type_symbol
 _atom_site_label
 _atom_site_symmetry_multiplicity
 _atom_site_fract_x
 _atom_site_fract_y
 _atom_site_fract_z
 _atom_site_occupancy
  Pr  Pr0  1  0.649270  0.649270  0.649395  1
  Pr  Pr1  1  0.350730  0.350730  0.350605  1
  Re  Re2  1  0.000000  0.000000  0.500000  1
  Re  Re3  1  0.500000  0.000000  0.000000  1
  Re  Re4  1  0.000000  0.500000  0.000000  1
  Re  Re5  1  0.716864  0.283136  0.000000  1
  Re  Re6  1  0.001610  0.719699  0.281264  1
  Re  Re7  1  0.280301  0.998390  0.718736  1
  Re  Re8  1  0.998390  0.280301  0.718736  1
  Re  Re9  1  0.719699  0.001610  0.281264  1
  Re  Re10  1  0.283136  0.716864  0.000000  1
  Re  Re11  1  0.863267  0.346669  0.347861  1
  Re  Re12  1  0.346669  0.863267  0.347861  1
  Re  Re13  1  0.136733  0.653331  0.652139  1
  Re  Re14  1  0.653331  0.136733  0.652139  1
  Mo  Mo15  1  0.344200  0.344200  0.859848  1
  Mo  Mo16  1  0.655800  0.655800  0.140152  1
  Mo  Mo17  1  0.902880  0.902880  0.900679  1
  Mo  Mo18  1  0.097120  0.097120  0.099321  1
  C  C19  1  0.500000  0.500000  0.000000  1
  C  C20  1  0.000000  0.500000  0.500000  1
  C  C21  1  0.500000  0.000000  0.500000  1
