# generated using pymatgen
data_LiMn6Ga5Pt12
_symmetry_space_group_name_H-M   'P 1'
_cell_length_a   4.04235700
_cell_length_b   7.25117300
_cell_length_c   12.07273700
_cell_angle_alpha   90.00012966
_cell_angle_beta   90.00010884
_cell_angle_gamma   90.00003788
_symmetry_Int_Tables_number   1
_chemical_formula_structural   LiMn6Ga5Pt12
_chemical_formula_sum   'Li1 Mn6 Ga5 Pt12'
_cell_volume   353.87401379
_cell_formula_units_Z   1
loop_
 _symmetry_equiv_pos_site_id
 _symmetry_equiv_pos_as_xyz
  1  'x, y, z'
loop_
 _atom_site_type_symbol
 _atom_site_label
 _atom_site_symmetry_multiplicity
 _atom_site_fract_x
 _atom_site_fract_y
 _atom_site_fract_z
 _atom_site_occupancy
  Li  Li0  1  0.000000  0.499999  0.999998  1
  Mn  Mn1  1  0.000000  0.999999  0.000001  1
  Mn  Mn2  1  0.500030  0.499999  0.160933  1
  Mn  Mn3  1  0.000013  0.999999  0.333061  1
  Mn  Mn4  1  0.500002  0.500004  0.500013  1
  Mn  Mn5  1  0.999991  0.000001  0.666936  1
  Mn  Mn6  1  0.499967  0.500002  0.839054  1
  Ga  Ga7  1  0.500024  0.000000  0.166138  1
  Ga  Ga8  1  0.000018  0.500001  0.330180  1
  Ga  Ga9  1  0.500000  0.000000  0.500002  1
  Ga  Ga10  1  0.999982  0.500000  0.669821  1
  Ga  Ga11  1  0.499981  0.000000  0.833882  1
  Pt  Pt12  1  0.499999  0.246843  0.999987  1
  Pt  Pt13  1  0.499999  0.753157  0.999987  1
  Pt  Pt14  1  0.000020  0.249246  0.165927  1
  Pt  Pt15  1  0.000015  0.750751  0.165927  1
  Pt  Pt16  1  0.500009  0.250361  0.333497  1
  Pt  Pt17  1  0.500009  0.749639  0.333499  1
  Pt  Pt18  1  0.999999  0.250518  0.500013  1
  Pt  Pt19  1  0.999999  0.749483  0.500009  1
  Pt  Pt20  1  0.499992  0.250345  0.666512  1
  Pt  Pt21  1  0.499990  0.749654  0.666513  1
  Pt  Pt22  1  0.999979  0.249253  0.834052  1
  Pt  Pt23  1  0.999984  0.750742  0.834052  1
