# generated using pymatgen
data_Y5HoEr14(Cd3Ru)2
_symmetry_space_group_name_H-M   'P 1'
_cell_length_a   9.56099100
_cell_length_b   9.56099072
_cell_length_c   9.79389800
_cell_angle_alpha   89.99995420
_cell_angle_beta   90.00004737
_cell_angle_gamma   119.98895236
_symmetry_Int_Tables_number   1
_chemical_formula_structural   Y5HoEr14(Cd3Ru)2
_chemical_formula_sum   'Y5 Ho1 Er14 Cd6 Ru2'
_cell_volume   775.42598629
_cell_formula_units_Z   1
loop_
 _symmetry_equiv_pos_site_id
 _symmetry_equiv_pos_as_xyz
  1  'x, y, z'
loop_
 _atom_site_type_symbol
 _atom_site_label
 _atom_site_symmetry_multiplicity
 _atom_site_fract_x
 _atom_site_fract_y
 _atom_site_fract_z
 _atom_site_occupancy
  Y  Y0  1  0.540860  0.082000  0.250000  1
  Y  Y1  1  0.918000  0.459140  0.250000  1
  Y  Y2  1  0.459215  0.540785  0.750000  1
  Y  Y3  1  0.459173  0.918476  0.750000  1
  Y  Y4  1  0.081524  0.540827  0.750000  1
  Ho  Ho5  1  0.540531  0.459469  0.250000  1
  Er  Er6  1  0.000034  0.999966  0.500006  1
  Er  Er7  1  0.000034  0.999966  0.999994  1
  Er  Er8  1  0.209876  0.790124  0.439938  1
  Er  Er9  1  0.210160  0.419672  0.439796  1
  Er  Er10  1  0.580328  0.789840  0.439796  1
  Er  Er11  1  0.790206  0.209794  0.560241  1
  Er  Er12  1  0.789890  0.580229  0.559978  1
  Er  Er13  1  0.419771  0.210110  0.559978  1
  Er  Er14  1  0.790206  0.209794  0.939759  1
  Er  Er15  1  0.789890  0.580229  0.940023  1
  Er  Er16  1  0.419771  0.210110  0.940023  1
  Er  Er17  1  0.209876  0.790124  0.060062  1
  Er  Er18  1  0.210160  0.419672  0.060204  1
  Er  Er19  1  0.580328  0.789840  0.060204  1
  Cd  Cd20  1  0.885738  0.114262  0.250000  1
  Cd  Cd21  1  0.885236  0.771017  0.250000  1
  Cd  Cd22  1  0.228983  0.114764  0.250000  1
  Cd  Cd23  1  0.114340  0.885660  0.750000  1
  Cd  Cd24  1  0.114211  0.228565  0.750000  1
  Cd  Cd25  1  0.771435  0.885789  0.750000  1
  Ru  Ru26  1  0.333505  0.666495  0.250000  1
  Ru  Ru27  1  0.666715  0.333285  0.750000  1
