# generated using pymatgen
data_YPu(AlC)6
_symmetry_space_group_name_H-M   'P 1'
_cell_length_a   3.43523100
_cell_length_b   3.43523134
_cell_length_c   17.34874300
_cell_angle_alpha   90.00000000
_cell_angle_beta   90.00000000
_cell_angle_gamma   119.99998706
_symmetry_Int_Tables_number   1
_chemical_formula_structural   YPu(AlC)6
_chemical_formula_sum   'Y1 Pu1 Al6 C6'
_cell_volume   177.30077661
_cell_formula_units_Z   1
loop_
 _symmetry_equiv_pos_site_id
 _symmetry_equiv_pos_as_xyz
  1  'x, y, z'
loop_
 _atom_site_type_symbol
 _atom_site_label
 _atom_site_symmetry_multiplicity
 _atom_site_fract_x
 _atom_site_fract_y
 _atom_site_fract_z
 _atom_site_occupancy
  Y  Y0  1  0.000000  0.000000  0.502419  1
  Pu  Pu1  1  0.000000  0.000000  0.002318  1
  Al  Al2  1  0.666667  0.333333  0.635287  1
  Al  Al3  1  0.333333  0.666667  0.136669  1
  Al  Al4  1  0.666667  0.333333  0.868105  1
  Al  Al5  1  0.333333  0.666667  0.369414  1
  Al  Al6  1  0.666667  0.333333  0.260157  1
  Al  Al7  1  0.333333  0.666667  0.747579  1
  C  C8  1  0.666667  0.333333  0.405361  1
  C  C9  1  0.333333  0.666667  0.910736  1
  C  C10  1  0.666667  0.333333  0.092135  1
  C  C11  1  0.333333  0.666667  0.597589  1
  C  C12  1  0.666667  0.333333  0.752281  1
  C  C13  1  0.333333  0.666667  0.252152  1
