# generated using pymatgen
data_Sr6ErTmSb6
_symmetry_space_group_name_H-M   'P 1'
_cell_length_a   8.45416478
_cell_length_b   8.45428422
_cell_length_c   8.50206858
_cell_angle_alpha   109.29483517
_cell_angle_beta   109.31240226
_cell_angle_gamma   108.93823235
_symmetry_Int_Tables_number   1
_chemical_formula_structural   Sr6ErTmSb6
_chemical_formula_sum   'Sr6 Er1 Tm1 Sb6'
_cell_volume   472.73021588
_cell_formula_units_Z   1
loop_
 _symmetry_equiv_pos_site_id
 _symmetry_equiv_pos_as_xyz
  1  'x, y, z'
loop_
 _atom_site_type_symbol
 _atom_site_label
 _atom_site_symmetry_multiplicity
 _atom_site_fract_x
 _atom_site_fract_y
 _atom_site_fract_z
 _atom_site_occupancy
  Sr  Sr0  1  0.999836  0.135910  0.495752  1
  Sr  Sr1  1  0.359768  0.357108  0.359538  1
  Sr  Sr2  1  0.636002  0.499858  0.995827  1
  Sr  Sr3  1  0.857059  0.859637  0.859376  1
  Sr  Sr4  1  0.502209  0.003855  0.644724  1
  Sr  Sr5  1  0.503963  0.002356  0.144755  1
  Er  Er6  1  0.135738  0.499456  0.997503  1
  Tm  Tm7  1  0.999537  0.635528  0.497570  1
  Sb  Sb8  1  0.241100  0.123009  0.870323  1
  Sb  Sb9  1  0.123360  0.850985  0.247001  1
  Sb  Sb10  1  0.776005  0.391704  0.635099  1
  Sb  Sb11  1  0.891519  0.276084  0.135563  1
  Sb  Sb12  1  0.623275  0.741137  0.370423  1
  Sb  Sb13  1  0.350630  0.623372  0.746546  1
