# generated using pymatgen
data_Ba4SrNp3O12
_symmetry_space_group_name_H-M   'P 1'
_cell_length_a   6.28424441
_cell_length_b   6.30877112
_cell_length_c   8.87470300
_cell_angle_alpha   90.40774550
_cell_angle_beta   89.97923063
_cell_angle_gamma   89.91876466
_symmetry_Int_Tables_number   1
_chemical_formula_structural   Ba4SrNp3O12
_chemical_formula_sum   'Ba4 Sr1 Np3 O12'
_cell_volume   351.83594193
_cell_formula_units_Z   1
loop_
 _symmetry_equiv_pos_site_id
 _symmetry_equiv_pos_as_xyz
  1  'x, y, z'
loop_
 _atom_site_type_symbol
 _atom_site_label
 _atom_site_symmetry_multiplicity
 _atom_site_fract_x
 _atom_site_fract_y
 _atom_site_fract_z
 _atom_site_occupancy
  Ba  Ba0  1  0.018989  0.992493  0.750308  1
  Ba  Ba1  1  0.479721  0.486570  0.250528  1
  Ba  Ba2  1  0.520279  0.513430  0.749472  1
  Ba  Ba3  1  0.981012  0.007507  0.249692  1
  Sr  Sr4  1  0.000000  0.500000  0.000000  1
  Np  Np5  1  0.000000  0.500000  0.500000  1
  Np  Np6  1  0.500000  0.000000  0.500000  1
  Np  Np7  1  0.500000  0.000000  0.000000  1
  O  O8  1  0.245607  0.203576  0.045525  1
  O  O9  1  0.512747  0.921996  0.256853  1
  O  O10  1  0.729184  0.261219  0.456446  1
  O  O11  1  0.705742  0.252490  0.044585  1
  O  O12  1  0.764604  0.768762  0.541870  1
  O  O13  1  0.014604  0.575627  0.276468  1
  O  O14  1  0.235396  0.231238  0.458130  1
  O  O15  1  0.294258  0.747510  0.955415  1
  O  O16  1  0.270816  0.738781  0.543554  1
  O  O17  1  0.487253  0.078004  0.743147  1
  O  O18  1  0.754393  0.796424  0.954475  1
  O  O19  1  0.985396  0.424373  0.723532  1
