# generated using pymatgen
data_Zr2Nb4Si7Ni16
_symmetry_space_group_name_H-M   'P 1'
_cell_length_a   8.00576400
_cell_length_b   8.01783895
_cell_length_c   8.01783973
_cell_angle_alpha   59.84079182
_cell_angle_beta   60.04981024
_cell_angle_gamma   60.04980730
_symmetry_Int_Tables_number   1
_chemical_formula_structural   Zr2Nb4Si7Ni16
_chemical_formula_sum   'Zr2 Nb4 Si7 Ni16'
_cell_volume   363.74998086
_cell_formula_units_Z   1
loop_
 _symmetry_equiv_pos_site_id
 _symmetry_equiv_pos_as_xyz
  1  'x, y, z'
loop_
 _atom_site_type_symbol
 _atom_site_label
 _atom_site_symmetry_multiplicity
 _atom_site_fract_x
 _atom_site_fract_y
 _atom_site_fract_z
 _atom_site_occupancy
  Zr  Zr0  1  0.796307  0.794422  0.205578  1
  Zr  Zr1  1  0.796307  0.205578  0.794422  1
  Nb  Nb2  1  0.204576  0.798385  0.201615  1
  Nb  Nb3  1  0.795923  0.206425  0.206425  1
  Nb  Nb4  1  0.208772  0.793575  0.793575  1
  Nb  Nb5  1  0.204576  0.201615  0.798385  1
  Si  Si6  1  0.503025  0.500000  0.500000  1
  Si  Si7  1  0.497366  0.003198  0.501922  1
  Si  Si8  1  0.002487  0.498078  0.996802  1
  Si  Si9  1  0.002487  0.996802  0.498078  1
  Si  Si10  1  0.495240  0.000000  0.000000  1
  Si  Si11  1  0.006317  0.500000  0.500000  1
  Si  Si12  1  0.497366  0.501922  0.003198  1
  Ni  Ni13  1  0.168046  0.168503  0.494875  1
  Ni  Ni14  1  0.493898  0.168677  0.168677  1
  Ni  Ni15  1  0.168115  0.168621  0.168621  1
  Ni  Ni16  1  0.505356  0.831379  0.831379  1
  Ni  Ni17  1  0.831251  0.831323  0.831323  1
  Ni  Ni18  1  0.831423  0.831497  0.505125  1
  Ni  Ni19  1  0.168046  0.494875  0.168503  1
  Ni  Ni20  1  0.615188  0.148941  0.615547  1
  Ni  Ni21  1  0.379676  0.384453  0.851059  1
  Ni  Ni22  1  0.853183  0.380382  0.380382  1
  Ni  Ni23  1  0.383683  0.383735  0.383735  1
  Ni  Ni24  1  0.151153  0.616265  0.616265  1
  Ni  Ni25  1  0.613946  0.619618  0.619618  1
  Ni  Ni26  1  0.615188  0.615547  0.148941  1
  Ni  Ni27  1  0.379676  0.851059  0.384453  1
  Ni  Ni28  1  0.831423  0.505125  0.831497  1
