# generated using pymatgen
data_Tb3Yb3Si24IrRu7
_symmetry_space_group_name_H-M   'P 1'
_cell_length_a   10.11946786
_cell_length_b   10.11946767
_cell_length_c   8.13738205
_cell_angle_alpha   90.00703982
_cell_angle_beta   90.00704210
_cell_angle_gamma   132.60698170
_symmetry_Int_Tables_number   1
_chemical_formula_structural   Tb3Yb3Si24IrRu7
_chemical_formula_sum   'Tb3 Yb3 Si24 Ir1 Ru7'
_cell_volume   613.31905745
_cell_formula_units_Z   1
loop_
 _symmetry_equiv_pos_site_id
 _symmetry_equiv_pos_as_xyz
  1  'x, y, z'
loop_
 _atom_site_type_symbol
 _atom_site_label
 _atom_site_symmetry_multiplicity
 _atom_site_fract_x
 _atom_site_fract_y
 _atom_site_fract_z
 _atom_site_occupancy
  Tb  Tb0  1  0.999740  0.000260  0.000000  1
  Tb  Tb1  1  0.496507  0.995634  0.249140  1
  Tb  Tb2  1  0.004366  0.503493  0.750860  1
  Yb  Yb3  1  0.499613  0.500387  0.500000  1
  Yb  Yb4  1  0.501278  0.000689  0.750019  1
  Yb  Yb5  1  0.999311  0.498722  0.249981  1
  Si  Si6  1  0.796639  0.203361  0.500000  1
  Si  Si7  1  0.295315  0.704685  0.000000  1
  Si  Si8  1  0.205514  0.794486  0.500000  1
  Si  Si9  1  0.705475  0.294525  0.000000  1
  Si  Si10  1  0.331244  0.337815  0.831498  1
  Si  Si11  1  0.662185  0.668756  0.168502  1
  Si  Si12  1  0.170057  0.166876  0.334187  1
  Si  Si13  1  0.833124  0.829943  0.665813  1
  Si  Si14  1  0.122849  0.889026  0.728793  1
  Si  Si15  1  0.110974  0.877151  0.271207  1
  Si  Si16  1  0.610354  0.378312  0.225606  1
  Si  Si17  1  0.621688  0.389646  0.774394  1
  Si  Si18  1  0.875993  0.109800  0.271783  1
  Si  Si19  1  0.890200  0.124007  0.728217  1
  Si  Si20  1  0.389524  0.622691  0.770316  1
  Si  Si21  1  0.377309  0.610476  0.229684  1
  Si  Si22  1  0.341553  0.109892  0.503636  1
  Si  Si23  1  0.890108  0.658447  0.496364  1
  Si  Si24  1  0.387685  0.154437  0.005876  1
  Si  Si25  1  0.845563  0.612315  0.994124  1
  Si  Si26  1  0.653507  0.885438  0.494087  1
  Si  Si27  1  0.114562  0.346493  0.505913  1
  Si  Si28  1  0.610869  0.844389  0.995513  1
  Si  Si29  1  0.155611  0.389131  0.004487  1
  Ir  Ir30  1  0.669950  0.330050  0.500000  1
  Ru  Ru31  1  0.169603  0.830397  0.000000  1
  Ru  Ru32  1  0.329982  0.670018  0.500000  1
  Ru  Ru33  1  0.830141  0.169859  0.000000  1
  Ru  Ru34  1  0.125192  0.125305  0.627208  1
  Ru  Ru35  1  0.874695  0.874808  0.372792  1
  Ru  Ru36  1  0.373617  0.371897  0.125046  1
  Ru  Ru37  1  0.628103  0.626383  0.874954  1
