# generated using pymatgen
data_Sm3Ho3ScCo17P12
_symmetry_space_group_name_H-M   'P 1'
_cell_length_a   3.72780900
_cell_length_b   10.62739309
_cell_length_c   12.33508110
_cell_angle_alpha   90.01466268
_cell_angle_beta   90.00000000
_cell_angle_gamma   90.00000000
_symmetry_Int_Tables_number   1
_chemical_formula_structural   Sm3Ho3ScCo17P12
_chemical_formula_sum   'Sm3 Ho3 Sc1 Co17 P12'
_cell_volume   488.67755481
_cell_formula_units_Z   1
loop_
 _symmetry_equiv_pos_site_id
 _symmetry_equiv_pos_as_xyz
  1  'x, y, z'
loop_
 _atom_site_type_symbol
 _atom_site_label
 _atom_site_symmetry_multiplicity
 _atom_site_fract_x
 _atom_site_fract_y
 _atom_site_fract_z
 _atom_site_occupancy
  Sm  Sm0  1  0.000000  0.499771  0.528488  1
  Sm  Sm1  1  0.500000  0.000406  0.478120  1
  Sm  Sm2  1  0.500000  0.821314  0.207272  1
  Ho  Ho3  1  0.500000  0.179212  0.206649  1
  Ho  Ho4  1  0.000000  0.681946  0.796600  1
  Ho  Ho5  1  0.000000  0.317636  0.795511  1
  Sc  Sc6  1  0.500000  0.499555  0.151229  1
  Co  Co7  1  0.000000  0.498817  0.983582  1
  Co  Co8  1  0.500000  0.001261  0.011153  1
  Co  Co9  1  0.500000  0.294934  0.433445  1
  Co  Co10  1  0.500000  0.705041  0.435555  1
  Co  Co11  1  0.000000  0.202612  0.571504  1
  Co  Co12  1  0.000000  0.797606  0.573146  1
  Co  Co13  1  0.500000  0.880408  0.710115  1
  Co  Co14  1  0.500000  0.119570  0.709122  1
  Co  Co15  1  0.000000  0.620647  0.297368  1
  Co  Co16  1  0.000000  0.376803  0.294040  1
  Co  Co17  1  0.500000  0.326554  0.989611  1
  Co  Co18  1  0.500000  0.672342  0.988558  1
  Co  Co19  1  0.000000  0.163305  0.000500  1
  Co  Co20  1  0.000000  0.838134  0.000193  1
  Co  Co21  1  0.000000  0.000563  0.838273  1
  Co  Co22  1  0.500000  0.499429  0.705777  1
  Co  Co23  1  0.000000  0.002380  0.293966  1
  P  P24  1  0.500000  0.307125  0.618744  1
  P  P25  1  0.500000  0.692302  0.620150  1
  P  P26  1  0.000000  0.191370  0.385341  1
  P  P27  1  0.000000  0.808557  0.388399  1
  P  P28  1  0.500000  0.499160  0.883150  1
  P  P29  1  0.000000  0.002033  0.113700  1
  P  P30  1  0.500000  0.850874  0.889352  1
  P  P31  1  0.500000  0.149714  0.888435  1
  P  P32  1  0.000000  0.662075  0.098311  1
  P  P33  1  0.000000  0.336499  0.101127  1
  P  P34  1  0.500000  0.500101  0.355837  1
  P  P35  1  0.000000  0.999945  0.657674  1
