# generated using pymatgen
data_Mn2P2S5O
_symmetry_space_group_name_H-M   'P 1'
_cell_length_a   6.01307585
_cell_length_b   6.01341982
_cell_length_c   7.34610545
_cell_angle_alpha   98.25396006
_cell_angle_beta   98.31221179
_cell_angle_gamma   120.96868558
_symmetry_Int_Tables_number   1
_chemical_formula_structural   Mn2P2S5O
_chemical_formula_sum   'Mn2 P2 S5 O1'
_cell_volume   217.80759374
_cell_formula_units_Z   1
loop_
 _symmetry_equiv_pos_site_id
 _symmetry_equiv_pos_as_xyz
  1  'x, y, z'
loop_
 _atom_site_type_symbol
 _atom_site_label
 _atom_site_symmetry_multiplicity
 _atom_site_fract_x
 _atom_site_fract_y
 _atom_site_fract_z
 _atom_site_occupancy
  Mn  Mn0  1  0.651876  0.326008  0.983764  1
  Mn  Mn1  1  0.325989  0.651662  0.983748  1
  P  P2  1  0.972980  0.973054  0.848477  1
  P  P3  1  0.052419  0.052365  0.158644  1
  S  S4  1  0.742653  0.742639  0.226231  1
  S  S5  1  0.612517  0.929338  0.753120  1
  S  S6  1  0.928914  0.612608  0.753219  1
  S  S7  1  0.078693  0.406483  0.233223  1
  S  S8  1  0.406588  0.078461  0.233394  1
  O  O9  1  0.227371  0.227383  0.826179  1
