# generated using pymatgen
data_Dy2NbSb5O18
_symmetry_space_group_name_H-M   'P 1'
_cell_length_a   7.53345167
_cell_length_b   5.37773740
_cell_length_c   8.22389323
_cell_angle_alpha   86.24952644
_cell_angle_beta   89.85708083
_cell_angle_gamma   90.06950365
_symmetry_Int_Tables_number   1
_chemical_formula_structural   Dy2NbSb5O18
_chemical_formula_sum   'Dy2 Nb1 Sb5 O18'
_cell_volume   332.45908656
_cell_formula_units_Z   1
loop_
 _symmetry_equiv_pos_site_id
 _symmetry_equiv_pos_as_xyz
  1  'x, y, z'
loop_
 _atom_site_type_symbol
 _atom_site_label
 _atom_site_symmetry_multiplicity
 _atom_site_fract_x
 _atom_site_fract_y
 _atom_site_fract_z
 _atom_site_occupancy
  Dy  Dy0  1  0.249482  0.966172  0.432015  1
  Dy  Dy1  1  0.750518  0.033828  0.567985  1
  Nb  Nb2  1  0.500000  0.000000  0.000000  1
  Sb  Sb3  1  0.000000  0.000000  0.000000  1
  Sb  Sb4  1  0.005511  0.530305  0.696738  1
  Sb  Sb5  1  0.495133  0.534502  0.694509  1
  Sb  Sb6  1  0.994489  0.469695  0.303262  1
  Sb  Sb7  1  0.504867  0.465498  0.305491  1
  O  O8  1  0.249680  0.899073  0.985621  1
  O  O9  1  0.938754  0.857221  0.779469  1
  O  O10  1  0.565122  0.854583  0.777244  1
  O  O11  1  0.959455  0.738362  0.472962  1
  O  O12  1  0.540200  0.738545  0.470010  1
  O  O13  1  0.249924  0.668754  0.655189  1
  O  O14  1  0.930977  0.675488  0.114309  1
  O  O15  1  0.557251  0.679353  0.118068  1
  O  O16  1  0.249199  0.591923  0.311277  1
  O  O17  1  0.750801  0.408077  0.688723  1
  O  O18  1  0.069023  0.324512  0.885691  1
  O  O19  1  0.442749  0.320647  0.881932  1
  O  O20  1  0.750076  0.331246  0.344811  1
  O  O21  1  0.040545  0.261638  0.527038  1
  O  O22  1  0.459800  0.261455  0.529990  1
  O  O23  1  0.061246  0.142779  0.220531  1
  O  O24  1  0.434878  0.145417  0.222756  1
  O  O25  1  0.750320  0.100927  0.014379  1
