# generated using pymatgen
data_Er3AlFe2Os3
_symmetry_space_group_name_H-M   'P 1'
_cell_length_a   5.25078247
_cell_length_b   5.25663191
_cell_length_c   12.96916528
_cell_angle_alpha   89.95814393
_cell_angle_beta   90.13488500
_cell_angle_gamma   119.86978271
_symmetry_Int_Tables_number   1
_chemical_formula_structural   Er3AlFe2Os3
_chemical_formula_sum   'Er6 Al2 Fe4 Os6'
_cell_volume   310.41404152
_cell_formula_units_Z   2
loop_
 _symmetry_equiv_pos_site_id
 _symmetry_equiv_pos_as_xyz
  1  'x, y, z'
loop_
 _atom_site_type_symbol
 _atom_site_label
 _atom_site_symmetry_multiplicity
 _atom_site_fract_x
 _atom_site_fract_y
 _atom_site_fract_z
 _atom_site_occupancy
  Er  Er0  1  0.336848  0.671089  0.921880  1
  Er  Er1  1  0.999664  0.999482  0.248036  1
  Er  Er2  1  0.675472  0.339304  0.584184  1
  Er  Er3  1  0.324528  0.660696  0.665816  1
  Er  Er4  1  0.000336  0.000518  0.001964  1
  Er  Er5  1  0.663152  0.328911  0.328120  1
  Al  Al6  1  0.670345  0.835892  0.457515  1
  Al  Al7  1  0.329655  0.164108  0.792485  1
  Fe  Fe8  1  0.500000  0.500000  0.125000  1
  Fe  Fe9  1  0.169288  0.837960  0.458472  1
  Fe  Fe10  1  0.830712  0.162040  0.791528  1
  Fe  Fe11  1  0.500000  0.000000  0.125000  1
  Os  Os12  1  0.169798  0.335798  0.456415  1
  Os  Os13  1  0.830202  0.664202  0.793585  1
  Os  Os14  1  0.331828  0.665774  0.291612  1
  Os  Os15  1  0.000000  0.000000  0.625000  1
  Os  Os16  1  0.668172  0.334226  0.958388  1
  Os  Os17  1  0.000000  0.500000  0.125000  1
