# generated using pymatgen
data_Th3Al12Fe3Os
_symmetry_space_group_name_H-M   'P 1'
_cell_length_a   8.87430732
_cell_length_b   8.86987683
_cell_length_c   9.41963200
_cell_angle_alpha   89.99999354
_cell_angle_beta   90.04145633
_cell_angle_gamma   119.98349801
_symmetry_Int_Tables_number   1
_chemical_formula_structural   Th3Al12Fe3Os
_chemical_formula_sum   'Th6 Al24 Fe6 Os2'
_cell_volume   642.22715231
_cell_formula_units_Z   2
loop_
 _symmetry_equiv_pos_site_id
 _symmetry_equiv_pos_as_xyz
  1  'x, y, z'
loop_
 _atom_site_type_symbol
 _atom_site_label
 _atom_site_symmetry_multiplicity
 _atom_site_fract_x
 _atom_site_fract_y
 _atom_site_fract_z
 _atom_site_occupancy
  Th  Th0  1  0.804791  0.195329  0.747744  1
  Th  Th1  1  0.195209  0.804671  0.252256  1
  Th  Th2  1  0.391183  0.195592  0.748314  1
  Th  Th3  1  0.608817  0.804408  0.251686  1
  Th  Th4  1  0.804791  0.609462  0.747744  1
  Th  Th5  1  0.195209  0.390538  0.252256  1
  Al  Al6  1  0.673044  0.336522  0.996611  1
  Al  Al7  1  0.326956  0.663478  0.003389  1
  Al  Al8  1  0.333467  0.666734  0.494943  1
  Al  Al9  1  0.666533  0.333266  0.505057  1
  Al  Al10  1  0.839277  0.161314  0.423247  1
  Al  Al11  1  0.160723  0.838686  0.576753  1
  Al  Al12  1  0.321337  0.160668  0.423314  1
  Al  Al13  1  0.157736  0.838483  0.923714  1
  Al  Al14  1  0.678663  0.839332  0.576686  1
  Al  Al15  1  0.842264  0.161517  0.076286  1
  Al  Al16  1  0.839277  0.677963  0.423247  1
  Al  Al17  1  0.681082  0.840541  0.923284  1
  Al  Al18  1  0.160723  0.322037  0.576753  1
  Al  Al19  1  0.318918  0.159459  0.076716  1
  Al  Al20  1  0.157736  0.319253  0.923714  1
  Al  Al21  1  0.842264  0.680747  0.076286  1
  Al  Al22  1  0.437056  0.562997  0.744929  1
  Al  Al23  1  0.562944  0.437003  0.255071  1
  Al  Al24  1  0.123093  0.561547  0.749532  1
  Al  Al25  1  0.876907  0.438453  0.250468  1
  Al  Al26  1  0.437056  0.874059  0.744929  1
  Al  Al27  1  0.562944  0.125941  0.255071  1
  Al  Al28  1  0.999771  0.999886  0.750409  1
  Al  Al29  1  0.000229  0.000114  0.249591  1
  Fe  Fe30  1  0.000000  0.500000  0.000000  1
  Fe  Fe31  1  0.500000  0.500000  0.500000  1
  Fe  Fe32  1  0.000000  0.500000  0.500000  1
  Fe  Fe33  1  0.500000  0.000000  0.500000  1
  Fe  Fe34  1  0.000000  0.000000  0.000000  1
  Fe  Fe35  1  0.000000  0.000000  0.500000  1
  Os  Os36  1  0.500000  0.500000  0.000000  1
  Os  Os37  1  0.500000  0.000000  0.000000  1
