# generated using pymatgen
data_Ho5Tm4ZrRh6
_symmetry_space_group_name_H-M   'P 1'
_cell_length_a   10.79547853
_cell_length_b   10.77727500
_cell_length_c   6.27370500
_cell_angle_alpha   90.00000000
_cell_angle_beta   90.01794958
_cell_angle_gamma   90.00000000
_symmetry_Int_Tables_number   1
_chemical_formula_structural   Ho5Tm4ZrRh6
_chemical_formula_sum   'Ho10 Tm8 Zr2 Rh12'
_cell_volume   729.91944779
_cell_formula_units_Z   2
loop_
 _symmetry_equiv_pos_site_id
 _symmetry_equiv_pos_as_xyz
  1  'x, y, z'
loop_
 _atom_site_type_symbol
 _atom_site_label
 _atom_site_symmetry_multiplicity
 _atom_site_fract_x
 _atom_site_fract_y
 _atom_site_fract_z
 _atom_site_occupancy
  Ho  Ho0  1  0.287800  0.087409  0.374383  1
  Ho  Ho1  1  0.287800  0.912591  0.874383  1
  Ho  Ho2  1  0.712157  0.087418  0.874495  1
  Ho  Ho3  1  0.712157  0.912582  0.374495  1
  Ho  Ho4  1  0.588640  0.791280  0.874938  1
  Ho  Ho5  1  0.588640  0.208720  0.374938  1
  Ho  Ho6  1  0.411756  0.791583  0.374968  1
  Ho  Ho7  1  0.411756  0.208417  0.874968  1
  Ho  Ho8  1  0.207850  0.412022  0.624920  1
  Ho  Ho9  1  0.207850  0.587978  0.124920  1
  Tm  Tm10  1  0.792626  0.412471  0.124374  1
  Tm  Tm11  1  0.792626  0.587529  0.624374  1
  Tm  Tm12  1  0.913361  0.710718  0.124672  1
  Tm  Tm13  1  0.913361  0.289282  0.624672  1
  Tm  Tm14  1  0.085797  0.710964  0.624661  1
  Tm  Tm15  1  0.085797  0.289036  0.124661  1
  Tm  Tm16  1  0.500501  0.499887  0.000772  1
  Tm  Tm17  1  0.500501  0.500113  0.500772  1
  Zr  Zr18  1  0.999916  0.000017  0.500727  1
  Zr  Zr19  1  0.999916  0.999983  0.000727  1
  Rh  Rh20  1  0.855256  0.147041  0.250408  1
  Rh  Rh21  1  0.855256  0.852959  0.750408  1
  Rh  Rh22  1  0.144609  0.146547  0.750810  1
  Rh  Rh23  1  0.144609  0.853453  0.250810  1
  Rh  Rh24  1  0.655784  0.346758  0.750498  1
  Rh  Rh25  1  0.655784  0.653242  0.250498  1
  Rh  Rh26  1  0.345131  0.345849  0.249479  1
  Rh  Rh27  1  0.345131  0.654151  0.749479  1
  Rh  Rh28  1  0.500077  0.000099  0.122849  1
  Rh  Rh29  1  0.500077  0.999901  0.622849  1
  Rh  Rh30  1  0.998739  0.500010  0.877045  1
  Rh  Rh31  1  0.998739  0.499990  0.377045  1
