# generated using pymatgen
data_Nd4GeAsS2
_symmetry_space_group_name_H-M   'P 1'
_cell_length_a   7.21844370
_cell_length_b   7.21844538
_cell_length_c   7.21844500
_cell_angle_alpha   132.02890112
_cell_angle_beta   132.02891311
_cell_angle_gamma   70.18337557
_symmetry_Int_Tables_number   1
_chemical_formula_structural   Nd4GeAsS2
_chemical_formula_sum   'Nd4 Ge1 As1 S2'
_cell_volume   203.42402759
_cell_formula_units_Z   1
loop_
 _symmetry_equiv_pos_site_id
 _symmetry_equiv_pos_as_xyz
  1  'x, y, z'
loop_
 _atom_site_type_symbol
 _atom_site_label
 _atom_site_symmetry_multiplicity
 _atom_site_fract_x
 _atom_site_fract_y
 _atom_site_fract_z
 _atom_site_occupancy
  Nd  Nd0  1  0.747925  0.747925  0.000000  1
  Nd  Nd1  1  0.252076  0.252076  0.000000  1
  Nd  Nd2  1  0.998597  0.498597  0.500000  1
  Nd  Nd3  1  0.501403  0.001403  0.500000  1
  Ge  Ge4  1  0.000000  0.000000  0.000000  1
  As  As5  1  0.250000  0.750000  0.500000  1
  S  S6  1  0.500000  0.500000  0.000000  1
  S  S7  1  0.750000  0.250000  0.500000  1
