# generated using pymatgen
data_Tb4Fe5Co11(P3Ru)4
_symmetry_space_group_name_H-M   'P 1'
_cell_length_a   3.72416500
_cell_length_b   10.34041752
_cell_length_c   11.85862825
_cell_angle_alpha   89.88199270
_cell_angle_beta   90.00000000
_cell_angle_gamma   90.00000000
_symmetry_Int_Tables_number   1
_chemical_formula_structural   Tb4Fe5Co11(P3Ru)4
_chemical_formula_sum   'Tb4 Fe5 Co11 P12 Ru4'
_cell_volume   456.66793916
_cell_formula_units_Z   1
loop_
 _symmetry_equiv_pos_site_id
 _symmetry_equiv_pos_as_xyz
  1  'x, y, z'
loop_
 _atom_site_type_symbol
 _atom_site_label
 _atom_site_symmetry_multiplicity
 _atom_site_fract_x
 _atom_site_fract_y
 _atom_site_fract_z
 _atom_site_occupancy
  Tb  Tb0  1  0.250000  0.581496  0.704351  1
  Tb  Tb1  1  0.250000  0.917149  0.204604  1
  Tb  Tb2  1  0.750000  0.417140  0.296001  1
  Tb  Tb3  1  0.750000  0.083887  0.795458  1
  Fe  Fe4  1  0.750000  0.381874  0.797693  1
  Fe  Fe5  1  0.250000  0.463245  0.934957  1
  Fe  Fe6  1  0.250000  0.036638  0.432567  1
  Fe  Fe7  1  0.750000  0.537450  0.067948  1
  Fe  Fe8  1  0.750000  0.963092  0.567446  1
  Co  Co9  1  0.250000  0.407152  0.488062  1
  Co  Co10  1  0.250000  0.093619  0.988462  1
  Co  Co11  1  0.750000  0.592667  0.510380  1
  Co  Co12  1  0.750000  0.907197  0.010891  1
  Co  Co13  1  0.250000  0.223570  0.174203  1
  Co  Co14  1  0.250000  0.275365  0.672132  1
  Co  Co15  1  0.750000  0.775613  0.826073  1
  Co  Co16  1  0.750000  0.723696  0.325511  1
  Co  Co17  1  0.250000  0.882549  0.703397  1
  Co  Co18  1  0.250000  0.617434  0.203308  1
  Co  Co19  1  0.750000  0.117103  0.296444  1
  P  P20  1  0.250000  0.424414  0.113568  1
  P  P21  1  0.250000  0.074704  0.612387  1
  P  P22  1  0.750000  0.573302  0.886796  1
  P  P23  1  0.750000  0.924771  0.387477  1
  P  P24  1  0.250000  0.273381  0.861073  1
  P  P25  1  0.250000  0.229325  0.364033  1
  P  P26  1  0.750000  0.729971  0.135971  1
  P  P27  1  0.750000  0.770420  0.636104  1
  P  P28  1  0.250000  0.598184  0.391260  1
  P  P29  1  0.250000  0.902018  0.891321  1
  P  P30  1  0.750000  0.401757  0.610333  1
  P  P31  1  0.750000  0.098283  0.108268  1
  Ru  Ru32  1  0.250000  0.711696  0.991051  1
  Ru  Ru33  1  0.250000  0.787505  0.490891  1
  Ru  Ru34  1  0.750000  0.289795  0.010571  1
  Ru  Ru35  1  0.750000  0.212537  0.509008  1
