# generated using pymatgen
data_YbBeB2O5
_symmetry_space_group_name_H-M   'P 1'
_cell_length_a   3.74999100
_cell_length_b   5.18894205
_cell_length_c   17.18196120
_cell_angle_alpha   80.32991680
_cell_angle_beta   90.00000000
_cell_angle_gamma   90.00000000
_symmetry_Int_Tables_number   1
_chemical_formula_structural   YbBeB2O5
_chemical_formula_sum   'Yb4 Be4 B8 O20'
_cell_volume   329.58448993
_cell_formula_units_Z   4
loop_
 _symmetry_equiv_pos_site_id
 _symmetry_equiv_pos_as_xyz
  1  'x, y, z'
loop_
 _atom_site_type_symbol
 _atom_site_label
 _atom_site_symmetry_multiplicity
 _atom_site_fract_x
 _atom_site_fract_y
 _atom_site_fract_z
 _atom_site_occupancy
  Yb  Yb0  1  0.886436  0.729281  0.575785  1
  Yb  Yb1  1  0.113564  0.270719  0.424215  1
  Yb  Yb2  1  0.386436  0.270719  0.924215  1
  Yb  Yb3  1  0.613564  0.729281  0.075785  1
  Be  Be4  1  0.763695  0.604851  0.789839  1
  Be  Be5  1  0.263695  0.395149  0.710161  1
  Be  Be6  1  0.736305  0.604851  0.289839  1
  Be  Be7  1  0.236305  0.395149  0.210161  1
  B  B8  1  0.745980  0.096497  0.787878  1
  B  B9  1  0.029867  0.794031  0.906150  1
  B  B10  1  0.245980  0.903503  0.712122  1
  B  B11  1  0.254020  0.903503  0.212122  1
  B  B12  1  0.970133  0.205969  0.093850  1
  B  B13  1  0.529867  0.205969  0.593850  1
  B  B14  1  0.470133  0.794031  0.406150  1
  B  B15  1  0.754020  0.096497  0.287878  1
  O  O16  1  0.404689  0.957787  0.631659  1
  O  O17  1  0.426484  0.428122  0.622065  1
  O  O18  1  0.017175  0.128864  0.723318  1
  O  O19  1  0.748669  0.207691  0.531040  1
  O  O20  1  0.095311  0.957787  0.131659  1
  O  O21  1  0.251331  0.792309  0.468960  1
  O  O22  1  0.046367  0.659553  0.716506  1
  O  O23  1  0.751331  0.207691  0.031040  1
  O  O24  1  0.517175  0.871136  0.776682  1
  O  O25  1  0.953633  0.340447  0.283494  1
  O  O26  1  0.073516  0.428122  0.122065  1
  O  O27  1  0.573516  0.571878  0.377935  1
  O  O28  1  0.248669  0.792309  0.968960  1
  O  O29  1  0.982825  0.871136  0.276682  1
  O  O30  1  0.904689  0.042213  0.868341  1
  O  O31  1  0.453633  0.659553  0.216506  1
  O  O32  1  0.595311  0.042213  0.368341  1
  O  O33  1  0.482825  0.128864  0.223318  1
  O  O34  1  0.546367  0.340447  0.783494  1
  O  O35  1  0.926484  0.571878  0.877935  1
