# generated using pymatgen
data_LaPr3(IO4)4
_symmetry_space_group_name_H-M   'P 1'
_cell_length_a   5.74937699
_cell_length_b   5.75885461
_cell_length_c   11.16757100
_cell_angle_alpha   90.03386695
_cell_angle_beta   89.72135179
_cell_angle_gamma   90.08010531
_symmetry_Int_Tables_number   1
_chemical_formula_structural   LaPr3(IO4)4
_chemical_formula_sum   'La1 Pr3 I4 O16'
_cell_volume   369.75153770
_cell_formula_units_Z   1
loop_
 _symmetry_equiv_pos_site_id
 _symmetry_equiv_pos_as_xyz
  1  'x, y, z'
loop_
 _atom_site_type_symbol
 _atom_site_label
 _atom_site_symmetry_multiplicity
 _atom_site_fract_x
 _atom_site_fract_y
 _atom_site_fract_z
 _atom_site_occupancy
  La  La0  1  0.993622  0.316568  0.107906  1
  Pr  Pr1  1  0.493526  0.316215  0.890771  1
  Pr  Pr2  1  0.504890  0.815793  0.107689  1
  Pr  Pr3  1  0.005334  0.816654  0.890889  1
  I  I4  1  0.003963  0.326340  0.634213  1
  I  I5  1  0.996199  0.826692  0.366095  1
  I  I6  1  0.497219  0.825997  0.633972  1
  I  I7  1  0.503331  0.325560  0.366907  1
  O  O8  1  0.244118  0.066523  0.006317  1
  O  O9  1  0.753223  0.566295  0.992364  1
  O  O10  1  0.254041  0.567395  0.005301  1
  O  O11  1  0.743703  0.066069  0.992310  1
  O  O12  1  0.129574  0.431320  0.775814  1
  O  O13  1  0.868611  0.926973  0.224282  1
  O  O14  1  0.369060  0.931773  0.775317  1
  O  O15  1  0.627217  0.433046  0.224915  1
  O  O16  1  0.846934  0.084603  0.712177  1
  O  O17  1  0.157091  0.587075  0.289052  1
  O  O18  1  0.652545  0.584798  0.712106  1
  O  O19  1  0.351028  0.080902  0.289851  1
  O  O20  1  0.245551  0.164403  0.563429  1
  O  O21  1  0.756536  0.662745  0.437944  1
  O  O22  1  0.256212  0.664263  0.563395  1
  O  O23  1  0.746473  0.165644  0.436985  1
