# generated using pymatgen
data_Tb3Sm2Y5(In2Pd)4
_symmetry_space_group_name_H-M   'P 1'
_cell_length_a   3.65011100
_cell_length_b   8.19481907
_cell_length_c   18.45127616
_cell_angle_alpha   90.01508359
_cell_angle_beta   90.00000000
_cell_angle_gamma   90.00000000
_symmetry_Int_Tables_number   1
_chemical_formula_structural   Tb3Sm2Y5(In2Pd)4
_chemical_formula_sum   'Tb3 Sm2 Y5 In8 Pd4'
_cell_volume   551.91453924
_cell_formula_units_Z   1
loop_
 _symmetry_equiv_pos_site_id
 _symmetry_equiv_pos_as_xyz
  1  'x, y, z'
loop_
 _atom_site_type_symbol
 _atom_site_label
 _atom_site_symmetry_multiplicity
 _atom_site_fract_x
 _atom_site_fract_y
 _atom_site_fract_z
 _atom_site_occupancy
  Tb  Tb0  1  0.500000  0.240824  0.781041  1
  Tb  Tb1  1  0.500000  0.759194  0.218963  1
  Tb  Tb2  1  0.500000  0.259220  0.281036  1
  Sm  Sm3  1  0.500000  0.000013  0.999998  1
  Sm  Sm4  1  0.500000  0.499975  0.499986  1
  Y  Y5  1  0.500000  0.740698  0.718896  1
  Y  Y6  1  0.500000  0.119786  0.582975  1
  Y  Y7  1  0.500000  0.880185  0.417077  1
  Y  Y8  1  0.500000  0.380180  0.082930  1
  Y  Y9  1  0.500000  0.619776  0.917037  1
  In  In10  1  0.000000  0.080477  0.151880  1
  In  In11  1  0.000000  0.919484  0.848062  1
  In  In12  1  0.000000  0.419601  0.651922  1
  In  In13  1  0.000000  0.580452  0.348103  1
  In  In14  1  0.000000  0.204972  0.431292  1
  In  In15  1  0.000000  0.795035  0.568758  1
  In  In16  1  0.000000  0.295068  0.931295  1
  In  In17  1  0.000000  0.704952  0.068709  1
  Pd  Pd18  1  0.000000  0.025307  0.695657  1
  Pd  Pd19  1  0.000000  0.974848  0.304327  1
  Pd  Pd20  1  0.000000  0.474855  0.195676  1
  Pd  Pd21  1  0.000000  0.525098  0.804381  1
