# generated using pymatgen
data_TbDy9(Hg3C)2
_symmetry_space_group_name_H-M   'P 1'
_cell_length_a   8.99782700
_cell_length_b   8.99782882
_cell_length_c   6.40316200
_cell_angle_alpha   90.00000000
_cell_angle_beta   90.00000000
_cell_angle_gamma   120.00000433
_symmetry_Int_Tables_number   1
_chemical_formula_structural   TbDy9(Hg3C)2
_chemical_formula_sum   'Tb1 Dy9 Hg6 C2'
_cell_volume   448.95257616
_cell_formula_units_Z   1
loop_
 _symmetry_equiv_pos_site_id
 _symmetry_equiv_pos_as_xyz
  1  'x, y, z'
loop_
 _atom_site_type_symbol
 _atom_site_label
 _atom_site_symmetry_multiplicity
 _atom_site_fract_x
 _atom_site_fract_y
 _atom_site_fract_z
 _atom_site_occupancy
  Tb  Tb0  1  0.666667  0.333333  0.500000  1
  Dy  Dy1  1  0.666667  0.333333  0.000000  1
  Dy  Dy2  1  0.333333  0.666667  0.000000  1
  Dy  Dy3  1  0.333333  0.666667  0.500000  1
  Dy  Dy4  1  0.789361  0.789426  0.750067  1
  Dy  Dy5  1  0.210574  0.999935  0.750067  1
  Dy  Dy6  1  0.000065  0.210639  0.750067  1
  Dy  Dy7  1  0.210574  0.210639  0.249933  1
  Dy  Dy8  1  0.789361  0.999935  0.249933  1
  Dy  Dy9  1  0.000065  0.789426  0.249933  1
  Hg  Hg10  1  0.411834  0.412133  0.750303  1
  Hg  Hg11  1  0.587867  0.999701  0.750303  1
  Hg  Hg12  1  0.000299  0.588166  0.750303  1
  Hg  Hg13  1  0.587867  0.588166  0.249697  1
  Hg  Hg14  1  0.411834  0.999701  0.249697  1
  Hg  Hg15  1  0.000299  0.412133  0.249697  1
  C  C16  1  0.000000  0.000000  0.000000  1
  C  C17  1  0.000000  0.000000  0.500000  1
