# generated using pymatgen
data_Cs12Sc2GaFeSe12
_symmetry_space_group_name_H-M   'P 1'
_cell_length_a   11.17886351
_cell_length_b   11.17886484
_cell_length_c   14.34511779
_cell_angle_alpha   89.92143723
_cell_angle_beta   89.92143450
_cell_angle_gamma   139.53269726
_symmetry_Int_Tables_number   1
_chemical_formula_structural   Cs12Sc2GaFeSe12
_chemical_formula_sum   'Cs12 Sc2 Ga1 Fe1 Se12'
_cell_volume   1163.45643942
_cell_formula_units_Z   1
loop_
 _symmetry_equiv_pos_site_id
 _symmetry_equiv_pos_as_xyz
  1  'x, y, z'
loop_
 _atom_site_type_symbol
 _atom_site_label
 _atom_site_symmetry_multiplicity
 _atom_site_fract_x
 _atom_site_fract_y
 _atom_site_fract_z
 _atom_site_occupancy
  Cs  Cs0  1  0.866276  0.862580  0.675334  1
  Cs  Cs1  1  0.137420  0.133724  0.324666  1
  Cs  Cs2  1  0.634380  0.637494  0.177061  1
  Cs  Cs3  1  0.362506  0.365620  0.822939  1
  Cs  Cs4  1  0.167076  0.520282  0.126215  1
  Cs  Cs5  1  0.479718  0.832924  0.873785  1
  Cs  Cs6  1  0.969233  0.328025  0.629966  1
  Cs  Cs7  1  0.671975  0.030767  0.370034  1
  Cs  Cs8  1  0.825460  0.466628  0.870225  1
  Cs  Cs9  1  0.533372  0.174540  0.129775  1
  Cs  Cs10  1  0.018715  0.664145  0.374247  1
  Cs  Cs11  1  0.335855  0.981285  0.625753  1
  Sc  Sc12  1  0.420918  0.579082  0.500000  1
  Sc  Sc13  1  0.078923  0.921077  0.000000  1
  Ga  Ga14  1  0.917560  0.082440  0.000000  1
  Fe  Fe15  1  0.581069  0.418931  0.500000  1
  Se  Se16  1  0.296937  0.285502  0.571298  1
  Se  Se17  1  0.714498  0.703063  0.428702  1
  Se  Se18  1  0.206081  0.216155  0.071885  1
  Se  Se19  1  0.783845  0.793919  0.928115  1
  Se  Se20  1  0.708403  0.001598  0.116984  1
  Se  Se21  1  0.998402  0.291597  0.883016  1
  Se  Se22  1  0.506917  0.803954  0.619408  1
  Se  Se23  1  0.196046  0.493083  0.380592  1
  Se  Se24  1  0.301632  0.004749  0.879769  1
  Se  Se25  1  0.995251  0.698368  0.120231  1
  Se  Se26  1  0.505969  0.214437  0.385211  1
  Se  Se27  1  0.785563  0.494031  0.614789  1
