# generated using pymatgen
data_Dy2Y5Tm13Pt16
_symmetry_space_group_name_H-M   'P 1'
_cell_length_a   7.44054321
_cell_length_b   7.51366287
_cell_length_c   14.62206306
_cell_angle_alpha   90.00060649
_cell_angle_beta   89.99192232
_cell_angle_gamma   89.98595480
_symmetry_Int_Tables_number   1
_chemical_formula_structural   Dy2Y5Tm13Pt16
_chemical_formula_sum   'Dy2 Y5 Tm13 Pt16'
_cell_volume   817.45712439
_cell_formula_units_Z   1
loop_
 _symmetry_equiv_pos_site_id
 _symmetry_equiv_pos_as_xyz
  1  'x, y, z'
loop_
 _atom_site_type_symbol
 _atom_site_label
 _atom_site_symmetry_multiplicity
 _atom_site_fract_x
 _atom_site_fract_y
 _atom_site_fract_z
 _atom_site_occupancy
  Dy  Dy0  1  0.498628  0.679490  0.093125  1
  Dy  Dy1  1  0.501614  0.320413  0.592954  1
  Y  Y2  1  0.001162  0.179361  0.907088  1
  Y  Y3  1  0.000878  0.178536  0.592649  1
  Y  Y4  1  0.501221  0.320761  0.907104  1
  Y  Y5  1  0.498795  0.679546  0.407106  1
  Y  Y6  1  0.998940  0.820552  0.092854  1
  Tm  Tm7  1  0.681171  0.989817  0.250324  1
  Tm  Tm8  1  0.181002  0.510367  0.250314  1
  Tm  Tm9  1  0.818994  0.489809  0.749849  1
  Tm  Tm10  1  0.318979  0.010138  0.749955  1
  Tm  Tm11  1  0.656188  0.832741  0.622424  1
  Tm  Tm12  1  0.156065  0.667482  0.877437  1
  Tm  Tm13  1  0.843979  0.332423  0.377553  1
  Tm  Tm14  1  0.343799  0.167469  0.122651  1
  Tm  Tm15  1  0.343251  0.167148  0.377709  1
  Tm  Tm16  1  0.843937  0.332387  0.122678  1
  Tm  Tm17  1  0.155501  0.667967  0.622182  1
  Tm  Tm18  1  0.656123  0.832440  0.877519  1
  Tm  Tm19  1  0.997609  0.819596  0.406768  1
  Pt  Pt20  1  0.817655  0.642529  0.251232  1
  Pt  Pt21  1  0.315868  0.858305  0.250331  1
  Pt  Pt22  1  0.683433  0.141690  0.749683  1
  Pt  Pt23  1  0.183798  0.358583  0.749796  1
  Pt  Pt24  1  0.546589  0.384582  0.250037  1
  Pt  Pt25  1  0.045966  0.114924  0.250628  1
  Pt  Pt26  1  0.953720  0.884118  0.749956  1
  Pt  Pt27  1  0.453669  0.615703  0.749795  1
  Pt  Pt28  1  0.817931  0.535046  0.541549  1
  Pt  Pt29  1  0.318061  0.965681  0.958085  1
  Pt  Pt30  1  0.684550  0.032498  0.457551  1
  Pt  Pt31  1  0.182286  0.466261  0.042154  1
  Pt  Pt32  1  0.181379  0.467936  0.457314  1
  Pt  Pt33  1  0.681902  0.033989  0.042094  1
  Pt  Pt34  1  0.317627  0.965514  0.541511  1
  Pt  Pt35  1  0.817734  0.534198  0.958041  1
