# generated using pymatgen
data_Pr12B(CCl4)3
_symmetry_space_group_name_H-M   'P 1'
_cell_length_a   9.71732584
_cell_length_b   9.82291578
_cell_length_c   9.82291522
_cell_angle_alpha   109.68794293
_cell_angle_beta   109.25361292
_cell_angle_gamma   109.25361825
_symmetry_Int_Tables_number   1
_chemical_formula_structural   Pr12B(CCl4)3
_chemical_formula_sum   'Pr12 B1 C3 Cl12'
_cell_volume   723.71068150
_cell_formula_units_Z   1
loop_
 _symmetry_equiv_pos_site_id
 _symmetry_equiv_pos_as_xyz
  1  'x, y, z'
loop_
 _atom_site_type_symbol
 _atom_site_label
 _atom_site_symmetry_multiplicity
 _atom_site_fract_x
 _atom_site_fract_y
 _atom_site_fract_z
 _atom_site_occupancy
  Pr  Pr0  1  0.471000  0.481259  0.238721  1
  Pr  Pr1  1  0.750000  0.234042  0.265958  1
  Pr  Pr2  1  0.750000  0.017800  0.482200  1
  Pr  Pr3  1  0.232200  0.464401  0.482200  1
  Pr  Pr4  1  0.267721  0.757462  0.238721  1
  Pr  Pr5  1  0.029000  0.261279  0.018741  1
  Pr  Pr6  1  0.015958  0.031917  0.265958  1
  Pr  Pr7  1  0.489741  0.757462  0.018741  1
  Pr  Pr8  1  0.484042  0.234042  0.468083  1
  Pr  Pr9  1  0.010259  0.481259  0.742538  1
  Pr  Pr10  1  0.267800  0.017800  0.035599  1
  Pr  Pr11  1  0.232279  0.261279  0.742538  1
  B  B12  1  0.250000  0.500000  0.000000  1
  C  C13  1  0.250000  0.250234  0.249766  1
  C  C14  1  0.499766  0.999532  0.249766  1
  C  C15  1  0.000234  0.250234  0.500468  1
  Cl  Cl16  1  0.250000  0.755781  0.744219  1
  Cl  Cl17  1  0.510913  0.505498  0.754289  1
  Cl  Cl18  1  0.989087  0.745711  0.994502  1
  Cl  Cl19  1  0.743376  0.248791  0.754289  1
  Cl  Cl20  1  0.994219  0.988439  0.744219  1
  Cl  Cl21  1  0.250000  0.994176  0.505824  1
  Cl  Cl22  1  0.755824  0.511648  0.505824  1
  Cl  Cl23  1  0.505415  0.248791  0.994502  1
  Cl  Cl24  1  0.756624  0.745711  0.251209  1
  Cl  Cl25  1  0.744176  0.994176  0.988352  1
  Cl  Cl26  1  0.994585  0.505498  0.251209  1
  Cl  Cl27  1  0.505781  0.755781  0.511561  1
