# generated using pymatgen
data_Li25Si8Ag
_symmetry_space_group_name_H-M   'P 1'
_cell_length_a   7.93558497
_cell_length_b   14.99493619
_cell_length_c   4.42291600
_cell_angle_alpha   90.00000000
_cell_angle_beta   90.00000000
_cell_angle_gamma   89.96553308
_symmetry_Int_Tables_number   1
_chemical_formula_structural   Li25Si8Ag
_chemical_formula_sum   'Li25 Si8 Ag1'
_cell_volume   526.29855862
_cell_formula_units_Z   1
loop_
 _symmetry_equiv_pos_site_id
 _symmetry_equiv_pos_as_xyz
  1  'x, y, z'
loop_
 _atom_site_type_symbol
 _atom_site_label
 _atom_site_symmetry_multiplicity
 _atom_site_fract_x
 _atom_site_fract_y
 _atom_site_fract_z
 _atom_site_occupancy
  Li  Li0  1  0.152551  0.022398  0.000000  1
  Li  Li1  1  0.768899  0.152393  0.000000  1
  Li  Li2  1  0.092892  0.192011  0.000000  1
  Li  Li3  1  0.596380  0.306872  0.000000  1
  Li  Li4  1  0.269047  0.348096  0.000000  1
  Li  Li5  1  0.651052  0.475190  0.000000  1
  Li  Li6  1  0.000000  0.500000  0.000000  1
  Li  Li7  1  0.348949  0.524809  0.000000  1
  Li  Li8  1  0.730953  0.651905  0.000000  1
  Li  Li9  1  0.403622  0.693129  0.000000  1
  Li  Li10  1  0.907107  0.807990  0.000000  1
  Li  Li11  1  0.231102  0.847607  0.000000  1
  Li  Li12  1  0.847450  0.977601  0.000000  1
  Li  Li13  1  0.265776  0.088535  0.500000  1
  Li  Li14  1  0.601159  0.100258  0.500000  1
  Li  Li15  1  0.901380  0.245212  0.500000  1
  Li  Li16  1  0.411079  0.253564  0.500000  1
  Li  Li17  1  0.096269  0.392533  0.500000  1
  Li  Li18  1  0.759174  0.407157  0.500000  1
  Li  Li19  1  0.240826  0.592843  0.500000  1
  Li  Li20  1  0.903731  0.607467  0.500000  1
  Li  Li21  1  0.588922  0.746436  0.500000  1
  Li  Li22  1  0.098619  0.754788  0.500000  1
  Li  Li23  1  0.398842  0.899742  0.500000  1
  Li  Li24  1  0.734225  0.911465  0.500000  1
  Si  Si25  1  0.418148  0.160641  0.000000  1
  Si  Si26  1  0.916892  0.339358  0.000000  1
  Si  Si27  1  0.083109  0.660642  0.000000  1
  Si  Si28  1  0.581852  0.839359  0.000000  1
  Si  Si29  1  0.933621  0.070885  0.500000  1
  Si  Si30  1  0.425410  0.430486  0.500000  1
  Si  Si31  1  0.574590  0.569514  0.500000  1
  Si  Si32  1  0.066379  0.929116  0.500000  1
  Ag  Ag33  1  0.500000  0.000000  0.000000  1
