# generated using pymatgen
data_Rb2TaNiSe4
_symmetry_space_group_name_H-M   'P 1'
_cell_length_a   14.53653068
_cell_length_b   13.03797488
_cell_length_c   7.61415265
_cell_angle_alpha   85.18856513
_cell_angle_beta   63.34838059
_cell_angle_gamma   31.46304936
_symmetry_Int_Tables_number   1
_chemical_formula_structural   Rb2TaNiSe4
_chemical_formula_sum   'Rb4 Ta2 Ni2 Se8'
_cell_volume   517.04000732
_cell_formula_units_Z   2
loop_
 _symmetry_equiv_pos_site_id
 _symmetry_equiv_pos_as_xyz
  1  'x, y, z'
loop_
 _atom_site_type_symbol
 _atom_site_label
 _atom_site_symmetry_multiplicity
 _atom_site_fract_x
 _atom_site_fract_y
 _atom_site_fract_z
 _atom_site_occupancy
  Rb  Rb0  1  0.821632  0.821632  0.178368  1
  Rb  Rb1  1  0.178368  0.178368  0.821632  1
  Rb  Rb2  1  0.071632  0.071632  0.428368  1
  Rb  Rb3  1  0.428368  0.428368  0.071632  1
  Ta  Ta4  1  0.250000  0.250000  0.250000  1
  Ta  Ta5  1  0.000000  0.000000  0.000000  1
  Ni  Ni6  1  0.750000  0.750000  0.750000  1
  Ni  Ni7  1  0.500000  0.500000  0.500000  1
  Se  Se8  1  0.707315  0.403027  0.100990  1
  Se  Se9  1  0.788668  0.100990  0.403027  1
  Se  Se10  1  0.100990  0.788668  0.707315  1
  Se  Se11  1  0.403027  0.707315  0.788668  1
  Se  Se12  1  0.149010  0.461332  0.542685  1
  Se  Se13  1  0.846973  0.542685  0.461332  1
  Se  Se14  1  0.461332  0.149010  0.846973  1
  Se  Se15  1  0.542685  0.846973  0.149010  1
