# generated using pymatgen
data_LiTm4B16Mo2Rh
_symmetry_space_group_name_H-M   'P 1'
_cell_length_a   3.57370400
_cell_length_b   5.94670071
_cell_length_c   11.47479224
_cell_angle_alpha   90.12457670
_cell_angle_beta   90.00000000
_cell_angle_gamma   90.00000000
_symmetry_Int_Tables_number   1
_chemical_formula_structural   LiTm4B16Mo2Rh
_chemical_formula_sum   'Li1 Tm4 B16 Mo2 Rh1'
_cell_volume   243.85881783
_cell_formula_units_Z   1
loop_
 _symmetry_equiv_pos_site_id
 _symmetry_equiv_pos_as_xyz
  1  'x, y, z'
loop_
 _atom_site_type_symbol
 _atom_site_label
 _atom_site_symmetry_multiplicity
 _atom_site_fract_x
 _atom_site_fract_y
 _atom_site_fract_z
 _atom_site_occupancy
  Li  Li0  1  0.000000  0.136806  0.913542  1
  Tm  Tm1  1  0.000000  0.127172  0.652583  1
  Tm  Tm2  1  0.000000  0.871129  0.348815  1
  Tm  Tm3  1  0.000000  0.626294  0.853722  1
  Tm  Tm4  1  0.000000  0.373729  0.145339  1
  B  B5  1  0.500000  0.793402  0.689877  1
  B  B6  1  0.500000  0.207518  0.311190  1
  B  B7  1  0.500000  0.285037  0.817764  1
  B  B8  1  0.500000  0.712614  0.182788  1
  B  B9  1  0.500000  0.867700  0.532408  1
  B  B10  1  0.500000  0.131028  0.468077  1
  B  B11  1  0.500000  0.363784  0.968067  1
  B  B12  1  0.500000  0.634170  0.029989  1
  B  B13  1  0.500000  0.020676  0.190977  1
  B  B14  1  0.500000  0.983118  0.809049  1
  B  B15  1  0.500000  0.524895  0.303710  1
  B  B16  1  0.500000  0.473227  0.697119  1
  B  B17  1  0.500000  0.114517  0.047819  1
  B  B18  1  0.500000  0.884634  0.952840  1
  B  B19  1  0.500000  0.614675  0.451969  1
  B  B20  1  0.500000  0.384033  0.547957  1
  Mo  Mo21  1  0.000000  0.628849  0.585428  1
  Mo  Mo22  1  0.000000  0.370131  0.413159  1
  Rh  Rh23  1  0.000000  0.870861  0.085811  1
