# generated using pymatgen
data_Tm20Ir6PtRh5
_symmetry_space_group_name_H-M   'P 1'
_cell_length_a   10.75371570
_cell_length_b   10.75371599
_cell_length_c   6.31294601
_cell_angle_alpha   89.99272476
_cell_angle_beta   89.99271909
_cell_angle_gamma   89.71058775
_symmetry_Int_Tables_number   1
_chemical_formula_structural   Tm20Ir6PtRh5
_chemical_formula_sum   'Tm20 Ir6 Pt1 Rh5'
_cell_volume   730.03493202
_cell_formula_units_Z   1
loop_
 _symmetry_equiv_pos_site_id
 _symmetry_equiv_pos_as_xyz
  1  'x, y, z'
loop_
 _atom_site_type_symbol
 _atom_site_label
 _atom_site_symmetry_multiplicity
 _atom_site_fract_x
 _atom_site_fract_y
 _atom_site_fract_z
 _atom_site_occupancy
  Tm  Tm0  1  0.289873  0.088078  0.379819  1
  Tm  Tm1  1  0.290534  0.910964  0.878767  1
  Tm  Tm2  1  0.709370  0.084283  0.877726  1
  Tm  Tm3  1  0.708905  0.908941  0.379509  1
  Tm  Tm4  1  0.588340  0.789677  0.878916  1
  Tm  Tm5  1  0.585335  0.207814  0.374417  1
  Tm  Tm6  1  0.410801  0.791057  0.378096  1
  Tm  Tm7  1  0.407957  0.207937  0.879872  1
  Tm  Tm8  1  0.210323  0.411660  0.621084  1
  Tm  Tm9  1  0.208943  0.589199  0.121904  1
  Tm  Tm10  1  0.792186  0.414665  0.125583  1
  Tm  Tm11  1  0.792063  0.592043  0.620128  1
  Tm  Tm12  1  0.911922  0.710127  0.120181  1
  Tm  Tm13  1  0.915717  0.290630  0.622274  1
  Tm  Tm14  1  0.089036  0.709466  0.621233  1
  Tm  Tm15  1  0.091059  0.291095  0.120491  1
  Tm  Tm16  1  0.999532  0.999582  0.499367  1
  Tm  Tm17  1  0.000418  0.000468  0.000633  1
  Tm  Tm18  1  0.498322  0.500658  0.001122  1
  Tm  Tm19  1  0.499342  0.501678  0.498878  1
  Ir  Ir20  1  0.845798  0.847236  0.750639  1
  Ir  Ir21  1  0.152764  0.154202  0.749361  1
  Ir  Ir22  1  0.154306  0.845694  0.250000  1
  Ir  Ir23  1  0.654355  0.652679  0.249635  1
  Ir  Ir24  1  0.347321  0.345645  0.250365  1
  Ir  Ir25  1  0.345582  0.654418  0.750000  1
  Pt  Pt26  1  0.655156  0.344844  0.750000  1
  Rh  Rh27  1  0.844304  0.155696  0.250000  1
  Rh  Rh28  1  0.501030  0.000672  0.125112  1
  Rh  Rh29  1  0.500665  0.000587  0.625772  1
  Rh  Rh30  1  0.999413  0.499335  0.874228  1
  Rh  Rh31  1  0.999328  0.498970  0.374888  1
