# generated using pymatgen
data_Na2Co9Mo3As7
_symmetry_space_group_name_H-M   'P 1'
_cell_length_a   9.39920800
_cell_length_b   9.39920772
_cell_length_c   3.81070900
_cell_angle_alpha   90.00000000
_cell_angle_beta   90.00000000
_cell_angle_gamma   120.00000803
_symmetry_Int_Tables_number   1
_chemical_formula_structural   Na2Co9Mo3As7
_chemical_formula_sum   'Na2 Co9 Mo3 As7'
_cell_volume   291.55392341
_cell_formula_units_Z   1
loop_
 _symmetry_equiv_pos_site_id
 _symmetry_equiv_pos_as_xyz
  1  'x, y, z'
loop_
 _atom_site_type_symbol
 _atom_site_label
 _atom_site_symmetry_multiplicity
 _atom_site_fract_x
 _atom_site_fract_y
 _atom_site_fract_z
 _atom_site_occupancy
  Na  Na0  1  0.333333  0.666667  0.000000  1
  Na  Na1  1  0.000000  0.000000  0.500000  1
  Co  Co2  1  0.279892  0.377128  0.500000  1
  Co  Co3  1  0.622872  0.902762  0.500000  1
  Co  Co4  1  0.097238  0.720108  0.500000  1
  Co  Co5  1  0.505201  0.451020  0.000000  1
  Co  Co6  1  0.548980  0.054182  0.000000  1
  Co  Co7  1  0.945818  0.494799  0.000000  1
  Co  Co8  1  0.718462  0.759757  0.000000  1
  Co  Co9  1  0.240243  0.958705  0.000000  1
  Co  Co10  1  0.041295  0.281538  0.000000  1
  Mo  Mo11  1  0.762475  0.550444  0.500000  1
  Mo  Mo12  1  0.449556  0.212031  0.500000  1
  Mo  Mo13  1  0.787969  0.237525  0.500000  1
  As  As14  1  0.965045  0.753294  0.000000  1
  As  As15  1  0.246706  0.211750  0.000000  1
  As  As16  1  0.788250  0.034955  0.000000  1
  As  As17  1  0.666667  0.333333  0.000000  1
  As  As18  1  0.540210  0.623253  0.500000  1
  As  As19  1  0.376747  0.916958  0.500000  1
  As  As20  1  0.083042  0.459790  0.500000  1
