# generated using pymatgen
data_La10Al3GaOs6
_symmetry_space_group_name_H-M   'P 1'
_cell_length_a   8.68163000
_cell_length_b   8.68162996
_cell_length_c   8.65339900
_cell_angle_alpha   109.40536650
_cell_angle_beta   109.40536639
_cell_angle_gamma   109.53699463
_symmetry_Int_Tables_number   1
_chemical_formula_structural   La10Al3GaOs6
_chemical_formula_sum   'La10 Al3 Ga1 Os6'
_cell_volume   502.48106342
_cell_formula_units_Z   1
loop_
 _symmetry_equiv_pos_site_id
 _symmetry_equiv_pos_as_xyz
  1  'x, y, z'
loop_
 _atom_site_type_symbol
 _atom_site_label
 _atom_site_symmetry_multiplicity
 _atom_site_fract_x
 _atom_site_fract_y
 _atom_site_fract_z
 _atom_site_occupancy
  La  La0  1  0.250000  0.687092  0.437469  1
  La  La1  1  0.749376  0.813080  0.062493  1
  La  La2  1  0.437093  0.250000  0.687468  1
  La  La3  1  0.686920  0.436297  0.249414  1
  La  La4  1  0.063704  0.750624  0.813117  1
  La  La5  1  0.812908  0.062908  0.750377  1
  La  La6  1  0.210422  0.210944  0.210574  1
  La  La7  1  0.500001  0.000000  0.288256  1
  La  La8  1  0.289056  0.499479  0.999629  1
  La  La9  1  0.000522  0.289578  0.500153  1
  Al  Al10  1  0.586586  0.586514  0.586735  1
  Al  Al11  1  0.913486  0.500074  0.000222  1
  Al  Al12  1  0.999927  0.913414  0.500150  1
  Ga  Ga13  1  0.500001  0.000000  0.914015  1
  Os  Os14  1  0.248486  0.114831  0.864138  1
  Os  Os15  1  0.749788  0.385134  0.635250  1
  Os  Os16  1  0.866346  0.251516  0.115653  1
  Os  Os17  1  0.114865  0.864653  0.250117  1
  Os  Os18  1  0.635346  0.750212  0.385463  1
  Os  Os19  1  0.385168  0.633653  0.749307  1
