# generated using pymatgen
data_La6Pr10Mg4Ir3Pt
_symmetry_space_group_name_H-M   'P 1'
_cell_length_a   10.13697424
_cell_length_b   10.17415950
_cell_length_c   10.17409042
_cell_angle_alpha   59.67841308
_cell_angle_beta   60.29215392
_cell_angle_gamma   60.29469446
_symmetry_Int_Tables_number   1
_chemical_formula_structural   La6Pr10Mg4Ir3Pt
_chemical_formula_sum   'La6 Pr10 Mg4 Ir3 Pt1'
_cell_volume   743.40182564
_cell_formula_units_Z   1
loop_
 _symmetry_equiv_pos_site_id
 _symmetry_equiv_pos_as_xyz
  1  'x, y, z'
loop_
 _atom_site_type_symbol
 _atom_site_label
 _atom_site_symmetry_multiplicity
 _atom_site_fract_x
 _atom_site_fract_y
 _atom_site_fract_z
 _atom_site_occupancy
  La  La0  1  0.342265  0.346062  0.346058  1
  La  La1  1  0.350456  0.347565  0.959698  1
  La  La2  1  0.350424  0.959653  0.347596  1
  La  La3  1  0.960406  0.349692  0.349654  1
  La  La4  1  0.807542  0.186954  0.186900  1
  La  La5  1  0.184911  0.813513  0.813530  1
  Pr  Pr6  1  0.189826  0.806910  0.189379  1
  Pr  Pr7  1  0.809590  0.188668  0.809402  1
  Pr  Pr8  1  0.189788  0.189385  0.806909  1
  Pr  Pr9  1  0.809603  0.809435  0.188635  1
  Pr  Pr10  1  0.937460  0.564839  0.564819  1
  Pr  Pr11  1  0.563718  0.936172  0.936182  1
  Pr  Pr12  1  0.563050  0.938565  0.563753  1
  Pr  Pr13  1  0.937676  0.563206  0.936891  1
  Pr  Pr14  1  0.563059  0.563786  0.938519  1
  Pr  Pr15  1  0.937664  0.936938  0.563210  1
  Mg  Mg16  1  0.580589  0.579009  0.579019  1
  Mg  Mg17  1  0.578185  0.579424  0.262883  1
  Mg  Mg18  1  0.578188  0.262858  0.579492  1
  Mg  Mg19  1  0.262780  0.578203  0.578246  1
  Ir  Ir20  1  0.144282  0.137285  0.574005  1
  Ir  Ir21  1  0.144275  0.573994  0.137341  1
  Ir  Ir22  1  0.574648  0.144320  0.144391  1
  Pt  Pt23  1  0.139615  0.143560  0.143488  1
