# generated using pymatgen
data_Eu2MnPtF14
_symmetry_space_group_name_H-M   'P 1'
_cell_length_a   5.50704523
_cell_length_b   8.83389799
_cell_length_c   11.88995300
_cell_angle_alpha   62.41723367
_cell_angle_beta   90.14333726
_cell_angle_gamma   90.17121381
_symmetry_Int_Tables_number   1
_chemical_formula_structural   Eu2MnPtF14
_chemical_formula_sum   'Eu4 Mn2 Pt2 F28'
_cell_volume   512.68503736
_cell_formula_units_Z   2
loop_
 _symmetry_equiv_pos_site_id
 _symmetry_equiv_pos_as_xyz
  1  'x, y, z'
loop_
 _atom_site_type_symbol
 _atom_site_label
 _atom_site_symmetry_multiplicity
 _atom_site_fract_x
 _atom_site_fract_y
 _atom_site_fract_z
 _atom_site_occupancy
  Eu  Eu0  1  0.260507  0.818897  0.257646  1
  Eu  Eu1  1  0.739493  0.181103  0.742354  1
  Eu  Eu2  1  0.764335  0.194203  0.227884  1
  Eu  Eu3  1  0.235665  0.805797  0.772116  1
  Mn  Mn4  1  0.755544  0.723913  0.045292  1
  Mn  Mn5  1  0.244456  0.276087  0.954708  1
  Pt  Pt6  1  0.259351  0.273402  0.456641  1
  Pt  Pt7  1  0.740649  0.726598  0.543359  1
  F  F8  1  0.916945  0.700549  0.411591  1
  F  F9  1  0.083055  0.299451  0.588409  1
  F  F10  1  0.429426  0.293538  0.076560  1
  F  F11  1  0.570574  0.706462  0.923440  1
  F  F12  1  0.477341  0.727593  0.128121  1
  F  F13  1  0.522659  0.272407  0.871879  1
  F  F14  1  0.953721  0.281753  0.370782  1
  F  F15  1  0.046279  0.718247  0.629218  1
  F  F16  1  0.938734  0.738841  0.169335  1
  F  F17  1  0.061266  0.261159  0.830665  1
  F  F18  1  0.429975  0.256670  0.319484  1
  F  F19  1  0.570025  0.743330  0.680516  1
  F  F20  1  0.765103  0.490672  0.137975  1
  F  F21  1  0.234897  0.509328  0.862025  1
  F  F22  1  0.279022  0.520823  0.359862  1
  F  F23  1  0.720978  0.479177  0.640138  1
  F  F24  1  0.961422  0.286028  0.034243  1
  F  F25  1  0.038578  0.713972  0.965757  1
  F  F26  1  0.430221  0.725222  0.463561  1
  F  F27  1  0.569779  0.274778  0.536439  1
  F  F28  1  0.746177  0.974794  0.452519  1
  F  F29  1  0.253823  0.025206  0.547481  1
  F  F30  1  0.240232  0.042124  0.044228  1
  F  F31  1  0.759768  0.957876  0.955772  1
  F  F32  1  0.611160  0.961397  0.228616  1
  F  F33  1  0.388840  0.038603  0.771384  1
  F  F34  1  0.105210  0.037817  0.275030  1
  F  F35  1  0.894790  0.962183  0.724970  1
