# generated using pymatgen
data_Dy4TaTi3(Fe4P3)4
_symmetry_space_group_name_H-M   'P 1'
_cell_length_a   3.67450800
_cell_length_b   10.41663331
_cell_length_c   12.25174927
_cell_angle_alpha   90.19718285
_cell_angle_beta   90.00000000
_cell_angle_gamma   90.00000000
_symmetry_Int_Tables_number   1
_chemical_formula_structural   Dy4TaTi3(Fe4P3)4
_chemical_formula_sum   'Dy4 Ta1 Ti3 Fe16 P12'
_cell_volume   468.94520778
_cell_formula_units_Z   1
loop_
 _symmetry_equiv_pos_site_id
 _symmetry_equiv_pos_as_xyz
  1  'x, y, z'
loop_
 _atom_site_type_symbol
 _atom_site_label
 _atom_site_symmetry_multiplicity
 _atom_site_fract_x
 _atom_site_fract_y
 _atom_site_fract_z
 _atom_site_occupancy
  Dy  Dy0  1  0.250000  0.582614  0.712199  1
  Dy  Dy1  1  0.250000  0.918037  0.211989  1
  Dy  Dy2  1  0.750000  0.417946  0.287912  1
  Dy  Dy3  1  0.750000  0.082933  0.787234  1
  Ta  Ta4  1  0.250000  0.703241  0.991389  1
  Ti  Ti5  1  0.250000  0.800579  0.492013  1
  Ti  Ti6  1  0.750000  0.299548  0.007913  1
  Ti  Ti7  1  0.750000  0.199506  0.507938  1
  Fe  Fe8  1  0.250000  0.415331  0.492086  1
  Fe  Fe9  1  0.250000  0.084667  0.991727  1
  Fe  Fe10  1  0.750000  0.584498  0.508323  1
  Fe  Fe11  1  0.750000  0.916211  0.008285  1
  Fe  Fe12  1  0.250000  0.216514  0.172423  1
  Fe  Fe13  1  0.250000  0.282524  0.671662  1
  Fe  Fe14  1  0.750000  0.782974  0.827789  1
  Fe  Fe15  1  0.750000  0.717679  0.328777  1
  Fe  Fe16  1  0.250000  0.875773  0.698228  1
  Fe  Fe17  1  0.250000  0.622570  0.199420  1
  Fe  Fe18  1  0.750000  0.124185  0.301236  1
  Fe  Fe19  1  0.750000  0.376178  0.801003  1
  Fe  Fe20  1  0.250000  0.462181  0.933367  1
  Fe  Fe21  1  0.250000  0.036654  0.432387  1
  Fe  Fe22  1  0.750000  0.535454  0.067377  1
  Fe  Fe23  1  0.750000  0.963551  0.567154  1
  P  P24  1  0.250000  0.424996  0.112801  1
  P  P25  1  0.250000  0.072954  0.611503  1
  P  P26  1  0.750000  0.571501  0.887016  1
  P  P27  1  0.750000  0.927168  0.388058  1
  P  P28  1  0.250000  0.270258  0.858599  1
  P  P29  1  0.250000  0.229796  0.359364  1
  P  P30  1  0.750000  0.728240  0.143621  1
  P  P31  1  0.750000  0.770437  0.640644  1
  P  P32  1  0.250000  0.599153  0.380469  1
  P  P33  1  0.250000  0.904268  0.877828  1
  P  P34  1  0.750000  0.400219  0.620107  1
  P  P35  1  0.750000  0.099662  0.120158  1
