# generated using pymatgen
data_HoTm3V2(CoB8)2
_symmetry_space_group_name_H-M   'P 1'
_cell_length_a   3.39079100
_cell_length_b   5.93003736
_cell_length_c   11.46288829
_cell_angle_alpha   90.06329618
_cell_angle_beta   90.00000000
_cell_angle_gamma   90.00000000
_symmetry_Int_Tables_number   1
_chemical_formula_structural   HoTm3V2(CoB8)2
_chemical_formula_sum   'Ho1 Tm3 V2 Co2 B16'
_cell_volume   230.49008401
_cell_formula_units_Z   1
loop_
 _symmetry_equiv_pos_site_id
 _symmetry_equiv_pos_as_xyz
  1  'x, y, z'
loop_
 _atom_site_type_symbol
 _atom_site_label
 _atom_site_symmetry_multiplicity
 _atom_site_fract_x
 _atom_site_fract_y
 _atom_site_fract_z
 _atom_site_occupancy
  Ho  Ho0  1  0.500000  0.371573  0.148089  1
  Tm  Tm1  1  0.500000  0.124931  0.652646  1
  Tm  Tm2  1  0.500000  0.875154  0.347633  1
  Tm  Tm3  1  0.500000  0.628338  0.851709  1
  V  V4  1  0.500000  0.627306  0.586035  1
  V  V5  1  0.500000  0.372845  0.414597  1
  Co  Co6  1  0.500000  0.135385  0.911950  1
  Co  Co7  1  0.500000  0.864170  0.087336  1
  B  B8  1  0.000000  0.473832  0.695236  1
  B  B9  1  0.000000  0.526928  0.305484  1
  B  B10  1  0.000000  0.979346  0.809918  1
  B  B11  1  0.000000  0.020249  0.189866  1
  B  B12  1  0.000000  0.281991  0.816808  1
  B  B13  1  0.000000  0.718817  0.183067  1
  B  B14  1  0.000000  0.788735  0.688847  1
  B  B15  1  0.000000  0.211116  0.311790  1
  B  B16  1  0.000000  0.361308  0.968388  1
  B  B17  1  0.000000  0.638704  0.030542  1
  B  B18  1  0.000000  0.866682  0.533314  1
  B  B19  1  0.000000  0.133410  0.467213  1
  B  B20  1  0.000000  0.384691  0.547670  1
  B  B21  1  0.000000  0.615674  0.452812  1
  B  B22  1  0.000000  0.887914  0.953343  1
  B  B23  1  0.000000  0.110900  0.045705  1
