# generated using pymatgen
data_Dy10Ir3Os2Au
_symmetry_space_group_name_H-M   'P 1'
_cell_length_a   10.95702134
_cell_length_b   10.91659300
_cell_length_c   6.44063976
_cell_angle_alpha   90.00000000
_cell_angle_beta   89.87647271
_cell_angle_gamma   90.00000000
_symmetry_Int_Tables_number   1
_chemical_formula_structural   Dy10Ir3Os2Au
_chemical_formula_sum   'Dy20 Ir6 Os4 Au2'
_cell_volume   770.38465856
_cell_formula_units_Z   2
loop_
 _symmetry_equiv_pos_site_id
 _symmetry_equiv_pos_as_xyz
  1  'x, y, z'
loop_
 _atom_site_type_symbol
 _atom_site_label
 _atom_site_symmetry_multiplicity
 _atom_site_fract_x
 _atom_site_fract_y
 _atom_site_fract_z
 _atom_site_occupancy
  Dy  Dy0  1  0.294065  0.086565  0.375672  1
  Dy  Dy1  1  0.294065  0.913435  0.875672  1
  Dy  Dy2  1  0.697135  0.090881  0.867209  1
  Dy  Dy3  1  0.697135  0.909119  0.367209  1
  Dy  Dy4  1  0.577662  0.792607  0.878649  1
  Dy  Dy5  1  0.577662  0.207393  0.378649  1
  Dy  Dy6  1  0.410482  0.793086  0.378354  1
  Dy  Dy7  1  0.410482  0.206914  0.878354  1
  Dy  Dy8  1  0.207291  0.412679  0.620470  1
  Dy  Dy9  1  0.207291  0.587321  0.120470  1
  Dy  Dy10  1  0.792992  0.420787  0.121841  1
  Dy  Dy11  1  0.792992  0.579213  0.621841  1
  Dy  Dy12  1  0.918442  0.703320  0.135836  1
  Dy  Dy13  1  0.918442  0.296680  0.635836  1
  Dy  Dy14  1  0.093898  0.701658  0.620849  1
  Dy  Dy15  1  0.093898  0.298342  0.120849  1
  Dy  Dy16  1  0.009223  0.998484  0.500741  1
  Dy  Dy17  1  0.009223  0.001516  0.000741  1
  Dy  Dy18  1  0.499316  0.499182  0.000651  1
  Dy  Dy19  1  0.499316  0.500818  0.500651  1
  Ir  Ir20  1  0.152558  0.152284  0.749480  1
  Ir  Ir21  1  0.152558  0.847716  0.249480  1
  Ir  Ir22  1  0.653124  0.347942  0.748556  1
  Ir  Ir23  1  0.653124  0.652058  0.248556  1
  Ir  Ir24  1  0.348482  0.347766  0.250741  1
  Ir  Ir25  1  0.348482  0.652234  0.750741  1
  Os  Os26  1  0.500022  0.000158  0.124581  1
  Os  Os27  1  0.500022  0.999842  0.624581  1
  Os  Os28  1  0.000288  0.500862  0.875371  1
  Os  Os29  1  0.000288  0.499138  0.375371  1
  Au  Au30  1  0.845017  0.154378  0.251000  1
  Au  Au31  1  0.845017  0.845622  0.751000  1
