# generated using pymatgen
data_Cs8Hf6BI20
_symmetry_space_group_name_H-M   'P 1'
_cell_length_a   13.30030524
_cell_length_b   13.30030580
_cell_length_c   13.30030500
_cell_angle_alpha   59.99999951
_cell_angle_beta   59.99999812
_cell_angle_gamma   59.99999727
_symmetry_Int_Tables_number   1
_chemical_formula_structural   Cs8Hf6BI20
_chemical_formula_sum   'Cs8 Hf6 B1 I20'
_cell_volume   1663.68009388
_cell_formula_units_Z   1
loop_
 _symmetry_equiv_pos_site_id
 _symmetry_equiv_pos_as_xyz
  1  'x, y, z'
loop_
 _atom_site_type_symbol
 _atom_site_label
 _atom_site_symmetry_multiplicity
 _atom_site_fract_x
 _atom_site_fract_y
 _atom_site_fract_z
 _atom_site_occupancy
  Cs  Cs0  1  0.361317  0.361317  0.361317  1
  Cs  Cs1  1  0.638683  0.638683  0.638683  1
  Cs  Cs2  1  0.361317  0.361317  0.916049  1
  Cs  Cs3  1  0.361317  0.916049  0.361317  1
  Cs  Cs4  1  0.638683  0.638683  0.083951  1
  Cs  Cs5  1  0.638683  0.083951  0.638683  1
  Cs  Cs6  1  0.916049  0.361317  0.361317  1
  Cs  Cs7  1  0.083951  0.638683  0.638683  1
  Hf  Hf8  1  0.876536  0.123464  0.123464  1
  Hf  Hf9  1  0.123464  0.876536  0.876536  1
  Hf  Hf10  1  0.123464  0.876536  0.123464  1
  Hf  Hf11  1  0.876536  0.123464  0.876536  1
  Hf  Hf12  1  0.123464  0.123464  0.876536  1
  Hf  Hf13  1  0.876536  0.876536  0.123464  1
  B  B14  1  0.000000  0.000000  0.000000  1
  I  I15  1  0.304255  0.000000  0.000000  1
  I  I16  1  0.695745  0.000000  0.000000  1
  I  I17  1  0.000000  0.304255  0.695745  1
  I  I18  1  0.000000  0.695745  0.304255  1
  I  I19  1  0.000000  0.304255  0.000000  1
  I  I20  1  0.695745  0.000000  0.304255  1
  I  I21  1  0.000000  0.695745  0.000000  1
  I  I22  1  0.304255  0.000000  0.695745  1
  I  I23  1  0.000000  0.000000  0.304255  1
  I  I24  1  0.000000  0.000000  0.695745  1
  I  I25  1  0.695745  0.304255  0.000000  1
  I  I26  1  0.304255  0.695745  0.000000  1
  I  I27  1  0.700425  0.299575  0.299575  1
  I  I28  1  0.299575  0.700425  0.700425  1
  I  I29  1  0.299575  0.700425  0.299575  1
  I  I30  1  0.700425  0.299575  0.700425  1
  I  I31  1  0.299575  0.299575  0.700425  1
  I  I32  1  0.700425  0.700425  0.299575  1
  I  I33  1  0.250000  0.250000  0.250000  1
  I  I34  1  0.750000  0.750000  0.750000  1
