# generated using pymatgen
data_Ta5Ti3(Si3W)2
_symmetry_space_group_name_H-M   'P 1'
_cell_length_a   7.50099706
_cell_length_b   7.50099723
_cell_length_c   7.49827395
_cell_angle_alpha   128.98783808
_cell_angle_beta   128.98783205
_cell_angle_gamma   74.91077829
_symmetry_Int_Tables_number   1
_chemical_formula_structural   Ta5Ti3(Si3W)2
_chemical_formula_sum   'Ta5 Ti3 Si6 W2'
_cell_volume   248.39603829
_cell_formula_units_Z   1
loop_
 _symmetry_equiv_pos_site_id
 _symmetry_equiv_pos_as_xyz
  1  'x, y, z'
loop_
 _atom_site_type_symbol
 _atom_site_label
 _atom_site_symmetry_multiplicity
 _atom_site_fract_x
 _atom_site_fract_y
 _atom_site_fract_z
 _atom_site_occupancy
  Ta  Ta0  1  0.185267  0.685267  0.172828  1
  Ta  Ta1  1  0.985363  0.816454  0.498440  1
  Ta  Ta2  1  0.316454  0.485363  0.498440  1
  Ta  Ta3  1  0.486670  0.986670  0.171264  1
  Ta  Ta4  1  0.816200  0.316200  0.830314  1
  Ti  Ti5  1  0.013345  0.183994  0.499610  1
  Ti  Ti6  1  0.683994  0.513345  0.499610  1
  Ti  Ti7  1  0.513097  0.013097  0.827433  1
  Si  Si8  1  0.750564  0.754800  0.998162  1
  Si  Si9  1  0.254800  0.250564  0.998162  1
  Si  Si10  1  0.367125  0.131916  0.503762  1
  Si  Si11  1  0.631916  0.867125  0.503762  1
  Si  Si12  1  0.864592  0.364592  0.237013  1
  Si  Si13  1  0.127605  0.627605  0.758265  1
  W  W14  1  0.001930  0.001080  0.001468  1
  W  W15  1  0.501080  0.501930  0.001468  1
