# generated using pymatgen
data_Ce4NiB16Ir3
_symmetry_space_group_name_H-M   'P 1'
_cell_length_a   7.02975727
_cell_length_b   7.02975698
_cell_length_c   7.02975700
_cell_angle_alpha   112.46405104
_cell_angle_beta   111.55493452
_cell_angle_gamma   104.50729156
_symmetry_Int_Tables_number   1
_chemical_formula_structural   Ce4NiB16Ir3
_chemical_formula_sum   'Ce4 Ni1 B16 Ir3'
_cell_volume   265.91668800
_cell_formula_units_Z   1
loop_
 _symmetry_equiv_pos_site_id
 _symmetry_equiv_pos_as_xyz
  1  'x, y, z'
loop_
 _atom_site_type_symbol
 _atom_site_label
 _atom_site_symmetry_multiplicity
 _atom_site_fract_x
 _atom_site_fract_y
 _atom_site_fract_z
 _atom_site_occupancy
  Ce  Ce0  1  0.209569  0.208092  0.001476  1
  Ce  Ce1  1  0.793385  0.791908  0.001476  1
  Ce  Ce2  1  0.746270  0.247765  0.498504  1
  Ce  Ce3  1  0.250740  0.752235  0.498504  1
  Ni  Ni4  1  0.258854  0.500000  0.758854  1
  B  B5  1  0.108846  0.269539  0.378385  1
  B  B6  1  0.894156  0.736453  0.630609  1
  B  B7  1  0.894156  0.263547  0.157705  1
  B  B8  1  0.108846  0.730461  0.839307  1
  B  B9  1  0.732315  0.891390  0.623704  1
  B  B10  1  0.263760  0.108699  0.372458  1
  B  B11  1  0.732315  0.108610  0.840924  1
  B  B12  1  0.263760  0.891301  0.155062  1
  B  B13  1  0.413194  0.417725  0.530606  1
  B  B14  1  0.891873  0.891262  0.476586  1
  B  B15  1  0.585325  0.108738  0.000611  1
  B  B16  1  0.112881  0.582275  0.995470  1
  B  B17  1  0.585325  0.584714  0.476586  1
  B  B18  1  0.112881  0.117411  0.530606  1
  B  B19  1  0.891873  0.415286  0.000611  1
  B  B20  1  0.413194  0.882589  0.995470  1
  Ir  Ir21  1  0.497582  0.267509  0.765092  1
  Ir  Ir22  1  0.497582  0.732491  0.230073  1
  Ir  Ir23  1  0.741322  0.500000  0.241322  1
