# generated using pymatgen
data_La8In3Co
_symmetry_space_group_name_H-M   'P 1'
_cell_length_a   11.06265300
_cell_length_b   11.06265229
_cell_length_c   7.14171300
_cell_angle_alpha   90.00000000
_cell_angle_beta   90.00000000
_cell_angle_gamma   119.99999913
_symmetry_Int_Tables_number   1
_chemical_formula_structural   La8In3Co
_chemical_formula_sum   'La16 In6 Co2'
_cell_volume   756.92278988
_cell_formula_units_Z   2
loop_
 _symmetry_equiv_pos_site_id
 _symmetry_equiv_pos_as_xyz
  1  'x, y, z'
loop_
 _atom_site_type_symbol
 _atom_site_label
 _atom_site_symmetry_multiplicity
 _atom_site_fract_x
 _atom_site_fract_y
 _atom_site_fract_z
 _atom_site_occupancy
  La  La0  1  0.538607  0.077215  0.507765  1
  La  La1  1  0.922785  0.461393  0.507765  1
  La  La2  1  0.538607  0.461393  0.507765  1
  La  La3  1  0.461393  0.922785  0.007765  1
  La  La4  1  0.077215  0.538607  0.007765  1
  La  La5  1  0.461393  0.538607  0.007765  1
  La  La6  1  0.177346  0.354693  0.742765  1
  La  La7  1  0.645307  0.822654  0.742765  1
  La  La8  1  0.177346  0.822654  0.742765  1
  La  La9  1  0.822654  0.645307  0.242765  1
  La  La10  1  0.354693  0.177346  0.242765  1
  La  La11  1  0.822654  0.177346  0.242765  1
  La  La12  1  0.666667  0.333333  0.912915  1
  La  La13  1  0.333333  0.666667  0.412915  1
  La  La14  1  0.000000  0.000000  0.521874  1
  La  La15  1  0.000000  0.000000  0.021874  1
  In  In16  1  0.836123  0.672246  0.764165  1
  In  In17  1  0.327754  0.163877  0.764165  1
  In  In18  1  0.836123  0.163877  0.764165  1
  In  In19  1  0.163877  0.327754  0.264165  1
  In  In20  1  0.672246  0.836123  0.264165  1
  In  In21  1  0.163877  0.836123  0.264165  1
  Co  Co22  1  0.666667  0.333333  0.298967  1
  Co  Co23  1  0.333333  0.666667  0.798967  1
