# generated using pymatgen
data_Hf2TiRe2W
_symmetry_space_group_name_H-M   'P 1'
_cell_length_a   5.31551350
_cell_length_b   5.31571265
_cell_length_c   8.78062700
_cell_angle_alpha   90.00000000
_cell_angle_beta   90.00000000
_cell_angle_gamma   120.00122860
_symmetry_Int_Tables_number   1
_chemical_formula_structural   Hf2TiRe2W
_chemical_formula_sum   'Hf4 Ti2 Re4 W2'
_cell_volume   214.86095679
_cell_formula_units_Z   2
loop_
 _symmetry_equiv_pos_site_id
 _symmetry_equiv_pos_as_xyz
  1  'x, y, z'
loop_
 _atom_site_type_symbol
 _atom_site_label
 _atom_site_symmetry_multiplicity
 _atom_site_fract_x
 _atom_site_fract_y
 _atom_site_fract_z
 _atom_site_occupancy
  Hf  Hf0  1  0.333133  0.666679  0.063680  1
  Hf  Hf1  1  0.666867  0.333545  0.563680  1
  Hf  Hf2  1  0.666867  0.333545  0.936320  1
  Hf  Hf3  1  0.333133  0.666679  0.436320  1
  Ti  Ti4  1  0.000000  0.003609  0.000000  1
  Ti  Ti5  1  0.000000  0.003609  0.500000  1
  Re  Re6  1  0.662700  0.829903  0.750000  1
  Re  Re7  1  0.337300  0.167204  0.250000  1
  Re  Re8  1  0.829155  0.167350  0.250000  1
  Re  Re9  1  0.170845  0.338194  0.750000  1
  W  W10  1  0.829192  0.659439  0.250000  1
  W  W11  1  0.170808  0.830246  0.750000  1
