# generated using pymatgen
data_Y5P12Ru11Rh8
_symmetry_space_group_name_H-M   'P 1'
_cell_length_a   12.63902832
_cell_length_b   12.62651061
_cell_length_c   3.94915400
_cell_angle_alpha   90.00000000
_cell_angle_beta   90.00000000
_cell_angle_gamma   120.27130129
_symmetry_Int_Tables_number   1
_chemical_formula_structural   Y5P12Ru11Rh8
_chemical_formula_sum   'Y5 P12 Ru11 Rh8'
_cell_volume   544.29952281
_cell_formula_units_Z   1
loop_
 _symmetry_equiv_pos_site_id
 _symmetry_equiv_pos_as_xyz
  1  'x, y, z'
loop_
 _atom_site_type_symbol
 _atom_site_label
 _atom_site_symmetry_multiplicity
 _atom_site_fract_x
 _atom_site_fract_y
 _atom_site_fract_z
 _atom_site_occupancy
  Y  Y0  1  0.001112  0.184389  0.500000  1
  Y  Y1  1  0.817627  0.817941  0.500000  1
  Y  Y2  1  0.182014  0.001173  0.500000  1
  Y  Y3  1  0.667260  0.333284  0.000000  1
  Y  Y4  1  0.332485  0.665989  0.000000  1
  P  P5  1  0.000694  0.818574  0.000000  1
  P  P6  1  0.182719  0.185615  0.000000  1
  P  P7  1  0.818336  0.000828  0.000000  1
  P  P8  1  0.688928  0.171284  0.500000  1
  P  P9  1  0.828587  0.517153  0.500000  1
  P  P10  1  0.483423  0.310930  0.500000  1
  P  P11  1  0.171586  0.689276  0.500000  1
  P  P12  1  0.516729  0.827071  0.500000  1
  P  P13  1  0.305804  0.480454  0.500000  1
  P  P14  1  0.003703  0.370917  0.000000  1
  P  P15  1  0.629537  0.629576  0.000000  1
  P  P16  1  0.370210  0.999605  0.000000  1
  Ru  Ru17  1  0.000287  0.714003  0.500000  1
  Ru  Ru18  1  0.288043  0.285819  0.500000  1
  Ru  Ru19  1  0.713867  0.999864  0.500000  1
  Ru  Ru20  1  0.196624  0.378662  0.000000  1
  Ru  Ru21  1  0.872059  0.361031  0.500000  1
  Ru  Ru22  1  0.639306  0.512308  0.500000  1
  Ru  Ru23  1  0.488244  0.126137  0.500000  1
  Ru  Ru24  1  0.361745  0.873261  0.500000  1
  Ru  Ru25  1  0.509753  0.636065  0.500000  1
  Ru  Ru26  1  0.123669  0.488752  0.500000  1
  Ru  Ru27  1  0.000176  0.000420  0.000000  1
  Rh  Rh28  1  0.997108  0.549508  0.000000  1
  Rh  Rh29  1  0.450538  0.446629  0.000000  1
  Rh  Rh30  1  0.550672  0.999665  0.000000  1
  Rh  Rh31  1  0.807581  0.183432  0.000000  1
  Rh  Rh32  1  0.817294  0.625245  0.000000  1
  Rh  Rh33  1  0.375785  0.191413  0.000000  1
  Rh  Rh34  1  0.182907  0.807092  0.000000  1
  Rh  Rh35  1  0.623590  0.816634  0.000000  1
