# generated using pymatgen
data_Rb2SrPuO6
_symmetry_space_group_name_H-M   'P 1'
_cell_length_a   6.34238578
_cell_length_b   6.34241148
_cell_length_c   6.34225800
_cell_angle_alpha   59.99980748
_cell_angle_beta   59.99981559
_cell_angle_gamma   90.00104913
_symmetry_Int_Tables_number   1
_chemical_formula_structural   Rb2SrPuO6
_chemical_formula_sum   'Rb2 Sr1 Pu1 O6'
_cell_volume   180.39708939
_cell_formula_units_Z   1
loop_
 _symmetry_equiv_pos_site_id
 _symmetry_equiv_pos_as_xyz
  1  'x, y, z'
loop_
 _atom_site_type_symbol
 _atom_site_label
 _atom_site_symmetry_multiplicity
 _atom_site_fract_x
 _atom_site_fract_y
 _atom_site_fract_z
 _atom_site_occupancy
  Rb  Rb0  1  0.250002  0.750003  0.499997  1
  Rb  Rb1  1  0.750000  0.250000  0.500002  1
  Sr  Sr2  1  0.500004  0.500002  0.999993  1
  Pu  Pu3  1  0.000017  0.000009  0.999993  1
  O  O4  1  0.221322  0.221324  0.000000  1
  O  O5  1  0.778676  0.221321  0.000000  1
  O  O6  1  0.221319  0.778679  0.000000  1
  O  O7  1  0.778668  0.778670  0.999998  1
  O  O8  1  0.778664  0.778665  0.442666  1
  O  O9  1  0.221327  0.221328  0.557345  1
