# generated using pymatgen
data_Tb7HoHf11Si16W
_symmetry_space_group_name_H-M   'P 1'
_cell_length_a   7.26167957
_cell_length_b   7.26107724
_cell_length_c   13.32787636
_cell_angle_alpha   89.96474736
_cell_angle_beta   90.06305388
_cell_angle_gamma   90.08017488
_symmetry_Int_Tables_number   1
_chemical_formula_structural   Tb7HoHf11Si16W
_chemical_formula_sum   'Tb7 Ho1 Hf11 Si16 W1'
_cell_volume   702.74590469
_cell_formula_units_Z   1
loop_
 _symmetry_equiv_pos_site_id
 _symmetry_equiv_pos_as_xyz
  1  'x, y, z'
loop_
 _atom_site_type_symbol
 _atom_site_label
 _atom_site_symmetry_multiplicity
 _atom_site_fract_x
 _atom_site_fract_y
 _atom_site_fract_z
 _atom_site_occupancy
  Tb  Tb0  1  0.004411  0.656693  0.716832  1
  Tb  Tb1  1  0.156557  0.495116  0.465268  1
  Tb  Tb2  1  0.501939  0.845273  0.034274  1
  Tb  Tb3  1  0.845255  0.501797  0.965926  1
  Tb  Tb4  1  0.495188  0.156758  0.534504  1
  Tb  Tb5  1  0.343242  0.998341  0.787482  1
  Tb  Tb6  1  0.656859  0.004564  0.283142  1
  Ho  Ho7  1  0.998925  0.343640  0.212333  1
  Hf  Hf8  1  0.825697  0.825544  0.499875  1
  Hf  Hf9  1  0.324126  0.674253  0.248733  1
  Hf  Hf10  1  0.674504  0.324439  0.751256  1
  Hf  Hf11  1  0.147949  0.997227  0.373238  1
  Hf  Hf12  1  0.853254  0.004949  0.877785  1
  Hf  Hf13  1  0.504077  0.648504  0.624640  1
  Hf  Hf14  1  0.349061  0.493138  0.877502  1
  Hf  Hf15  1  0.493222  0.349109  0.122729  1
  Hf  Hf16  1  0.648682  0.503796  0.375145  1
  Hf  Hf17  1  0.997172  0.148241  0.626492  1
  Hf  Hf18  1  0.004853  0.853505  0.122435  1
  Si  Si19  1  0.362037  0.295520  0.315778  1
  Si  Si20  1  0.636592  0.704817  0.817562  1
  Si  Si21  1  0.204843  0.862748  0.567001  1
  Si  Si22  1  0.137945  0.797601  0.933199  1
  Si  Si23  1  0.798175  0.138594  0.067252  1
  Si  Si24  1  0.862741  0.204961  0.432833  1
  Si  Si25  1  0.295347  0.362684  0.684051  1
  Si  Si26  1  0.705248  0.636180  0.182405  1
  Si  Si27  1  0.293647  0.051597  0.182272  1
  Si  Si28  1  0.704264  0.951696  0.686161  1
  Si  Si29  1  0.450536  0.795644  0.434935  1
  Si  Si30  1  0.203316  0.545637  0.064354  1
  Si  Si31  1  0.546201  0.203790  0.935972  1
  Si  Si32  1  0.795677  0.450554  0.565000  1
  Si  Si33  1  0.051211  0.293971  0.817730  1
  Si  Si34  1  0.951853  0.703554  0.313626  1
  W  W35  1  0.175394  0.175565  0.000276  1
