# generated using pymatgen
data_Tm3Lu2Co19(Si3P)3
_symmetry_space_group_name_H-M   'P 1'
_cell_length_a   12.06379800
_cell_length_b   12.06388039
_cell_length_c   3.67135600
_cell_angle_alpha   90.00000000
_cell_angle_beta   90.00000000
_cell_angle_gamma   120.00022215
_symmetry_Int_Tables_number   1
_chemical_formula_structural   Tm3Lu2Co19(Si3P)3
_chemical_formula_sum   'Tm3 Lu2 Co19 Si9 P3'
_cell_volume   462.72955324
_cell_formula_units_Z   1
loop_
 _symmetry_equiv_pos_site_id
 _symmetry_equiv_pos_as_xyz
  1  'x, y, z'
loop_
 _atom_site_type_symbol
 _atom_site_label
 _atom_site_symmetry_multiplicity
 _atom_site_fract_x
 _atom_site_fract_y
 _atom_site_fract_z
 _atom_site_occupancy
  Tm  Tm0  1  0.666825  0.333397  0.000000  1
  Tm  Tm1  1  0.333175  0.666573  0.000000  1
  Tm  Tm2  1  0.000000  0.816278  0.500000  1
  Lu  Lu3  1  0.183974  0.184026  0.500000  1
  Lu  Lu4  1  0.816026  0.000052  0.500000  1
  Co  Co5  1  0.824438  0.196322  0.000000  1
  Co  Co6  1  0.803142  0.627686  0.000000  1
  Co  Co7  1  0.372268  0.175859  0.000000  1
  Co  Co8  1  0.196858  0.824546  0.000000  1
  Co  Co9  1  0.627732  0.803593  0.000000  1
  Co  Co10  1  0.175562  0.371886  0.000000  1
  Co  Co11  1  0.557003  0.557149  0.000000  1
  Co  Co12  1  0.442997  0.000146  0.000000  1
  Co  Co13  1  0.000000  0.442557  0.000000  1
  Co  Co14  1  0.645922  0.123955  0.500000  1
  Co  Co15  1  0.875895  0.521525  0.500000  1
  Co  Co16  1  0.478212  0.354231  0.500000  1
  Co  Co17  1  0.124105  0.645629  0.500000  1
  Co  Co18  1  0.521788  0.876017  0.500000  1
  Co  Co19  1  0.354078  0.478032  0.500000  1
  Co  Co20  1  0.722729  0.723143  0.500000  1
  Co  Co21  1  0.277271  0.000414  0.500000  1
  Co  Co22  1  0.000000  0.276689  0.500000  1
  Co  Co23  1  0.000000  0.000274  0.000000  1
  Si  Si24  1  0.368113  0.368123  0.000000  1
  Si  Si25  1  0.631887  0.000011  0.000000  1
  Si  Si26  1  0.000000  0.631387  0.000000  1
  Si  Si27  1  0.840346  0.318932  0.500000  1
  Si  Si28  1  0.680824  0.521271  0.500000  1
  Si  Si29  1  0.479045  0.159843  0.500000  1
  Si  Si30  1  0.319176  0.840447  0.500000  1
  Si  Si31  1  0.520955  0.680798  0.500000  1
  Si  Si32  1  0.159654  0.478586  0.500000  1
  P  P33  1  0.819770  0.820340  0.000000  1
  P  P34  1  0.180230  0.000570  0.000000  1
  P  P35  1  0.000000  0.179714  0.000000  1
