# generated using pymatgen
data_Eu8Hg3Ir
_symmetry_space_group_name_H-M   'P 1'
_cell_length_a   10.70417000
_cell_length_b   10.70416901
_cell_length_c   7.65725100
_cell_angle_alpha   90.00000000
_cell_angle_beta   90.00000000
_cell_angle_gamma   120.00000307
_symmetry_Int_Tables_number   1
_chemical_formula_structural   Eu8Hg3Ir
_chemical_formula_sum   'Eu16 Hg6 Ir2'
_cell_volume   759.81778846
_cell_formula_units_Z   2
loop_
 _symmetry_equiv_pos_site_id
 _symmetry_equiv_pos_as_xyz
  1  'x, y, z'
loop_
 _atom_site_type_symbol
 _atom_site_label
 _atom_site_symmetry_multiplicity
 _atom_site_fract_x
 _atom_site_fract_y
 _atom_site_fract_z
 _atom_site_occupancy
  Eu  Eu0  1  0.458780  0.541220  0.473545  1
  Eu  Eu1  1  0.082440  0.541220  0.473545  1
  Eu  Eu2  1  0.458780  0.917560  0.473545  1
  Eu  Eu3  1  0.541220  0.458780  0.973545  1
  Eu  Eu4  1  0.917560  0.458780  0.973545  1
  Eu  Eu5  1  0.541220  0.082440  0.973545  1
  Eu  Eu6  1  0.824210  0.175790  0.295363  1
  Eu  Eu7  1  0.351578  0.175790  0.295363  1
  Eu  Eu8  1  0.824210  0.648422  0.295363  1
  Eu  Eu9  1  0.175790  0.824210  0.795363  1
  Eu  Eu10  1  0.648422  0.824210  0.795363  1
  Eu  Eu11  1  0.175790  0.351578  0.795363  1
  Eu  Eu12  1  0.333333  0.666667  0.085479  1
  Eu  Eu13  1  0.666667  0.333333  0.585479  1
  Eu  Eu14  1  0.000000  0.000000  0.510951  1
  Eu  Eu15  1  0.000000  0.000000  0.010951  1
  Hg  Hg16  1  0.165135  0.834865  0.220905  1
  Hg  Hg17  1  0.669730  0.834865  0.220905  1
  Hg  Hg18  1  0.165135  0.330270  0.220905  1
  Hg  Hg19  1  0.834865  0.165135  0.720905  1
  Hg  Hg20  1  0.330270  0.165135  0.720905  1
  Hg  Hg21  1  0.834865  0.669730  0.720905  1
  Ir  Ir22  1  0.333333  0.666667  0.706413  1
  Ir  Ir23  1  0.666667  0.333333  0.206413  1
