# generated using pymatgen
data_Mn8NbRu3
_symmetry_space_group_name_H-M   'P 1'
_cell_length_a   4.69174600
_cell_length_b   4.69174494
_cell_length_c   7.68568400
_cell_angle_alpha   90.00000000
_cell_angle_beta   90.00000000
_cell_angle_gamma   120.00000747
_symmetry_Int_Tables_number   1
_chemical_formula_structural   Mn8NbRu3
_chemical_formula_sum   'Mn8 Nb1 Ru3'
_cell_volume   146.51497320
_cell_formula_units_Z   1
loop_
 _symmetry_equiv_pos_site_id
 _symmetry_equiv_pos_as_xyz
  1  'x, y, z'
loop_
 _atom_site_type_symbol
 _atom_site_label
 _atom_site_symmetry_multiplicity
 _atom_site_fract_x
 _atom_site_fract_y
 _atom_site_fract_z
 _atom_site_occupancy
  Mn  Mn0  1  0.174265  0.348530  0.747429  1
  Mn  Mn1  1  0.824892  0.175108  0.256048  1
  Mn  Mn2  1  0.350216  0.175108  0.256048  1
  Mn  Mn3  1  0.651470  0.825735  0.747429  1
  Mn  Mn4  1  0.000000  0.000000  0.999502  1
  Mn  Mn5  1  0.000000  0.000000  0.499727  1
  Mn  Mn6  1  0.824892  0.649784  0.256048  1
  Mn  Mn7  1  0.174265  0.825735  0.747429  1
  Nb  Nb8  1  0.333333  0.666667  0.063111  1
  Ru  Ru9  1  0.333333  0.666667  0.432859  1
  Ru  Ru10  1  0.666667  0.333333  0.925111  1
  Ru  Ru11  1  0.666667  0.333333  0.569257  1
