# generated using pymatgen
data_Th5BiPb2S
_symmetry_space_group_name_H-M   'P 1'
_cell_length_a   9.55073870
_cell_length_b   9.57174050
_cell_length_c   6.67160400
_cell_angle_alpha   90.00000000
_cell_angle_beta   90.00000000
_cell_angle_gamma   120.07277421
_symmetry_Int_Tables_number   1
_chemical_formula_structural   Th5BiPb2S
_chemical_formula_sum   'Th10 Bi2 Pb4 S2'
_cell_volume   527.80053589
_cell_formula_units_Z   2
loop_
 _symmetry_equiv_pos_site_id
 _symmetry_equiv_pos_as_xyz
  1  'x, y, z'
loop_
 _atom_site_type_symbol
 _atom_site_label
 _atom_site_symmetry_multiplicity
 _atom_site_fract_x
 _atom_site_fract_y
 _atom_site_fract_z
 _atom_site_occupancy
  Th  Th0  1  0.752305  0.751690  0.750000  1
  Th  Th1  1  0.247695  0.999385  0.750000  1
  Th  Th2  1  0.000000  0.248663  0.750000  1
  Th  Th3  1  0.247583  0.247751  0.250000  1
  Th  Th4  1  0.752417  0.000167  0.250000  1
  Th  Th5  1  0.000000  0.752067  0.250000  1
  Th  Th6  1  0.666989  0.333502  0.000991  1
  Th  Th7  1  0.333011  0.666513  0.000991  1
  Th  Th8  1  0.333011  0.666513  0.499009  1
  Th  Th9  1  0.666989  0.333502  0.499009  1
  Bi  Bi10  1  0.394472  0.394396  0.750000  1
  Bi  Bi11  1  0.605528  0.999924  0.750000  1
  Pb  Pb12  1  0.000000  0.605746  0.750000  1
  Pb  Pb13  1  0.606072  0.605793  0.250000  1
  Pb  Pb14  1  0.393928  0.999721  0.250000  1
  Pb  Pb15  1  0.000000  0.394354  0.250000  1
  S  S16  1  0.000000  0.000158  0.000106  1
  S  S17  1  0.000000  0.000158  0.499894  1
