# generated using pymatgen
data_Tb17Tm2LuPb16
_symmetry_space_group_name_H-M   'P 1'
_cell_length_a   8.22235202
_cell_length_b   8.31320796
_cell_length_c   15.71152800
_cell_angle_alpha   90.00000000
_cell_angle_beta   90.00000000
_cell_angle_gamma   89.92149213
_symmetry_Int_Tables_number   1
_chemical_formula_structural   Tb17Tm2LuPb16
_chemical_formula_sum   'Tb17 Tm2 Lu1 Pb16'
_cell_volume   1073.94669813
_cell_formula_units_Z   1
loop_
 _symmetry_equiv_pos_site_id
 _symmetry_equiv_pos_as_xyz
  1  'x, y, z'
loop_
 _atom_site_type_symbol
 _atom_site_label
 _atom_site_symmetry_multiplicity
 _atom_site_fract_x
 _atom_site_fract_y
 _atom_site_fract_z
 _atom_site_occupancy
  Tb  Tb0  1  0.376612  0.841492  0.879136  1
  Tb  Tb1  1  0.876489  0.658432  0.620493  1
  Tb  Tb2  1  0.623963  0.159052  0.379717  1
  Tb  Tb3  1  0.122754  0.341772  0.120390  1
  Tb  Tb4  1  0.623963  0.159052  0.120283  1
  Tb  Tb5  1  0.122754  0.341772  0.379610  1
  Tb  Tb6  1  0.376612  0.841492  0.620864  1
  Tb  Tb7  1  0.876489  0.658432  0.879507  1
  Tb  Tb8  1  0.533982  0.323332  0.900143  1
  Tb  Tb9  1  0.034047  0.176653  0.600158  1
  Tb  Tb10  1  0.466458  0.676091  0.400159  1
  Tb  Tb11  1  0.965684  0.822857  0.099799  1
  Tb  Tb12  1  0.466458  0.676091  0.099841  1
  Tb  Tb13  1  0.965684  0.822857  0.400201  1
  Tb  Tb14  1  0.533982  0.323332  0.599857  1
  Tb  Tb15  1  0.034047  0.176653  0.899842  1
  Tb  Tb16  1  0.291457  0.003665  0.250000  1
  Tm  Tm17  1  0.208639  0.503882  0.750000  1
  Tm  Tm18  1  0.708652  0.995820  0.750000  1
  Lu  Lu19  1  0.790942  0.495775  0.250000  1
  Pb  Pb20  1  0.281383  0.033573  0.042838  1
  Pb  Pb21  1  0.781532  0.466948  0.456234  1
  Pb  Pb22  1  0.718520  0.966993  0.543698  1
  Pb  Pb23  1  0.218685  0.533223  0.956344  1
  Pb  Pb24  1  0.718520  0.966993  0.956302  1
  Pb  Pb25  1  0.218685  0.533223  0.543656  1
  Pb  Pb26  1  0.281383  0.033573  0.457162  1
  Pb  Pb27  1  0.781532  0.466948  0.043766  1
  Pb  Pb28  1  0.572205  0.625866  0.750000  1
  Pb  Pb29  1  0.072143  0.873880  0.750000  1
  Pb  Pb30  1  0.428742  0.375158  0.250000  1
  Pb  Pb31  1  0.926402  0.127147  0.250000  1
  Pb  Pb32  1  0.345993  0.154228  0.750000  1
  Pb  Pb33  1  0.845605  0.346532  0.750000  1
  Pb  Pb34  1  0.655003  0.845304  0.250000  1
  Pb  Pb35  1  0.154004  0.651906  0.250000  1
