# generated using pymatgen
data_Ca4NdSi12Rh19
_symmetry_space_group_name_H-M   'P 1'
_cell_length_a   12.82282700
_cell_length_b   12.82282594
_cell_length_c   4.01185600
_cell_angle_alpha   90.00000000
_cell_angle_beta   90.00000000
_cell_angle_gamma   120.00000014
_symmetry_Int_Tables_number   1
_chemical_formula_structural   Ca4NdSi12Rh19
_chemical_formula_sum   'Ca4 Nd1 Si12 Rh19'
_cell_volume   571.27273559
_cell_formula_units_Z   1
loop_
 _symmetry_equiv_pos_site_id
 _symmetry_equiv_pos_as_xyz
  1  'x, y, z'
loop_
 _atom_site_type_symbol
 _atom_site_label
 _atom_site_symmetry_multiplicity
 _atom_site_fract_x
 _atom_site_fract_y
 _atom_site_fract_z
 _atom_site_occupancy
  Ca  Ca0  1  0.999932  0.183671  0.500000  1
  Ca  Ca1  1  0.816329  0.816261  0.500000  1
  Ca  Ca2  1  0.183739  0.000068  0.500000  1
  Ca  Ca3  1  0.333333  0.666667  0.000000  1
  Nd  Nd4  1  0.666667  0.333333  0.000000  1
  Si  Si5  1  0.473692  0.313056  0.500000  1
  Si  Si6  1  0.816468  0.999041  0.000000  1
  Si  Si7  1  0.182574  0.183532  0.000000  1
  Si  Si8  1  0.000959  0.817426  0.000000  1
  Si  Si9  1  0.372247  0.998712  0.000000  1
  Si  Si10  1  0.686944  0.160636  0.500000  1
  Si  Si11  1  0.839364  0.526308  0.500000  1
  Si  Si12  1  0.524297  0.837460  0.500000  1
  Si  Si13  1  0.162540  0.686837  0.500000  1
  Si  Si14  1  0.313163  0.475703  0.500000  1
  Si  Si15  1  0.001288  0.373535  0.000000  1
  Si  Si16  1  0.626465  0.627753  0.000000  1
  Rh  Rh17  1  0.808009  0.183868  0.000000  1
  Rh  Rh18  1  0.375859  0.191991  0.000000  1
  Rh  Rh19  1  0.640178  0.513744  0.500000  1
  Rh  Rh20  1  0.873566  0.359822  0.500000  1
  Rh  Rh21  1  0.360385  0.874042  0.500000  1
  Rh  Rh22  1  0.513657  0.639615  0.500000  1
  Rh  Rh23  1  0.125958  0.486343  0.500000  1
  Rh  Rh24  1  0.816132  0.624141  0.000000  1
  Rh  Rh25  1  0.622373  0.816006  0.000000  1
  Rh  Rh26  1  0.183994  0.806368  0.000000  1
  Rh  Rh27  1  0.193632  0.377627  0.000000  1
  Rh  Rh28  1  0.000753  0.722592  0.500000  1
  Rh  Rh29  1  0.277408  0.278161  0.500000  1
  Rh  Rh30  1  0.721839  0.999247  0.500000  1
  Rh  Rh31  1  0.998632  0.554251  0.000000  1
  Rh  Rh32  1  0.445749  0.444381  0.000000  1
  Rh  Rh33  1  0.555619  0.001368  0.000000  1
  Rh  Rh34  1  0.000000  0.000000  0.000000  1
  Rh  Rh35  1  0.486256  0.126434  0.500000  1
