# generated using pymatgen
data_Tm8B24RuRh2W
_symmetry_space_group_name_H-M   'P 1'
_cell_length_a   3.61896900
_cell_length_b   9.10498018
_cell_length_c   11.48490557
_cell_angle_alpha   90.36279335
_cell_angle_beta   90.00000000
_cell_angle_gamma   90.00000000
_symmetry_Int_Tables_number   1
_chemical_formula_structural   Tm8B24RuRh2W
_chemical_formula_sum   'Tm8 B24 Ru1 Rh2 W1'
_cell_volume   378.42741398
_cell_formula_units_Z   1
loop_
 _symmetry_equiv_pos_site_id
 _symmetry_equiv_pos_as_xyz
  1  'x, y, z'
loop_
 _atom_site_type_symbol
 _atom_site_label
 _atom_site_symmetry_multiplicity
 _atom_site_fract_x
 _atom_site_fract_y
 _atom_site_fract_z
 _atom_site_occupancy
  Tm  Tm0  1  0.500000  0.318299  0.410295  1
  Tm  Tm1  1  0.500000  0.678556  0.585899  1
  Tm  Tm2  1  0.500000  0.176793  0.916759  1
  Tm  Tm3  1  0.500000  0.824082  0.084792  1
  Tm  Tm4  1  0.500000  0.445336  0.125506  1
  Tm  Tm5  1  0.500000  0.558666  0.871963  1
  Tm  Tm6  1  0.500000  0.054476  0.629375  1
  Tm  Tm7  1  0.500000  0.944832  0.374503  1
  B  B8  1  0.000000  0.106304  0.472998  1
  B  B9  1  0.000000  0.892002  0.530220  1
  B  B10  1  0.000000  0.396583  0.969280  1
  B  B11  1  0.000000  0.607188  0.028493  1
  B  B12  1  0.000000  0.132097  0.317876  1
  B  B13  1  0.000000  0.867455  0.684584  1
  B  B14  1  0.000000  0.368039  0.816601  1
  B  B15  1  0.000000  0.633549  0.183479  1
  B  B16  1  0.000000  0.051030  0.064003  1
  B  B17  1  0.000000  0.945810  0.932464  1
  B  B18  1  0.000000  0.445491  0.565276  1
  B  B19  1  0.000000  0.552605  0.434093  1
  B  B20  1  0.000000  0.482737  0.288133  1
  B  B21  1  0.000000  0.517731  0.711242  1
  B  B22  1  0.000000  0.016680  0.787147  1
  B  B23  1  0.000000  0.978955  0.214014  1
  B  B24  1  0.000000  0.251670  0.077699  1
  B  B25  1  0.000000  0.752005  0.919097  1
  B  B26  1  0.000000  0.250163  0.579260  1
  B  B27  1  0.000000  0.748453  0.421730  1
  B  B28  1  0.000000  0.296592  0.236399  1
  B  B29  1  0.000000  0.707135  0.764524  1
  B  B30  1  0.000000  0.207851  0.736538  1
  B  B31  1  0.000000  0.791986  0.265753  1
  Ru  Ru32  1  0.500000  0.860343  0.819765  1
  Rh  Rh33  1  0.500000  0.361630  0.679206  1
  Rh  Rh34  1  0.500000  0.638435  0.321337  1
  W  W35  1  0.500000  0.138441  0.179699  1
