# generated using pymatgen
data_Mg2PaRh3
_symmetry_space_group_name_H-M   'P 1'
_cell_length_a   3.54965100
_cell_length_b   4.54178154
_cell_length_c   6.85592447
_cell_angle_alpha   70.79217106
_cell_angle_beta   90.00000000
_cell_angle_gamma   90.00000000
_symmetry_Int_Tables_number   1
_chemical_formula_structural   Mg2PaRh3
_chemical_formula_sum   'Mg2 Pa1 Rh3'
_cell_volume   104.37641188
_cell_formula_units_Z   1
loop_
 _symmetry_equiv_pos_site_id
 _symmetry_equiv_pos_as_xyz
  1  'x, y, z'
loop_
 _atom_site_type_symbol
 _atom_site_label
 _atom_site_symmetry_multiplicity
 _atom_site_fract_x
 _atom_site_fract_y
 _atom_site_fract_z
 _atom_site_occupancy
  Mg  Mg0  1  0.000000  0.342013  0.313424  1
  Mg  Mg1  1  0.000000  0.991342  0.019898  1
  Pa  Pa2  1  0.000000  0.666666  0.666672  1
  Rh  Rh3  1  0.500000  0.510465  0.981943  1
  Rh  Rh4  1  0.500000  0.822867  0.351390  1
  Rh  Rh5  1  0.500000  0.166646  0.666672  1
