# generated using pymatgen
data_Yb3Er3Al17Si7Os8
_symmetry_space_group_name_H-M   'P 1'
_cell_length_a   8.67910114
_cell_length_b   8.66839633
_cell_length_c   9.55670300
_cell_angle_alpha   90.00000000
_cell_angle_beta   90.00000000
_cell_angle_gamma   120.17460328
_symmetry_Int_Tables_number   1
_chemical_formula_structural   Yb3Er3Al17Si7Os8
_chemical_formula_sum   'Yb3 Er3 Al17 Si7 Os8'
_cell_volume   621.56339827
_cell_formula_units_Z   1
loop_
 _symmetry_equiv_pos_site_id
 _symmetry_equiv_pos_as_xyz
  1  'x, y, z'
loop_
 _atom_site_type_symbol
 _atom_site_label
 _atom_site_symmetry_multiplicity
 _atom_site_fract_x
 _atom_site_fract_y
 _atom_site_fract_z
 _atom_site_occupancy
  Yb  Yb0  1  0.192229  0.388897  0.250000  1
  Yb  Yb1  1  0.610115  0.807753  0.250000  1
  Yb  Yb2  1  0.196377  0.804458  0.250000  1
  Er  Er3  1  0.805804  0.611472  0.750000  1
  Er  Er4  1  0.390541  0.192289  0.750000  1
  Er  Er5  1  0.801384  0.193103  0.750000  1
  Al  Al6  1  0.165189  0.331771  0.577394  1
  Al  Al7  1  0.833291  0.668762  0.420248  1
  Al  Al8  1  0.669313  0.834272  0.576707  1
  Al  Al9  1  0.833291  0.668762  0.079752  1
  Al  Al10  1  0.332245  0.166804  0.421535  1
  Al  Al11  1  0.165189  0.331771  0.922606  1
  Al  Al12  1  0.164726  0.833278  0.575289  1
  Al  Al13  1  0.332245  0.166804  0.078465  1
  Al  Al14  1  0.834248  0.165053  0.421310  1
  Al  Al15  1  0.669313  0.834272  0.923293  1
  Al  Al16  1  0.834248  0.165053  0.078690  1
  Al  Al17  1  0.164726  0.833278  0.924711  1
  Al  Al18  1  0.126150  0.566168  0.750000  1
  Al  Al19  1  0.563815  0.435424  0.250000  1
  Al  Al20  1  0.438223  0.567011  0.750000  1
  Al  Al21  1  0.999830  0.999177  0.250000  1
  Al  Al22  1  0.999776  0.000910  0.750000  1
  Si  Si23  1  0.333665  0.664413  0.038513  1
  Si  Si24  1  0.666510  0.335455  0.958474  1
  Si  Si25  1  0.666510  0.335455  0.541526  1
  Si  Si26  1  0.333665  0.664413  0.461487  1
  Si  Si27  1  0.565640  0.125798  0.250000  1
  Si  Si28  1  0.435777  0.872611  0.750000  1
  Si  Si29  1  0.874103  0.434018  0.250000  1
  Os  Os30  1  0.502075  0.003018  0.996723  1
  Os  Os31  1  0.996192  0.498040  0.002822  1
  Os  Os32  1  0.502075  0.003018  0.503277  1
  Os  Os33  1  0.501834  0.499131  0.996537  1
  Os  Os34  1  0.996192  0.498040  0.497178  1
  Os  Os35  1  0.501834  0.499131  0.503463  1
  Os  Os36  1  0.000828  0.000459  0.000597  1
  Os  Os37  1  0.000828  0.000459  0.499403  1
