# generated using pymatgen
data_DyTm5Al20(SiOs2)4
_symmetry_space_group_name_H-M   'P 1'
_cell_length_a   8.68094600
_cell_length_b   8.68094460
_cell_length_c   9.61399900
_cell_angle_alpha   90.00000000
_cell_angle_beta   90.00000000
_cell_angle_gamma   119.99758486
_symmetry_Int_Tables_number   1
_chemical_formula_structural   DyTm5Al20(SiOs2)4
_chemical_formula_sum   'Dy1 Tm5 Al20 Si4 Os8'
_cell_volume   627.45027261
_cell_formula_units_Z   1
loop_
 _symmetry_equiv_pos_site_id
 _symmetry_equiv_pos_as_xyz
  1  'x, y, z'
loop_
 _atom_site_type_symbol
 _atom_site_label
 _atom_site_symmetry_multiplicity
 _atom_site_fract_x
 _atom_site_fract_y
 _atom_site_fract_z
 _atom_site_occupancy
  Dy  Dy0  1  0.804982  0.195018  0.750000  1
  Tm  Tm1  1  0.196668  0.393322  0.250000  1
  Tm  Tm2  1  0.803254  0.607027  0.750000  1
  Tm  Tm3  1  0.606678  0.803332  0.250000  1
  Tm  Tm4  1  0.392973  0.196746  0.750000  1
  Tm  Tm5  1  0.196518  0.803482  0.250000  1
  Al  Al6  1  0.165311  0.330195  0.576956  1
  Al  Al7  1  0.835131  0.670228  0.422529  1
  Al  Al8  1  0.669805  0.834689  0.576956  1
  Al  Al9  1  0.835131  0.670228  0.077471  1
  Al  Al10  1  0.329772  0.164869  0.422529  1
  Al  Al11  1  0.165311  0.330195  0.923044  1
  Al  Al12  1  0.164851  0.835149  0.577202  1
  Al  Al13  1  0.329772  0.164869  0.077471  1
  Al  Al14  1  0.835074  0.164926  0.422082  1
  Al  Al15  1  0.669805  0.834689  0.923044  1
  Al  Al16  1  0.835074  0.164926  0.077918  1
  Al  Al17  1  0.164851  0.835149  0.922798  1
  Al  Al18  1  0.563375  0.126942  0.250000  1
  Al  Al19  1  0.435874  0.872680  0.750000  1
  Al  Al20  1  0.873058  0.436625  0.250000  1
  Al  Al21  1  0.127320  0.564126  0.750000  1
  Al  Al22  1  0.563402  0.436598  0.250000  1
  Al  Al23  1  0.436607  0.563393  0.750000  1
  Al  Al24  1  0.999949  0.000051  0.250000  1
  Al  Al25  1  0.001001  0.998999  0.750000  1
  Si  Si26  1  0.333224  0.666776  0.039001  1
  Si  Si27  1  0.666391  0.333609  0.961753  1
  Si  Si28  1  0.666391  0.333609  0.538247  1
  Si  Si29  1  0.333224  0.666776  0.460999  1
  Os  Os30  1  0.499526  0.999751  0.000542  1
  Os  Os31  1  0.000249  0.500474  0.000542  1
  Os  Os32  1  0.499526  0.999751  0.499458  1
  Os  Os33  1  0.499891  0.500109  0.000176  1
  Os  Os34  1  0.000249  0.500474  0.499458  1
  Os  Os35  1  0.499891  0.500109  0.499824  1
  Os  Os36  1  0.999947  0.000053  0.000132  1
  Os  Os37  1  0.999947  0.000053  0.499868  1
