# generated using pymatgen
data_Yb2Er2Ga15(SiIr2)3
_symmetry_space_group_name_H-M   'P 1'
_cell_length_a   7.55601176
_cell_length_b   7.47696631
_cell_length_c   9.47989917
_cell_angle_alpha   89.93301208
_cell_angle_beta   90.06008714
_cell_angle_gamma   119.87591119
_symmetry_Int_Tables_number   1
_chemical_formula_structural   Yb2Er2Ga15(SiIr2)3
_chemical_formula_sum   'Yb2 Er2 Ga15 Si3 Ir6'
_cell_volume   464.40161871
_cell_formula_units_Z   1
loop_
 _symmetry_equiv_pos_site_id
 _symmetry_equiv_pos_as_xyz
  1  'x, y, z'
loop_
 _atom_site_type_symbol
 _atom_site_label
 _atom_site_symmetry_multiplicity
 _atom_site_fract_x
 _atom_site_fract_y
 _atom_site_fract_z
 _atom_site_occupancy
  Yb  Yb0  1  0.672654  0.002185  0.248388  1
  Yb  Yb1  1  0.324502  0.993591  0.749705  1
  Er  Er2  1  0.996557  0.664903  0.247613  1
  Er  Er3  1  0.003779  0.341280  0.751050  1
  Ga  Ga4  1  0.130032  0.126794  0.250586  1
  Ga  Ga5  1  0.871238  0.870598  0.750956  1
  Ga  Ga6  1  0.342936  0.004618  0.420240  1
  Ga  Ga7  1  0.998441  0.325585  0.419265  1
  Ga  Ga8  1  0.665272  0.002335  0.579735  1
  Ga  Ga9  1  0.661000  0.998787  0.918283  1
  Ga  Ga10  1  0.340903  0.003663  0.080765  1
  Ga  Ga11  1  0.331928  0.327318  0.570322  1
  Ga  Ga12  1  0.660875  0.670283  0.431674  1
  Ga  Ga13  1  0.660116  0.670405  0.070948  1
  Ga  Ga14  1  0.336967  0.328139  0.928453  1
  Ga  Ga15  1  0.336935  0.547064  0.250828  1
  Ga  Ga16  1  0.661636  0.455397  0.752059  1
  Ga  Ga17  1  0.549971  0.340808  0.251104  1
  Ga  Ga18  1  0.452253  0.662277  0.750555  1
  Si  Si19  1  0.000428  0.328986  0.073399  1
  Si  Si20  1  0.998657  0.671118  0.928438  1
  Si  Si21  1  0.001119  0.666056  0.567888  1
  Ir  Ir22  1  0.697284  0.344874  0.002663  1
  Ir  Ir23  1  0.301777  0.654935  0.998103  1
  Ir  Ir24  1  0.313974  0.666493  0.503003  1
  Ir  Ir25  1  0.687638  0.345251  0.502395  1
  Ir  Ir26  1  0.999804  0.000176  0.000556  1
  Ir  Ir27  1  0.001324  0.986081  0.501026  1
