# generated using pymatgen
data_Ca20Ga3Cu8Hg
_symmetry_space_group_name_H-M   'P 1'
_cell_length_a   7.94968500
_cell_length_b   7.94968500
_cell_length_c   14.65195900
_cell_angle_alpha   90.00000000
_cell_angle_beta   90.00000000
_cell_angle_gamma   90.00000000
_symmetry_Int_Tables_number   1
_chemical_formula_structural   Ca20Ga3Cu8Hg
_chemical_formula_sum   'Ca20 Ga3 Cu8 Hg1'
_cell_volume   925.96705581
_cell_formula_units_Z   1
loop_
 _symmetry_equiv_pos_site_id
 _symmetry_equiv_pos_as_xyz
  1  'x, y, z'
loop_
 _atom_site_type_symbol
 _atom_site_label
 _atom_site_symmetry_multiplicity
 _atom_site_fract_x
 _atom_site_fract_y
 _atom_site_fract_z
 _atom_site_occupancy
  Ca  Ca0  1  0.670224  0.170652  0.107577  1
  Ca  Ca1  1  0.172557  0.670890  0.608726  1
  Ca  Ca2  1  0.329776  0.829348  0.107577  1
  Ca  Ca3  1  0.827443  0.329110  0.608726  1
  Ca  Ca4  1  0.829348  0.670224  0.107577  1
  Ca  Ca5  1  0.329110  0.172557  0.608726  1
  Ca  Ca6  1  0.170652  0.329776  0.107577  1
  Ca  Ca7  1  0.670890  0.827443  0.608726  1
  Ca  Ca8  1  0.829348  0.329776  0.892423  1
  Ca  Ca9  1  0.329110  0.827443  0.391274  1
  Ca  Ca10  1  0.170652  0.670224  0.892423  1
  Ca  Ca11  1  0.670890  0.172557  0.391274  1
  Ca  Ca12  1  0.670224  0.829348  0.892423  1
  Ca  Ca13  1  0.172557  0.329110  0.391274  1
  Ca  Ca14  1  0.329776  0.170652  0.892423  1
  Ca  Ca15  1  0.827443  0.670890  0.391274  1
  Ca  Ca16  1  0.500000  0.500000  0.754427  1
  Ca  Ca17  1  0.000000  0.000000  0.252414  1
  Ca  Ca18  1  0.000000  0.000000  0.747586  1
  Ca  Ca19  1  0.500000  0.500000  0.245573  1
  Ga  Ga20  1  0.500000  0.500000  0.500000  1
  Ga  Ga21  1  0.500000  0.500000  0.000000  1
  Ga  Ga22  1  0.000000  0.000000  0.500000  1
  Cu  Cu23  1  0.612641  0.113210  0.751433  1
  Cu  Cu24  1  0.113210  0.612641  0.248567  1
  Cu  Cu25  1  0.886790  0.387359  0.248567  1
  Cu  Cu26  1  0.387359  0.886790  0.751433  1
  Cu  Cu27  1  0.886790  0.612641  0.751433  1
  Cu  Cu28  1  0.387359  0.113210  0.248567  1
  Cu  Cu29  1  0.113210  0.387359  0.751433  1
  Cu  Cu30  1  0.612641  0.886790  0.248567  1
  Hg  Hg31  1  0.000000  0.000000  0.000000  1
