# generated using pymatgen
data_Zr8Co16GeAs10P
_symmetry_space_group_name_H-M   'P 1'
_cell_length_a   12.53319389
_cell_length_b   12.55337047
_cell_length_c   3.77066100
_cell_angle_alpha   90.00000000
_cell_angle_beta   90.00000000
_cell_angle_gamma   119.97715022
_symmetry_Int_Tables_number   1
_chemical_formula_structural   Zr8Co16GeAs10P
_chemical_formula_sum   'Zr8 Co16 Ge1 As10 P1'
_cell_volume   513.89000993
_cell_formula_units_Z   1
loop_
 _symmetry_equiv_pos_site_id
 _symmetry_equiv_pos_as_xyz
  1  'x, y, z'
loop_
 _atom_site_type_symbol
 _atom_site_label
 _atom_site_symmetry_multiplicity
 _atom_site_fract_x
 _atom_site_fract_y
 _atom_site_fract_z
 _atom_site_occupancy
  Zr  Zr0  1  0.441897  0.441256  0.000000  1
  Zr  Zr1  1  0.556534  0.999641  0.000000  1
  Zr  Zr2  1  0.999803  0.556306  0.000000  1
  Zr  Zr3  1  0.666296  0.333636  0.000000  1
  Zr  Zr4  1  0.333342  0.665995  0.000000  1
  Zr  Zr5  1  0.824851  0.824731  0.500000  1
  Zr  Zr6  1  0.175834  0.007711  0.500000  1
  Zr  Zr7  1  0.006220  0.174245  0.500000  1
  Co  Co8  1  0.193065  0.365359  0.000000  1
  Co  Co9  1  0.177482  0.805430  0.000000  1
  Co  Co10  1  0.824434  0.630114  0.000000  1
  Co  Co11  1  0.804605  0.177600  0.000000  1
  Co  Co12  1  0.364734  0.193414  0.000000  1
  Co  Co13  1  0.123988  0.478343  0.500000  1
  Co  Co14  1  0.355240  0.874786  0.500000  1
  Co  Co15  1  0.520286  0.644249  0.500000  1
  Co  Co16  1  0.645877  0.523781  0.500000  1
  Co  Co17  1  0.876769  0.355607  0.500000  1
  Co  Co18  1  0.475939  0.120243  0.500000  1
  Co  Co19  1  0.008249  0.008664  0.000000  1
  Co  Co20  1  0.720345  0.999676  0.500000  1
  Co  Co21  1  0.999780  0.720307  0.500000  1
  Co  Co22  1  0.628549  0.822549  0.000000  1
  Co  Co23  1  0.272814  0.274105  0.500000  1
  Ge  Ge24  1  0.483838  0.308789  0.500000  1
  As  As25  1  0.654229  0.653977  0.000000  1
  As  As26  1  0.344602  0.000688  0.000000  1
  As  As27  1  0.999743  0.343764  0.000000  1
  As  As28  1  0.689164  0.174710  0.500000  1
  As  As29  1  0.824848  0.515400  0.500000  1
  As  As30  1  0.515648  0.825227  0.500000  1
  As  As31  1  0.174393  0.689729  0.500000  1
  As  As32  1  0.826911  0.001106  0.000000  1
  As  As33  1  0.001623  0.827902  0.000000  1
  As  As34  1  0.309346  0.482497  0.500000  1
  P  P35  1  0.178721  0.178462  0.000000  1
