# generated using pymatgen
data_Tm3Lu13MgNi4Hg3
_symmetry_space_group_name_H-M   'P 1'
_cell_length_a   9.36093180
_cell_length_b   9.32507664
_cell_length_c   9.32507700
_cell_angle_alpha   60.00000229
_cell_angle_beta   60.12662683
_cell_angle_gamma   60.12662667
_symmetry_Int_Tables_number   1
_chemical_formula_structural   Tm3Lu13MgNi4Hg3
_chemical_formula_sum   'Tm3 Lu13 Mg1 Ni4 Hg3'
_cell_volume   576.68347254
_cell_formula_units_Z   1
loop_
 _symmetry_equiv_pos_site_id
 _symmetry_equiv_pos_as_xyz
  1  'x, y, z'
loop_
 _atom_site_type_symbol
 _atom_site_label
 _atom_site_symmetry_multiplicity
 _atom_site_fract_x
 _atom_site_fract_y
 _atom_site_fract_z
 _atom_site_occupancy
  Tm  Tm0  1  0.598105  0.596885  0.596885  1
  Tm  Tm1  1  0.598105  0.596885  0.208125  1
  Tm  Tm2  1  0.598105  0.208125  0.596885  1
  Lu  Lu3  1  0.197536  0.600821  0.600821  1
  Lu  Lu4  1  0.058782  0.440155  0.440155  1
  Lu  Lu5  1  0.435436  0.063207  0.063207  1
  Lu  Lu6  1  0.435436  0.063207  0.438151  1
  Lu  Lu7  1  0.058782  0.440155  0.060909  1
  Lu  Lu8  1  0.435436  0.438151  0.063207  1
  Lu  Lu9  1  0.058782  0.060909  0.440155  1
  Lu  Lu10  1  0.185835  0.813746  0.813746  1
  Lu  Lu11  1  0.813823  0.186164  0.186164  1
  Lu  Lu12  1  0.813823  0.186164  0.813851  1
  Lu  Lu13  1  0.185835  0.813746  0.186674  1
  Lu  Lu14  1  0.813823  0.813851  0.186164  1
  Lu  Lu15  1  0.185835  0.186674  0.813746  1
  Mg  Mg16  1  0.534474  0.821842  0.821842  1
  Ni  Ni17  1  0.387693  0.394138  0.394138  1
  Ni  Ni18  1  0.387693  0.394138  0.824032  1
  Ni  Ni19  1  0.387693  0.824032  0.394138  1
  Ni  Ni20  1  0.825145  0.391619  0.391619  1
  Hg  Hg21  1  0.834608  0.836780  0.836780  1
  Hg  Hg22  1  0.834608  0.836780  0.491830  1
  Hg  Hg23  1  0.834608  0.491830  0.836780  1
