# generated using pymatgen
data_Sr14HoBi11
_symmetry_space_group_name_H-M   'P 1'
_cell_length_a   17.42021604
_cell_length_b   17.42021590
_cell_length_c   17.42021600
_cell_angle_alpha   117.53088632
_cell_angle_beta   117.53088608
_cell_angle_gamma   94.33262965
_symmetry_Int_Tables_number   1
_chemical_formula_structural   Sr14HoBi11
_chemical_formula_sum   'Sr56 Ho4 Bi44'
_cell_volume   3865.60386945
_cell_formula_units_Z   4
loop_
 _symmetry_equiv_pos_site_id
 _symmetry_equiv_pos_as_xyz
  1  'x, y, z'
loop_
 _atom_site_type_symbol
 _atom_site_label
 _atom_site_symmetry_multiplicity
 _atom_site_fract_x
 _atom_site_fract_y
 _atom_site_fract_z
 _atom_site_occupancy
  Sr  Sr0  1  0.499321  0.605562  0.845574  1
  Sr  Sr1  1  0.625000  0.228639  0.103639  1
  Sr  Sr2  1  0.160320  0.027647  0.781783  1
  Sr  Sr3  1  0.897717  0.377095  0.840788  1
  Sr  Sr4  1  0.125000  0.021361  0.396361  1
  Sr  Sr5  1  0.771361  0.875000  0.396361  1
  Sr  Sr6  1  0.128537  0.410320  0.632674  1
  Sr  Sr7  1  0.759988  0.653747  0.154426  1
  Sr  Sr8  1  0.713693  0.372905  0.020622  1
  Sr  Sr9  1  0.443071  0.963693  0.840788  1
  Sr  Sr10  1  0.306929  0.286307  0.659212  1
  Sr  Sr11  1  0.036307  0.877095  0.479378  1
  Sr  Sr12  1  0.490012  0.144438  0.393759  1
  Sr  Sr13  1  0.355562  0.009988  0.606241  1
  Sr  Sr14  1  0.125000  0.521361  0.896361  1
  Sr  Sr15  1  0.990012  0.596253  0.345574  1
  Sr  Sr16  1  0.943071  0.102283  0.479378  1
  Sr  Sr17  1  0.627095  0.647717  0.340788  1
  Sr  Sr18  1  0.894438  0.000679  0.154426  1
  Sr  Sr19  1  0.352283  0.693071  0.979378  1
  Sr  Sr20  1  0.122905  0.602283  0.159212  1
  Sr  Sr21  1  0.999321  0.153747  0.893759  1
  Sr  Sr22  1  0.660320  0.878537  0.132674  1
  Sr  Sr23  1  0.504137  0.871463  0.281783  1
  Sr  Sr24  1  0.852283  0.872905  0.659212  1
  Sr  Sr25  1  0.213693  0.193071  0.340788  1
  Sr  Sr26  1  0.004137  0.722353  0.632674  1
  Sr  Sr27  1  0.745863  0.527647  0.867326  1
  Sr  Sr28  1  0.259988  0.105562  0.106241  1
  Sr  Sr29  1  0.245863  0.378537  0.218217  1
  Sr  Sr30  1  0.346253  0.500679  0.106241  1
  Sr  Sr31  1  0.250679  0.644438  0.654426  1
  Sr  Sr32  1  0.750679  0.096253  0.606241  1
  Sr  Sr33  1  0.625000  0.728639  0.603639  1
  Sr  Sr34  1  0.903747  0.509988  0.654426  1
  Sr  Sr35  1  0.846253  0.740012  0.845574  1
  Sr  Sr36  1  0.621463  0.839680  0.867326  1
  Sr  Sr37  1  0.277647  0.910320  0.281783  1
  Sr  Sr38  1  0.855562  0.249321  0.345574  1
  Sr  Sr39  1  0.127095  0.786307  0.979378  1
  Sr  Sr40  1  0.777647  0.495863  0.367326  1
  Sr  Sr41  1  0.972353  0.754137  0.132674  1
  Sr  Sr42  1  0.121463  0.254137  0.781783  1
  Sr  Sr43  1  0.589680  0.222353  0.718217  1
  Sr  Sr44  1  0.622905  0.463693  0.520622  1
  Sr  Sr45  1  0.978639  0.375000  0.103639  1
  Sr  Sr46  1  0.536307  0.056929  0.159212  1
  Sr  Sr47  1  0.394438  0.240012  0.893759  1
  Sr  Sr48  1  0.403747  0.749321  0.393759  1
  Sr  Sr49  1  0.478639  0.375000  0.603639  1
  Sr  Sr50  1  0.089680  0.371463  0.367326  1
  Sr  Sr51  1  0.806929  0.147717  0.020622  1
  Sr  Sr52  1  0.271361  0.875000  0.896361  1
  Sr  Sr53  1  0.472353  0.339680  0.218217  1
  Sr  Sr54  1  0.397717  0.556929  0.520622  1
  Sr  Sr55  1  0.628537  0.995863  0.718217  1
  Ho  Ho56  1  0.250000  0.750000  0.500000  1
  Ho  Ho57  1  0.750000  0.250000  0.500000  1
  Ho  Ho58  1  0.000000  0.000000  0.000000  1
  Ho  Ho59  1  0.500000  0.500000  0.000000  1
  Bi  Bi60  1  0.865805  0.365805  0.231610  1
  Bi  Bi61  1  0.290928  0.699033  0.145150  1
  Bi  Bi62  1  0.884195  0.884195  0.268390  1
  Bi  Bi63  1  0.553883  0.145778  0.854850  1
  Bi  Bi64  1  0.949033  0.040928  0.645150  1
  Bi  Bi65  1  0.365805  0.134195  0.500000  1
  Bi  Bi66  1  0.459072  0.550967  0.354850  1
  Bi  Bi67  1  0.354222  0.946117  0.145150  1
  Bi  Bi68  1  0.059088  0.206633  0.137057  1
  Bi  Bi69  1  0.053883  0.199033  0.408105  1
  Bi  Bi70  1  0.500000  0.000000  0.500000  1
  Bi  Bi71  1  0.196117  0.104222  0.645150  1
  Bi  Bi72  1  0.793367  0.930423  0.852454  1
  Bi  Bi73  1  0.680423  0.327970  0.637057  1
  Bi  Bi74  1  0.456633  0.809088  0.637057  1
  Bi  Bi75  1  0.172030  0.819577  0.362943  1
  Bi  Bi76  1  0.569577  0.706633  0.147546  1
  Bi  Bi77  1  0.672030  0.309088  0.352454  1
  Bi  Bi78  1  0.077970  0.940912  0.147546  1
  Bi  Bi79  1  0.750000  0.750000  0.000000  1
  Bi  Bi80  1  0.559088  0.422030  0.852454  1
  Bi  Bi81  1  0.384195  0.115805  0.000000  1
  Bi  Bi82  1  0.069577  0.922030  0.862943  1
  Bi  Bi83  1  0.000000  0.500000  0.500000  1
  Bi  Bi84  1  0.293367  0.440912  0.862943  1
  Bi  Bi85  1  0.800967  0.209072  0.854850  1
  Bi  Bi86  1  0.250000  0.250000  0.000000  1
  Bi  Bi87  1  0.395778  0.303883  0.354850  1
  Bi  Bi88  1  0.300967  0.446117  0.591895  1
  Bi  Bi89  1  0.696117  0.050967  0.091895  1
  Bi  Bi90  1  0.790928  0.645778  0.591895  1
  Bi  Bi91  1  0.190912  0.827970  0.647546  1
  Bi  Bi92  1  0.959072  0.604222  0.908105  1
  Bi  Bi93  1  0.115805  0.384195  0.000000  1
  Bi  Bi94  1  0.956633  0.319577  0.647546  1
  Bi  Bi95  1  0.634195  0.865805  0.500000  1
  Bi  Bi96  1  0.690912  0.043367  0.362943  1
  Bi  Bi97  1  0.577970  0.430423  0.137057  1
  Bi  Bi98  1  0.854222  0.709072  0.408105  1
  Bi  Bi99  1  0.895778  0.540928  0.091895  1
  Bi  Bi100  1  0.449033  0.803883  0.908105  1
  Bi  Bi101  1  0.134195  0.634195  0.768390  1
  Bi  Bi102  1  0.615805  0.615805  0.731610  1
  Bi  Bi103  1  0.180423  0.543367  0.352454  1
