# generated using pymatgen
data_Ca4ZnPd4Pb
_symmetry_space_group_name_H-M   'P 1'
_cell_length_a   5.82493227
_cell_length_b   5.82493260
_cell_length_c   8.15426332
_cell_angle_alpha   77.63283350
_cell_angle_beta   77.63283271
_cell_angle_gamma   58.88227476
_symmetry_Int_Tables_number   1
_chemical_formula_structural   Ca4ZnPd4Pb
_chemical_formula_sum   'Ca4 Zn1 Pd4 Pb1'
_cell_volume   229.58669943
_cell_formula_units_Z   1
loop_
 _symmetry_equiv_pos_site_id
 _symmetry_equiv_pos_as_xyz
  1  'x, y, z'
loop_
 _atom_site_type_symbol
 _atom_site_label
 _atom_site_symmetry_multiplicity
 _atom_site_fract_x
 _atom_site_fract_y
 _atom_site_fract_z
 _atom_site_occupancy
  Ca  Ca0  1  0.503013  0.796075  0.351186  1
  Ca  Ca1  1  0.203925  0.496987  0.148814  1
  Ca  Ca2  1  0.496272  0.203708  0.651277  1
  Ca  Ca3  1  0.796292  0.503728  0.848723  1
  Zn  Zn4  1  0.142674  0.857326  0.750000  1
  Pd  Pd5  1  0.738008  0.994204  0.987489  1
  Pd  Pd6  1  0.005796  0.261992  0.512511  1
  Pd  Pd7  1  0.270927  0.989581  0.986057  1
  Pd  Pd8  1  0.010419  0.729073  0.513943  1
  Pb  Pb9  1  0.832674  0.167326  0.250000  1
