# generated using pymatgen
data_GdSiF7
_symmetry_space_group_name_H-M   'P 1'
_cell_length_a   5.28702600
_cell_length_b   8.59528295
_cell_length_c   11.46893900
_cell_angle_alpha   61.75002621
_cell_angle_beta   90.00000000
_cell_angle_gamma   90.00000000
_symmetry_Int_Tables_number   1
_chemical_formula_structural   GdSiF7
_chemical_formula_sum   'Gd4 Si4 F28'
_cell_volume   459.11027997
_cell_formula_units_Z   4
loop_
 _symmetry_equiv_pos_site_id
 _symmetry_equiv_pos_as_xyz
  1  'x, y, z'
loop_
 _atom_site_type_symbol
 _atom_site_label
 _atom_site_symmetry_multiplicity
 _atom_site_fract_x
 _atom_site_fract_y
 _atom_site_fract_z
 _atom_site_occupancy
  Gd  Gd0  1  0.760173  0.807387  0.763772  1
  Gd  Gd1  1  0.260173  0.192613  0.736228  1
  Gd  Gd2  1  0.239827  0.192613  0.236228  1
  Gd  Gd3  1  0.739827  0.807387  0.263772  1
  Si  Si4  1  0.757262  0.275682  0.956875  1
  Si  Si5  1  0.257262  0.724318  0.543125  1
  Si  Si6  1  0.242738  0.724318  0.043125  1
  Si  Si7  1  0.742738  0.275682  0.456875  1
  F  F8  1  0.419654  0.707080  0.925610  1
  F  F9  1  0.919654  0.292920  0.574390  1
  F  F10  1  0.580346  0.292920  0.074390  1
  F  F11  1  0.080346  0.707080  0.425610  1
  F  F12  1  0.467964  0.284095  0.534161  1
  F  F13  1  0.967964  0.715905  0.965839  1
  F  F14  1  0.532036  0.715905  0.465839  1
  F  F15  1  0.032036  0.284095  0.034161  1
  F  F16  1  0.766865  0.500447  0.866415  1
  F  F17  1  0.266865  0.499553  0.633585  1
  F  F18  1  0.233135  0.499553  0.133585  1
  F  F19  1  0.733135  0.500447  0.366415  1
  F  F20  1  0.761206  0.051116  0.042924  1
  F  F21  1  0.261206  0.948884  0.457076  1
  F  F22  1  0.238794  0.948884  0.957076  1
  F  F23  1  0.738794  0.051116  0.542924  1
  F  F24  1  0.987911  0.726872  0.624430  1
  F  F25  1  0.487911  0.273128  0.875570  1
  F  F26  1  0.012089  0.273128  0.375570  1
  F  F27  1  0.512089  0.726872  0.124430  1
  F  F28  1  0.065633  0.735352  0.164692  1
  F  F29  1  0.565633  0.264648  0.335308  1
  F  F30  1  0.934367  0.264648  0.835308  1
  F  F31  1  0.434367  0.735352  0.664692  1
  F  F32  1  0.383964  0.963266  0.221342  1
  F  F33  1  0.883964  0.036734  0.278658  1
  F  F34  1  0.616036  0.036734  0.778658  1
  F  F35  1  0.116036  0.963266  0.721342  1
