# generated using pymatgen
data_TbY3CoAg
_symmetry_space_group_name_H-M   'P 1'
_cell_length_a   9.44052211
_cell_length_b   9.44052206
_cell_length_c   9.44052300
_cell_angle_alpha   60.00000023
_cell_angle_beta   60.00000037
_cell_angle_gamma   60.00000010
_symmetry_Int_Tables_number   1
_chemical_formula_structural   TbY3CoAg
_chemical_formula_sum   'Tb4 Y12 Co4 Ag4'
_cell_volume   594.93988380
_cell_formula_units_Z   4
loop_
 _symmetry_equiv_pos_site_id
 _symmetry_equiv_pos_as_xyz
  1  'x, y, z'
loop_
 _atom_site_type_symbol
 _atom_site_label
 _atom_site_symmetry_multiplicity
 _atom_site_fract_x
 _atom_site_fract_y
 _atom_site_fract_z
 _atom_site_occupancy
  Tb  Tb0  1  0.348639  0.348639  0.348639  1
  Tb  Tb1  1  0.348639  0.348639  0.954084  1
  Tb  Tb2  1  0.348639  0.954084  0.348639  1
  Tb  Tb3  1  0.954084  0.348639  0.348639  1
  Y  Y4  1  0.812065  0.187935  0.187935  1
  Y  Y5  1  0.187935  0.812065  0.812065  1
  Y  Y6  1  0.187935  0.812065  0.187935  1
  Y  Y7  1  0.812065  0.187935  0.812065  1
  Y  Y8  1  0.187935  0.187935  0.812065  1
  Y  Y9  1  0.812065  0.812065  0.187935  1
  Y  Y10  1  0.937702  0.562297  0.562298  1
  Y  Y11  1  0.562297  0.937702  0.937703  1
  Y  Y12  1  0.562298  0.937702  0.562298  1
  Y  Y13  1  0.937702  0.562297  0.937703  1
  Y  Y14  1  0.562298  0.562297  0.937703  1
  Y  Y15  1  0.937702  0.937702  0.562298  1
  Co  Co16  1  0.142260  0.142260  0.142260  1
  Co  Co17  1  0.142260  0.142260  0.573221  1
  Co  Co18  1  0.142260  0.573221  0.142260  1
  Co  Co19  1  0.573221  0.142260  0.142260  1
  Ag  Ag20  1  0.581162  0.581162  0.581162  1
  Ag  Ag21  1  0.581162  0.581162  0.256513  1
  Ag  Ag22  1  0.581162  0.256513  0.581162  1
  Ag  Ag23  1  0.256513  0.581162  0.581162  1
