# generated using pymatgen
data_Zr10GaB2Sb5
_symmetry_space_group_name_H-M   'P 1'
_cell_length_a   8.48151114
_cell_length_b   8.48150925
_cell_length_c   5.79031100
_cell_angle_alpha   90.00000000
_cell_angle_beta   90.00000000
_cell_angle_gamma   120.16617734
_symmetry_Int_Tables_number   1
_chemical_formula_structural   Zr10GaB2Sb5
_chemical_formula_sum   'Zr10 Ga1 B2 Sb5'
_cell_volume   360.12164777
_cell_formula_units_Z   1
loop_
 _symmetry_equiv_pos_site_id
 _symmetry_equiv_pos_as_xyz
  1  'x, y, z'
loop_
 _atom_site_type_symbol
 _atom_site_label
 _atom_site_symmetry_multiplicity
 _atom_site_fract_x
 _atom_site_fract_y
 _atom_site_fract_z
 _atom_site_occupancy
  Zr  Zr0  1  0.663899  0.334110  0.497429  1
  Zr  Zr1  1  0.334110  0.663899  0.497429  1
  Zr  Zr2  1  0.334110  0.663899  0.002571  1
  Zr  Zr3  1  0.663899  0.334110  0.002571  1
  Zr  Zr4  1  0.762195  0.762195  0.250000  1
  Zr  Zr5  1  0.237721  0.008875  0.250000  1
  Zr  Zr6  1  0.008875  0.237721  0.250000  1
  Zr  Zr7  1  0.232106  0.232106  0.750000  1
  Zr  Zr8  1  0.765742  0.998199  0.750000  1
  Zr  Zr9  1  0.998199  0.765742  0.750000  1
  Ga  Ga10  1  0.401254  0.401254  0.250000  1
  B  B11  1  0.999858  0.999858  0.498658  1
  B  B12  1  0.999858  0.999858  0.001342  1
  Sb  Sb13  1  0.604056  0.001303  0.250000  1
  Sb  Sb14  1  0.001303  0.604056  0.250000  1
  Sb  Sb15  1  0.595005  0.595005  0.750000  1
  Sb  Sb16  1  0.398244  0.999565  0.750000  1
  Sb  Sb17  1  0.999565  0.398244  0.750000  1
