# generated using pymatgen
data_Nb12Ga8Co3CuC4
_symmetry_space_group_name_H-M   'P 1'
_cell_length_a   8.24799552
_cell_length_b   8.24798987
_cell_length_c   8.24799375
_cell_angle_alpha   60.15793732
_cell_angle_beta   60.15790754
_cell_angle_gamma   60.15789854
_symmetry_Int_Tables_number   1
_chemical_formula_structural   Nb12Ga8Co3CuC4
_chemical_formula_sum   'Nb12 Ga8 Co3 Cu1 C4'
_cell_volume   398.18092029
_cell_formula_units_Z   1
loop_
 _symmetry_equiv_pos_site_id
 _symmetry_equiv_pos_as_xyz
  1  'x, y, z'
loop_
 _atom_site_type_symbol
 _atom_site_label
 _atom_site_symmetry_multiplicity
 _atom_site_fract_x
 _atom_site_fract_y
 _atom_site_fract_z
 _atom_site_occupancy
  Nb  Nb0  1  0.688706  0.311841  0.688705  1
  Nb  Nb1  1  0.938158  0.561295  0.561293  1
  Nb  Nb2  1  0.565499  0.937240  0.937240  1
  Nb  Nb3  1  0.937240  0.565500  0.937242  1
  Nb  Nb4  1  0.561292  0.561295  0.938160  1
  Nb  Nb5  1  0.937239  0.937241  0.565500  1
  Nb  Nb6  1  0.688708  0.688705  0.311840  1
  Nb  Nb7  1  0.311842  0.688705  0.688707  1
  Nb  Nb8  1  0.684501  0.312760  0.312760  1
  Nb  Nb9  1  0.312761  0.312759  0.684500  1
  Nb  Nb10  1  0.561294  0.938159  0.561295  1
  Nb  Nb11  1  0.312760  0.684500  0.312758  1
  Ga  Ga12  1  0.332654  0.332650  0.332654  1
  Ga  Ga13  1  0.252443  0.913364  0.913362  1
  Ga  Ga14  1  0.913361  0.252441  0.913364  1
  Ga  Ga15  1  0.913360  0.913365  0.252441  1
  Ga  Ga16  1  0.336639  0.997559  0.336636  1
  Ga  Ga17  1  0.336640  0.336635  0.997559  1
  Ga  Ga18  1  0.997557  0.336636  0.336638  1
  Ga  Ga19  1  0.917346  0.917350  0.917346  1
  Co  Co20  1  0.625000  0.125000  0.125000  1
  Co  Co21  1  0.125000  0.625000  0.125000  1
  Co  Co22  1  0.125000  0.125000  0.625000  1
  Cu  Cu23  1  0.125000  0.125000  0.125000  1
  C  C24  1  0.625000  0.625000  0.625000  1
  C  C25  1  0.125000  0.625000  0.625000  1
  C  C26  1  0.625000  0.125000  0.625000  1
  C  C27  1  0.625000  0.625000  0.125000  1
