# generated using pymatgen
data_Rb2Sc(TeO4)3
_symmetry_space_group_name_H-M   'P 1'
_cell_length_a   7.39798930
_cell_length_b   7.39895235
_cell_length_c   7.39572267
_cell_angle_alpha   59.67728082
_cell_angle_beta   59.67399728
_cell_angle_gamma   59.65586063
_symmetry_Int_Tables_number   1
_chemical_formula_structural   Rb2Sc(TeO4)3
_chemical_formula_sum   'Rb2 Sc1 Te3 O12'
_cell_volume   284.10031124
_cell_formula_units_Z   1
loop_
 _symmetry_equiv_pos_site_id
 _symmetry_equiv_pos_as_xyz
  1  'x, y, z'
loop_
 _atom_site_type_symbol
 _atom_site_label
 _atom_site_symmetry_multiplicity
 _atom_site_fract_x
 _atom_site_fract_y
 _atom_site_fract_z
 _atom_site_occupancy
  Rb  Rb0  1  0.118004  0.147193  0.623158  1
  Rb  Rb1  1  0.852809  0.882003  0.376835  1
  Sc  Sc2  1  0.497622  0.502339  0.000020  1
  Te  Te3  1  0.498670  0.001506  0.000332  1
  Te  Te4  1  0.998486  0.501335  0.999662  1
  Te  Te5  1  0.498386  0.501619  0.499999  1
  O  O6  1  0.820310  0.822623  0.924150  1
  O  O7  1  0.429305  0.429650  0.336538  1
  O  O8  1  0.429193  0.838566  0.928133  1
  O  O9  1  0.819655  0.425609  0.320931  1
  O  O10  1  0.835186  0.430635  0.929175  1
  O  O11  1  0.424062  0.822640  0.321622  1
  O  O12  1  0.177345  0.179721  0.075849  1
  O  O13  1  0.570365  0.570696  0.663459  1
  O  O14  1  0.569386  0.164804  0.070838  1
  O  O15  1  0.177359  0.575922  0.678409  1
  O  O16  1  0.161439  0.570786  0.071849  1
  O  O17  1  0.574419  0.180351  0.679040  1
