# generated using pymatgen
data_Tb3Y(CuRh)2
_symmetry_space_group_name_H-M   'P 1'
_cell_length_a   4.39513800
_cell_length_b   5.56347016
_cell_length_c   7.20153539
_cell_angle_alpha   89.99491852
_cell_angle_beta   90.00000000
_cell_angle_gamma   90.00000000
_symmetry_Int_Tables_number   1
_chemical_formula_structural   Tb3Y(CuRh)2
_chemical_formula_sum   'Tb3 Y1 Cu2 Rh2'
_cell_volume   176.09352051
_cell_formula_units_Z   1
loop_
 _symmetry_equiv_pos_site_id
 _symmetry_equiv_pos_as_xyz
  1  'x, y, z'
loop_
 _atom_site_type_symbol
 _atom_site_label
 _atom_site_symmetry_multiplicity
 _atom_site_fract_x
 _atom_site_fract_y
 _atom_site_fract_z
 _atom_site_occupancy
  Tb  Tb0  1  0.250000  0.371198  0.681476  1
  Tb  Tb1  1  0.250000  0.128866  0.181231  1
  Tb  Tb2  1  0.750000  0.639432  0.317284  1
  Y  Y3  1  0.750000  0.861271  0.817507  1
  Cu  Cu4  1  0.750000  0.133086  0.462023  1
  Cu  Cu5  1  0.750000  0.367298  0.963279  1
  Rh  Rh6  1  0.250000  0.862355  0.537568  1
  Rh  Rh7  1  0.250000  0.636495  0.039633  1
