# generated using pymatgen
data_Sr3Pr(U2Se5)4
_symmetry_space_group_name_H-M   'P 1'
_cell_length_a   7.79399454
_cell_length_b   8.71501452
_cell_length_c   12.22731800
_cell_angle_alpha   89.80053304
_cell_angle_beta   90.02137015
_cell_angle_gamma   90.05965140
_symmetry_Int_Tables_number   1
_chemical_formula_structural   Sr3Pr(U2Se5)4
_chemical_formula_sum   'Sr3 Pr1 U8 Se20'
_cell_volume   830.53229198
_cell_formula_units_Z   1
loop_
 _symmetry_equiv_pos_site_id
 _symmetry_equiv_pos_as_xyz
  1  'x, y, z'
loop_
 _atom_site_type_symbol
 _atom_site_label
 _atom_site_symmetry_multiplicity
 _atom_site_fract_x
 _atom_site_fract_y
 _atom_site_fract_z
 _atom_site_occupancy
  Sr  Sr0  1  0.547521  0.506469  0.170703  1
  Sr  Sr1  1  0.953869  0.505439  0.672550  1
  Sr  Sr2  1  0.458530  0.494967  0.821820  1
  Pr  Pr3  1  0.047794  0.496545  0.333741  1
  U  U4  1  0.019373  0.999295  0.318350  1
  U  U5  1  0.515963  0.999577  0.181001  1
  U  U6  1  0.980589  0.002066  0.683106  1
  U  U7  1  0.480219  0.000995  0.819558  1
  U  U8  1  0.072752  0.749954  0.007781  1
  U  U9  1  0.574094  0.248237  0.486623  1
  U  U10  1  0.927355  0.247455  0.994461  1
  U  U11  1  0.427789  0.755021  0.508722  1
  Se  Se12  1  0.663068  0.953927  0.401541  1
  Se  Se13  1  0.161721  0.042360  0.097604  1
  Se  Se14  1  0.336319  0.046117  0.595700  1
  Se  Se15  1  0.836428  0.956062  0.903603  1
  Se  Se16  1  0.455560  0.779153  0.001223  1
  Se  Se17  1  0.958056  0.220928  0.496880  1
  Se  Se18  1  0.543804  0.219940  0.000366  1
  Se  Se19  1  0.042886  0.778039  0.498503  1
  Se  Se20  1  0.840699  0.766730  0.191008  1
  Se  Se21  1  0.329733  0.228507  0.310807  1
  Se  Se22  1  0.165516  0.229250  0.812847  1
  Se  Se23  1  0.664576  0.774296  0.687723  1
  Se  Se24  1  0.306860  0.758764  0.284968  1
  Se  Se25  1  0.809888  0.241527  0.222007  1
  Se  Se26  1  0.690471  0.234525  0.713302  1
  Se  Se27  1  0.192621  0.764907  0.781190  1
  Se  Se28  1  0.167251  0.460429  0.094648  1
  Se  Se29  1  0.686731  0.541081  0.421759  1
  Se  Se30  1  0.825483  0.539571  0.919179  1
  Se  Se31  1  0.316480  0.457866  0.566725  1
