# generated using pymatgen
data_LaDy3S4
_symmetry_space_group_name_H-M   'P 1'
_cell_length_a   13.09021749
_cell_length_b   13.09021763
_cell_length_c   13.09021894
_cell_angle_alpha   17.51409428
_cell_angle_beta   17.51408984
_cell_angle_gamma   17.51409344
_symmetry_Int_Tables_number   1
_chemical_formula_structural   LaDy3S4
_chemical_formula_sum   'La1 Dy3 S4'
_cell_volume   177.29651907
_cell_formula_units_Z   1
loop_
 _symmetry_equiv_pos_site_id
 _symmetry_equiv_pos_as_xyz
  1  'x, y, z'
loop_
 _atom_site_type_symbol
 _atom_site_label
 _atom_site_symmetry_multiplicity
 _atom_site_fract_x
 _atom_site_fract_y
 _atom_site_fract_z
 _atom_site_occupancy
  La  La0  1  0.000000  0.000000  0.000000  1
  Dy  Dy1  1  0.248504  0.248504  0.248504  1
  Dy  Dy2  1  0.500000  0.500000  0.500000  1
  Dy  Dy3  1  0.751496  0.751496  0.751496  1
  S  S4  1  0.379799  0.379799  0.379799  1
  S  S5  1  0.126349  0.126349  0.126349  1
  S  S6  1  0.620201  0.620201  0.620201  1
  S  S7  1  0.873651  0.873651  0.873651  1
