# generated using pymatgen
data_Y19Ho(Bi2Rh)4
_symmetry_space_group_name_H-M   'P 1'
_cell_length_a   8.05195638
_cell_length_b   9.02869518
_cell_length_c   12.52087836
_cell_angle_alpha   90.00298043
_cell_angle_beta   89.97294142
_cell_angle_gamma   89.97764933
_symmetry_Int_Tables_number   1
_chemical_formula_structural   Y19Ho(Bi2Rh)4
_chemical_formula_sum   'Y19 Ho1 Bi8 Rh4'
_cell_volume   910.25090248
_cell_formula_units_Z   1
loop_
 _symmetry_equiv_pos_site_id
 _symmetry_equiv_pos_as_xyz
  1  'x, y, z'
loop_
 _atom_site_type_symbol
 _atom_site_label
 _atom_site_symmetry_multiplicity
 _atom_site_fract_x
 _atom_site_fract_y
 _atom_site_fract_z
 _atom_site_occupancy
  Y  Y0  1  0.840004  0.749704  0.792931  1
  Y  Y1  1  0.160233  0.250040  0.207144  1
  Y  Y2  1  0.339725  0.250124  0.707236  1
  Y  Y3  1  0.660256  0.749912  0.292866  1
  Y  Y4  1  0.373898  0.749870  0.692114  1
  Y  Y5  1  0.626087  0.250039  0.307927  1
  Y  Y6  1  0.874042  0.250182  0.807964  1
  Y  Y7  1  0.126210  0.749802  0.191874  1
  Y  Y8  1  0.953328  0.749968  0.501613  1
  Y  Y9  1  0.046704  0.250025  0.498393  1
  Y  Y10  1  0.452910  0.250503  0.998244  1
  Y  Y11  1  0.546279  0.749565  0.001544  1
  Y  Y12  1  0.677927  0.041789  0.567123  1
  Y  Y13  1  0.322102  0.958133  0.432937  1
  Y  Y14  1  0.177800  0.958147  0.932976  1
  Y  Y15  1  0.322091  0.541847  0.432902  1
  Y  Y16  1  0.822134  0.041904  0.067085  1
  Y  Y17  1  0.677943  0.458159  0.567166  1
  Y  Y18  1  0.822170  0.458167  0.067041  1
  Ho  Ho19  1  0.175806  0.541676  0.933663  1
  Bi  Bi20  1  0.566604  0.492017  0.826240  1
  Bi  Bi21  1  0.433465  0.507989  0.173831  1
  Bi  Bi22  1  0.066921  0.508009  0.673792  1
  Bi  Bi23  1  0.433292  0.992010  0.173667  1
  Bi  Bi24  1  0.933238  0.492003  0.326245  1
  Bi  Bi25  1  0.566818  0.007967  0.826319  1
  Bi  Bi26  1  0.933292  0.007973  0.326223  1
  Bi  Bi27  1  0.066748  0.991977  0.673711  1
  Rh  Rh28  1  0.572551  0.749973  0.509233  1
  Rh  Rh29  1  0.427412  0.250019  0.490732  1
  Rh  Rh30  1  0.073174  0.251464  0.990449  1
  Rh  Rh31  1  0.928839  0.749040  0.008816  1
