# generated using pymatgen
data_Hf8In4CuPdPt6
_symmetry_space_group_name_H-M   'P 1'
_cell_length_a   7.51647325
_cell_length_b   7.51566205
_cell_length_c   6.78886441
_cell_angle_alpha   89.91718642
_cell_angle_beta   90.00069473
_cell_angle_gamma   89.56402451
_symmetry_Int_Tables_number   1
_chemical_formula_structural   Hf8In4CuPdPt6
_chemical_formula_sum   'Hf8 In4 Cu1 Pd1 Pt6'
_cell_volume   383.50008824
_cell_formula_units_Z   1
loop_
 _symmetry_equiv_pos_site_id
 _symmetry_equiv_pos_as_xyz
  1  'x, y, z'
loop_
 _atom_site_type_symbol
 _atom_site_label
 _atom_site_symmetry_multiplicity
 _atom_site_fract_x
 _atom_site_fract_y
 _atom_site_fract_z
 _atom_site_occupancy
  Hf  Hf0  1  0.149142  0.147240  0.000355  1
  Hf  Hf1  1  0.851800  0.849385  0.001720  1
  Hf  Hf2  1  0.652380  0.349858  0.503470  1
  Hf  Hf3  1  0.349746  0.652649  0.499330  1
  Hf  Hf4  1  0.686003  0.315363  0.998233  1
  Hf  Hf5  1  0.314712  0.686606  0.999919  1
  Hf  Hf6  1  0.815981  0.817055  0.498123  1
  Hf  Hf7  1  0.181591  0.182897  0.499479  1
  In  In8  1  0.498859  0.001784  0.247111  1
  In  In9  1  0.494979  0.998394  0.752641  1
  In  In10  1  0.001396  0.500179  0.247226  1
  In  In11  1  0.002195  0.505445  0.752693  1
  Cu  Cu12  1  0.130048  0.869877  0.706496  1
  Pd  Pd13  1  0.367793  0.368238  0.217264  1
  Pt  Pt14  1  0.631060  0.631849  0.781463  1
  Pt  Pt15  1  0.628624  0.629594  0.220306  1
  Pt  Pt16  1  0.877326  0.122901  0.721591  1
  Pt  Pt17  1  0.867393  0.132612  0.285206  1
  Pt  Pt18  1  0.368090  0.368730  0.780357  1
  Pt  Pt19  1  0.130882  0.869342  0.287019  1
