# generated using pymatgen
data_TlBiSb4O13
_symmetry_space_group_name_H-M   'P 1'
_cell_length_a   7.43401300
_cell_length_b   7.35010671
_cell_length_c   10.35012200
_cell_angle_alpha   88.96520479
_cell_angle_beta   90.00000000
_cell_angle_gamma   90.00000000
_symmetry_Int_Tables_number   1
_chemical_formula_structural   TlBiSb4O13
_chemical_formula_sum   'Tl2 Bi2 Sb8 O26'
_cell_volume   565.44659833
_cell_formula_units_Z   2
loop_
 _symmetry_equiv_pos_site_id
 _symmetry_equiv_pos_as_xyz
  1  'x, y, z'
loop_
 _atom_site_type_symbol
 _atom_site_label
 _atom_site_symmetry_multiplicity
 _atom_site_fract_x
 _atom_site_fract_y
 _atom_site_fract_z
 _atom_site_occupancy
  Tl  Tl0  1  0.500000  0.500000  0.000000  1
  Tl  Tl1  1  0.000000  0.500000  0.000000  1
  Bi  Bi2  1  0.250000  0.751487  0.736933  1
  Bi  Bi3  1  0.750000  0.248513  0.263067  1
  Sb  Sb4  1  0.500000  0.000000  0.000000  1
  Sb  Sb5  1  0.750000  0.763027  0.741536  1
  Sb  Sb6  1  0.250000  0.742434  0.252058  1
  Sb  Sb7  1  0.500000  0.500000  0.500000  1
  Sb  Sb8  1  0.000000  0.500000  0.500000  1
  Sb  Sb9  1  0.750000  0.257566  0.747942  1
  Sb  Sb10  1  0.250000  0.236973  0.258464  1
  Sb  Sb11  1  0.000000  0.000000  0.000000  1
  O  O12  1  0.452242  0.684292  0.367034  1
  O  O13  1  0.750000  0.462597  0.115056  1
  O  O14  1  0.250000  0.486583  0.169146  1
  O  O15  1  0.454553  0.298767  0.372976  1
  O  O16  1  0.557105  0.214112  0.885389  1
  O  O17  1  0.942895  0.214112  0.885389  1
  O  O18  1  0.453747  0.193717  0.131392  1
  O  O19  1  0.750000  0.000333  0.075062  1
  O  O20  1  0.250000  0.999667  0.924938  1
  O  O21  1  0.750000  0.011241  0.679351  1
  O  O22  1  0.546253  0.806283  0.868608  1
  O  O23  1  0.953747  0.806283  0.868608  1
  O  O24  1  0.442895  0.785888  0.114611  1
  O  O25  1  0.047758  0.684292  0.367034  1
  O  O26  1  0.545447  0.701233  0.627024  1
  O  O27  1  0.954553  0.701233  0.627024  1
  O  O28  1  0.250000  0.521721  0.576182  1
  O  O29  1  0.750000  0.513417  0.830854  1
  O  O30  1  0.750000  0.478279  0.423818  1
  O  O31  1  0.045447  0.298767  0.372976  1
  O  O32  1  0.547758  0.315708  0.632966  1
  O  O33  1  0.952242  0.315708  0.632966  1
  O  O34  1  0.046253  0.193717  0.131392  1
  O  O35  1  0.250000  0.988759  0.320649  1
  O  O36  1  0.057105  0.785888  0.114611  1
  O  O37  1  0.250000  0.537403  0.884944  1
