# generated using pymatgen
data_Pr4B4Ir9Pt
_symmetry_space_group_name_H-M   'P 1'
_cell_length_a   11.10858483
_cell_length_b   11.10858479
_cell_length_c   11.10858489
_cell_angle_alpha   29.11656363
_cell_angle_beta   29.11656597
_cell_angle_gamma   29.11656765
_symmetry_Int_Tables_number   1
_chemical_formula_structural   Pr4B4Ir9Pt
_chemical_formula_sum   'Pr4 B4 Ir9 Pt1'
_cell_volume   287.12097148
_cell_formula_units_Z   1
loop_
 _symmetry_equiv_pos_site_id
 _symmetry_equiv_pos_as_xyz
  1  'x, y, z'
loop_
 _atom_site_type_symbol
 _atom_site_label
 _atom_site_symmetry_multiplicity
 _atom_site_fract_x
 _atom_site_fract_y
 _atom_site_fract_z
 _atom_site_occupancy
  Pr  Pr0  1  0.151287  0.151287  0.151287  1
  Pr  Pr1  1  0.950403  0.950403  0.950403  1
  Pr  Pr2  1  0.848713  0.848713  0.848713  1
  Pr  Pr3  1  0.049597  0.049597  0.049597  1
  B  B4  1  0.618147  0.618147  0.618147  1
  B  B5  1  0.716974  0.716974  0.716974  1
  B  B6  1  0.381853  0.381853  0.381853  1
  B  B7  1  0.283026  0.283026  0.283026  1
  Ir  Ir8  1  0.408941  0.899467  0.408941  1
  Ir  Ir9  1  0.899467  0.408941  0.408941  1
  Ir  Ir10  1  0.500000  0.500000  0.000000  1
  Ir  Ir11  1  0.500000  0.000000  0.500000  1
  Ir  Ir12  1  0.000000  0.500000  0.500000  1
  Ir  Ir13  1  0.591059  0.100533  0.591059  1
  Ir  Ir14  1  0.591059  0.591059  0.100533  1
  Ir  Ir15  1  0.100533  0.591059  0.591059  1
  Ir  Ir16  1  0.408941  0.408941  0.899467  1
  Pt  Pt17  1  0.500000  0.500000  0.500000  1
