# generated using pymatgen
data_MgZnBi3Pt3O14
_symmetry_space_group_name_H-M   'P 1'
_cell_length_a   7.22916761
_cell_length_b   7.22916754
_cell_length_c   7.22916837
_cell_angle_alpha   61.06381442
_cell_angle_beta   61.06381211
_cell_angle_gamma   61.06381821
_symmetry_Int_Tables_number   1
_chemical_formula_structural   MgZnBi3Pt3O14
_chemical_formula_sum   'Mg1 Zn1 Bi3 Pt3 O14'
_cell_volume   273.54544841
_cell_formula_units_Z   1
loop_
 _symmetry_equiv_pos_site_id
 _symmetry_equiv_pos_as_xyz
  1  'x, y, z'
loop_
 _atom_site_type_symbol
 _atom_site_label
 _atom_site_symmetry_multiplicity
 _atom_site_fract_x
 _atom_site_fract_y
 _atom_site_fract_z
 _atom_site_occupancy
  Mg  Mg0  1  0.000000  0.000000  0.000000  1
  Zn  Zn1  1  0.500000  0.500000  0.500000  1
  Bi  Bi2  1  0.000000  0.500000  0.500000  1
  Bi  Bi3  1  0.500000  0.500000  0.000000  1
  Bi  Bi4  1  0.500000  0.000000  0.500000  1
  Pt  Pt5  1  0.500000  0.000000  0.000000  1
  Pt  Pt6  1  0.000000  0.000000  0.500000  1
  Pt  Pt7  1  0.000000  0.500000  0.000000  1
  O  O8  1  0.387795  0.387795  0.387795  1
  O  O9  1  0.612205  0.612205  0.612205  1
  O  O10  1  0.906055  0.330780  0.330780  1
  O  O11  1  0.349924  0.906830  0.906830  1
  O  O12  1  0.330780  0.330780  0.906055  1
  O  O13  1  0.906830  0.906830  0.349924  1
  O  O14  1  0.906830  0.349924  0.906830  1
  O  O15  1  0.330780  0.906055  0.330780  1
  O  O16  1  0.093945  0.669220  0.669220  1
  O  O17  1  0.650076  0.093170  0.093170  1
  O  O18  1  0.669220  0.669220  0.093945  1
  O  O19  1  0.093170  0.093170  0.650076  1
  O  O20  1  0.093170  0.650076  0.093170  1
  O  O21  1  0.669220  0.093945  0.669220  1
