# generated using pymatgen
data_YbNb6VS12
_symmetry_space_group_name_H-M   'P 1'
_cell_length_a   5.82075700
_cell_length_b   5.82075811
_cell_length_c   13.25431500
_cell_angle_alpha   90.00000000
_cell_angle_beta   90.00000000
_cell_angle_gamma   119.99998802
_symmetry_Int_Tables_number   1
_chemical_formula_structural   YbNb6VS12
_chemical_formula_sum   'Yb1 Nb6 V1 S12'
_cell_volume   388.90810384
_cell_formula_units_Z   1
loop_
 _symmetry_equiv_pos_site_id
 _symmetry_equiv_pos_as_xyz
  1  'x, y, z'
loop_
 _atom_site_type_symbol
 _atom_site_label
 _atom_site_symmetry_multiplicity
 _atom_site_fract_x
 _atom_site_fract_y
 _atom_site_fract_z
 _atom_site_occupancy
  Yb  Yb0  1  0.333333  0.666667  0.250000  1
  Nb  Nb1  1  0.000000  0.000000  0.522135  1
  Nb  Nb2  1  0.000000  0.000000  0.977865  1
  Nb  Nb3  1  0.333333  0.666667  0.977264  1
  Nb  Nb4  1  0.666667  0.333333  0.980613  1
  Nb  Nb5  1  0.666667  0.333333  0.519387  1
  Nb  Nb6  1  0.333333  0.666667  0.522736  1
  V  V7  1  0.666667  0.333333  0.750000  1
  S  S8  1  0.331012  0.331917  0.402186  1
  S  S9  1  0.668083  0.999095  0.402186  1
  S  S10  1  0.000905  0.668988  0.402186  1
  S  S11  1  0.335090  0.332676  0.639812  1
  S  S12  1  0.997586  0.664910  0.639812  1
  S  S13  1  0.667324  0.002414  0.639812  1
  S  S14  1  0.667324  0.664910  0.860188  1
  S  S15  1  0.335090  0.002414  0.860188  1
  S  S16  1  0.997586  0.332676  0.860188  1
  S  S17  1  0.668083  0.668988  0.097814  1
  S  S18  1  0.000905  0.331917  0.097814  1
  S  S19  1  0.331012  0.999095  0.097814  1
