# generated using pymatgen
data_Ho6Al20Fe7Si4Ir
_symmetry_space_group_name_H-M   'P 1'
_cell_length_a   8.53534465
_cell_length_b   8.53534558
_cell_length_c   9.37426300
_cell_angle_alpha   89.99806421
_cell_angle_beta   90.00194379
_cell_angle_gamma   120.13988432
_symmetry_Int_Tables_number   1
_chemical_formula_structural   Ho6Al20Fe7Si4Ir
_chemical_formula_sum   'Ho6 Al20 Fe7 Si4 Ir1'
_cell_volume   590.60353532
_cell_formula_units_Z   1
loop_
 _symmetry_equiv_pos_site_id
 _symmetry_equiv_pos_as_xyz
  1  'x, y, z'
loop_
 _atom_site_type_symbol
 _atom_site_label
 _atom_site_symmetry_multiplicity
 _atom_site_fract_x
 _atom_site_fract_y
 _atom_site_fract_z
 _atom_site_occupancy
  Ho  Ho0  1  0.194989  0.391354  0.249103  1
  Ho  Ho1  1  0.805011  0.608646  0.750897  1
  Ho  Ho2  1  0.608646  0.805011  0.249103  1
  Ho  Ho3  1  0.391354  0.194989  0.750897  1
  Ho  Ho4  1  0.195332  0.804668  0.247178  1
  Ho  Ho5  1  0.804668  0.195332  0.752822  1
  Al  Al6  1  0.156722  0.324406  0.574920  1
  Al  Al7  1  0.843278  0.675594  0.425080  1
  Al  Al8  1  0.675594  0.843278  0.574920  1
  Al  Al9  1  0.837099  0.673341  0.072877  1
  Al  Al10  1  0.324406  0.156722  0.425080  1
  Al  Al11  1  0.162901  0.326659  0.927123  1
  Al  Al12  1  0.162816  0.837184  0.574293  1
  Al  Al13  1  0.326659  0.162901  0.072877  1
  Al  Al14  1  0.837184  0.162816  0.425707  1
  Al  Al15  1  0.673341  0.837099  0.927123  1
  Al  Al16  1  0.836531  0.163469  0.073992  1
  Al  Al17  1  0.163469  0.836531  0.926008  1
  Al  Al18  1  0.561685  0.123010  0.249923  1
  Al  Al19  1  0.438315  0.876990  0.750077  1
  Al  Al20  1  0.876990  0.438315  0.249923  1
  Al  Al21  1  0.123010  0.561685  0.750077  1
  Al  Al22  1  0.563388  0.436612  0.243545  1
  Al  Al23  1  0.436612  0.563388  0.756455  1
  Al  Al24  1  0.999910  0.000090  0.249860  1
  Al  Al25  1  0.000090  0.999910  0.750140  1
  Fe  Fe26  1  0.500000  0.000000  0.000000  1
  Fe  Fe27  1  0.000000  0.500000  0.000000  1
  Fe  Fe28  1  0.500000  0.000000  0.500000  1
  Fe  Fe29  1  0.500000  0.500000  0.000000  1
  Fe  Fe30  1  0.000000  0.500000  0.500000  1
  Fe  Fe31  1  0.000000  0.000000  0.000000  1
  Fe  Fe32  1  0.000000  0.000000  0.500000  1
  Si  Si33  1  0.333297  0.666703  0.027856  1
  Si  Si34  1  0.666703  0.333297  0.972144  1
  Si  Si35  1  0.672160  0.327840  0.529802  1
  Si  Si36  1  0.327840  0.672160  0.470198  1
  Ir  Ir37  1  0.500000  0.500000  0.500000  1
