# generated using pymatgen
data_YLu2Zr(Al3Rh)6
_symmetry_space_group_name_H-M   'P 1'
_cell_length_a   7.52148200
_cell_length_b   7.51334728
_cell_length_c   9.37948100
_cell_angle_alpha   90.00000000
_cell_angle_beta   90.00000000
_cell_angle_gamma   119.47303104
_symmetry_Int_Tables_number   1
_chemical_formula_structural   YLu2Zr(Al3Rh)6
_chemical_formula_sum   'Y1 Lu2 Zr1 Al18 Rh6'
_cell_volume   461.45362306
_cell_formula_units_Z   1
loop_
 _symmetry_equiv_pos_site_id
 _symmetry_equiv_pos_as_xyz
  1  'x, y, z'
loop_
 _atom_site_type_symbol
 _atom_site_label
 _atom_site_symmetry_multiplicity
 _atom_site_fract_x
 _atom_site_fract_y
 _atom_site_fract_z
 _atom_site_occupancy
  Y  Y0  1  0.006610  0.326079  0.750000  1
  Lu  Lu1  1  0.672930  0.995902  0.250000  1
  Lu  Lu2  1  0.326945  0.006947  0.750000  1
  Zr  Zr3  1  0.996407  0.672496  0.250000  1
  Al  Al4  1  0.124062  0.121457  0.250000  1
  Al  Al5  1  0.870768  0.869168  0.750000  1
  Al  Al6  1  0.999435  0.338262  0.080604  1
  Al  Al7  1  0.000323  0.665336  0.927430  1
  Al  Al8  1  0.000323  0.665336  0.572570  1
  Al  Al9  1  0.333046  0.997392  0.420278  1
  Al  Al10  1  0.999435  0.338262  0.419396  1
  Al  Al11  1  0.662686  0.998291  0.575441  1
  Al  Al12  1  0.662686  0.998291  0.924559  1
  Al  Al13  1  0.333046  0.997392  0.079722  1
  Al  Al14  1  0.334237  0.333289  0.548443  1
  Al  Al15  1  0.670208  0.668329  0.443625  1
  Al  Al16  1  0.670208  0.668329  0.056375  1
  Al  Al17  1  0.334237  0.333289  0.951557  1
  Al  Al18  1  0.337196  0.553335  0.250000  1
  Al  Al19  1  0.658960  0.448664  0.750000  1
  Al  Al20  1  0.557762  0.344118  0.250000  1
  Al  Al21  1  0.448618  0.659835  0.750000  1
  Rh  Rh22  1  0.672715  0.327633  0.000903  1
  Rh  Rh23  1  0.327798  0.673166  0.001582  1
  Rh  Rh24  1  0.327798  0.673166  0.498418  1
  Rh  Rh25  1  0.672715  0.327633  0.499097  1
  Rh  Rh26  1  0.999422  0.999301  0.000741  1
  Rh  Rh27  1  0.999422  0.999301  0.499259  1
