# generated using pymatgen
data_Lu8Re(B8Ir)3
_symmetry_space_group_name_H-M   'P 1'
_cell_length_a   3.60300400
_cell_length_b   9.06228099
_cell_length_c   11.39154992
_cell_angle_alpha   90.14284840
_cell_angle_beta   90.00000000
_cell_angle_gamma   90.00000000
_symmetry_Int_Tables_number   1
_chemical_formula_structural   Lu8Re(B8Ir)3
_chemical_formula_sum   'Lu8 Re1 B24 Ir3'
_cell_volume   371.94929170
_cell_formula_units_Z   1
loop_
 _symmetry_equiv_pos_site_id
 _symmetry_equiv_pos_as_xyz
  1  'x, y, z'
loop_
 _atom_site_type_symbol
 _atom_site_label
 _atom_site_symmetry_multiplicity
 _atom_site_fract_x
 _atom_site_fract_y
 _atom_site_fract_z
 _atom_site_occupancy
  Lu  Lu0  1  0.000000  0.319464  0.413996  1
  Lu  Lu1  1  0.000000  0.684660  0.590456  1
  Lu  Lu2  1  0.000000  0.819418  0.082119  1
  Lu  Lu3  1  0.000000  0.176557  0.912458  1
  Lu  Lu4  1  0.000000  0.943799  0.373441  1
  Lu  Lu5  1  0.000000  0.053386  0.626508  1
  Lu  Lu6  1  0.000000  0.443744  0.126021  1
  Lu  Lu7  1  0.000000  0.557197  0.874672  1
  Re  Re8  1  0.000000  0.862147  0.821207  1
  B  B9  1  0.500000  0.553760  0.435047  1
  B  B10  1  0.500000  0.447334  0.565594  1
  B  B11  1  0.500000  0.053731  0.065685  1
  B  B12  1  0.500000  0.946890  0.934201  1
  B  B13  1  0.500000  0.751173  0.421110  1
  B  B14  1  0.500000  0.249274  0.578643  1
  B  B15  1  0.500000  0.250154  0.078474  1
  B  B16  1  0.500000  0.750483  0.920352  1
  B  B17  1  0.500000  0.793411  0.263896  1
  B  B18  1  0.500000  0.206789  0.734522  1
  B  B19  1  0.500000  0.294149  0.236031  1
  B  B20  1  0.500000  0.706835  0.765235  1
  B  B21  1  0.500000  0.631204  0.183389  1
  B  B22  1  0.500000  0.368259  0.816646  1
  B  B23  1  0.500000  0.131964  0.316574  1
  B  B24  1  0.500000  0.869089  0.684520  1
  B  B25  1  0.500000  0.980831  0.212999  1
  B  B26  1  0.500000  0.018377  0.786667  1
  B  B27  1  0.500000  0.480490  0.287362  1
  B  B28  1  0.500000  0.518781  0.713720  1
  B  B29  1  0.500000  0.605794  0.030139  1
  B  B30  1  0.500000  0.391930  0.970936  1
  B  B31  1  0.500000  0.107247  0.470166  1
  B  B32  1  0.500000  0.893572  0.528177  1
  Ir  Ir33  1  0.000000  0.637885  0.322003  1
  Ir  Ir34  1  0.000000  0.362085  0.678290  1
  Ir  Ir35  1  0.000000  0.138136  0.178743  1
