# generated using pymatgen
data_Tb2Sc2PI6
_symmetry_space_group_name_H-M   'P 1'
_cell_length_a   4.09557500
_cell_length_b   13.71033700
_cell_length_c   14.45596300
_cell_angle_alpha   90.00000000
_cell_angle_beta   90.00000000
_cell_angle_gamma   90.00000000
_symmetry_Int_Tables_number   1
_chemical_formula_structural   Tb2Sc2PI6
_chemical_formula_sum   'Tb4 Sc4 P2 I12'
_cell_volume   811.72709215
_cell_formula_units_Z   2
loop_
 _symmetry_equiv_pos_site_id
 _symmetry_equiv_pos_as_xyz
  1  'x, y, z'
loop_
 _atom_site_type_symbol
 _atom_site_label
 _atom_site_symmetry_multiplicity
 _atom_site_fract_x
 _atom_site_fract_y
 _atom_site_fract_z
 _atom_site_occupancy
  Tb  Tb0  1  0.000000  0.110658  0.574921  1
  Tb  Tb1  1  0.000000  0.889342  0.425079  1
  Tb  Tb2  1  0.000000  0.610658  0.925079  1
  Tb  Tb3  1  0.000000  0.389342  0.074921  1
  Sc  Sc4  1  0.500000  0.108686  0.356049  1
  Sc  Sc5  1  0.500000  0.891314  0.643951  1
  Sc  Sc6  1  0.500000  0.608686  0.143951  1
  Sc  Sc7  1  0.500000  0.391314  0.856049  1
  P  P8  1  0.500000  0.000000  0.500000  1
  P  P9  1  0.500000  0.500000  0.000000  1
  I  I10  1  0.500000  0.243409  0.164718  1
  I  I11  1  0.500000  0.756591  0.835282  1
  I  I12  1  0.500000  0.743409  0.335282  1
  I  I13  1  0.500000  0.256591  0.664718  1
  I  I14  1  0.000000  0.253470  0.410196  1
  I  I15  1  0.000000  0.746530  0.589804  1
  I  I16  1  0.000000  0.753470  0.089804  1
  I  I17  1  0.000000  0.246530  0.910196  1
  I  I18  1  0.000000  0.006956  0.243804  1
  I  I19  1  0.000000  0.993044  0.756196  1
  I  I20  1  0.000000  0.506956  0.256196  1
  I  I21  1  0.000000  0.493044  0.743804  1
