# generated using pymatgen
data_Nd3Tm(PPt)4
_symmetry_space_group_name_H-M   'P 1'
_cell_length_a   4.15730300
_cell_length_b   4.15730511
_cell_length_c   16.11151800
_cell_angle_alpha   90.00000000
_cell_angle_beta   90.00000000
_cell_angle_gamma   120.00002301
_symmetry_Int_Tables_number   1
_chemical_formula_structural   Nd3Tm(PPt)4
_chemical_formula_sum   'Nd3 Tm1 P4 Pt4'
_cell_volume   241.15183415
_cell_formula_units_Z   1
loop_
 _symmetry_equiv_pos_site_id
 _symmetry_equiv_pos_as_xyz
  1  'x, y, z'
loop_
 _atom_site_type_symbol
 _atom_site_label
 _atom_site_symmetry_multiplicity
 _atom_site_fract_x
 _atom_site_fract_y
 _atom_site_fract_z
 _atom_site_occupancy
  Nd  Nd0  1  0.000000  0.000000  0.508138  1
  Nd  Nd1  1  0.000000  0.000000  0.991862  1
  Nd  Nd2  1  0.000000  0.000000  0.250000  1
  Tm  Tm3  1  0.000000  0.000000  0.750000  1
  P  P4  1  0.333333  0.666667  0.873909  1
  P  P5  1  0.666667  0.333333  0.122236  1
  P  P6  1  0.666667  0.333333  0.377764  1
  P  P7  1  0.333333  0.666667  0.626091  1
  Pt  Pt8  1  0.333333  0.666667  0.378567  1
  Pt  Pt9  1  0.666667  0.333333  0.643034  1
  Pt  Pt10  1  0.666667  0.333333  0.856966  1
  Pt  Pt11  1  0.333333  0.666667  0.121433  1
