# generated using pymatgen
data_Zr3NiIr2N
_symmetry_space_group_name_H-M   'P 1'
_cell_length_a   8.48812485
_cell_length_b   8.48812564
_cell_length_c   8.48812400
_cell_angle_alpha   60.00000639
_cell_angle_beta   60.00000333
_cell_angle_gamma   60.00000304
_symmetry_Int_Tables_number   1
_chemical_formula_structural   Zr3NiIr2N
_chemical_formula_sum   'Zr12 Ni4 Ir8 N4'
_cell_volume   432.43448286
_cell_formula_units_Z   4
loop_
 _symmetry_equiv_pos_site_id
 _symmetry_equiv_pos_as_xyz
  1  'x, y, z'
loop_
 _atom_site_type_symbol
 _atom_site_label
 _atom_site_symmetry_multiplicity
 _atom_site_fract_x
 _atom_site_fract_y
 _atom_site_fract_z
 _atom_site_occupancy
  Zr  Zr0  1  0.804101  0.804101  0.195899  1
  Zr  Zr1  1  0.195899  0.195899  0.804101  1
  Zr  Zr2  1  0.804101  0.195899  0.804101  1
  Zr  Zr3  1  0.195899  0.804101  0.195899  1
  Zr  Zr4  1  0.195899  0.804101  0.804101  1
  Zr  Zr5  1  0.804101  0.195899  0.195899  1
  Zr  Zr6  1  0.445899  0.445899  0.054101  1
  Zr  Zr7  1  0.054101  0.054101  0.445899  1
  Zr  Zr8  1  0.445899  0.054101  0.445899  1
  Zr  Zr9  1  0.054101  0.445899  0.054101  1
  Zr  Zr10  1  0.054101  0.445899  0.445899  1
  Zr  Zr11  1  0.445899  0.054101  0.054101  1
  Ni  Ni12  1  0.125000  0.625000  0.625000  1
  Ni  Ni13  1  0.625000  0.125000  0.625000  1
  Ni  Ni14  1  0.625000  0.625000  0.125000  1
  Ni  Ni15  1  0.625000  0.625000  0.625000  1
  Ir  Ir16  1  0.748792  0.417070  0.417070  1
  Ir  Ir17  1  0.417070  0.748792  0.417070  1
  Ir  Ir18  1  0.417070  0.417070  0.748792  1
  Ir  Ir19  1  0.417070  0.417070  0.417070  1
  Ir  Ir20  1  0.501208  0.832930  0.832930  1
  Ir  Ir21  1  0.832930  0.501208  0.832930  1
  Ir  Ir22  1  0.832930  0.832930  0.501208  1
  Ir  Ir23  1  0.832930  0.832930  0.832930  1
  N  N24  1  0.625000  0.125000  0.125000  1
  N  N25  1  0.125000  0.625000  0.125000  1
  N  N26  1  0.125000  0.125000  0.625000  1
  N  N27  1  0.125000  0.125000  0.125000  1
