# generated using pymatgen
data_Li4HgBi2Pb
_symmetry_space_group_name_H-M   'P 1'
_cell_length_a   4.96847657
_cell_length_b   7.14032915
_cell_length_c   15.34449933
_cell_angle_alpha   90.09349648
_cell_angle_beta   90.07389450
_cell_angle_gamma   90.05355592
_symmetry_Int_Tables_number   1
_chemical_formula_structural   Li4HgBi2Pb
_chemical_formula_sum   'Li12 Hg3 Bi6 Pb3'
_cell_volume   544.36860573
_cell_formula_units_Z   3
loop_
 _symmetry_equiv_pos_site_id
 _symmetry_equiv_pos_as_xyz
  1  'x, y, z'
loop_
 _atom_site_type_symbol
 _atom_site_label
 _atom_site_symmetry_multiplicity
 _atom_site_fract_x
 _atom_site_fract_y
 _atom_site_fract_z
 _atom_site_occupancy
  Li  Li0  1  0.500175  0.221313  0.982996  1
  Li  Li1  1  0.499739  0.778768  0.982925  1
  Li  Li2  1  0.999935  0.268673  0.166638  1
  Li  Li3  1  0.999951  0.731570  0.166719  1
  Li  Li4  1  0.500267  0.221253  0.350297  1
  Li  Li5  1  0.500106  0.778786  0.350184  1
  Li  Li6  1  0.000035  0.225802  0.507659  1
  Li  Li7  1  0.000179  0.774245  0.507653  1
  Li  Li8  1  0.500110  0.253053  0.666756  1
  Li  Li9  1  0.499874  0.747090  0.666632  1
  Li  Li10  1  0.999879  0.225784  0.825677  1
  Li  Li11  1  0.999998  0.774212  0.825754  1
  Hg  Hg12  1  0.499847  0.999898  0.511552  1
  Hg  Hg13  1  0.000111  0.499947  0.666629  1
  Hg  Hg14  1  0.500008  0.000242  0.821808  1
  Bi  Bi15  1  0.999973  0.999676  0.007972  1
  Bi  Bi16  1  0.500256  0.500244  0.166501  1
  Bi  Bi17  1  0.000232  0.999983  0.325510  1
  Bi  Bi18  1  0.500139  0.500001  0.498043  1
  Bi  Bi19  1  0.999969  0.999882  0.666689  1
  Bi  Bi20  1  0.499568  0.500054  0.835279  1
  Pb  Pb21  1  0.999769  0.499677  0.987965  1
  Pb  Pb22  1  0.499613  0.000230  0.166765  1
  Pb  Pb23  1  0.000275  0.499616  0.345397  1
