# generated using pymatgen
data_Tb5SmNbCo17P12
_symmetry_space_group_name_H-M   'P 1'
_cell_length_a   3.72015400
_cell_length_b   10.59789400
_cell_length_c   12.32208200
_cell_angle_alpha   90.00000000
_cell_angle_beta   90.00000000
_cell_angle_gamma   90.00000000
_symmetry_Int_Tables_number   1
_chemical_formula_structural   Tb5SmNbCo17P12
_chemical_formula_sum   'Tb5 Sm1 Nb1 Co17 P12'
_cell_volume   485.80791286
_cell_formula_units_Z   1
loop_
 _symmetry_equiv_pos_site_id
 _symmetry_equiv_pos_as_xyz
  1  'x, y, z'
loop_
 _atom_site_type_symbol
 _atom_site_label
 _atom_site_symmetry_multiplicity
 _atom_site_fract_x
 _atom_site_fract_y
 _atom_site_fract_z
 _atom_site_occupancy
  Tb  Tb0  1  0.000000  0.500000  0.526716  1
  Tb  Tb1  1  0.500000  0.819335  0.206706  1
  Tb  Tb2  1  0.500000  0.180665  0.206706  1
  Tb  Tb3  1  0.000000  0.682912  0.795859  1
  Tb  Tb4  1  0.000000  0.317088  0.795859  1
  Sm  Sm5  1  0.500000  0.000000  0.477895  1
  Nb  Nb6  1  0.500000  0.500000  0.154318  1
  Co  Co7  1  0.000000  0.000000  0.839692  1
  Co  Co8  1  0.500000  0.500000  0.702513  1
  Co  Co9  1  0.000000  0.000000  0.294928  1
  Co  Co10  1  0.000000  0.500000  0.984391  1
  Co  Co11  1  0.500000  0.000000  0.013800  1
  Co  Co12  1  0.500000  0.329854  0.989691  1
  Co  Co13  1  0.500000  0.670146  0.989691  1
  Co  Co14  1  0.000000  0.163770  0.003841  1
  Co  Co15  1  0.000000  0.836230  0.003841  1
  Co  Co16  1  0.500000  0.296126  0.432599  1
  Co  Co17  1  0.500000  0.703874  0.432599  1
  Co  Co18  1  0.000000  0.204026  0.570105  1
  Co  Co19  1  0.000000  0.795974  0.570105  1
  Co  Co20  1  0.500000  0.879825  0.709251  1
  Co  Co21  1  0.500000  0.120175  0.709251  1
  Co  Co22  1  0.000000  0.622009  0.294168  1
  Co  Co23  1  0.000000  0.377991  0.294168  1
  P  P24  1  0.500000  0.500000  0.881503  1
  P  P25  1  0.000000  0.000000  0.115968  1
  P  P26  1  0.500000  0.500000  0.354897  1
  P  P27  1  0.000000  0.000000  0.658310  1
  P  P28  1  0.500000  0.309206  0.617020  1
  P  P29  1  0.500000  0.690794  0.617020  1
  P  P30  1  0.000000  0.190604  0.385469  1
  P  P31  1  0.000000  0.809396  0.385469  1
  P  P32  1  0.500000  0.851246  0.890816  1
  P  P33  1  0.500000  0.148754  0.890816  1
  P  P34  1  0.000000  0.660494  0.102014  1
  P  P35  1  0.000000  0.339506  0.102014  1
