# generated using pymatgen
data_SmTh2Ga3NiRu2
_symmetry_space_group_name_H-M   'P 1'
_cell_length_a   7.28292342
_cell_length_b   7.11552763
_cell_length_c   3.96377600
_cell_angle_alpha   90.00000000
_cell_angle_beta   90.00000000
_cell_angle_gamma   119.24254858
_symmetry_Int_Tables_number   1
_chemical_formula_structural   SmTh2Ga3NiRu2
_chemical_formula_sum   'Sm1 Th2 Ga3 Ni1 Ru2'
_cell_volume   179.23261060
_cell_formula_units_Z   1
loop_
 _symmetry_equiv_pos_site_id
 _symmetry_equiv_pos_as_xyz
  1  'x, y, z'
loop_
 _atom_site_type_symbol
 _atom_site_label
 _atom_site_symmetry_multiplicity
 _atom_site_fract_x
 _atom_site_fract_y
 _atom_site_fract_z
 _atom_site_occupancy
  Sm  Sm0  1  0.000000  0.409395  0.500000  1
  Th  Th1  1  0.582132  0.581546  0.500000  1
  Th  Th2  1  0.417868  0.999414  0.500000  1
  Ga  Ga3  1  0.000000  0.751814  0.000000  1
  Ga  Ga4  1  0.225255  0.234511  0.000000  1
  Ga  Ga5  1  0.774745  0.009256  0.000000  1
  Ni  Ni6  1  0.000000  0.992227  0.500000  1
  Ru  Ru7  1  0.358433  0.690135  0.000000  1
  Ru  Ru8  1  0.641567  0.331701  0.000000  1
