# generated using pymatgen
data_Hf8Co7Si14Ni
_symmetry_space_group_name_H-M   'P 1'
_cell_length_a   9.43710912
_cell_length_b   9.43190213
_cell_length_c   9.43126951
_cell_angle_alpha   94.11539888
_cell_angle_beta   94.14362362
_cell_angle_gamma   148.87692049
_symmetry_Int_Tables_number   1
_chemical_formula_structural   Hf8Co7Si14Ni
_chemical_formula_sum   'Hf8 Co7 Si14 Ni1'
_cell_volume   417.98285985
_cell_formula_units_Z   1
loop_
 _symmetry_equiv_pos_site_id
 _symmetry_equiv_pos_as_xyz
  1  'x, y, z'
loop_
 _atom_site_type_symbol
 _atom_site_label
 _atom_site_symmetry_multiplicity
 _atom_site_fract_x
 _atom_site_fract_y
 _atom_site_fract_z
 _atom_site_occupancy
  Hf  Hf0  1  0.137379  0.137381  0.274755  1
  Hf  Hf1  1  0.862365  0.862368  0.724720  1
  Hf  Hf2  1  0.136480  0.861680  0.999449  1
  Hf  Hf3  1  0.862968  0.137775  0.999448  1
  Hf  Hf4  1  0.305347  0.500506  0.804365  1
  Hf  Hf5  1  0.695745  0.500744  0.195231  1
  Hf  Hf6  1  0.499492  0.694499  0.195231  1
  Hf  Hf7  1  0.499015  0.303867  0.804367  1
  Co  Co8  1  0.397148  0.897157  0.794298  1
  Co  Co9  1  0.900167  0.102390  0.501361  1
  Co  Co10  1  0.601195  0.398985  0.501362  1
  Co  Co11  1  0.602488  0.102502  0.205038  1
  Co  Co12  1  0.898760  0.398766  0.797517  1
  Co  Co13  1  0.101637  0.896296  0.498681  1
  Co  Co14  1  0.397044  0.602400  0.498686  1
  Si  Si15  1  0.290432  0.290442  0.580847  1
  Si  Si16  1  0.709520  0.709530  0.419065  1
  Si  Si17  1  0.294630  0.712933  0.998856  1
  Si  Si18  1  0.704235  0.285936  0.998861  1
  Si  Si19  1  0.091294  0.499356  0.591226  1
  Si  Si20  1  0.899460  0.492825  0.410770  1
  Si  Si21  1  0.511309  0.917946  0.410772  1
  Si  Si22  1  0.499942  0.091890  0.591227  1
  Si  Si23  1  0.251138  0.251030  0.999750  1
  Si  Si24  1  0.748615  0.748735  0.999750  1
  Si  Si25  1  0.304149  0.005276  0.300941  1
  Si  Si26  1  0.700663  0.000962  0.699540  1
  Si  Si27  1  0.998879  0.698592  0.699545  1
  Si  Si28  1  0.996798  0.295653  0.300953  1
  Ni  Ni29  1  0.101706  0.601580  0.203386  1
