# generated using pymatgen
data_Sc12TcNi4Sn
_symmetry_space_group_name_H-M   'P 1'
_cell_length_a   7.76152742
_cell_length_b   7.76152767
_cell_length_c   7.76152752
_cell_angle_alpha   111.71315989
_cell_angle_beta   110.34025528
_cell_angle_gamma   106.40619858
_symmetry_Int_Tables_number   1
_chemical_formula_structural   Sc12TcNi4Sn
_chemical_formula_sum   'Sc12 Tc1 Ni4 Sn1'
_cell_volume   359.10953887
_cell_formula_units_Z   1
loop_
 _symmetry_equiv_pos_site_id
 _symmetry_equiv_pos_as_xyz
  1  'x, y, z'
loop_
 _atom_site_type_symbol
 _atom_site_label
 _atom_site_symmetry_multiplicity
 _atom_site_fract_x
 _atom_site_fract_y
 _atom_site_fract_z
 _atom_site_occupancy
  Sc  Sc0  1  0.679752  0.878516  0.198764  1
  Sc  Sc1  1  0.320248  0.519010  0.198764  1
  Sc  Sc2  1  0.817531  0.777409  0.594941  1
  Sc  Sc3  1  0.182469  0.777409  0.959878  1
  Sc  Sc4  1  0.817531  0.222591  0.040122  1
  Sc  Sc5  1  0.182469  0.222591  0.405059  1
  Sc  Sc6  1  0.679752  0.480990  0.801236  1
  Sc  Sc7  1  0.320248  0.121484  0.801236  1
  Sc  Sc8  1  0.580203  0.274616  0.305586  1
  Sc  Sc9  1  0.419797  0.725384  0.694414  1
  Sc  Sc10  1  0.030970  0.725384  0.305586  1
  Sc  Sc11  1  0.969030  0.274616  0.694414  1
  Tc  Tc12  1  0.000000  0.500000  0.500000  1
  Ni  Ni13  1  0.354228  0.500000  0.854228  1
  Ni  Ni14  1  0.645772  0.500000  0.145772  1
  Ni  Ni15  1  0.875115  0.875115  0.000000  1
  Ni  Ni16  1  0.124885  0.124885  0.000000  1
  Sn  Sn17  1  0.500000  0.000000  0.500000  1
