# generated using pymatgen
data_DyY9(TlSb2)2
_symmetry_space_group_name_H-M   'P 1'
_cell_length_a   6.51031400
_cell_length_b   8.97663604
_cell_length_c   8.98130800
_cell_angle_alpha   120.02183274
_cell_angle_beta   89.99836306
_cell_angle_gamma   90.00046158
_symmetry_Int_Tables_number   1
_chemical_formula_structural   DyY9(TlSb2)2
_chemical_formula_sum   'Dy1 Y9 Tl2 Sb4'
_cell_volume   454.45426866
_cell_formula_units_Z   1
loop_
 _symmetry_equiv_pos_site_id
 _symmetry_equiv_pos_as_xyz
  1  'x, y, z'
loop_
 _atom_site_type_symbol
 _atom_site_label
 _atom_site_symmetry_multiplicity
 _atom_site_fract_x
 _atom_site_fract_y
 _atom_site_fract_z
 _atom_site_occupancy
  Dy  Dy0  1  0.999357  0.336194  0.667924  1
  Y  Y1  1  0.500375  0.335885  0.667894  1
  Y  Y2  1  0.500488  0.663971  0.331891  1
  Y  Y3  1  0.999562  0.664073  0.331995  1
  Y  Y4  1  0.750030  0.241958  0.003757  1
  Y  Y5  1  0.750139  0.757997  0.761664  1
  Y  Y6  1  0.750040  0.999930  0.240989  1
  Y  Y7  1  0.249997  0.758911  0.997874  1
  Y  Y8  1  0.250030  0.241079  0.238930  1
  Y  Y9  1  0.249950  0.999995  0.756117  1
  Tl  Tl10  1  0.750237  0.605188  0.000877  1
  Tl  Tl11  1  0.750251  0.394635  0.395781  1
  Sb  Sb12  1  0.750173  0.000143  0.608872  1
  Sb  Sb13  1  0.249777  0.392285  0.998336  1
  Sb  Sb14  1  0.249806  0.607689  0.606125  1
  Sb  Sb15  1  0.249793  0.000068  0.390978  1
