# generated using pymatgen
data_Ca3TbPt4
_symmetry_space_group_name_H-M   'P 1'
_cell_length_a   4.40624000
_cell_length_b   5.70981888
_cell_length_c   7.34489781
_cell_angle_alpha   89.53957987
_cell_angle_beta   90.00000000
_cell_angle_gamma   90.00000000
_symmetry_Int_Tables_number   1
_chemical_formula_structural   Ca3TbPt4
_chemical_formula_sum   'Ca3 Tb1 Pt4'
_cell_volume   184.78308603
_cell_formula_units_Z   1
loop_
 _symmetry_equiv_pos_site_id
 _symmetry_equiv_pos_as_xyz
  1  'x, y, z'
loop_
 _atom_site_type_symbol
 _atom_site_label
 _atom_site_symmetry_multiplicity
 _atom_site_fract_x
 _atom_site_fract_y
 _atom_site_fract_z
 _atom_site_occupancy
  Ca  Ca0  1  0.250000  0.361792  0.680437  1
  Ca  Ca1  1  0.250000  0.137839  0.184072  1
  Ca  Ca2  1  0.750000  0.638761  0.317445  1
  Tb  Tb3  1  0.750000  0.865662  0.816662  1
  Pt  Pt4  1  0.250000  0.854543  0.551891  1
  Pt  Pt5  1  0.250000  0.652170  0.023848  1
  Pt  Pt6  1  0.750000  0.140672  0.467053  1
  Pt  Pt7  1  0.750000  0.348560  0.958592  1
