# generated using pymatgen
data_Nb12Zn3Ga8CuN4
_symmetry_space_group_name_H-M   'P 1'
_cell_length_a   8.27830438
_cell_length_b   8.27830392
_cell_length_c   8.30901332
_cell_angle_alpha   60.12217950
_cell_angle_beta   60.12218121
_cell_angle_gamma   60.00000380
_symmetry_Int_Tables_number   1
_chemical_formula_structural   Nb12Zn3Ga8CuN4
_chemical_formula_sum   'Nb12 Zn3 Ga8 Cu1 N4'
_cell_volume   403.38226383
_cell_formula_units_Z   1
loop_
 _symmetry_equiv_pos_site_id
 _symmetry_equiv_pos_as_xyz
  1  'x, y, z'
loop_
 _atom_site_type_symbol
 _atom_site_label
 _atom_site_symmetry_multiplicity
 _atom_site_fract_x
 _atom_site_fract_y
 _atom_site_fract_z
 _atom_site_occupancy
  Nb  Nb0  1  0.437871  0.437871  0.059597  1
  Nb  Nb1  1  0.064661  0.437871  0.059597  1
  Nb  Nb2  1  0.437871  0.064661  0.059597  1
  Nb  Nb3  1  0.059461  0.059461  0.441608  1
  Nb  Nb4  1  0.439469  0.059461  0.441608  1
  Nb  Nb5  1  0.059461  0.439469  0.441608  1
  Nb  Nb6  1  0.812129  0.812129  0.190403  1
  Nb  Nb7  1  0.185339  0.812129  0.190403  1
  Nb  Nb8  1  0.812129  0.185339  0.190403  1
  Nb  Nb9  1  0.190539  0.190539  0.808392  1
  Nb  Nb10  1  0.810531  0.190539  0.808392  1
  Nb  Nb11  1  0.190539  0.810531  0.808392  1
  Zn  Zn12  1  0.625000  0.125000  0.625000  1
  Zn  Zn13  1  0.125000  0.625000  0.625000  1
  Zn  Zn14  1  0.625000  0.625000  0.625000  1
  Ga  Ga15  1  0.836777  0.836777  0.489670  1
  Ga  Ga16  1  0.834168  0.487163  0.844503  1
  Ga  Ga17  1  0.487163  0.834168  0.844503  1
  Ga  Ga18  1  0.834168  0.834168  0.844503  1
  Ga  Ga19  1  0.413223  0.413223  0.760330  1
  Ga  Ga20  1  0.415832  0.762837  0.405497  1
  Ga  Ga21  1  0.762837  0.415832  0.405497  1
  Ga  Ga22  1  0.415832  0.415832  0.405497  1
  Cu  Cu23  1  0.625000  0.625000  0.125000  1
  N  N24  1  0.125000  0.125000  0.625000  1
  N  N25  1  0.125000  0.625000  0.125000  1
  N  N26  1  0.625000  0.125000  0.125000  1
  N  N27  1  0.125000  0.125000  0.125000  1
