# generated using pymatgen
data_HoTa8CdS16
_symmetry_space_group_name_H-M   'P 1'
_cell_length_a   6.69791000
_cell_length_b   6.69791032
_cell_length_c   13.87070200
_cell_angle_alpha   90.00000000
_cell_angle_beta   90.00000000
_cell_angle_gamma   120.00000832
_symmetry_Int_Tables_number   1
_chemical_formula_structural   HoTa8CdS16
_chemical_formula_sum   'Ho1 Ta8 Cd1 S16'
_cell_volume   538.89936571
_cell_formula_units_Z   1
loop_
 _symmetry_equiv_pos_site_id
 _symmetry_equiv_pos_as_xyz
  1  'x, y, z'
loop_
 _atom_site_type_symbol
 _atom_site_label
 _atom_site_symmetry_multiplicity
 _atom_site_fract_x
 _atom_site_fract_y
 _atom_site_fract_z
 _atom_site_occupancy
  Ho  Ho0  1  0.000000  0.000000  0.500000  1
  Ta  Ta1  1  0.505598  0.494402  0.748482  1
  Ta  Ta2  1  0.011195  0.505598  0.251518  1
  Ta  Ta3  1  0.494402  0.988805  0.251518  1
  Ta  Ta4  1  0.505598  0.011195  0.748482  1
  Ta  Ta5  1  0.988805  0.494402  0.748482  1
  Ta  Ta6  1  0.494402  0.505598  0.251518  1
  Ta  Ta7  1  0.000000  0.000000  0.746001  1
  Ta  Ta8  1  0.000000  0.000000  0.253999  1
  Cd  Cd9  1  0.000000  0.000000  0.000000  1
  S  S10  1  0.830724  0.169276  0.364949  1
  S  S11  1  0.830724  0.661447  0.364949  1
  S  S12  1  0.338553  0.169276  0.364949  1
  S  S13  1  0.665838  0.832919  0.859306  1
  S  S14  1  0.169276  0.338553  0.635051  1
  S  S15  1  0.167081  0.832919  0.859306  1
  S  S16  1  0.167081  0.334162  0.859306  1
  S  S17  1  0.832919  0.167081  0.140694  1
  S  S18  1  0.334162  0.167081  0.140694  1
  S  S19  1  0.661447  0.830724  0.635051  1
  S  S20  1  0.333333  0.666667  0.136797  1
  S  S21  1  0.666667  0.333333  0.632334  1
  S  S22  1  0.666667  0.333333  0.863203  1
  S  S23  1  0.333333  0.666667  0.367666  1
  S  S24  1  0.832919  0.665838  0.140694  1
  S  S25  1  0.169276  0.830724  0.635051  1
