# generated using pymatgen
data_Zr2Co3Si3P4Ru9
_symmetry_space_group_name_H-M   'P 1'
_cell_length_a   9.28799976
_cell_length_b   9.32575056
_cell_length_c   3.80432700
_cell_angle_alpha   90.00000000
_cell_angle_beta   90.00000000
_cell_angle_gamma   119.82052277
_symmetry_Int_Tables_number   1
_chemical_formula_structural   Zr2Co3Si3P4Ru9
_chemical_formula_sum   'Zr2 Co3 Si3 P4 Ru9'
_cell_volume   285.88874576
_cell_formula_units_Z   1
loop_
 _symmetry_equiv_pos_site_id
 _symmetry_equiv_pos_as_xyz
  1  'x, y, z'
loop_
 _atom_site_type_symbol
 _atom_site_label
 _atom_site_symmetry_multiplicity
 _atom_site_fract_x
 _atom_site_fract_y
 _atom_site_fract_z
 _atom_site_occupancy
  Zr  Zr0  1  0.333178  0.665498  0.000000  1
  Zr  Zr1  1  0.668381  0.335062  0.500000  1
  Co  Co2  1  0.159888  0.275268  0.000000  1
  Co  Co3  1  0.719774  0.882775  0.000000  1
  Co  Co4  1  0.120347  0.840168  0.000000  1
  Si  Si5  1  0.116748  0.399473  0.500000  1
  Si  Si6  1  0.597934  0.715755  0.500000  1
  Si  Si7  1  0.998162  0.999139  0.000000  1
  P  P8  1  0.282672  0.883314  0.500000  1
  P  P9  1  0.414297  0.304415  0.000000  1
  P  P10  1  0.698291  0.110220  0.000000  1
  P  P11  1  0.891713  0.588919  0.000000  1
  Ru  Ru12  1  0.429443  0.069722  0.000000  1
  Ru  Ru13  1  0.932348  0.362289  0.000000  1
  Ru  Ru14  1  0.640804  0.572079  0.000000  1
  Ru  Ru15  1  0.386585  0.433212  0.500000  1
  Ru  Ru16  1  0.557536  0.948394  0.500000  1
  Ru  Ru17  1  0.054705  0.618278  0.500000  1
  Ru  Ru18  1  0.206273  0.086870  0.500000  1
  Ru  Ru19  1  0.904729  0.113366  0.500000  1
  Ru  Ru20  1  0.886195  0.795785  0.500000  1
