# generated using pymatgen
data_LiLa(WO4)2
_symmetry_space_group_name_H-M   'P 1'
_cell_length_a   6.26231200
_cell_length_b   5.09602041
_cell_length_c   11.29278154
_cell_angle_alpha   66.37234108
_cell_angle_beta   90.00000000
_cell_angle_gamma   90.00000000
_symmetry_Int_Tables_number   1
_chemical_formula_structural   LiLa(WO4)2
_chemical_formula_sum   'Li2 La2 W4 O16'
_cell_volume   330.17375556
_cell_formula_units_Z   2
loop_
 _symmetry_equiv_pos_site_id
 _symmetry_equiv_pos_as_xyz
  1  'x, y, z'
loop_
 _atom_site_type_symbol
 _atom_site_label
 _atom_site_symmetry_multiplicity
 _atom_site_fract_x
 _atom_site_fract_y
 _atom_site_fract_z
 _atom_site_occupancy
  Li  Li0  1  0.779634  0.000000  0.750000  1
  Li  Li1  1  0.220366  0.000000  0.250000  1
  La  La2  1  0.333648  0.500000  0.750000  1
  La  La3  1  0.666352  0.500000  0.250000  1
  W  W4  1  0.836885  0.734602  0.516930  1
  W  W5  1  0.163115  0.265398  0.483070  1
  W  W6  1  0.836885  0.265398  0.983070  1
  W  W7  1  0.163115  0.734602  0.016930  1
  O  O8  1  0.892843  0.850549  0.093674  1
  O  O9  1  0.107157  0.149451  0.906326  1
  O  O10  1  0.892843  0.149451  0.406326  1
  O  O11  1  0.107157  0.850549  0.593674  1
  O  O12  1  0.358836  0.719291  0.899672  1
  O  O13  1  0.641164  0.280709  0.100328  1
  O  O14  1  0.358836  0.280709  0.600328  1
  O  O15  1  0.641164  0.719291  0.399672  1
  O  O16  1  0.918957  0.655790  0.891313  1
  O  O17  1  0.081043  0.344210  0.108687  1
  O  O18  1  0.918957  0.344210  0.608687  1
  O  O19  1  0.081043  0.655790  0.391313  1
  O  O20  1  0.660560  0.772509  0.638067  1
  O  O21  1  0.339440  0.227491  0.361933  1
  O  O22  1  0.660560  0.227491  0.861933  1
  O  O23  1  0.339440  0.772509  0.138067  1
