# generated using pymatgen
data_Sc12Ga(OsBr8)2
_symmetry_space_group_name_H-M   'P 1'
_cell_length_a   9.02581934
_cell_length_b   11.22300251
_cell_length_c   11.85065054
_cell_angle_alpha   117.10341828
_cell_angle_beta   101.73667770
_cell_angle_gamma   101.23482420
_symmetry_Int_Tables_number   1
_chemical_formula_structural   Sc12Ga(OsBr8)2
_chemical_formula_sum   'Sc12 Ga1 Os2 Br16'
_cell_volume   987.70342778
_cell_formula_units_Z   1
loop_
 _symmetry_equiv_pos_site_id
 _symmetry_equiv_pos_as_xyz
  1  'x, y, z'
loop_
 _atom_site_type_symbol
 _atom_site_label
 _atom_site_symmetry_multiplicity
 _atom_site_fract_x
 _atom_site_fract_y
 _atom_site_fract_z
 _atom_site_occupancy
  Sc  Sc0  1  0.072093  0.255438  0.350333  1
  Sc  Sc1  1  0.918339  0.737859  0.645774  1
  Sc  Sc2  1  0.779949  0.536642  0.323981  1
  Sc  Sc3  1  0.215348  0.462286  0.681971  1
  Sc  Sc4  1  0.273486  0.745348  0.651598  1
  Sc  Sc5  1  0.722429  0.261242  0.352828  1
  Sc  Sc6  1  0.130026  0.537539  0.320325  1
  Sc  Sc7  1  0.861617  0.463412  0.674639  1
  Sc  Sc8  1  0.411488  0.348964  0.258676  1
  Sc  Sc9  1  0.614288  0.651379  0.741137  1
  Sc  Sc10  1  0.468921  0.294640  0.521393  1
  Sc  Sc11  1  0.556693  0.705751  0.478004  1
  Ga  Ga12  1  0.350249  0.500214  0.499567  1
  Os  Os13  1  0.006272  0.499870  0.500032  1
  Os  Os14  1  0.656941  0.500041  0.500463  1
  Br  Br15  1  0.397495  0.738322  0.879744  1
  Br  Br16  1  0.603090  0.256541  0.110885  1
  Br  Br17  1  0.188601  0.968604  0.786057  1
  Br  Br18  1  0.807910  0.031438  0.214070  1
  Br  Br19  1  0.328261  0.095316  0.250779  1
  Br  Br20  1  0.647613  0.904090  0.748333  1
  Br  Br21  1  0.541941  0.438655  0.797029  1
  Br  Br22  1  0.433757  0.561945  0.201813  1
  Br  Br23  1  0.307950  0.821672  0.463358  1
  Br  Br24  1  0.693253  0.168725  0.537950  1
  Br  Br25  1  0.170940  0.175475  0.532319  1
  Br  Br26  1  0.836714  0.832665  0.466398  1
  Br  Br27  1  0.922313  0.575370  0.157809  1
  Br  Br28  1  0.073031  0.424004  0.841774  1
  Br  Br29  1  0.928047  0.742420  0.888978  1
  Br  Br30  1  0.080945  0.264134  0.121983  1
