# generated using pymatgen
data_Zr5VBi2
_symmetry_space_group_name_H-M   'P 1'
_cell_length_a   5.67635552
_cell_length_b   8.53147958
_cell_length_c   8.53147961
_cell_angle_alpha   83.64605309
_cell_angle_beta   70.56901459
_cell_angle_gamma   70.56901161
_symmetry_Int_Tables_number   1
_chemical_formula_structural   Zr5VBi2
_chemical_formula_sum   'Zr10 V2 Bi4'
_cell_volume   367.43555797
_cell_formula_units_Z   2
loop_
 _symmetry_equiv_pos_site_id
 _symmetry_equiv_pos_as_xyz
  1  'x, y, z'
loop_
 _atom_site_type_symbol
 _atom_site_label
 _atom_site_symmetry_multiplicity
 _atom_site_fract_x
 _atom_site_fract_y
 _atom_site_fract_z
 _atom_site_occupancy
  Zr  Zr0  1  0.250000  0.500000  0.500000  1
  Zr  Zr1  1  0.750000  0.500000  0.500000  1
  Zr  Zr2  1  0.070813  0.131478  0.726896  1
  Zr  Zr3  1  0.929187  0.868522  0.273104  1
  Zr  Zr4  1  0.797709  0.273104  0.131478  1
  Zr  Zr5  1  0.429187  0.273104  0.868522  1
  Zr  Zr6  1  0.202291  0.726896  0.868522  1
  Zr  Zr7  1  0.570813  0.726896  0.131478  1
  Zr  Zr8  1  0.702291  0.868522  0.726896  1
  Zr  Zr9  1  0.297709  0.131478  0.273104  1
  V  V10  1  0.250000  0.000000  0.000000  1
  V  V11  1  0.750000  0.000000  0.000000  1
  Bi  Bi12  1  0.164173  0.500000  0.171654  1
  Bi  Bi13  1  0.835827  0.500000  0.828346  1
  Bi  Bi14  1  0.335827  0.828346  0.500000  1
  Bi  Bi15  1  0.664173  0.171654  0.500000  1
