# generated using pymatgen
data_Nb12Al8CuAu3C4
_symmetry_space_group_name_H-M   'P 1'
_cell_length_a   8.43646052
_cell_length_b   8.43653764
_cell_length_c   8.43651561
_cell_angle_alpha   59.92579723
_cell_angle_beta   59.92684436
_cell_angle_gamma   59.92666387
_symmetry_Int_Tables_number   1
_chemical_formula_structural   Nb12Al8CuAu3C4
_chemical_formula_sum   'Nb12 Al8 Cu1 Au3 C4'
_cell_volume   423.88431243
_cell_formula_units_Z   1
loop_
 _symmetry_equiv_pos_site_id
 _symmetry_equiv_pos_as_xyz
  1  'x, y, z'
loop_
 _atom_site_type_symbol
 _atom_site_label
 _atom_site_symmetry_multiplicity
 _atom_site_fract_x
 _atom_site_fract_y
 _atom_site_fract_z
 _atom_site_occupancy
  Nb  Nb0  1  0.570184  0.929836  0.570184  1
  Nb  Nb1  1  0.320162  0.679817  0.679817  1
  Nb  Nb2  1  0.683075  0.318073  0.318071  1
  Nb  Nb3  1  0.318076  0.683070  0.318076  1
  Nb  Nb4  1  0.679816  0.679817  0.320163  1
  Nb  Nb5  1  0.318074  0.318075  0.683071  1
  Nb  Nb6  1  0.570184  0.570183  0.929837  1
  Nb  Nb7  1  0.929838  0.570183  0.570183  1
  Nb  Nb8  1  0.566925  0.931927  0.931929  1
  Nb  Nb9  1  0.931926  0.931925  0.566929  1
  Nb  Nb10  1  0.679816  0.320164  0.679816  1
  Nb  Nb11  1  0.931924  0.566930  0.931924  1
  Al  Al12  1  0.913576  0.913578  0.913577  1
  Al  Al13  1  0.994675  0.330686  0.330686  1
  Al  Al14  1  0.330687  0.994676  0.330686  1
  Al  Al15  1  0.330687  0.330686  0.994676  1
  Al  Al16  1  0.919313  0.255324  0.919314  1
  Al  Al17  1  0.919313  0.919314  0.255324  1
  Al  Al18  1  0.255325  0.919314  0.919314  1
  Al  Al19  1  0.336424  0.336422  0.336423  1
  Cu  Cu20  1  0.125000  0.125000  0.125000  1
  Au  Au21  1  0.625000  0.125000  0.125000  1
  Au  Au22  1  0.125000  0.625000  0.125000  1
  Au  Au23  1  0.125000  0.125000  0.625000  1
  C  C24  1  0.625000  0.625000  0.625000  1
  C  C25  1  0.125000  0.625000  0.625000  1
  C  C26  1  0.625000  0.125000  0.625000  1
  C  C27  1  0.625000  0.625000  0.125000  1
