# generated using pymatgen
data_Dy3Lu3Pa2(ReB6)4
_symmetry_space_group_name_H-M   'P 1'
_cell_length_a   3.67982400
_cell_length_b   9.12612460
_cell_length_c   11.49819501
_cell_angle_alpha   90.32318885
_cell_angle_beta   90.00000000
_cell_angle_gamma   90.00000000
_symmetry_Int_Tables_number   1
_chemical_formula_structural   Dy3Lu3Pa2(ReB6)4
_chemical_formula_sum   'Dy3 Lu3 Pa2 Re4 B24'
_cell_volume   386.13236303
_cell_formula_units_Z   1
loop_
 _symmetry_equiv_pos_site_id
 _symmetry_equiv_pos_as_xyz
  1  'x, y, z'
loop_
 _atom_site_type_symbol
 _atom_site_label
 _atom_site_symmetry_multiplicity
 _atom_site_fract_x
 _atom_site_fract_y
 _atom_site_fract_z
 _atom_site_occupancy
  Dy  Dy0  1  0.000000  0.823079  0.085632  1
  Dy  Dy1  1  0.000000  0.176935  0.914471  1
  Dy  Dy2  1  0.000000  0.945018  0.372666  1
  Lu  Lu3  1  0.000000  0.055108  0.628150  1
  Lu  Lu4  1  0.000000  0.443737  0.126232  1
  Lu  Lu5  1  0.000000  0.556061  0.873677  1
  Pa  Pa6  1  0.000000  0.320823  0.412193  1
  Pa  Pa7  1  0.000000  0.679692  0.587025  1
  Re  Re8  1  0.000000  0.634996  0.322542  1
  Re  Re9  1  0.000000  0.363867  0.677069  1
  Re  Re10  1  0.000000  0.142180  0.181758  1
  Re  Re11  1  0.000000  0.859026  0.818270  1
  B  B12  1  0.500000  0.553229  0.432681  1
  B  B13  1  0.500000  0.445898  0.567532  1
  B  B14  1  0.500000  0.054405  0.067119  1
  B  B15  1  0.500000  0.946217  0.932574  1
  B  B16  1  0.500000  0.748178  0.419241  1
  B  B17  1  0.500000  0.250416  0.581087  1
  B  B18  1  0.500000  0.250027  0.080304  1
  B  B19  1  0.500000  0.750312  0.919695  1
  B  B20  1  0.500000  0.791015  0.264606  1
  B  B21  1  0.500000  0.207621  0.735126  1
  B  B22  1  0.500000  0.293394  0.233524  1
  B  B23  1  0.500000  0.707092  0.766281  1
  B  B24  1  0.500000  0.629934  0.184129  1
  B  B25  1  0.500000  0.369414  0.815643  1
  B  B26  1  0.500000  0.132535  0.314129  1
  B  B27  1  0.500000  0.868500  0.685754  1
  B  B28  1  0.500000  0.982757  0.211644  1
  B  B29  1  0.500000  0.018087  0.787446  1
  B  B30  1  0.500000  0.482327  0.285636  1
  B  B31  1  0.500000  0.517411  0.714284  1
  B  B32  1  0.500000  0.601229  0.028297  1
  B  B33  1  0.500000  0.398608  0.971816  1
  B  B34  1  0.500000  0.108779  0.471066  1
  B  B35  1  0.500000  0.892095  0.530701  1
