# generated using pymatgen
data_Pr2TmCd(Ir2O7)2
_symmetry_space_group_name_H-M   'P 1'
_cell_length_a   7.24793283
_cell_length_b   7.38461865
_cell_length_c   7.38461843
_cell_angle_alpha   60.31234464
_cell_angle_beta   59.47876515
_cell_angle_gamma   59.47876771
_symmetry_Int_Tables_number   1
_chemical_formula_structural   Pr2TmCd(Ir2O7)2
_chemical_formula_sum   'Pr2 Tm1 Cd1 Ir4 O14'
_cell_volume   277.89869750
_cell_formula_units_Z   1
loop_
 _symmetry_equiv_pos_site_id
 _symmetry_equiv_pos_as_xyz
  1  'x, y, z'
loop_
 _atom_site_type_symbol
 _atom_site_label
 _atom_site_symmetry_multiplicity
 _atom_site_fract_x
 _atom_site_fract_y
 _atom_site_fract_z
 _atom_site_occupancy
  Pr  Pr0  1  0.125000  0.125000  0.625000  1
  Pr  Pr1  1  0.125000  0.625000  0.125000  1
  Tm  Tm2  1  0.125000  0.125000  0.125000  1
  Cd  Cd3  1  0.625000  0.125000  0.125000  1
  Ir  Ir4  1  0.625000  0.625000  0.625000  1
  Ir  Ir5  1  0.125000  0.625000  0.625000  1
  Ir  Ir6  1  0.625000  0.125000  0.625000  1
  Ir  Ir7  1  0.625000  0.625000  0.125000  1
  O  O8  1  0.961905  0.540366  0.540366  1
  O  O9  1  0.288953  0.292154  0.720093  1
  O  O10  1  0.961047  0.529907  0.957846  1
  O  O11  1  0.716772  0.298912  0.298912  1
  O  O12  1  0.551019  0.546188  0.952615  1
  O  O13  1  0.551019  0.952615  0.546188  1
  O  O14  1  0.533228  0.951088  0.951088  1
  O  O15  1  0.255176  0.240282  0.240282  1
  O  O16  1  0.288095  0.709634  0.709634  1
  O  O17  1  0.698981  0.297385  0.703812  1
  O  O18  1  0.994824  0.009718  0.009718  1
  O  O19  1  0.961047  0.957846  0.529907  1
  O  O20  1  0.288953  0.720093  0.292154  1
  O  O21  1  0.698981  0.703812  0.297385  1
