# generated using pymatgen
data_ScCr(GaRh2)2
_symmetry_space_group_name_H-M   'P 1'
_cell_length_a   4.36257600
_cell_length_b   4.36257600
_cell_length_c   6.11068600
_cell_angle_alpha   90.00000000
_cell_angle_beta   90.00000000
_cell_angle_gamma   90.00000000
_symmetry_Int_Tables_number   1
_chemical_formula_structural   ScCr(GaRh2)2
_chemical_formula_sum   'Sc1 Cr1 Ga2 Rh4'
_cell_volume   116.29899976
_cell_formula_units_Z   1
loop_
 _symmetry_equiv_pos_site_id
 _symmetry_equiv_pos_as_xyz
  1  'x, y, z'
loop_
 _atom_site_type_symbol
 _atom_site_label
 _atom_site_symmetry_multiplicity
 _atom_site_fract_x
 _atom_site_fract_y
 _atom_site_fract_z
 _atom_site_occupancy
  Sc  Sc0  1  0.500000  0.500000  0.000000  1
  Cr  Cr1  1  0.000000  0.000000  0.500000  1
  Ga  Ga2  1  0.000000  0.000000  0.000000  1
  Ga  Ga3  1  0.500000  0.500000  0.500000  1
  Rh  Rh4  1  0.500000  0.000000  0.260538  1
  Rh  Rh5  1  0.000000  0.500000  0.260538  1
  Rh  Rh6  1  0.500000  0.000000  0.739461  1
  Rh  Rh7  1  0.000000  0.500000  0.739461  1
