# generated using pymatgen
data_La11Pr9Si16
_symmetry_space_group_name_H-M   'P 1'
_cell_length_a   7.99898868
_cell_length_b   7.99898868
_cell_length_c   15.35892849
_cell_angle_alpha   89.97939724
_cell_angle_beta   90.02060276
_cell_angle_gamma   89.95758330
_symmetry_Int_Tables_number   1
_chemical_formula_structural   La11Pr9Si16
_chemical_formula_sum   'La11 Pr9 Si16'
_cell_volume   982.72251773
_cell_formula_units_Z   1
loop_
 _symmetry_equiv_pos_site_id
 _symmetry_equiv_pos_as_xyz
  1  'x, y, z'
loop_
 _atom_site_type_symbol
 _atom_site_label
 _atom_site_symmetry_multiplicity
 _atom_site_fract_x
 _atom_site_fract_y
 _atom_site_fract_z
 _atom_site_occupancy
  La  La0  1  0.309235  0.309235  0.000000  1
  La  La1  1  0.190687  0.809468  0.249854  1
  La  La2  1  0.809468  0.190687  0.750146  1
  La  La3  1  0.375873  0.011949  0.448999  1
  La  La4  1  0.488486  0.875888  0.699122  1
  La  La5  1  0.511721  0.123933  0.198989  1
  La  La6  1  0.875888  0.488486  0.300878  1
  La  La7  1  0.123933  0.511721  0.801011  1
  La  La8  1  0.623800  0.988243  0.949114  1
  La  La9  1  0.011949  0.375873  0.551001  1
  La  La10  1  0.988243  0.623800  0.050886  1
  Pr  Pr11  1  0.690243  0.690243  0.500000  1
  Pr  Pr12  1  0.127963  0.983332  0.875949  1
  Pr  Pr13  1  0.516885  0.627838  0.126007  1
  Pr  Pr14  1  0.483286  0.372119  0.625987  1
  Pr  Pr15  1  0.627838  0.516885  0.873993  1
  Pr  Pr16  1  0.372119  0.483286  0.374013  1
  Pr  Pr17  1  0.871905  0.016984  0.375863  1
  Pr  Pr18  1  0.983332  0.127963  0.124051  1
  Pr  Pr19  1  0.016984  0.871905  0.624137  1
  Si  Si20  1  0.198765  0.167359  0.700833  1
  Si  Si21  1  0.332827  0.698683  0.950770  1
  Si  Si22  1  0.667333  0.302122  0.450984  1
  Si  Si23  1  0.698683  0.332827  0.049230  1
  Si  Si24  1  0.302122  0.667333  0.549016  1
  Si  Si25  1  0.801403  0.832726  0.200971  1
  Si  Si26  1  0.167359  0.198765  0.299167  1
  Si  Si27  1  0.832726  0.801403  0.799029  1
  Si  Si28  1  0.289174  0.921250  0.058637  1
  Si  Si29  1  0.578959  0.788719  0.309297  1
  Si  Si30  1  0.421192  0.210799  0.808639  1
  Si  Si31  1  0.788719  0.578959  0.690703  1
  Si  Si32  1  0.210799  0.421192  0.191361  1
  Si  Si33  1  0.710983  0.077866  0.558618  1
  Si  Si34  1  0.921250  0.289174  0.941363  1
  Si  Si35  1  0.077866  0.710983  0.441382  1
