# generated using pymatgen
data_As2I3Cl7
_symmetry_space_group_name_H-M   'P 1'
_cell_length_a   7.40788527
_cell_length_b   8.84047280
_cell_length_c   9.12116205
_cell_angle_alpha   84.92916495
_cell_angle_beta   87.10363584
_cell_angle_gamma   107.21794217
_symmetry_Int_Tables_number   1
_chemical_formula_structural   As2I3Cl7
_chemical_formula_sum   'As2 I3 Cl7'
_cell_volume   566.48595831
_cell_formula_units_Z   1
loop_
 _symmetry_equiv_pos_site_id
 _symmetry_equiv_pos_as_xyz
  1  'x, y, z'
loop_
 _atom_site_type_symbol
 _atom_site_label
 _atom_site_symmetry_multiplicity
 _atom_site_fract_x
 _atom_site_fract_y
 _atom_site_fract_z
 _atom_site_occupancy
  As  As0  1  0.508613  0.208230  0.440901  1
  As  As1  1  0.045527  0.579844  0.580208  1
  I  I2  1  0.049081  0.996969  0.998027  1
  I  I3  1  0.671226  0.748774  0.897338  1
  I  I4  1  0.363033  0.218830  0.084943  1
  Cl  Cl5  1  0.312225  0.758083  0.484860  1
  Cl  Cl6  1  0.482114  0.750064  0.112913  1
  Cl  Cl7  1  0.653174  0.229393  0.651529  1
  Cl  Cl8  1  0.870585  0.749056  0.598893  1
  Cl  Cl9  1  0.254274  0.269077  0.517896  1
  Cl  Cl10  1  0.681534  0.439678  0.321772  1
  Cl  Cl11  1  0.108615  0.552001  0.810718  1
