# generated using pymatgen
data_LiHf4Sn3B
_symmetry_space_group_name_H-M   'P 1'
_cell_length_a   5.69927000
_cell_length_b   8.45420769
_cell_length_c   8.45421000
_cell_angle_alpha   119.99995427
_cell_angle_beta   90.00000000
_cell_angle_gamma   90.00000000
_symmetry_Int_Tables_number   1
_chemical_formula_structural   LiHf4Sn3B
_chemical_formula_sum   'Li2 Hf8 Sn6 B2'
_cell_volume   352.77354370
_cell_formula_units_Z   2
loop_
 _symmetry_equiv_pos_site_id
 _symmetry_equiv_pos_as_xyz
  1  'x, y, z'
loop_
 _atom_site_type_symbol
 _atom_site_label
 _atom_site_symmetry_multiplicity
 _atom_site_fract_x
 _atom_site_fract_y
 _atom_site_fract_z
 _atom_site_occupancy
  Li  Li0  1  0.000000  0.666667  0.333333  1
  Li  Li1  1  0.499999  0.666667  0.333333  1
  Hf  Hf2  1  0.250000  0.224737  0.995810  1
  Hf  Hf3  1  0.749999  0.771073  0.995810  1
  Hf  Hf4  1  0.750000  0.224738  0.228928  1
  Hf  Hf5  1  0.250000  0.004190  0.228928  1
  Hf  Hf6  1  0.000000  0.333333  0.666666  1
  Hf  Hf7  1  0.499999  0.333334  0.666667  1
  Hf  Hf8  1  0.250001  0.771072  0.775262  1
  Hf  Hf9  1  0.749999  0.004190  0.775263  1
  Sn  Sn10  1  0.749999  0.405365  0.007826  1
  Sn  Sn11  1  0.249998  0.602459  0.007826  1
  Sn  Sn12  1  0.250001  0.405366  0.397540  1
  Sn  Sn13  1  0.749999  0.992174  0.397540  1
  Sn  Sn14  1  0.750000  0.602460  0.594634  1
  Sn  Sn15  1  0.249998  0.992174  0.594635  1
  B  B16  1  0.000000  0.000000  0.000000  1
  B  B17  1  0.499999  0.000000  0.000000  1
