# generated using pymatgen
data_Nd2Y(SiIr)2
_symmetry_space_group_name_H-M   'P 1'
_cell_length_a   5.77420022
_cell_length_b   5.77420020
_cell_length_c   13.32502300
_cell_angle_alpha   90.00000000
_cell_angle_beta   90.00000000
_cell_angle_gamma   138.09468690
_symmetry_Int_Tables_number   1
_chemical_formula_structural   Nd2Y(SiIr)2
_chemical_formula_sum   'Nd4 Y2 Si4 Ir4'
_cell_volume   296.73181348
_cell_formula_units_Z   2
loop_
 _symmetry_equiv_pos_site_id
 _symmetry_equiv_pos_as_xyz
  1  'x, y, z'
loop_
 _atom_site_type_symbol
 _atom_site_label
 _atom_site_symmetry_multiplicity
 _atom_site_fract_x
 _atom_site_fract_y
 _atom_site_fract_z
 _atom_site_occupancy
  Nd  Nd0  1  0.773334  0.226666  0.603642  1
  Nd  Nd1  1  0.226666  0.773334  0.396358  1
  Nd  Nd2  1  0.773334  0.226666  0.896358  1
  Nd  Nd3  1  0.226666  0.773334  0.103642  1
  Y  Y4  1  0.515184  0.484816  0.250000  1
  Y  Y5  1  0.484816  0.515184  0.750000  1
  Si  Si6  1  0.059299  0.940701  0.589875  1
  Si  Si7  1  0.059299  0.940701  0.910125  1
  Si  Si8  1  0.940701  0.059299  0.410125  1
  Si  Si9  1  0.940701  0.059299  0.089875  1
  Ir  Ir10  1  0.817273  0.182727  0.250000  1
  Ir  Ir11  1  0.182727  0.817273  0.750000  1
  Ir  Ir12  1  0.500000  0.500000  0.000000  1
  Ir  Ir13  1  0.500000  0.500000  0.500000  1
