# generated using pymatgen
data_Yb6Er2SiPd24
_symmetry_space_group_name_H-M   'P 1'
_cell_length_a   8.27599607
_cell_length_b   8.27599607
_cell_length_c   8.27599607
_cell_angle_alpha   89.95873073
_cell_angle_beta   90.04126927
_cell_angle_gamma   90.04126927
_symmetry_Int_Tables_number   1
_chemical_formula_structural   Yb6Er2SiPd24
_chemical_formula_sum   'Yb6 Er2 Si1 Pd24'
_cell_volume   566.84000076
_cell_formula_units_Z   1
loop_
 _symmetry_equiv_pos_site_id
 _symmetry_equiv_pos_as_xyz
  1  'x, y, z'
loop_
 _atom_site_type_symbol
 _atom_site_label
 _atom_site_symmetry_multiplicity
 _atom_site_fract_x
 _atom_site_fract_y
 _atom_site_fract_z
 _atom_site_occupancy
  Yb  Yb0  1  0.253252  0.253246  0.253246  1
  Yb  Yb1  1  0.746748  0.746754  0.746754  1
  Yb  Yb2  1  0.746754  0.746748  0.253246  1
  Yb  Yb3  1  0.746754  0.253246  0.746748  1
  Yb  Yb4  1  0.253246  0.253252  0.746754  1
  Yb  Yb5  1  0.253246  0.746754  0.253252  1
  Er  Er6  1  0.253694  0.746306  0.746306  1
  Er  Er7  1  0.746306  0.253694  0.253694  1
  Si  Si8  1  0.000000  0.000000  0.000000  1
  Pd  Pd9  1  0.257206  0.500265  0.999763  1
  Pd  Pd10  1  0.742794  0.499735  0.000237  1
  Pd  Pd11  1  0.999763  0.257206  0.499735  1
  Pd  Pd12  1  0.500265  0.257206  0.000237  1
  Pd  Pd13  1  0.000237  0.742794  0.500265  1
  Pd  Pd14  1  0.499735  0.742794  0.999763  1
  Pd  Pd15  1  0.500265  0.000237  0.257206  1
  Pd  Pd16  1  0.257206  0.999763  0.500265  1
  Pd  Pd17  1  0.499735  0.999763  0.742794  1
  Pd  Pd18  1  0.742794  0.000237  0.499735  1
  Pd  Pd19  1  0.999763  0.499735  0.257206  1
  Pd  Pd20  1  0.000237  0.500265  0.742794  1
  Pd  Pd21  1  0.251930  0.500186  0.500186  1
  Pd  Pd22  1  0.748070  0.499814  0.499814  1
  Pd  Pd23  1  0.500186  0.251930  0.499814  1
  Pd  Pd24  1  0.499814  0.748070  0.500186  1
  Pd  Pd25  1  0.500186  0.499814  0.251930  1
  Pd  Pd26  1  0.499814  0.500186  0.748070  1
  Pd  Pd27  1  0.280485  0.999949  0.999949  1
  Pd  Pd28  1  0.719515  0.000051  0.000051  1
  Pd  Pd29  1  0.999949  0.280485  0.000051  1
  Pd  Pd30  1  0.000051  0.719515  0.999949  1
  Pd  Pd31  1  0.999949  0.000051  0.280485  1
  Pd  Pd32  1  0.000051  0.999949  0.719515  1
