# generated using pymatgen
data_TcMo2Ir3Rh2
_symmetry_space_group_name_H-M   'P 1'
_cell_length_a   5.51703341
_cell_length_b   5.54463874
_cell_length_c   4.40939800
_cell_angle_alpha   90.00000000
_cell_angle_beta   90.00000000
_cell_angle_gamma   119.75336262
_symmetry_Int_Tables_number   1
_chemical_formula_structural   TcMo2Ir3Rh2
_chemical_formula_sum   'Tc1 Mo2 Ir3 Rh2'
_cell_volume   117.10158941
_cell_formula_units_Z   1
loop_
 _symmetry_equiv_pos_site_id
 _symmetry_equiv_pos_as_xyz
  1  'x, y, z'
loop_
 _atom_site_type_symbol
 _atom_site_label
 _atom_site_symmetry_multiplicity
 _atom_site_fract_x
 _atom_site_fract_y
 _atom_site_fract_z
 _atom_site_occupancy
  Tc  Tc0  1  0.832093  0.665687  0.250000  1
  Mo  Mo1  1  0.333380  0.665039  0.250000  1
  Mo  Mo2  1  0.667178  0.334270  0.750000  1
  Ir  Ir3  1  0.167467  0.833561  0.750000  1
  Ir  Ir4  1  0.666185  0.834241  0.750000  1
  Ir  Ir5  1  0.333575  0.168920  0.250000  1
  Rh  Rh6  1  0.836137  0.167141  0.250000  1
  Rh  Rh7  1  0.163984  0.331142  0.750000  1
