# generated using pymatgen
data_La3Nd5Cd2IrPt
_symmetry_space_group_name_H-M   'P 1'
_cell_length_a   10.05468662
_cell_length_b   10.08187083
_cell_length_c   10.05960776
_cell_angle_alpha   59.95664751
_cell_angle_beta   60.15323144
_cell_angle_gamma   60.31220058
_symmetry_Int_Tables_number   1
_chemical_formula_structural   La3Nd5Cd2IrPt
_chemical_formula_sum   'La6 Nd10 Cd4 Ir2 Pt2'
_cell_volume   723.35130541
_cell_formula_units_Z   2
loop_
 _symmetry_equiv_pos_site_id
 _symmetry_equiv_pos_as_xyz
  1  'x, y, z'
loop_
 _atom_site_type_symbol
 _atom_site_label
 _atom_site_symmetry_multiplicity
 _atom_site_fract_x
 _atom_site_fract_y
 _atom_site_fract_z
 _atom_site_occupancy
  La  La0  1  0.347641  0.349867  0.345663  1
  La  La1  1  0.351403  0.349271  0.953528  1
  La  La2  1  0.355820  0.948502  0.347813  1
  La  La3  1  0.949495  0.355082  0.349291  1
  La  La4  1  0.807739  0.188702  0.187663  1
  La  La5  1  0.187947  0.806247  0.815732  1
  Nd  Nd6  1  0.190319  0.806474  0.191175  1
  Nd  Nd7  1  0.805378  0.190449  0.811924  1
  Nd  Nd8  1  0.191102  0.191565  0.809069  1
  Nd  Nd9  1  0.809455  0.810373  0.188692  1
  Nd  Nd10  1  0.937201  0.566408  0.562992  1
  Nd  Nd11  1  0.564688  0.936676  0.934890  1
  Nd  Nd12  1  0.565579  0.938864  0.562214  1
  Nd  Nd13  1  0.937441  0.563872  0.936185  1
  Nd  Nd14  1  0.564663  0.563978  0.937709  1
  Nd  Nd15  1  0.937238  0.937301  0.561793  1
  Cd  Cd16  1  0.581832  0.580142  0.579959  1
  Cd  Cd17  1  0.580095  0.581647  0.257442  1
  Cd  Cd18  1  0.579512  0.258280  0.581849  1
  Cd  Cd19  1  0.258364  0.579513  0.580002  1
  Ir  Ir20  1  0.142150  0.573100  0.140428  1
  Ir  Ir21  1  0.573399  0.141838  0.144863  1
  Pt  Pt22  1  0.140094  0.142055  0.145349  1
  Pt  Pt23  1  0.141446  0.139795  0.573773  1
