# generated using pymatgen
data_Lu3AlGa4Rh
_symmetry_space_group_name_H-M   'P 1'
_cell_length_a   6.82039300
_cell_length_b   6.86718427
_cell_length_c   4.22615100
_cell_angle_alpha   90.00000000
_cell_angle_beta   90.00000000
_cell_angle_gamma   119.77486262
_symmetry_Int_Tables_number   1
_chemical_formula_structural   Lu3AlGa4Rh
_chemical_formula_sum   'Lu3 Al1 Ga4 Rh1'
_cell_volume   171.80845581
_cell_formula_units_Z   1
loop_
 _symmetry_equiv_pos_site_id
 _symmetry_equiv_pos_as_xyz
  1  'x, y, z'
loop_
 _atom_site_type_symbol
 _atom_site_label
 _atom_site_symmetry_multiplicity
 _atom_site_fract_x
 _atom_site_fract_y
 _atom_site_fract_z
 _atom_site_occupancy
  Lu  Lu0  1  0.587379  0.000000  0.500000  1
  Lu  Lu1  1  0.414938  0.416106  0.500000  1
  Lu  Lu2  1  0.998832  0.583894  0.500000  1
  Al  Al3  1  0.229904  0.000000  0.000000  1
  Ga  Ga4  1  0.005816  0.243457  0.000000  1
  Ga  Ga5  1  0.663245  0.328249  0.000000  1
  Ga  Ga6  1  0.334996  0.671751  0.000000  1
  Ga  Ga7  1  0.762359  0.756543  0.000000  1
  Rh  Rh8  1  0.002531  0.000000  0.500000  1
