# generated using pymatgen
data_Dy13Lu3In4(PtRh)2
_symmetry_space_group_name_H-M   'P 1'
_cell_length_a   9.65409345
_cell_length_b   9.64825130
_cell_length_c   9.64905114
_cell_angle_alpha   60.04986871
_cell_angle_beta   59.98271495
_cell_angle_gamma   59.97996648
_symmetry_Int_Tables_number   1
_chemical_formula_structural   Dy13Lu3In4(PtRh)2
_chemical_formula_sum   'Dy13 Lu3 In4 Pt2 Rh2'
_cell_volume   635.58039042
_cell_formula_units_Z   1
loop_
 _symmetry_equiv_pos_site_id
 _symmetry_equiv_pos_as_xyz
  1  'x, y, z'
loop_
 _atom_site_type_symbol
 _atom_site_label
 _atom_site_symmetry_multiplicity
 _atom_site_fract_x
 _atom_site_fract_y
 _atom_site_fract_z
 _atom_site_occupancy
  Dy  Dy0  1  0.939191  0.936757  0.560869  1
  Dy  Dy1  1  0.150477  0.146385  0.552660  1
  Dy  Dy2  1  0.563182  0.936757  0.560869  1
  Dy  Dy3  1  0.152572  0.148383  0.150056  1
  Dy  Dy4  1  0.310783  0.310697  0.691562  1
  Dy  Dy5  1  0.939285  0.561545  0.559884  1
  Dy  Dy6  1  0.561868  0.561469  0.938766  1
  Dy  Dy7  1  0.562668  0.935717  0.938948  1
  Dy  Dy8  1  0.937896  0.561469  0.938766  1
  Dy  Dy9  1  0.149620  0.553980  0.146781  1
  Dy  Dy10  1  0.311750  0.689533  0.686966  1
  Dy  Dy11  1  0.686958  0.310697  0.691562  1
  Dy  Dy12  1  0.548987  0.148383  0.150056  1
  Lu  Lu13  1  0.689651  0.311228  0.309471  1
  Lu  Lu14  1  0.686366  0.691897  0.309816  1
  Lu  Lu15  1  0.311920  0.691897  0.309816  1
  In  In16  1  0.916651  0.917331  0.249368  1
  In  In17  1  0.249128  0.916770  0.917751  1
  In  In18  1  0.916427  0.249175  0.917972  1
  In  In19  1  0.916350  0.916770  0.917751  1
  Pt  Pt20  1  0.358187  0.360079  0.357185  1
  Pt  Pt21  1  0.924550  0.360079  0.357185  1
  Rh  Rh22  1  0.356779  0.358781  0.927661  1
  Rh  Rh23  1  0.358752  0.924221  0.358275  1
