# generated using pymatgen
data_Tb16Al4OsPd3
_symmetry_space_group_name_H-M   'P 1'
_cell_length_a   9.64428275
_cell_length_b   9.64428187
_cell_length_c   9.64428253
_cell_angle_alpha   59.79785966
_cell_angle_beta   59.79785585
_cell_angle_gamma   59.79785584
_symmetry_Int_Tables_number   1
_chemical_formula_structural   Tb16Al4OsPd3
_chemical_formula_sum   'Tb16 Al4 Os1 Pd3'
_cell_volume   631.38934046
_cell_formula_units_Z   1
loop_
 _symmetry_equiv_pos_site_id
 _symmetry_equiv_pos_as_xyz
  1  'x, y, z'
loop_
 _atom_site_type_symbol
 _atom_site_label
 _atom_site_symmetry_multiplicity
 _atom_site_fract_x
 _atom_site_fract_y
 _atom_site_fract_z
 _atom_site_occupancy
  Tb  Tb0  1  0.355269  0.355269  0.355269  1
  Tb  Tb1  1  0.352943  0.352943  0.938041  1
  Tb  Tb2  1  0.352943  0.938041  0.352943  1
  Tb  Tb3  1  0.938041  0.352943  0.352943  1
  Tb  Tb4  1  0.813727  0.191533  0.191533  1
  Tb  Tb5  1  0.191563  0.806014  0.806014  1
  Tb  Tb6  1  0.191533  0.813727  0.191533  1
  Tb  Tb7  1  0.806014  0.191563  0.806014  1
  Tb  Tb8  1  0.191533  0.191533  0.813727  1
  Tb  Tb9  1  0.806014  0.806014  0.191563  1
  Tb  Tb10  1  0.934648  0.564770  0.564770  1
  Tb  Tb11  1  0.556329  0.937657  0.937657  1
  Tb  Tb12  1  0.564770  0.934648  0.564770  1
  Tb  Tb13  1  0.937657  0.556329  0.937657  1
  Tb  Tb14  1  0.564770  0.564770  0.934648  1
  Tb  Tb15  1  0.937657  0.937657  0.556329  1
  Al  Al16  1  0.577396  0.577396  0.577396  1
  Al  Al17  1  0.577290  0.577290  0.269464  1
  Al  Al18  1  0.577290  0.269464  0.577290  1
  Al  Al19  1  0.269464  0.577290  0.577290  1
  Os  Os20  1  0.144035  0.144035  0.144035  1
  Pd  Pd21  1  0.145405  0.145405  0.568305  1
  Pd  Pd22  1  0.145405  0.568305  0.145405  1
  Pd  Pd23  1  0.568305  0.145405  0.145405  1
