# generated using pymatgen
data_Tb7Y9Cd4Ir3Ru
_symmetry_space_group_name_H-M   'P 1'
_cell_length_a   9.69666108
_cell_length_b   9.69982146
_cell_length_c   9.71249079
_cell_angle_alpha   59.71149000
_cell_angle_beta   59.77753938
_cell_angle_gamma   59.81622899
_symmetry_Int_Tables_number   1
_chemical_formula_structural   Tb7Y9Cd4Ir3Ru
_chemical_formula_sum   'Tb7 Y9 Cd4 Ir3 Ru1'
_cell_volume   642.55638032
_cell_formula_units_Z   1
loop_
 _symmetry_equiv_pos_site_id
 _symmetry_equiv_pos_as_xyz
  1  'x, y, z'
loop_
 _atom_site_type_symbol
 _atom_site_label
 _atom_site_symmetry_multiplicity
 _atom_site_fract_x
 _atom_site_fract_y
 _atom_site_fract_z
 _atom_site_occupancy
  Tb  Tb0  1  0.348564  0.349211  0.349297  1
  Tb  Tb1  1  0.348232  0.347523  0.956865  1
  Tb  Tb2  1  0.349144  0.956412  0.347599  1
  Tb  Tb3  1  0.956732  0.348975  0.348166  1
  Tb  Tb4  1  0.811378  0.189175  0.188968  1
  Tb  Tb5  1  0.187969  0.809960  0.809398  1
  Tb  Tb6  1  0.189082  0.811531  0.189153  1
  Y  Y7  1  0.809517  0.188241  0.809539  1
  Y  Y8  1  0.189282  0.189558  0.810755  1
  Y  Y9  1  0.809136  0.809770  0.188100  1
  Y  Y10  1  0.938662  0.561535  0.561477  1
  Y  Y11  1  0.560286  0.937648  0.937602  1
  Y  Y12  1  0.560989  0.939159  0.561187  1
  Y  Y13  1  0.937933  0.560117  0.937933  1
  Y  Y14  1  0.560629  0.560827  0.939605  1
  Y  Y15  1  0.938238  0.938345  0.559422  1
  Cd  Cd16  1  0.580426  0.579608  0.579737  1
  Cd  Cd17  1  0.581232  0.581181  0.256515  1
  Cd  Cd18  1  0.580693  0.256551  0.581495  1
  Cd  Cd19  1  0.256608  0.580451  0.581300  1
  Ir  Ir20  1  0.144515  0.142819  0.575771  1
  Ir  Ir21  1  0.145084  0.576724  0.142813  1
  Ir  Ir22  1  0.576124  0.144807  0.144186  1
  Ru  Ru23  1  0.139551  0.139878  0.143122  1
