# generated using pymatgen
data_Na4PuNpSe6
_symmetry_space_group_name_H-M   'P 1'
_cell_length_a   7.29437685
_cell_length_b   7.29437704
_cell_length_c   7.34950337
_cell_angle_alpha   80.39484677
_cell_angle_beta   80.39485631
_cell_angle_gamma   119.99722970
_symmetry_Int_Tables_number   1
_chemical_formula_structural   Na4PuNpSe6
_chemical_formula_sum   'Na4 Pu1 Np1 Se6'
_cell_volume   319.25743308
_cell_formula_units_Z   1
loop_
 _symmetry_equiv_pos_site_id
 _symmetry_equiv_pos_as_xyz
  1  'x, y, z'
loop_
 _atom_site_type_symbol
 _atom_site_label
 _atom_site_symmetry_multiplicity
 _atom_site_fract_x
 _atom_site_fract_y
 _atom_site_fract_z
 _atom_site_occupancy
  Na  Na0  1  0.000133  0.999867  0.000000  1
  Na  Na1  1  0.500315  0.499685  0.500000  1
  Na  Na2  1  0.839410  0.160590  0.500000  1
  Na  Na3  1  0.159957  0.840043  0.500000  1
  Pu  Pu4  1  0.667099  0.332901  0.000000  1
  Np  Np5  1  0.332872  0.667128  0.000000  1
  Se  Se6  1  0.276341  0.280917  0.228834  1
  Se  Se7  1  0.429957  0.071529  0.772257  1
  Se  Se8  1  0.081176  0.434814  0.773445  1
  Se  Se9  1  0.719083  0.723659  0.771166  1
  Se  Se10  1  0.565186  0.918824  0.226555  1
  Se  Se11  1  0.928471  0.570043  0.227743  1
