# generated using pymatgen
data_Rb2NaYBi2
_symmetry_space_group_name_H-M   'P 1'
_cell_length_a   10.22280473
_cell_length_b   10.22280427
_cell_length_c   10.22280367
_cell_angle_alpha   136.00514867
_cell_angle_beta   64.00722686
_cell_angle_gamma   135.96007852
_symmetry_Int_Tables_number   1
_chemical_formula_structural   Rb2NaYBi2
_chemical_formula_sum   'Rb4 Na2 Y2 Bi4'
_cell_volume   508.92093577
_cell_formula_units_Z   2
loop_
 _symmetry_equiv_pos_site_id
 _symmetry_equiv_pos_as_xyz
  1  'x, y, z'
loop_
 _atom_site_type_symbol
 _atom_site_label
 _atom_site_symmetry_multiplicity
 _atom_site_fract_x
 _atom_site_fract_y
 _atom_site_fract_z
 _atom_site_occupancy
  Rb  Rb0  1  0.824241  0.272125  0.096366  1
  Rb  Rb1  1  0.675758  0.772125  0.447884  1
  Rb  Rb2  1  0.324241  0.227875  0.552116  1
  Rb  Rb3  1  0.175759  0.727874  0.903633  1
  Na  Na4  1  0.750000  0.250000  0.500000  1
  Na  Na5  1  0.250000  0.750000  0.500000  1
  Y  Y6  1  0.250000  0.250000  0.000000  1
  Y  Y7  1  0.750001  0.750001  0.000000  1
  Bi  Bi8  1  0.399510  0.727008  0.126519  1
  Bi  Bi9  1  0.100489  0.227009  0.327498  1
  Bi  Bi10  1  0.899510  0.772991  0.672502  1
  Bi  Bi11  1  0.600489  0.272991  0.873481  1
