# generated using pymatgen
data_PrTh5SCl15
_symmetry_space_group_name_H-M   'P 1'
_cell_length_a   9.66903006
_cell_length_b   9.66902997
_cell_length_c   9.66903034
_cell_angle_alpha   109.50154278
_cell_angle_beta   109.45606447
_cell_angle_gamma   109.45606081
_symmetry_Int_Tables_number   1
_chemical_formula_structural   PrTh5SCl15
_chemical_formula_sum   'Pr1 Th5 S1 Cl15'
_cell_volume   695.86781082
_cell_formula_units_Z   1
loop_
 _symmetry_equiv_pos_site_id
 _symmetry_equiv_pos_as_xyz
  1  'x, y, z'
loop_
 _atom_site_type_symbol
 _atom_site_label
 _atom_site_symmetry_multiplicity
 _atom_site_fract_x
 _atom_site_fract_y
 _atom_site_fract_z
 _atom_site_occupancy
  Pr  Pr0  1  0.000000  0.245507  0.245507  1
  Th  Th1  1  0.000000  0.754045  0.754045  1
  Th  Th2  1  0.244330  0.000755  0.245085  1
  Th  Th3  1  0.755670  0.000755  0.756425  1
  Th  Th4  1  0.244330  0.245085  0.000755  1
  Th  Th5  1  0.755670  0.756425  0.000755  1
  S  S6  1  0.000000  0.000922  0.000922  1
  Cl  Cl7  1  0.496496  0.248221  0.248221  1
  Cl  Cl8  1  0.503504  0.751724  0.751724  1
  Cl  Cl9  1  0.000000  0.248221  0.751724  1
  Cl  Cl10  1  0.000000  0.751724  0.248221  1
  Cl  Cl11  1  0.253625  0.499450  0.245825  1
  Cl  Cl12  1  0.746375  0.992200  0.245825  1
  Cl  Cl13  1  0.751236  0.502545  0.751308  1
  Cl  Cl14  1  0.248764  0.000072  0.751308  1
  Cl  Cl15  1  0.253625  0.245825  0.499450  1
  Cl  Cl16  1  0.751236  0.751308  0.502545  1
  Cl  Cl17  1  0.746375  0.245825  0.992200  1
  Cl  Cl18  1  0.248764  0.751308  0.000072  1
  Cl  Cl19  1  0.000000  0.508343  0.508343  1
  Cl  Cl20  1  0.500000  0.999870  0.499870  1
  Cl  Cl21  1  0.500000  0.499870  0.999870  1
