# generated using pymatgen
data_Pr3Co(P3Ru4)2
_symmetry_space_group_name_H-M   'P 1'
_cell_length_a   3.97989700
_cell_length_b   11.23412200
_cell_length_c   12.77684800
_cell_angle_alpha   90.00000000
_cell_angle_beta   90.00000000
_cell_angle_gamma   90.00000000
_symmetry_Int_Tables_number   1
_chemical_formula_structural   Pr3Co(P3Ru4)2
_chemical_formula_sum   'Pr6 Co2 P12 Ru16'
_cell_volume   571.26115917
_cell_formula_units_Z   2
loop_
 _symmetry_equiv_pos_site_id
 _symmetry_equiv_pos_as_xyz
  1  'x, y, z'
loop_
 _atom_site_type_symbol
 _atom_site_label
 _atom_site_symmetry_multiplicity
 _atom_site_fract_x
 _atom_site_fract_y
 _atom_site_fract_z
 _atom_site_occupancy
  Pr  Pr0  1  0.000000  0.500000  0.525721  1
  Pr  Pr1  1  0.500000  0.000000  0.474279  1
  Pr  Pr2  1  0.500000  0.819711  0.204750  1
  Pr  Pr3  1  0.500000  0.180289  0.204750  1
  Pr  Pr4  1  0.000000  0.680289  0.795250  1
  Pr  Pr5  1  0.000000  0.319711  0.795250  1
  Co  Co6  1  0.000000  0.500000  0.989007  1
  Co  Co7  1  0.500000  0.000000  0.010993  1
  P  P8  1  0.500000  0.500000  0.887199  1
  P  P9  1  0.000000  0.000000  0.112801  1
  P  P10  1  0.500000  0.500000  0.334770  1
  P  P11  1  0.000000  0.000000  0.665230  1
  P  P12  1  0.500000  0.298376  0.616016  1
  P  P13  1  0.500000  0.701624  0.616016  1
  P  P14  1  0.000000  0.201624  0.383984  1
  P  P15  1  0.000000  0.798376  0.383984  1
  P  P16  1  0.500000  0.850295  0.899834  1
  P  P17  1  0.500000  0.149705  0.899834  1
  P  P18  1  0.000000  0.649705  0.100166  1
  P  P19  1  0.000000  0.350295  0.100166  1
  Ru  Ru20  1  0.500000  0.500000  0.153956  1
  Ru  Ru21  1  0.000000  0.000000  0.846044  1
  Ru  Ru22  1  0.500000  0.500000  0.696169  1
  Ru  Ru23  1  0.000000  0.000000  0.303831  1
  Ru  Ru24  1  0.500000  0.334314  0.992207  1
  Ru  Ru25  1  0.500000  0.665686  0.992207  1
  Ru  Ru26  1  0.000000  0.165686  0.007793  1
  Ru  Ru27  1  0.000000  0.834314  0.007793  1
  Ru  Ru28  1  0.500000  0.301740  0.429916  1
  Ru  Ru29  1  0.500000  0.698260  0.429916  1
  Ru  Ru30  1  0.000000  0.198260  0.570084  1
  Ru  Ru31  1  0.000000  0.801740  0.570084  1
  Ru  Ru32  1  0.500000  0.879851  0.716512  1
  Ru  Ru33  1  0.500000  0.120149  0.716512  1
  Ru  Ru34  1  0.000000  0.620149  0.283488  1
  Ru  Ru35  1  0.000000  0.379851  0.283488  1
