# generated using pymatgen
data_Dy3In3Hg2Ir
_symmetry_space_group_name_H-M   'P 1'
_cell_length_a   7.97797900
_cell_length_b   7.97798093
_cell_length_c   3.91843900
_cell_angle_alpha   90.00000000
_cell_angle_beta   90.00000000
_cell_angle_gamma   119.99998786
_symmetry_Int_Tables_number   1
_chemical_formula_structural   Dy3In3Hg2Ir
_chemical_formula_sum   'Dy3 In3 Hg2 Ir1'
_cell_volume   215.98801726
_cell_formula_units_Z   1
loop_
 _symmetry_equiv_pos_site_id
 _symmetry_equiv_pos_as_xyz
  1  'x, y, z'
loop_
 _atom_site_type_symbol
 _atom_site_label
 _atom_site_symmetry_multiplicity
 _atom_site_fract_x
 _atom_site_fract_y
 _atom_site_fract_z
 _atom_site_occupancy
  Dy  Dy0  1  0.581252  0.614890  0.000000  1
  Dy  Dy1  1  0.385110  0.966362  0.000000  1
  Dy  Dy2  1  0.033638  0.418748  0.000000  1
  In  In3  1  0.002976  0.728243  0.500000  1
  In  In4  1  0.271757  0.274733  0.500000  1
  In  In5  1  0.725267  0.997024  0.500000  1
  Hg  Hg6  1  0.000000  0.000000  0.000000  1
  Hg  Hg7  1  0.666667  0.333333  0.500000  1
  Ir  Ir8  1  0.333333  0.666667  0.500000  1
