# generated using pymatgen
data_Ce5P12Ru15Rh4
_symmetry_space_group_name_H-M   'P 1'
_cell_length_a   12.69166260
_cell_length_b   12.64918217
_cell_length_c   3.97035800
_cell_angle_alpha   90.00000000
_cell_angle_beta   90.00000000
_cell_angle_gamma   120.17009411
_symmetry_Int_Tables_number   1
_chemical_formula_structural   Ce5P12Ru15Rh4
_chemical_formula_sum   'Ce5 P12 Ru15 Rh4'
_cell_volume   551.05422668
_cell_formula_units_Z   1
loop_
 _symmetry_equiv_pos_site_id
 _symmetry_equiv_pos_as_xyz
  1  'x, y, z'
loop_
 _atom_site_type_symbol
 _atom_site_label
 _atom_site_symmetry_multiplicity
 _atom_site_fract_x
 _atom_site_fract_y
 _atom_site_fract_z
 _atom_site_occupancy
  Ce  Ce0  1  0.666115  0.332814  0.000000  1
  Ce  Ce1  1  0.336165  0.667858  0.000000  1
  Ce  Ce2  1  0.812804  0.999419  0.500000  1
  Ce  Ce3  1  0.185008  0.185819  0.500000  1
  Ce  Ce4  1  0.000129  0.814009  0.500000  1
  P  P5  1  0.626569  0.994605  0.000000  1
  P  P6  1  0.367223  0.372783  0.000000  1
  P  P7  1  0.001397  0.632104  0.000000  1
  P  P8  1  0.693476  0.524234  0.500000  1
  P  P9  1  0.830515  0.306973  0.500000  1
  P  P10  1  0.310386  0.832420  0.500000  1
  P  P11  1  0.523446  0.693365  0.500000  1
  P  P12  1  0.184623  0.999554  0.000000  1
  P  P13  1  0.815236  0.814794  0.000000  1
  P  P14  1  0.998057  0.184712  0.000000  1
  P  P15  1  0.474700  0.168869  0.500000  1
  P  P16  1  0.173173  0.476328  0.500000  1
  Ru  Ru17  1  0.622339  0.802890  0.000000  1
  Ru  Ru18  1  0.180514  0.378348  0.000000  1
  Ru  Ru19  1  0.377457  0.184515  0.000000  1
  Ru  Ru20  1  0.196788  0.816634  0.000000  1
  Ru  Ru21  1  0.805655  0.620942  0.000000  1
  Ru  Ru22  1  0.366394  0.491122  0.500000  1
  Ru  Ru23  1  0.509810  0.874573  0.500000  1
  Ru  Ru24  1  0.000318  0.000487  0.000000  1
  Ru  Ru25  1  0.715725  0.714529  0.500000  1
  Ru  Ru26  1  0.998571  0.285460  0.500000  1
  Ru  Ru27  1  0.448761  0.002901  0.000000  1
  Ru  Ru28  1  0.553706  0.550206  0.000000  1
  Ru  Ru29  1  0.997575  0.447819  0.000000  1
  Ru  Ru30  1  0.814410  0.193723  0.000000  1
  Ru  Ru31  1  0.284342  0.999740  0.500000  1
  Rh  Rh32  1  0.873091  0.507958  0.500000  1
  Rh  Rh33  1  0.493582  0.365279  0.500000  1
  Rh  Rh34  1  0.633735  0.128274  0.500000  1
  Rh  Rh35  1  0.128207  0.633938  0.500000  1
