# generated using pymatgen
data_K8CeAs4
_symmetry_space_group_name_H-M   'P 1'
_cell_length_a   11.27812856
_cell_length_b   11.27812829
_cell_length_c   11.27812800
_cell_angle_alpha   60.00000086
_cell_angle_beta   60.00000164
_cell_angle_gamma   59.99999693
_symmetry_Int_Tables_number   1
_chemical_formula_structural   K8CeAs4
_chemical_formula_sum   'K16 Ce2 As8'
_cell_volume   1014.36928637
_cell_formula_units_Z   2
loop_
 _symmetry_equiv_pos_site_id
 _symmetry_equiv_pos_as_xyz
  1  'x, y, z'
loop_
 _atom_site_type_symbol
 _atom_site_label
 _atom_site_symmetry_multiplicity
 _atom_site_fract_x
 _atom_site_fract_y
 _atom_site_fract_z
 _atom_site_occupancy
  K  K0  1  0.625000  0.625000  0.125000  1
  K  K1  1  0.625000  0.125000  0.625000  1
  K  K2  1  0.125000  0.625000  0.625000  1
  K  K3  1  0.625000  0.625000  0.625000  1
  K  K4  1  0.031875  0.468125  0.468125  1
  K  K5  1  0.781875  0.218125  0.218125  1
  K  K6  1  0.468125  0.031875  0.468125  1
  K  K7  1  0.468125  0.468125  0.031875  1
  K  K8  1  0.031875  0.031875  0.468125  1
  K  K9  1  0.031875  0.468125  0.031875  1
  K  K10  1  0.468125  0.031875  0.031875  1
  K  K11  1  0.781875  0.218125  0.781875  1
  K  K12  1  0.218125  0.781875  0.218125  1
  K  K13  1  0.218125  0.218125  0.781875  1
  K  K14  1  0.781875  0.781875  0.218125  1
  K  K15  1  0.218125  0.781875  0.781875  1
  Ce  Ce16  1  0.750000  0.750000  0.750000  1
  Ce  Ce17  1  0.500000  0.500000  0.500000  1
  As  As18  1  0.853061  0.853061  0.440817  1
  As  As19  1  0.853061  0.440817  0.853061  1
  As  As20  1  0.396939  0.396939  0.809183  1
  As  As21  1  0.396939  0.809183  0.396939  1
  As  As22  1  0.809183  0.396939  0.396939  1
  As  As23  1  0.853061  0.853061  0.853061  1
  As  As24  1  0.440817  0.853061  0.853061  1
  As  As25  1  0.396939  0.396939  0.396939  1
