# generated using pymatgen
data_SmFe2GeP
_symmetry_space_group_name_H-M   'P 1'
_cell_length_a   5.67274284
_cell_length_b   5.67274233
_cell_length_c   5.67274297
_cell_angle_alpha   139.23430873
_cell_angle_beta   139.23430624
_cell_angle_gamma   59.01775977
_symmetry_Int_Tables_number   1
_chemical_formula_structural   SmFe2GeP
_chemical_formula_sum   'Sm1 Fe2 Ge1 P1'
_cell_volume   77.08741616
_cell_formula_units_Z   1
loop_
 _symmetry_equiv_pos_site_id
 _symmetry_equiv_pos_as_xyz
  1  'x, y, z'
loop_
 _atom_site_type_symbol
 _atom_site_label
 _atom_site_symmetry_multiplicity
 _atom_site_fract_x
 _atom_site_fract_y
 _atom_site_fract_z
 _atom_site_occupancy
  Sm  Sm0  1  0.003116  0.003116  0.000000  1
  Fe  Fe1  1  0.742192  0.242192  0.500000  1
  Fe  Fe2  1  0.242192  0.742192  0.500000  1
  Ge  Ge3  1  0.369982  0.369982  0.000000  1
  P  P4  1  0.642518  0.642518  0.000000  1
