# generated using pymatgen
data_Hf13Zr5(NiMo4)2
_symmetry_space_group_name_H-M   'P 1'
_cell_length_a   8.46869000
_cell_length_b   8.72750437
_cell_length_c   8.71858539
_cell_angle_alpha   119.96998848
_cell_angle_beta   90.00005333
_cell_angle_gamma   90.00009692
_symmetry_Int_Tables_number   1
_chemical_formula_structural   Hf13Zr5(NiMo4)2
_chemical_formula_sum   'Hf13 Zr5 Ni2 Mo8'
_cell_volume   558.23135372
_cell_formula_units_Z   1
loop_
 _symmetry_equiv_pos_site_id
 _symmetry_equiv_pos_as_xyz
  1  'x, y, z'
loop_
 _atom_site_type_symbol
 _atom_site_label
 _atom_site_symmetry_multiplicity
 _atom_site_fract_x
 _atom_site_fract_y
 _atom_site_fract_z
 _atom_site_occupancy
  Hf  Hf0  1  0.557022  0.800879  0.600928  1
  Hf  Hf1  1  0.557040  0.800884  0.199922  1
  Hf  Hf2  1  0.557806  0.398639  0.199308  1
  Hf  Hf3  1  0.441724  0.198637  0.398755  1
  Hf  Hf4  1  0.441711  0.198630  0.799911  1
  Hf  Hf5  1  0.442185  0.601346  0.800684  1
  Hf  Hf6  1  0.058277  0.198636  0.398753  1
  Hf  Hf7  1  0.058289  0.198628  0.799912  1
  Hf  Hf8  1  0.057815  0.601348  0.800685  1
  Hf  Hf9  1  0.942978  0.800880  0.600930  1
  Hf  Hf10  1  0.942959  0.800887  0.199922  1
  Hf  Hf11  1  0.942196  0.398638  0.199307  1
  Hf  Hf12  1  0.250000  0.916339  0.458186  1
  Zr  Zr13  1  0.750000  0.457752  0.915441  1
  Zr  Zr14  1  0.750000  0.457735  0.542313  1
  Zr  Zr15  1  0.750000  0.084864  0.542421  1
  Zr  Zr16  1  0.250000  0.543108  0.085258  1
  Zr  Zr17  1  0.250000  0.543130  0.457855  1
  Ni  Ni18  1  0.750000  0.666522  0.333264  1
  Ni  Ni19  1  0.249998  0.332816  0.666414  1
  Mo  Mo20  1  0.750002  0.111125  0.222685  1
  Mo  Mo21  1  0.750001  0.111100  0.888383  1
  Mo  Mo22  1  0.750002  0.777409  0.888662  1
  Mo  Mo23  1  0.249999  0.888728  0.776518  1
  Mo  Mo24  1  0.249998  0.888761  0.112254  1
  Mo  Mo25  1  0.249999  0.222269  0.111173  1
  Mo  Mo26  1  0.499958  0.000156  0.000078  1
  Mo  Mo27  1  0.000042  0.000156  0.000079  1
