# generated using pymatgen
data_Ti2BeB2RuRh4
_symmetry_space_group_name_H-M   'P 1'
_cell_length_a   2.93178900
_cell_length_b   9.09928500
_cell_length_c   9.09928500
_cell_angle_alpha   90.00000000
_cell_angle_beta   90.00000000
_cell_angle_gamma   90.00000000
_symmetry_Int_Tables_number   1
_chemical_formula_structural   Ti2BeB2RuRh4
_chemical_formula_sum   'Ti4 Be2 B4 Ru2 Rh8'
_cell_volume   242.74329722
_cell_formula_units_Z   2
loop_
 _symmetry_equiv_pos_site_id
 _symmetry_equiv_pos_as_xyz
  1  'x, y, z'
loop_
 _atom_site_type_symbol
 _atom_site_label
 _atom_site_symmetry_multiplicity
 _atom_site_fract_x
 _atom_site_fract_y
 _atom_site_fract_z
 _atom_site_occupancy
  Ti  Ti0  1  0.000000  0.827033  0.172968  1
  Ti  Ti1  1  0.000000  0.327033  0.327033  1
  Ti  Ti2  1  0.000000  0.672967  0.672967  1
  Ti  Ti3  1  0.000000  0.172968  0.827033  1
  Be  Be4  1  0.000000  0.500000  0.000000  1
  Be  Be5  1  0.000000  0.000000  0.500000  1
  B  B6  1  0.000000  0.127446  0.127446  1
  B  B7  1  0.000000  0.627446  0.372555  1
  B  B8  1  0.000000  0.372555  0.627446  1
  B  B9  1  0.000000  0.872555  0.872555  1
  Ru  Ru10  1  0.499999  0.000000  0.000000  1
  Ru  Ru11  1  0.499999  0.500000  0.500000  1
  Rh  Rh12  1  0.499999  0.293340  0.071167  1
  Rh  Rh13  1  0.499999  0.571168  0.206662  1
  Rh  Rh14  1  0.499999  0.071167  0.293340  1
  Rh  Rh15  1  0.499999  0.793340  0.428834  1
  Rh  Rh16  1  0.499999  0.206662  0.571168  1
  Rh  Rh17  1  0.499999  0.928834  0.706662  1
  Rh  Rh18  1  0.499999  0.428834  0.793340  1
  Rh  Rh19  1  0.499999  0.706662  0.928834  1
