# generated using pymatgen
data_Dy5Ho7Co4
_symmetry_space_group_name_H-M   'P 1'
_cell_length_a   6.16564941
_cell_length_b   6.92776938
_cell_length_c   9.42676313
_cell_angle_alpha   89.97515735
_cell_angle_beta   89.85126875
_cell_angle_gamma   90.02856642
_symmetry_Int_Tables_number   1
_chemical_formula_structural   Dy5Ho7Co4
_chemical_formula_sum   'Dy5 Ho7 Co4'
_cell_volume   402.65517414
_cell_formula_units_Z   1
loop_
 _symmetry_equiv_pos_site_id
 _symmetry_equiv_pos_as_xyz
  1  'x, y, z'
loop_
 _atom_site_type_symbol
 _atom_site_label
 _atom_site_symmetry_multiplicity
 _atom_site_fract_x
 _atom_site_fract_y
 _atom_site_fract_z
 _atom_site_occupancy
  Dy  Dy0  1  0.675704  0.175272  0.067589  1
  Dy  Dy1  1  0.359851  0.541778  0.250064  1
  Dy  Dy2  1  0.140521  0.041626  0.250337  1
  Dy  Dy3  1  0.824469  0.675183  0.432824  1
  Dy  Dy4  1  0.324269  0.824852  0.932071  1
  Ho  Ho5  1  0.175725  0.324611  0.568071  1
  Ho  Ho6  1  0.675011  0.175079  0.433247  1
  Ho  Ho7  1  0.175564  0.324650  0.931996  1
  Ho  Ho8  1  0.324621  0.824884  0.567587  1
  Ho  Ho9  1  0.859098  0.958695  0.749731  1
  Ho  Ho10  1  0.640538  0.457822  0.749878  1
  Ho  Ho11  1  0.825069  0.675167  0.067118  1
  Co  Co12  1  0.949272  0.386048  0.249422  1
  Co  Co13  1  0.449896  0.114232  0.748071  1
  Co  Co14  1  0.550950  0.886121  0.251176  1
  Co  Co15  1  0.049441  0.613980  0.750818  1
