# generated using pymatgen
data_HfTa7(TcOs)4
_symmetry_space_group_name_H-M   'P 1'
_cell_length_a   6.38816600
_cell_length_b   4.52185400
_cell_length_c   9.05252500
_cell_angle_alpha   90.00000000
_cell_angle_beta   89.99950203
_cell_angle_gamma   90.00000000
_symmetry_Int_Tables_number   1
_chemical_formula_structural   HfTa7(TcOs)4
_chemical_formula_sum   'Hf1 Ta7 Tc4 Os4'
_cell_volume   261.49444156
_cell_formula_units_Z   1
loop_
 _symmetry_equiv_pos_site_id
 _symmetry_equiv_pos_as_xyz
  1  'x, y, z'
loop_
 _atom_site_type_symbol
 _atom_site_label
 _atom_site_symmetry_multiplicity
 _atom_site_fract_x
 _atom_site_fract_y
 _atom_site_fract_z
 _atom_site_occupancy
  Hf  Hf0  1  0.000224  0.250001  0.875000  1
  Ta  Ta1  1  0.999836  0.750001  0.126556  1
  Ta  Ta2  1  0.500278  0.750001  0.125179  1
  Ta  Ta3  1  0.000056  0.250001  0.374994  1
  Ta  Ta4  1  0.499781  0.250001  0.374999  1
  Ta  Ta5  1  0.500138  0.750001  0.624832  1
  Ta  Ta6  1  0.999691  0.750001  0.623446  1
  Ta  Ta7  1  0.499493  0.250001  0.874993  1
  Tc  Tc8  1  0.748490  0.250001  0.127064  1
  Tc  Tc9  1  0.250143  0.750001  0.374996  1
  Tc  Tc10  1  0.748399  0.250001  0.622940  1
  Tc  Tc11  1  0.253296  0.750001  0.875007  1
  Os  Os12  1  0.251479  0.250001  0.126903  1
  Os  Os13  1  0.750225  0.750001  0.374991  1
  Os  Os14  1  0.251387  0.250001  0.623100  1
  Os  Os15  1  0.746982  0.750001  0.874996  1
