# generated using pymatgen
data_Pr5RhWO12
_symmetry_space_group_name_H-M   'P 1'
_cell_length_a   7.15955452
_cell_length_b   7.15955388
_cell_length_c   7.79186920
_cell_angle_alpha   74.05455580
_cell_angle_beta   74.05455858
_cell_angle_gamma   49.59974880
_symmetry_Int_Tables_number   1
_chemical_formula_structural   Pr5RhWO12
_chemical_formula_sum   'Pr5 Rh1 W1 O12'
_cell_volume   289.89836670
_cell_formula_units_Z   1
loop_
 _symmetry_equiv_pos_site_id
 _symmetry_equiv_pos_as_xyz
  1  'x, y, z'
loop_
 _atom_site_type_symbol
 _atom_site_label
 _atom_site_symmetry_multiplicity
 _atom_site_fract_x
 _atom_site_fract_y
 _atom_site_fract_z
 _atom_site_occupancy
  Pr  Pr0  1  0.289113  0.320326  0.356738  1
  Pr  Pr1  1  0.679674  0.710887  0.643262  1
  Pr  Pr2  1  0.685234  0.696722  0.166857  1
  Pr  Pr3  1  0.303278  0.314766  0.833143  1
  Pr  Pr4  1  0.992688  0.007312  0.500000  1
  Rh  Rh5  1  0.250401  0.749599  0.000000  1
  W  W6  1  0.785815  0.214185  0.000000  1
  O  O7  1  0.085673  0.600461  0.579415  1
  O  O8  1  0.994035  0.006344  0.186946  1
  O  O9  1  0.399539  0.914327  0.420585  1
  O  O10  1  0.518796  0.481363  0.167920  1
  O  O11  1  0.092422  0.571520  0.081875  1
  O  O12  1  0.893561  0.408309  0.427917  1
  O  O13  1  0.993656  0.005965  0.813054  1
  O  O14  1  0.591691  0.106438  0.572083  1
  O  O15  1  0.518637  0.481204  0.832080  1
  O  O16  1  0.594274  0.096967  0.079256  1
  O  O17  1  0.428480  0.907578  0.918125  1
  O  O18  1  0.903033  0.405726  0.920744  1
