# generated using pymatgen
data_Dy2Co5B2
_symmetry_space_group_name_H-M   'P 1'
_cell_length_a   5.06037700
_cell_length_b   5.06037722
_cell_length_c   19.96588500
_cell_angle_alpha   90.00000000
_cell_angle_beta   90.00000000
_cell_angle_gamma   120.00000510
_symmetry_Int_Tables_number   1
_chemical_formula_structural   Dy2Co5B2
_chemical_formula_sum   'Dy8 Co20 B8'
_cell_volume   442.77688424
_cell_formula_units_Z   4
loop_
 _symmetry_equiv_pos_site_id
 _symmetry_equiv_pos_as_xyz
  1  'x, y, z'
loop_
 _atom_site_type_symbol
 _atom_site_label
 _atom_site_symmetry_multiplicity
 _atom_site_fract_x
 _atom_site_fract_y
 _atom_site_fract_z
 _atom_site_occupancy
  Dy  Dy0  1  0.666667  0.333333  0.824884  1
  Dy  Dy1  1  0.666667  0.333333  0.977218  1
  Dy  Dy2  1  0.333333  0.666667  0.477218  1
  Dy  Dy3  1  0.333333  0.666667  0.022782  1
  Dy  Dy4  1  0.333333  0.666667  0.175116  1
  Dy  Dy5  1  0.666667  0.333333  0.522782  1
  Dy  Dy6  1  0.666667  0.333333  0.675116  1
  Dy  Dy7  1  0.333333  0.666667  0.324884  1
  Co  Co8  1  0.162328  0.324657  0.894398  1
  Co  Co9  1  0.162328  0.837672  0.605602  1
  Co  Co10  1  0.837672  0.162328  0.394398  1
  Co  Co11  1  0.334236  0.167119  0.250000  1
  Co  Co12  1  0.324657  0.162328  0.394398  1
  Co  Co13  1  0.837672  0.675343  0.105602  1
  Co  Co14  1  0.837672  0.675343  0.394398  1
  Co  Co15  1  0.832881  0.665764  0.250000  1
  Co  Co16  1  0.675343  0.837672  0.605602  1
  Co  Co17  1  0.665764  0.832881  0.750000  1
  Co  Co18  1  0.837672  0.162328  0.105602  1
  Co  Co19  1  0.675343  0.837672  0.894398  1
  Co  Co20  1  0.167119  0.334236  0.750000  1
  Co  Co21  1  0.167119  0.832881  0.750000  1
  Co  Co22  1  0.832881  0.167119  0.250000  1
  Co  Co23  1  0.324657  0.162328  0.105602  1
  Co  Co24  1  0.162328  0.837672  0.894398  1
  Co  Co25  1  0.162328  0.324657  0.605602  1
  Co  Co26  1  0.000000  0.000000  0.000000  1
  Co  Co27  1  0.000000  0.000000  0.500000  1
  B  B28  1  0.333333  0.666667  0.825178  1
  B  B29  1  0.333333  0.666667  0.674822  1
  B  B30  1  0.666667  0.333333  0.325178  1
  B  B31  1  0.000000  0.000000  0.822842  1
  B  B32  1  0.666667  0.333333  0.174822  1
  B  B33  1  0.000000  0.000000  0.677158  1
  B  B34  1  0.000000  0.000000  0.322842  1
  B  B35  1  0.000000  0.000000  0.177158  1
