# generated using pymatgen
data_ScUAlB6
_symmetry_space_group_name_H-M   'P 1'
_cell_length_a   3.52479500
_cell_length_b   9.01384300
_cell_length_c   11.39245100
_cell_angle_alpha   90.00000000
_cell_angle_beta   90.00000000
_cell_angle_gamma   90.00000000
_symmetry_Int_Tables_number   1
_chemical_formula_structural   ScUAlB6
_chemical_formula_sum   'Sc4 U4 Al4 B24'
_cell_volume   361.96036916
_cell_formula_units_Z   4
loop_
 _symmetry_equiv_pos_site_id
 _symmetry_equiv_pos_as_xyz
  1  'x, y, z'
loop_
 _atom_site_type_symbol
 _atom_site_label
 _atom_site_symmetry_multiplicity
 _atom_site_fract_x
 _atom_site_fract_y
 _atom_site_fract_z
 _atom_site_occupancy
  Sc  Sc0  1  0.000000  0.444055  0.127977  1
  Sc  Sc1  1  0.000000  0.555945  0.872023  1
  Sc  Sc2  1  0.000000  0.944055  0.372023  1
  Sc  Sc3  1  0.000000  0.055945  0.627977  1
  U  U4  1  0.000000  0.823091  0.085227  1
  U  U5  1  0.000000  0.176909  0.914773  1
  U  U6  1  0.000000  0.323091  0.414773  1
  U  U7  1  0.000000  0.676909  0.585227  1
  Al  Al8  1  0.000000  0.141679  0.181239  1
  Al  Al9  1  0.000000  0.858321  0.818761  1
  Al  Al10  1  0.000000  0.641679  0.318761  1
  Al  Al11  1  0.000000  0.358321  0.681239  1
  B  B12  1  0.500000  0.051867  0.064906  1
  B  B13  1  0.500000  0.948133  0.935094  1
  B  B14  1  0.500000  0.551867  0.435094  1
  B  B15  1  0.500000  0.448133  0.564906  1
  B  B16  1  0.500000  0.255947  0.079290  1
  B  B17  1  0.500000  0.744053  0.920710  1
  B  B18  1  0.500000  0.755947  0.420710  1
  B  B19  1  0.500000  0.244053  0.579290  1
  B  B20  1  0.500000  0.298106  0.237533  1
  B  B21  1  0.500000  0.701894  0.762467  1
  B  B22  1  0.500000  0.798106  0.262467  1
  B  B23  1  0.500000  0.201894  0.737533  1
  B  B24  1  0.500000  0.130621  0.319915  1
  B  B25  1  0.500000  0.869379  0.680085  1
  B  B26  1  0.500000  0.630621  0.180085  1
  B  B27  1  0.500000  0.369379  0.819915  1
  B  B28  1  0.500000  0.478185  0.285952  1
  B  B29  1  0.500000  0.521815  0.714048  1
  B  B30  1  0.500000  0.978185  0.214048  1
  B  B31  1  0.500000  0.021815  0.785952  1
  B  B32  1  0.500000  0.100238  0.472746  1
  B  B33  1  0.500000  0.899762  0.527254  1
  B  B34  1  0.500000  0.600238  0.027254  1
  B  B35  1  0.500000  0.399762  0.972746  1
