# generated using pymatgen
data_Re(AuF8)3
_symmetry_space_group_name_H-M   'P 1'
_cell_length_a   5.11729681
_cell_length_b   8.74343500
_cell_length_c   9.46944162
_cell_angle_alpha   90.00000000
_cell_angle_beta   90.20415584
_cell_angle_gamma   90.00000000
_symmetry_Int_Tables_number   1
_chemical_formula_structural   Re(AuF8)3
_chemical_formula_sum   'Re1 Au3 F24'
_cell_volume   423.68618848
_cell_formula_units_Z   1
loop_
 _symmetry_equiv_pos_site_id
 _symmetry_equiv_pos_as_xyz
  1  'x, y, z'
loop_
 _atom_site_type_symbol
 _atom_site_label
 _atom_site_symmetry_multiplicity
 _atom_site_fract_x
 _atom_site_fract_y
 _atom_site_fract_z
 _atom_site_occupancy
  Re  Re0  1  0.582246  0.750000  0.129484  1
  Au  Au1  1  0.918242  0.750000  0.628584  1
  Au  Au2  1  0.082060  0.250000  0.371653  1
  Au  Au3  1  0.417170  0.250000  0.869924  1
  F  F4  1  0.221990  0.750000  0.506985  1
  F  F5  1  0.774089  0.250000  0.488679  1
  F  F6  1  0.723515  0.250000  0.990082  1
  F  F7  1  0.290216  0.750000  0.016214  1
  F  F8  1  0.614522  0.750000  0.750491  1
  F  F9  1  0.391122  0.250000  0.254170  1
  F  F10  1  0.106880  0.250000  0.753079  1
  F  F11  1  0.874912  0.750000  0.242255  1
  F  F12  1  0.758924  0.595826  0.508879  1
  F  F13  1  0.239316  0.407123  0.487465  1
  F  F14  1  0.263474  0.408449  0.987453  1
  F  F15  1  0.239316  0.092877  0.487465  1
  F  F16  1  0.730274  0.601765  0.019160  1
  F  F17  1  0.758924  0.904174  0.508879  1
  F  F18  1  0.730274  0.898235  0.019160  1
  F  F19  1  0.263474  0.091551  0.987453  1
  F  F20  1  0.074541  0.595758  0.748247  1
  F  F21  1  0.926568  0.407698  0.253848  1
  F  F22  1  0.573642  0.406175  0.753673  1
  F  F23  1  0.926568  0.092302  0.253848  1
  F  F24  1  0.434778  0.602112  0.240475  1
  F  F25  1  0.074541  0.904242  0.748247  1
  F  F26  1  0.434778  0.897888  0.240475  1
  F  F27  1  0.573642  0.093825  0.753673  1
