# generated using pymatgen
data_EuPtCl6
_symmetry_space_group_name_H-M   'P 1'
_cell_length_a   6.79108702
_cell_length_b   6.79120858
_cell_length_c   6.83205338
_cell_angle_alpha   99.30365277
_cell_angle_beta   99.30686819
_cell_angle_gamma   119.92612552
_symmetry_Int_Tables_number   1
_chemical_formula_structural   EuPtCl6
_chemical_formula_sum   'Eu1 Pt1 Cl6'
_cell_volume   258.44069165
_cell_formula_units_Z   1
loop_
 _symmetry_equiv_pos_site_id
 _symmetry_equiv_pos_as_xyz
  1  'x, y, z'
loop_
 _atom_site_type_symbol
 _atom_site_label
 _atom_site_symmetry_multiplicity
 _atom_site_fract_x
 _atom_site_fract_y
 _atom_site_fract_z
 _atom_site_occupancy
  Eu  Eu0  1  0.833645  0.166371  0.000008  1
  Pt  Pt1  1  0.166685  0.833301  0.999999  1
  Cl  Cl2  1  0.954348  0.621310  0.216172  1
  Cl  Cl3  1  0.520250  0.903778  0.217925  1
  Cl  Cl4  1  0.236556  0.186378  0.219083  1
  Cl  Cl5  1  0.813617  0.763456  0.780923  1
  Cl  Cl6  1  0.378685  0.045653  0.783820  1
  Cl  Cl7  1  0.096214  0.479754  0.782070  1
