# generated using pymatgen
data_RbTaNbBr11
_symmetry_space_group_name_H-M   'P 1'
_cell_length_a   7.59155199
_cell_length_b   7.65680923
_cell_length_c   18.91281700
_cell_angle_alpha   79.03125705
_cell_angle_beta   78.87946747
_cell_angle_gamma   88.21707548
_symmetry_Int_Tables_number   1
_chemical_formula_structural   RbTaNbBr11
_chemical_formula_sum   'Rb2 Ta2 Nb2 Br22'
_cell_volume   1058.98026778
_cell_formula_units_Z   2
loop_
 _symmetry_equiv_pos_site_id
 _symmetry_equiv_pos_as_xyz
  1  'x, y, z'
loop_
 _atom_site_type_symbol
 _atom_site_label
 _atom_site_symmetry_multiplicity
 _atom_site_fract_x
 _atom_site_fract_y
 _atom_site_fract_z
 _atom_site_occupancy
  Rb  Rb0  1  0.747406  0.747758  0.503887  1
  Rb  Rb1  1  0.252594  0.252242  0.496113  1
  Ta  Ta2  1  0.324370  0.822008  0.340266  1
  Ta  Ta3  1  0.675630  0.177992  0.659734  1
  Nb  Nb4  1  0.830266  0.329116  0.087428  1
  Nb  Nb5  1  0.169734  0.670884  0.912572  1
  Br  Br6  1  0.253551  0.771531  0.486936  1
  Br  Br7  1  0.746449  0.228469  0.513064  1
  Br  Br8  1  0.575158  0.027179  0.344940  1
  Br  Br9  1  0.424842  0.972821  0.655060  1
  Br  Br10  1  0.538002  0.560478  0.353014  1
  Br  Br11  1  0.461998  0.439522  0.646986  1
  Br  Br12  1  0.386624  0.862261  0.206347  1
  Br  Br13  1  0.613376  0.137739  0.793653  1
  Br  Br14  1  0.066324  0.605676  0.354443  1
  Br  Br15  1  0.933676  0.394324  0.645557  1
  Br  Br16  1  0.107176  0.077965  0.340745  1
  Br  Br17  1  0.892824  0.922035  0.659255  1
  Br  Br18  1  0.900698  0.030791  0.147716  1
  Br  Br19  1  0.099302  0.969209  0.852284  1
  Br  Br20  1  0.526399  0.381435  0.150443  1
  Br  Br21  1  0.473601  0.618565  0.849557  1
  Br  Br22  1  0.721508  0.217436  0.987494  1
  Br  Br23  1  0.278492  0.782564  0.012506  1
  Br  Br24  1  0.973430  0.478666  0.168744  1
  Br  Br25  1  0.026570  0.521334  0.831256  1
  Br  Br26  1  0.167313  0.340093  0.999628  1
  Br  Br27  1  0.832687  0.659907  0.000372  1
