# generated using pymatgen
data_Lu2ZnBRh5
_symmetry_space_group_name_H-M   'P 1'
_cell_length_a   5.73470505
_cell_length_b   5.73470525
_cell_length_c   5.88950800
_cell_angle_alpha   59.10295412
_cell_angle_beta   59.10295294
_cell_angle_gamma   61.79408464
_symmetry_Int_Tables_number   1
_chemical_formula_structural   Lu2ZnBRh5
_chemical_formula_sum   'Lu2 Zn1 B1 Rh5'
_cell_volume   136.75244023
_cell_formula_units_Z   1
loop_
 _symmetry_equiv_pos_site_id
 _symmetry_equiv_pos_as_xyz
  1  'x, y, z'
loop_
 _atom_site_type_symbol
 _atom_site_label
 _atom_site_symmetry_multiplicity
 _atom_site_fract_x
 _atom_site_fract_y
 _atom_site_fract_z
 _atom_site_occupancy
  Lu  Lu0  1  0.749833  0.749833  0.750167  1
  Lu  Lu1  1  0.249833  0.249833  0.250167  1
  Zn  Zn2  1  0.779405  0.779405  0.220595  1
  B  B3  1  0.490657  0.490657  0.509343  1
  Rh  Rh4  1  0.751187  0.247830  0.248813  1
  Rh  Rh5  1  0.247830  0.751187  0.248813  1
  Rh  Rh6  1  0.232239  0.232239  0.767761  1
  Rh  Rh7  1  0.751187  0.247830  0.752170  1
  Rh  Rh8  1  0.247830  0.751187  0.752170  1
