# generated using pymatgen
data_Ho4As5Ir7Pt
_symmetry_space_group_name_H-M   'P 1'
_cell_length_a   7.28937014
_cell_length_b   7.28937037
_cell_length_c   7.28936995
_cell_angle_alpha   106.90210110
_cell_angle_beta   110.77086129
_cell_angle_gamma   110.77085167
_symmetry_Int_Tables_number   1
_chemical_formula_structural   Ho4As5Ir7Pt
_chemical_formula_sum   'Ho4 As5 Ir7 Pt1'
_cell_volume   297.71203848
_cell_formula_units_Z   1
loop_
 _symmetry_equiv_pos_site_id
 _symmetry_equiv_pos_as_xyz
  1  'x, y, z'
loop_
 _atom_site_type_symbol
 _atom_site_label
 _atom_site_symmetry_multiplicity
 _atom_site_fract_x
 _atom_site_fract_y
 _atom_site_fract_z
 _atom_site_occupancy
  Ho  Ho0  1  0.000000  0.986135  0.500042  1
  Ho  Ho1  1  0.000000  0.500042  0.986135  1
  Ho  Ho2  1  0.486093  0.986135  0.986135  1
  Ho  Ho3  1  0.513907  0.500042  0.500042  1
  As  As4  1  0.684774  0.685516  0.000742  1
  As  As5  1  0.315226  0.000742  0.315969  1
  As  As6  1  0.000000  0.327276  0.327276  1
  As  As7  1  0.315226  0.315969  0.000742  1
  As  As8  1  0.684774  0.000742  0.685516  1
  Ir  Ir9  1  0.748677  0.239074  0.490398  1
  Ir  Ir10  1  0.748677  0.490398  0.239074  1
  Ir  Ir11  1  0.500000  0.245539  0.745539  1
  Ir  Ir12  1  0.251323  0.490398  0.741721  1
  Ir  Ir13  1  0.251323  0.741721  0.490398  1
  Ir  Ir14  1  0.500000  0.745539  0.245539  1
  Ir  Ir15  1  0.000000  0.033607  0.033607  1
  Pt  Pt16  1  0.000000  0.711121  0.711121  1
