# generated using pymatgen
data_Tb2Pr2Ga4CoRu3
_symmetry_space_group_name_H-M   'P 1'
_cell_length_a   4.56873700
_cell_length_b   7.32291470
_cell_length_c   7.09593730
_cell_angle_alpha   89.94532073
_cell_angle_beta   90.00000000
_cell_angle_gamma   90.00000000
_symmetry_Int_Tables_number   1
_chemical_formula_structural   Tb2Pr2Ga4CoRu3
_chemical_formula_sum   'Tb2 Pr2 Ga4 Co1 Ru3'
_cell_volume   237.40491482
_cell_formula_units_Z   1
loop_
 _symmetry_equiv_pos_site_id
 _symmetry_equiv_pos_as_xyz
  1  'x, y, z'
loop_
 _atom_site_type_symbol
 _atom_site_label
 _atom_site_symmetry_multiplicity
 _atom_site_fract_x
 _atom_site_fract_y
 _atom_site_fract_z
 _atom_site_occupancy
  Tb  Tb0  1  0.250000  0.029397  0.800442  1
  Tb  Tb1  1  0.250000  0.528537  0.699095  1
  Pr  Pr2  1  0.750000  0.976284  0.189008  1
  Pr  Pr3  1  0.750000  0.481228  0.308638  1
  Ga  Ga4  1  0.250000  0.194451  0.397324  1
  Ga  Ga5  1  0.250000  0.691441  0.097637  1
  Ga  Ga6  1  0.750000  0.802873  0.618728  1
  Ga  Ga7  1  0.750000  0.312894  0.887589  1
  Co  Co8  1  0.750000  0.648901  0.933981  1
  Ru  Ru9  1  0.250000  0.841129  0.440937  1
  Ru  Ru10  1  0.250000  0.341664  0.058833  1
  Ru  Ru11  1  0.750000  0.151204  0.567789  1
