# generated using pymatgen
data_Pr3Th5Zn8Ir7Rh
_symmetry_space_group_name_H-M   'P 1'
_cell_length_a   4.00737400
_cell_length_b   7.43763897
_cell_length_c   16.73106647
_cell_angle_alpha   90.29700018
_cell_angle_beta   90.00000000
_cell_angle_gamma   90.00000000
_symmetry_Int_Tables_number   1
_chemical_formula_structural   Pr3Th5Zn8Ir7Rh
_chemical_formula_sum   'Pr3 Th5 Zn8 Ir7 Rh1'
_cell_volume   498.66944640
_cell_formula_units_Z   1
loop_
 _symmetry_equiv_pos_site_id
 _symmetry_equiv_pos_as_xyz
  1  'x, y, z'
loop_
 _atom_site_type_symbol
 _atom_site_label
 _atom_site_symmetry_multiplicity
 _atom_site_fract_x
 _atom_site_fract_y
 _atom_site_fract_z
 _atom_site_occupancy
  Pr  Pr0  1  0.250000  0.555772  0.785660  1
  Pr  Pr1  1  0.750000  0.330436  0.441786  1
  Pr  Pr2  1  0.250000  0.672309  0.560358  1
  Th  Th3  1  0.750000  0.442387  0.215756  1
  Th  Th4  1  0.750000  0.945999  0.285621  1
  Th  Th5  1  0.750000  0.826765  0.060581  1
  Th  Th6  1  0.250000  0.051443  0.714523  1
  Th  Th7  1  0.250000  0.170448  0.939394  1
  Zn  Zn8  1  0.250000  0.003086  0.441687  1
  Zn  Zn9  1  0.750000  0.504087  0.938442  1
  Zn  Zn10  1  0.750000  0.002626  0.557845  1
  Zn  Zn11  1  0.250000  0.615904  0.349239  1
  Zn  Zn12  1  0.750000  0.385684  0.652996  1
  Zn  Zn13  1  0.750000  0.878525  0.849103  1
  Zn  Zn14  1  0.250000  0.494074  0.060013  1
  Zn  Zn15  1  0.250000  0.116326  0.150525  1
  Ir  Ir16  1  0.250000  0.244985  0.569622  1
  Ir  Ir17  1  0.750000  0.246635  0.061667  1
  Ir  Ir18  1  0.250000  0.239905  0.307317  1
  Ir  Ir19  1  0.750000  0.243554  0.815787  1
  Ir  Ir20  1  0.250000  0.755283  0.940928  1
  Ir  Ir21  1  0.750000  0.770748  0.686140  1
  Ir  Ir22  1  0.250000  0.737443  0.186747  1
  Rh  Rh23  1  0.750000  0.765577  0.428264  1
