# generated using pymatgen
data_Dy6ErTh(ReB6)4
_symmetry_space_group_name_H-M   'P 1'
_cell_length_a   3.70799200
_cell_length_b   9.19493783
_cell_length_c   11.59213808
_cell_angle_alpha   90.04302968
_cell_angle_beta   90.00000000
_cell_angle_gamma   90.00000000
_symmetry_Int_Tables_number   1
_chemical_formula_structural   Dy6ErTh(ReB6)4
_chemical_formula_sum   'Dy6 Er1 Th1 Re4 B24'
_cell_volume   395.23100689
_cell_formula_units_Z   1
loop_
 _symmetry_equiv_pos_site_id
 _symmetry_equiv_pos_as_xyz
  1  'x, y, z'
loop_
 _atom_site_type_symbol
 _atom_site_label
 _atom_site_symmetry_multiplicity
 _atom_site_fract_x
 _atom_site_fract_y
 _atom_site_fract_z
 _atom_site_occupancy
  Dy  Dy0  1  0.000000  0.677605  0.587422  1
  Dy  Dy1  1  0.000000  0.823211  0.084937  1
  Dy  Dy2  1  0.000000  0.175948  0.913952  1
  Dy  Dy3  1  0.000000  0.941887  0.369302  1
  Dy  Dy4  1  0.000000  0.056169  0.631650  1
  Dy  Dy5  1  0.000000  0.443521  0.128037  1
  Er  Er6  1  0.000000  0.557640  0.870293  1
  Th  Th7  1  0.000000  0.322566  0.414170  1
  Re  Re8  1  0.000000  0.638740  0.320486  1
  Re  Re9  1  0.000000  0.362552  0.680600  1
  Re  Re10  1  0.000000  0.138440  0.178141  1
  Re  Re11  1  0.000000  0.860711  0.821191  1
  B  B12  1  0.500000  0.555812  0.432201  1
  B  B13  1  0.500000  0.447045  0.569880  1
  B  B14  1  0.500000  0.053004  0.066316  1
  B  B15  1  0.500000  0.946200  0.932740  1
  B  B16  1  0.500000  0.749768  0.417988  1
  B  B17  1  0.500000  0.251348  0.585354  1
  B  B18  1  0.500000  0.248458  0.080273  1
  B  B19  1  0.500000  0.750490  0.918188  1
  B  B20  1  0.500000  0.791771  0.264970  1
  B  B21  1  0.500000  0.208713  0.736268  1
  B  B22  1  0.500000  0.290171  0.232022  1
  B  B23  1  0.500000  0.707856  0.765982  1
  B  B24  1  0.500000  0.632043  0.184513  1
  B  B25  1  0.500000  0.370144  0.815470  1
  B  B26  1  0.500000  0.129358  0.311973  1
  B  B27  1  0.500000  0.868651  0.686460  1
  B  B28  1  0.500000  0.982360  0.210683  1
  B  B29  1  0.500000  0.016511  0.788840  1
  B  B30  1  0.500000  0.485796  0.286341  1
  B  B31  1  0.500000  0.518127  0.713901  1
  B  B32  1  0.500000  0.601190  0.027006  1
  B  B33  1  0.500000  0.400159  0.970999  1
  B  B34  1  0.500000  0.097305  0.472936  1
  B  B35  1  0.500000  0.898731  0.528514  1
