# generated using pymatgen
data_PrMnCdPt3
_symmetry_space_group_name_H-M   'P 1'
_cell_length_a   5.30862438
_cell_length_b   5.30862329
_cell_length_c   5.30862442
_cell_angle_alpha   63.23625309
_cell_angle_beta   63.23624660
_cell_angle_gamma   63.23625245
_symmetry_Int_Tables_number   1
_chemical_formula_structural   PrMnCdPt3
_chemical_formula_sum   'Pr1 Mn1 Cd1 Pt3'
_cell_volume   113.37305876
_cell_formula_units_Z   1
loop_
 _symmetry_equiv_pos_site_id
 _symmetry_equiv_pos_as_xyz
  1  'x, y, z'
loop_
 _atom_site_type_symbol
 _atom_site_label
 _atom_site_symmetry_multiplicity
 _atom_site_fract_x
 _atom_site_fract_y
 _atom_site_fract_z
 _atom_site_occupancy
  Pr  Pr0  1  0.247135  0.247135  0.247135  1
  Mn  Mn1  1  0.627276  0.627276  0.627276  1
  Cd  Cd2  1  0.995962  0.995962  0.995962  1
  Pt  Pt3  1  0.627630  0.627630  0.124368  1
  Pt  Pt4  1  0.627630  0.124368  0.627630  1
  Pt  Pt5  1  0.124368  0.627630  0.627630  1
