# generated using pymatgen
data_GaSbPtO6
_symmetry_space_group_name_H-M   'P 1'
_cell_length_a   4.64584600
_cell_length_b   9.29011600
_cell_length_c   9.40720400
_cell_angle_alpha   90.00000000
_cell_angle_beta   90.00000000
_cell_angle_gamma   90.00000000
_symmetry_Int_Tables_number   1
_chemical_formula_structural   GaSbPtO6
_chemical_formula_sum   'Ga4 Sb4 Pt4 O24'
_cell_volume   406.01914150
_cell_formula_units_Z   4
loop_
 _symmetry_equiv_pos_site_id
 _symmetry_equiv_pos_as_xyz
  1  'x, y, z'
loop_
 _atom_site_type_symbol
 _atom_site_label
 _atom_site_symmetry_multiplicity
 _atom_site_fract_x
 _atom_site_fract_y
 _atom_site_fract_z
 _atom_site_occupancy
  Ga  Ga0  1  0.000000  0.500000  0.999708  1
  Ga  Ga1  1  0.500000  0.750000  0.499708  1
  Ga  Ga2  1  0.000000  0.000000  0.999708  1
  Ga  Ga3  1  0.500000  0.250000  0.499708  1
  Sb  Sb4  1  0.500000  0.250000  0.167725  1
  Sb  Sb5  1  0.500000  0.750000  0.167725  1
  Sb  Sb6  1  0.000000  0.000000  0.667725  1
  Sb  Sb7  1  0.000000  0.500000  0.667725  1
  Pt  Pt8  1  0.000000  0.000000  0.333117  1
  Pt  Pt9  1  0.000000  0.500000  0.333117  1
  Pt  Pt10  1  0.500000  0.250000  0.833117  1
  Pt  Pt11  1  0.500000  0.750000  0.833117  1
  O  O12  1  0.306254  0.153030  0.001376  1
  O  O13  1  0.306254  0.653030  0.001376  1
  O  O14  1  0.193746  0.403030  0.501376  1
  O  O15  1  0.193746  0.903030  0.501376  1
  O  O16  1  0.806254  0.096970  0.501376  1
  O  O17  1  0.806254  0.596970  0.501376  1
  O  O18  1  0.693746  0.346970  0.001376  1
  O  O19  1  0.693746  0.846970  0.001376  1
  O  O20  1  0.308614  0.154355  0.334788  1
  O  O21  1  0.308614  0.654355  0.334788  1
  O  O22  1  0.191386  0.404355  0.834788  1
  O  O23  1  0.191386  0.904355  0.834788  1
  O  O24  1  0.808614  0.095645  0.834788  1
  O  O25  1  0.808614  0.595645  0.834788  1
  O  O26  1  0.809093  0.095483  0.163560  1
  O  O27  1  0.809093  0.595483  0.163560  1
  O  O28  1  0.190907  0.404517  0.163560  1
  O  O29  1  0.190907  0.904517  0.163560  1
  O  O30  1  0.691386  0.345645  0.334788  1
  O  O31  1  0.691386  0.845645  0.334788  1
  O  O32  1  0.309093  0.154517  0.663560  1
  O  O33  1  0.309093  0.654517  0.663560  1
  O  O34  1  0.690907  0.345483  0.663560  1
  O  O35  1  0.690907  0.845483  0.663560  1
