# generated using pymatgen
data_Ho2ErSi3Os2
_symmetry_space_group_name_H-M   'P 1'
_cell_length_a   5.72796400
_cell_length_b   5.72796408
_cell_length_c   13.62441900
_cell_angle_alpha   90.00000000
_cell_angle_beta   90.00000000
_cell_angle_gamma   137.19843154
_symmetry_Int_Tables_number   1
_chemical_formula_structural   Ho2ErSi3Os2
_chemical_formula_sum   'Ho4 Er2 Si6 Os4'
_cell_volume   303.72695792
_cell_formula_units_Z   2
loop_
 _symmetry_equiv_pos_site_id
 _symmetry_equiv_pos_as_xyz
  1  'x, y, z'
loop_
 _atom_site_type_symbol
 _atom_site_label
 _atom_site_symmetry_multiplicity
 _atom_site_fract_x
 _atom_site_fract_y
 _atom_site_fract_z
 _atom_site_occupancy
  Ho  Ho0  1  0.924741  0.075259  0.115908  1
  Ho  Ho1  1  0.075259  0.924741  0.884092  1
  Ho  Ho2  1  0.075259  0.924741  0.615908  1
  Ho  Ho3  1  0.924741  0.075259  0.384092  1
  Er  Er4  1  0.641677  0.358323  0.250000  1
  Er  Er5  1  0.358323  0.641677  0.750000  1
  Si  Si6  1  0.326161  0.673839  0.250000  1
  Si  Si7  1  0.673839  0.326161  0.750000  1
  Si  Si8  1  0.616192  0.383808  0.037681  1
  Si  Si9  1  0.383808  0.616192  0.962319  1
  Si  Si10  1  0.383808  0.616192  0.537681  1
  Si  Si11  1  0.616192  0.383808  0.462319  1
  Os  Os12  1  0.787286  0.212714  0.582228  1
  Os  Os13  1  0.212714  0.787286  0.417772  1
  Os  Os14  1  0.212714  0.787286  0.082228  1
  Os  Os15  1  0.787286  0.212714  0.917772  1
