# generated using pymatgen
data_Rb2Zr3(CuS4)2
_symmetry_space_group_name_H-M   'P 1'
_cell_length_a   3.78382847
_cell_length_b   7.80979851
_cell_length_c   12.98632579
_cell_angle_alpha   93.47164600
_cell_angle_beta   98.37695085
_cell_angle_gamma   104.01929969
_symmetry_Int_Tables_number   1
_chemical_formula_structural   Rb2Zr3(CuS4)2
_chemical_formula_sum   'Rb2 Zr3 Cu2 S8'
_cell_volume   366.51418378
_cell_formula_units_Z   1
loop_
 _symmetry_equiv_pos_site_id
 _symmetry_equiv_pos_as_xyz
  1  'x, y, z'
loop_
 _atom_site_type_symbol
 _atom_site_label
 _atom_site_symmetry_multiplicity
 _atom_site_fract_x
 _atom_site_fract_y
 _atom_site_fract_z
 _atom_site_occupancy
  Rb  Rb0  1  0.871338  0.542975  0.199698  1
  Rb  Rb1  1  0.128662  0.457025  0.800301  1
  Zr  Zr2  1  0.500000  0.000000  0.000000  1
  Zr  Zr3  1  0.721505  0.063289  0.379721  1
  Zr  Zr4  1  0.278494  0.936711  0.620278  1
  Cu  Cu5  1  0.143761  0.092960  0.194563  1
  Cu  Cu6  1  0.856238  0.907041  0.805436  1
  S  S7  1  0.138237  0.232553  0.043919  1
  S  S8  1  0.548957  0.907556  0.190359  1
  S  S9  1  0.313855  0.281416  0.346293  1
  S  S10  1  0.131769  0.841271  0.422268  1
  S  S11  1  0.868231  0.158730  0.577731  1
  S  S12  1  0.686146  0.718585  0.653708  1
  S  S13  1  0.451043  0.092444  0.809641  1
  S  S14  1  0.861762  0.767446  0.956080  1
