# generated using pymatgen
data_Sn(Pt2S5)2
_symmetry_space_group_name_H-M   'P 1'
_cell_length_a   15.64979425
_cell_length_b   15.64979350
_cell_length_c   6.39550665
_cell_angle_alpha   87.08967285
_cell_angle_beta   87.08967246
_cell_angle_gamma   13.33828602
_symmetry_Int_Tables_number   1
_chemical_formula_structural   Sn(Pt2S5)2
_chemical_formula_sum   'Sn1 Pt4 S10'
_cell_volume   360.88728269
_cell_formula_units_Z   1
loop_
 _symmetry_equiv_pos_site_id
 _symmetry_equiv_pos_as_xyz
  1  'x, y, z'
loop_
 _atom_site_type_symbol
 _atom_site_label
 _atom_site_symmetry_multiplicity
 _atom_site_fract_x
 _atom_site_fract_y
 _atom_site_fract_z
 _atom_site_occupancy
  Sn  Sn0  1  0.405751  0.405751  0.001303  1
  Pt  Pt1  1  0.006718  0.006718  0.004210  1
  Pt  Pt2  1  0.606005  0.606005  0.999946  1
  Pt  Pt3  1  0.205386  0.205386  0.998240  1
  Pt  Pt4  1  0.804721  0.804721  0.996443  1
  S  S5  1  0.675256  0.675256  0.810985  1
  S  S6  1  0.274409  0.274409  0.808865  1
  S  S7  1  0.870066  0.870066  0.779789  1
  S  S8  1  0.537176  0.537176  0.191028  1
  S  S9  1  0.136149  0.136149  0.186865  1
  S  S10  1  0.735431  0.735431  0.185362  1
  S  S11  1  0.331304  0.331304  0.194708  1
  S  S12  1  0.941549  0.941549  0.222437  1
  S  S13  1  0.075794  0.075794  0.813397  1
  S  S14  1  0.480009  0.480009  0.806422  1
