# generated using pymatgen
data_CdHg(Te3Pt2)2
_symmetry_space_group_name_H-M   'P 1'
_cell_length_a   7.91504100
_cell_length_b   7.91504075
_cell_length_c   5.72600600
_cell_angle_alpha   90.00000000
_cell_angle_beta   90.00000000
_cell_angle_gamma   120.00000523
_symmetry_Int_Tables_number   1
_chemical_formula_structural   CdHg(Te3Pt2)2
_chemical_formula_sum   'Cd1 Hg1 Te6 Pt4'
_cell_volume   310.66242755
_cell_formula_units_Z   1
loop_
 _symmetry_equiv_pos_site_id
 _symmetry_equiv_pos_as_xyz
  1  'x, y, z'
loop_
 _atom_site_type_symbol
 _atom_site_label
 _atom_site_symmetry_multiplicity
 _atom_site_fract_x
 _atom_site_fract_y
 _atom_site_fract_z
 _atom_site_occupancy
  Cd  Cd0  1  0.333333  0.666667  0.695783  1
  Hg  Hg1  1  0.666667  0.333333  0.320218  1
  Te  Te2  1  0.832469  0.664938  0.757815  1
  Te  Te3  1  0.832469  0.167531  0.757815  1
  Te  Te4  1  0.335062  0.167531  0.757815  1
  Te  Te5  1  0.174235  0.348470  0.240731  1
  Te  Te6  1  0.174235  0.825765  0.240731  1
  Te  Te7  1  0.651530  0.825765  0.240731  1
  Pt  Pt8  1  0.000000  0.000000  0.012722  1
  Pt  Pt9  1  0.500294  0.499706  0.991879  1
  Pt  Pt10  1  0.999413  0.499706  0.991879  1
  Pt  Pt11  1  0.500294  0.000587  0.991879  1
