# generated using pymatgen
data_Mn2H10Br3
_symmetry_space_group_name_H-M   'P 1'
_cell_length_a   5.97990836
_cell_length_b   5.86095356
_cell_length_c   11.09826903
_cell_angle_alpha   81.24551080
_cell_angle_beta   86.88044623
_cell_angle_gamma   69.73647087
_symmetry_Int_Tables_number   1
_chemical_formula_structural   Mn2H10Br3
_chemical_formula_sum   'Mn2 H10 Br3'
_cell_volume   360.64629827
_cell_formula_units_Z   1
loop_
 _symmetry_equiv_pos_site_id
 _symmetry_equiv_pos_as_xyz
  1  'x, y, z'
loop_
 _atom_site_type_symbol
 _atom_site_label
 _atom_site_symmetry_multiplicity
 _atom_site_fract_x
 _atom_site_fract_y
 _atom_site_fract_z
 _atom_site_occupancy
  Mn  Mn0  1  0.086140  0.808181  0.432901  1
  Mn  Mn1  1  0.928493  0.413447  0.433935  1
  H  H2  1  0.768428  0.391576  0.843206  1
  H  H3  1  0.666518  0.922698  0.801717  1
  H  H4  1  0.513528  0.164748  0.041353  1
  H  H5  1  0.883843  0.305708  0.822232  1
  H  H6  1  0.944864  0.677804  0.343830  1
  H  H7  1  0.591751  0.851470  0.833079  1
  H  H8  1  0.963120  0.614203  0.526734  1
  H  H9  1  0.226734  0.626536  0.899890  1
  H  H10  1  0.136875  0.586455  0.939054  1
  H  H11  1  0.633196  0.168309  0.055797  1
  Br  Br12  1  0.077187  0.147612  0.265422  1
  Br  Br13  1  0.488183  0.464008  0.417653  1
  Br  Br14  1  0.080096  0.051201  0.600060  1
