# generated using pymatgen
data_Y2Ho17LuPb16
_symmetry_space_group_name_H-M   'P 1'
_cell_length_a   8.19170000
_cell_length_b   8.25391511
_cell_length_c   15.58806600
_cell_angle_alpha   90.00835080
_cell_angle_beta   90.00199340
_cell_angle_gamma   90.00437989
_symmetry_Int_Tables_number   1
_chemical_formula_structural   Y2Ho17LuPb16
_chemical_formula_sum   'Y2 Ho17 Lu1 Pb16'
_cell_volume   1053.96518924
_cell_formula_units_Z   1
loop_
 _symmetry_equiv_pos_site_id
 _symmetry_equiv_pos_as_xyz
  1  'x, y, z'
loop_
 _atom_site_type_symbol
 _atom_site_label
 _atom_site_symmetry_multiplicity
 _atom_site_fract_x
 _atom_site_fract_y
 _atom_site_fract_z
 _atom_site_occupancy
  Y  Y0  1  0.535803  0.324483  0.599926  1
  Y  Y1  1  0.036158  0.175246  0.900158  1
  Ho  Ho2  1  0.377262  0.841792  0.879213  1
  Ho  Ho3  1  0.877368  0.658318  0.620990  1
  Ho  Ho4  1  0.622460  0.157886  0.378644  1
  Ho  Ho5  1  0.122954  0.341731  0.121299  1
  Ho  Ho6  1  0.622499  0.157953  0.121260  1
  Ho  Ho7  1  0.122986  0.341663  0.378813  1
  Ho  Ho8  1  0.377356  0.841768  0.620777  1
  Ho  Ho9  1  0.877442  0.658339  0.879021  1
  Ho  Ho10  1  0.536257  0.324587  0.899945  1
  Ho  Ho11  1  0.036389  0.175392  0.599852  1
  Ho  Ho12  1  0.463563  0.675749  0.399890  1
  Ho  Ho13  1  0.963985  0.824815  0.100076  1
  Ho  Ho14  1  0.463556  0.675737  0.100131  1
  Ho  Ho15  1  0.963951  0.824835  0.399941  1
  Ho  Ho16  1  0.209508  0.504208  0.749990  1
  Ho  Ho17  1  0.709576  0.995934  0.750004  1
  Ho  Ho18  1  0.790489  0.495999  0.249995  1
  Lu  Lu19  1  0.290274  0.004335  0.250050  1
  Pb  Pb20  1  0.281337  0.033035  0.043612  1
  Pb  Pb21  1  0.781230  0.466360  0.456833  1
  Pb  Pb22  1  0.719109  0.966170  0.542654  1
  Pb  Pb23  1  0.219037  0.533769  0.957336  1
  Pb  Pb24  1  0.718504  0.966082  0.957367  1
  Pb  Pb25  1  0.218385  0.533863  0.542665  1
  Pb  Pb26  1  0.281281  0.033255  0.456606  1
  Pb  Pb27  1  0.781140  0.466142  0.042936  1
  Pb  Pb28  1  0.572428  0.626177  0.749991  1
  Pb  Pb29  1  0.072519  0.874030  0.750011  1
  Pb  Pb30  1  0.427357  0.373868  0.249996  1
  Pb  Pb31  1  0.928285  0.125443  0.250012  1
  Pb  Pb32  1  0.348748  0.153656  0.750150  1
  Pb  Pb33  1  0.848908  0.346087  0.749847  1
  Pb  Pb34  1  0.650452  0.846062  0.249974  1
  Pb  Pb35  1  0.151444  0.655233  0.250032  1
