# generated using pymatgen
data_Al2V12Ga3Cu3N4
_symmetry_space_group_name_H-M   'P 1'
_cell_length_a   6.56101643
_cell_length_b   6.56213161
_cell_length_c   6.55807945
_cell_angle_alpha   90.11348720
_cell_angle_beta   90.21068388
_cell_angle_gamma   90.07976465
_symmetry_Int_Tables_number   1
_chemical_formula_structural   Al2V12Ga3Cu3N4
_chemical_formula_sum   'Al2 V12 Ga3 Cu3 N4'
_cell_volume   282.35047462
_cell_formula_units_Z   1
loop_
 _symmetry_equiv_pos_site_id
 _symmetry_equiv_pos_as_xyz
  1  'x, y, z'
loop_
 _atom_site_type_symbol
 _atom_site_label
 _atom_site_symmetry_multiplicity
 _atom_site_fract_x
 _atom_site_fract_y
 _atom_site_fract_z
 _atom_site_occupancy
  Al  Al0  1  0.571284  0.417139  0.934065  1
  Al  Al1  1  0.417461  0.934211  0.571531  1
  V  V2  1  0.788744  0.959704  0.377968  1
  V  V3  1  0.711518  0.038601  0.871989  1
  V  V4  1  0.210748  0.459668  0.125269  1
  V  V5  1  0.289380  0.540577  0.626942  1
  V  V6  1  0.959602  0.376785  0.788543  1
  V  V7  1  0.039225  0.873131  0.710979  1
  V  V8  1  0.459364  0.125843  0.211462  1
  V  V9  1  0.540311  0.626099  0.289254  1
  V  V10  1  0.377309  0.788459  0.960265  1
  V  V11  1  0.872060  0.710516  0.038655  1
  V  V12  1  0.126530  0.211392  0.459587  1
  V  V13  1  0.625612  0.289311  0.540334  1
  Ga  Ga14  1  0.676897  0.677374  0.678027  1
  Ga  Ga15  1  0.934843  0.570705  0.418191  1
  Ga  Ga16  1  0.073051  0.072861  0.072818  1
  Cu  Cu17  1  0.180094  0.822867  0.319522  1
  Cu  Cu18  1  0.319716  0.178599  0.821684  1
  Cu  Cu19  1  0.821075  0.318746  0.177758  1
  N  N20  1  0.879757  0.125649  0.623843  1
  N  N21  1  0.624830  0.879685  0.125463  1
  N  N22  1  0.124348  0.624798  0.879316  1
  N  N23  1  0.376238  0.377276  0.376532  1
