# generated using pymatgen
data_CaNdBrO2
_symmetry_space_group_name_H-M   'P 1'
_cell_length_a   6.76078241
_cell_length_b   6.76078321
_cell_length_c   8.39373436
_cell_angle_alpha   98.12393783
_cell_angle_beta   98.12393879
_cell_angle_gamma   35.15296508
_symmetry_Int_Tables_number   1
_chemical_formula_structural   CaNdBrO2
_chemical_formula_sum   'Ca2 Nd2 Br2 O4'
_cell_volume   218.45749038
_cell_formula_units_Z   2
loop_
 _symmetry_equiv_pos_site_id
 _symmetry_equiv_pos_as_xyz
  1  'x, y, z'
loop_
 _atom_site_type_symbol
 _atom_site_label
 _atom_site_symmetry_multiplicity
 _atom_site_fract_x
 _atom_site_fract_y
 _atom_site_fract_z
 _atom_site_occupancy
  Ca  Ca0  1  0.604666  0.604666  0.284295  1
  Ca  Ca1  1  0.395334  0.395334  0.715706  1
  Nd  Nd2  1  0.868625  0.868625  0.053067  1
  Nd  Nd3  1  0.131375  0.131375  0.946933  1
  Br  Br4  1  0.346099  0.346099  0.357482  1
  Br  Br5  1  0.653901  0.653901  0.642517  1
  O  O6  1  0.681552  0.681552  0.062584  1
  O  O7  1  0.044038  0.044038  0.180696  1
  O  O8  1  0.955962  0.955962  0.819304  1
  O  O9  1  0.318448  0.318448  0.937417  1
