# generated using pymatgen
data_Ho6BiO12
_symmetry_space_group_name_H-M   'P 1'
_cell_length_a   6.54148890
_cell_length_b   6.54148894
_cell_length_c   6.54148854
_cell_angle_alpha   99.06946036
_cell_angle_beta   99.06946567
_cell_angle_gamma   99.06945517
_symmetry_Int_Tables_number   1
_chemical_formula_structural   Ho6BiO12
_chemical_formula_sum   'Ho6 Bi1 O12'
_cell_volume   268.14022950
_cell_formula_units_Z   1
loop_
 _symmetry_equiv_pos_site_id
 _symmetry_equiv_pos_as_xyz
  1  'x, y, z'
loop_
 _atom_site_type_symbol
 _atom_site_label
 _atom_site_symmetry_multiplicity
 _atom_site_fract_x
 _atom_site_fract_y
 _atom_site_fract_z
 _atom_site_occupancy
  Ho  Ho0  1  0.140912  0.308964  0.609501  1
  Ho  Ho1  1  0.390499  0.859088  0.691036  1
  Ho  Ho2  1  0.691036  0.390499  0.859088  1
  Ho  Ho3  1  0.308964  0.609501  0.140912  1
  Ho  Ho4  1  0.609501  0.140912  0.308964  1
  Ho  Ho5  1  0.859088  0.691036  0.390499  1
  Bi  Bi6  1  0.000000  0.000000  0.000000  1
  O  O7  1  0.072548  0.316840  0.949412  1
  O  O8  1  0.050588  0.927452  0.683160  1
  O  O9  1  0.414268  0.567268  0.821251  1
  O  O10  1  0.178749  0.585732  0.432732  1
  O  O11  1  0.683160  0.050588  0.927452  1
  O  O12  1  0.432732  0.178749  0.585732  1
  O  O13  1  0.567268  0.821251  0.414268  1
  O  O14  1  0.316840  0.949412  0.072548  1
  O  O15  1  0.821251  0.414268  0.567268  1
  O  O16  1  0.585732  0.432732  0.178749  1
  O  O17  1  0.949412  0.072548  0.316840  1
  O  O18  1  0.927452  0.683160  0.050588  1
