# generated using pymatgen
data_Nd3Y17Cd3Hg3Ru2
_symmetry_space_group_name_H-M   'P 1'
_cell_length_a   9.69905800
_cell_length_b   9.69905746
_cell_length_c   9.81678300
_cell_angle_alpha   90.00000000
_cell_angle_beta   90.00000000
_cell_angle_gamma   120.00000183
_symmetry_Int_Tables_number   1
_chemical_formula_structural   Nd3Y17Cd3Hg3Ru2
_chemical_formula_sum   'Nd3 Y17 Cd3 Hg3 Ru2'
_cell_volume   799.75857159
_cell_formula_units_Z   1
loop_
 _symmetry_equiv_pos_site_id
 _symmetry_equiv_pos_as_xyz
  1  'x, y, z'
loop_
 _atom_site_type_symbol
 _atom_site_label
 _atom_site_symmetry_multiplicity
 _atom_site_fract_x
 _atom_site_fract_y
 _atom_site_fract_z
 _atom_site_occupancy
  Nd  Nd0  1  0.459363  0.540637  0.750000  1
  Nd  Nd1  1  0.459363  0.918726  0.750000  1
  Nd  Nd2  1  0.081274  0.540637  0.750000  1
  Y  Y3  1  0.000000  0.000000  0.487408  1
  Y  Y4  1  0.000000  0.000000  0.012592  1
  Y  Y5  1  0.209180  0.790820  0.436763  1
  Y  Y6  1  0.209180  0.418360  0.436763  1
  Y  Y7  1  0.581640  0.790820  0.436763  1
  Y  Y8  1  0.789751  0.210249  0.558694  1
  Y  Y9  1  0.789751  0.579503  0.558694  1
  Y  Y10  1  0.420497  0.210249  0.558694  1
  Y  Y11  1  0.789751  0.210249  0.941306  1
  Y  Y12  1  0.789751  0.579503  0.941306  1
  Y  Y13  1  0.420497  0.210249  0.941306  1
  Y  Y14  1  0.209180  0.790820  0.063237  1
  Y  Y15  1  0.209180  0.418360  0.063237  1
  Y  Y16  1  0.581640  0.790820  0.063237  1
  Y  Y17  1  0.541449  0.458551  0.250000  1
  Y  Y18  1  0.541449  0.082900  0.250000  1
  Y  Y19  1  0.917100  0.458551  0.250000  1
  Cd  Cd20  1  0.110807  0.889193  0.750000  1
  Cd  Cd21  1  0.110807  0.221614  0.750000  1
  Cd  Cd22  1  0.778386  0.889193  0.750000  1
  Hg  Hg23  1  0.878587  0.121413  0.250000  1
  Hg  Hg24  1  0.878587  0.757175  0.250000  1
  Hg  Hg25  1  0.242825  0.121413  0.250000  1
  Ru  Ru26  1  0.333333  0.666667  0.250000  1
  Ru  Ru27  1  0.666667  0.333333  0.750000  1
