# generated using pymatgen
data_Er3LuSc2(B2Rh5)2
_symmetry_space_group_name_H-M   'P 1'
_cell_length_a   9.63332074
_cell_length_b   9.63332074
_cell_length_c   3.20463800
_cell_angle_alpha   90.00000000
_cell_angle_beta   90.00000000
_cell_angle_gamma   90.13554735
_symmetry_Int_Tables_number   1
_chemical_formula_structural   Er3LuSc2(B2Rh5)2
_chemical_formula_sum   'Er3 Lu1 Sc2 B4 Rh10'
_cell_volume   297.39235731
_cell_formula_units_Z   1
loop_
 _symmetry_equiv_pos_site_id
 _symmetry_equiv_pos_as_xyz
  1  'x, y, z'
loop_
 _atom_site_type_symbol
 _atom_site_label
 _atom_site_symmetry_multiplicity
 _atom_site_fract_x
 _atom_site_fract_y
 _atom_site_fract_z
 _atom_site_occupancy
  Er  Er0  1  0.325063  0.175089  0.000000  1
  Er  Er1  1  0.675089  0.825063  0.000000  1
  Er  Er2  1  0.174662  0.674662  0.000000  1
  Lu  Lu3  1  0.824955  0.324955  0.000000  1
  Sc  Sc4  1  0.999674  0.000488  0.000000  1
  Sc  Sc5  1  0.500488  0.499674  0.000000  1
  B  B6  1  0.621100  0.121100  0.000000  1
  B  B7  1  0.119666  0.379492  0.000000  1
  B  B8  1  0.879492  0.619666  0.000000  1
  B  B9  1  0.379557  0.879557  0.000000  1
  Rh  Rh10  1  0.069960  0.224723  0.500000  1
  Rh  Rh11  1  0.224621  0.928516  0.500000  1
  Rh  Rh12  1  0.776181  0.073244  0.500000  1
  Rh  Rh13  1  0.928422  0.774961  0.500000  1
  Rh  Rh14  1  0.428516  0.724621  0.500000  1
  Rh  Rh15  1  0.573244  0.276181  0.500000  1
  Rh  Rh16  1  0.724723  0.569960  0.500000  1
  Rh  Rh17  1  0.274961  0.428422  0.500000  1
  Rh  Rh18  1  0.500555  0.000555  0.500000  1
  Rh  Rh19  1  0.999071  0.499071  0.500000  1
