# generated using pymatgen
data_AcTh2(SnRu)3
_symmetry_space_group_name_H-M   'P 1'
_cell_length_a   7.47099900
_cell_length_b   7.61557176
_cell_length_c   4.25020000
_cell_angle_alpha   90.00000000
_cell_angle_beta   90.00000000
_cell_angle_gamma   119.37398614
_symmetry_Int_Tables_number   1
_chemical_formula_structural   AcTh2(SnRu)3
_chemical_formula_sum   'Ac1 Th2 Sn3 Ru3'
_cell_volume   210.72999589
_cell_formula_units_Z   1
loop_
 _symmetry_equiv_pos_site_id
 _symmetry_equiv_pos_as_xyz
  1  'x, y, z'
loop_
 _atom_site_type_symbol
 _atom_site_label
 _atom_site_symmetry_multiplicity
 _atom_site_fract_x
 _atom_site_fract_y
 _atom_site_fract_z
 _atom_site_occupancy
  Ac  Ac0  1  0.583793  0.000000  0.000000  1
  Th  Th1  1  0.999354  0.586386  0.000000  1
  Th  Th2  1  0.412970  0.413614  0.000000  1
  Sn  Sn3  1  0.755054  0.757302  0.500000  1
  Sn  Sn4  1  0.997751  0.242698  0.500000  1
  Sn  Sn5  1  0.247825  0.000000  0.500000  1
  Ru  Ru6  1  0.313056  0.640326  0.500000  1
  Ru  Ru7  1  0.672731  0.359674  0.500000  1
  Ru  Ru8  1  0.017467  0.000000  0.000000  1
