# generated using pymatgen
data_ErTm7Sc12(GaSi3)4
_symmetry_space_group_name_H-M   'P 1'
_cell_length_a   7.09382162
_cell_length_b   7.37739478
_cell_length_c   14.07866620
_cell_angle_alpha   90.01660611
_cell_angle_beta   89.85429276
_cell_angle_gamma   90.14892916
_symmetry_Int_Tables_number   1
_chemical_formula_structural   ErTm7Sc12(GaSi3)4
_chemical_formula_sum   'Er1 Tm7 Sc12 Ga4 Si12'
_cell_volume   736.78692617
_cell_formula_units_Z   1
loop_
 _symmetry_equiv_pos_site_id
 _symmetry_equiv_pos_as_xyz
  1  'x, y, z'
loop_
 _atom_site_type_symbol
 _atom_site_label
 _atom_site_symmetry_multiplicity
 _atom_site_fract_x
 _atom_site_fract_y
 _atom_site_fract_z
 _atom_site_occupancy
  Er  Er0  1  0.013547  0.175160  0.097030  1
  Tm  Tm1  1  0.988110  0.824304  0.901852  1
  Tm  Tm2  1  0.487198  0.677530  0.901638  1
  Tm  Tm3  1  0.987987  0.826897  0.600106  1
  Tm  Tm4  1  0.510700  0.320876  0.097187  1
  Tm  Tm5  1  0.009574  0.175325  0.400646  1
  Tm  Tm6  1  0.510905  0.324007  0.400638  1
  Tm  Tm7  1  0.490423  0.676364  0.600421  1
  Sc  Sc8  1  0.162762  0.501649  0.751478  1
  Sc  Sc9  1  0.836602  0.497689  0.250072  1
  Sc  Sc10  1  0.336381  0.002823  0.248392  1
  Sc  Sc11  1  0.663416  0.997506  0.750014  1
  Sc  Sc12  1  0.333609  0.174441  0.627831  1
  Sc  Sc13  1  0.669084  0.826420  0.373686  1
  Sc  Sc14  1  0.170026  0.673483  0.373028  1
  Sc  Sc15  1  0.668596  0.826226  0.125536  1
  Sc  Sc16  1  0.829090  0.324862  0.626705  1
  Sc  Sc17  1  0.330605  0.175520  0.874597  1
  Sc  Sc18  1  0.829197  0.323507  0.874265  1
  Sc  Sc19  1  0.173156  0.675326  0.124431  1
  Ga  Ga20  1  0.162862  0.461734  0.539670  1
  Ga  Ga21  1  0.838152  0.537661  0.461427  1
  Ga  Ga22  1  0.338225  0.962218  0.461496  1
  Ga  Ga23  1  0.838553  0.538078  0.038569  1
  Si  Si24  1  0.032682  0.114547  0.751155  1
  Si  Si25  1  0.967436  0.885342  0.249272  1
  Si  Si26  1  0.467752  0.612971  0.248501  1
  Si  Si27  1  0.532692  0.387016  0.751188  1
  Si  Si28  1  0.285770  0.869953  0.751137  1
  Si  Si29  1  0.714744  0.129666  0.248756  1
  Si  Si30  1  0.214210  0.370363  0.248828  1
  Si  Si31  1  0.786462  0.630595  0.751460  1
  Si  Si32  1  0.659207  0.035776  0.539256  1
  Si  Si33  1  0.159229  0.464174  0.960796  1
  Si  Si34  1  0.657745  0.035502  0.961250  1
  Si  Si35  1  0.343311  0.964489  0.037688  1
