# generated using pymatgen
data_Sr8Yb11PrPt16
_symmetry_space_group_name_H-M   'P 1'
_cell_length_a   7.68308606
_cell_length_b   7.85966936
_cell_length_c   14.91629240
_cell_angle_alpha   89.97854659
_cell_angle_beta   90.06131723
_cell_angle_gamma   89.82469379
_symmetry_Int_Tables_number   1
_chemical_formula_structural   Sr8Yb11PrPt16
_chemical_formula_sum   'Sr8 Yb11 Pr1 Pt16'
_cell_volume   900.73813583
_cell_formula_units_Z   1
loop_
 _symmetry_equiv_pos_site_id
 _symmetry_equiv_pos_as_xyz
  1  'x, y, z'
loop_
 _atom_site_type_symbol
 _atom_site_label
 _atom_site_symmetry_multiplicity
 _atom_site_fract_x
 _atom_site_fract_y
 _atom_site_fract_z
 _atom_site_occupancy
  Sr  Sr0  1  0.502942  0.324748  0.903587  1
  Sr  Sr1  1  0.001292  0.176638  0.595093  1
  Sr  Sr2  1  0.497963  0.675551  0.403165  1
  Sr  Sr3  1  0.997042  0.824120  0.097804  1
  Sr  Sr4  1  0.499324  0.674282  0.099550  1
  Sr  Sr5  1  0.998014  0.824177  0.403148  1
  Sr  Sr6  1  0.502549  0.323977  0.595537  1
  Sr  Sr7  1  0.999261  0.178900  0.903506  1
  Yb  Yb8  1  0.839411  0.666137  0.622026  1
  Yb  Yb9  1  0.660703  0.167496  0.376867  1
  Yb  Yb10  1  0.159748  0.333221  0.124141  1
  Yb  Yb11  1  0.661624  0.168137  0.124040  1
  Yb  Yb12  1  0.160841  0.333089  0.376806  1
  Yb  Yb13  1  0.338772  0.832731  0.622171  1
  Yb  Yb14  1  0.839467  0.666858  0.876791  1
  Yb  Yb15  1  0.175766  0.495059  0.747856  1
  Yb  Yb16  1  0.680643  0.003897  0.748183  1
  Yb  Yb17  1  0.822645  0.501246  0.250679  1
  Yb  Yb18  1  0.322196  0.998272  0.250700  1
  Pr  Pr19  1  0.338691  0.831758  0.877374  1
  Pt  Pt20  1  0.332649  0.040445  0.043943  1
  Pt  Pt21  1  0.835188  0.460992  0.457277  1
  Pt  Pt22  1  0.664774  0.961018  0.542692  1
  Pt  Pt23  1  0.163555  0.538838  0.957886  1
  Pt  Pt24  1  0.668108  0.961327  0.957822  1
  Pt  Pt25  1  0.164349  0.537994  0.542782  1
  Pt  Pt26  1  0.335978  0.038695  0.457277  1
  Pt  Pt27  1  0.836343  0.460962  0.042582  1
  Pt  Pt28  1  0.546513  0.627717  0.750131  1
  Pt  Pt29  1  0.043372  0.870808  0.748778  1
  Pt  Pt30  1  0.454025  0.370711  0.249871  1
  Pt  Pt31  1  0.954141  0.129162  0.250362  1
  Pt  Pt32  1  0.304718  0.126124  0.749684  1
  Pt  Pt33  1  0.802212  0.375106  0.749673  1
  Pt  Pt34  1  0.697682  0.875350  0.250110  1
  Pt  Pt35  1  0.197498  0.624456  0.250107  1
