# generated using pymatgen
data_Tm3Fe5(P3Ir2)2
_symmetry_space_group_name_H-M   'P 1'
_cell_length_a   3.81292500
_cell_length_b   10.87288500
_cell_length_c   12.34567700
_cell_angle_alpha   90.00000000
_cell_angle_beta   90.00000000
_cell_angle_gamma   90.00000000
_symmetry_Int_Tables_number   1
_chemical_formula_structural   Tm3Fe5(P3Ir2)2
_chemical_formula_sum   'Tm6 Fe10 P12 Ir8'
_cell_volume   511.82084298
_cell_formula_units_Z   2
loop_
 _symmetry_equiv_pos_site_id
 _symmetry_equiv_pos_as_xyz
  1  'x, y, z'
loop_
 _atom_site_type_symbol
 _atom_site_label
 _atom_site_symmetry_multiplicity
 _atom_site_fract_x
 _atom_site_fract_y
 _atom_site_fract_z
 _atom_site_occupancy
  Tm  Tm0  1  0.000000  0.500000  0.522376  1
  Tm  Tm1  1  0.500000  0.000000  0.477624  1
  Tm  Tm2  1  0.500000  0.818120  0.194649  1
  Tm  Tm3  1  0.500000  0.181880  0.194649  1
  Tm  Tm4  1  0.000000  0.681880  0.805351  1
  Tm  Tm5  1  0.000000  0.318120  0.805351  1
  Fe  Fe6  1  0.000000  0.500000  0.993195  1
  Fe  Fe7  1  0.500000  0.000000  0.006805  1
  Fe  Fe8  1  0.500000  0.881439  0.717634  1
  Fe  Fe9  1  0.500000  0.118561  0.717634  1
  Fe  Fe10  1  0.000000  0.618561  0.282366  1
  Fe  Fe11  1  0.000000  0.381439  0.282366  1
  Fe  Fe12  1  0.500000  0.332322  0.994940  1
  Fe  Fe13  1  0.500000  0.667678  0.994940  1
  Fe  Fe14  1  0.000000  0.167678  0.005060  1
  Fe  Fe15  1  0.000000  0.832322  0.005060  1
  P  P16  1  0.500000  0.303727  0.628675  1
  P  P17  1  0.500000  0.696273  0.628675  1
  P  P18  1  0.000000  0.196273  0.371325  1
  P  P19  1  0.000000  0.803727  0.371325  1
  P  P20  1  0.500000  0.500000  0.894499  1
  P  P21  1  0.000000  0.000000  0.105501  1
  P  P22  1  0.500000  0.840719  0.899509  1
  P  P23  1  0.500000  0.159281  0.899509  1
  P  P24  1  0.000000  0.659281  0.100491  1
  P  P25  1  0.000000  0.340719  0.100491  1
  P  P26  1  0.500000  0.500000  0.339424  1
  P  P27  1  0.000000  0.000000  0.660576  1
  Ir  Ir28  1  0.500000  0.300329  0.426939  1
  Ir  Ir29  1  0.500000  0.699671  0.426939  1
  Ir  Ir30  1  0.000000  0.199671  0.573061  1
  Ir  Ir31  1  0.000000  0.800329  0.573061  1
  Ir  Ir32  1  0.500000  0.500000  0.153426  1
  Ir  Ir33  1  0.000000  0.000000  0.846574  1
  Ir  Ir34  1  0.500000  0.500000  0.702268  1
  Ir  Ir35  1  0.000000  0.000000  0.297732  1
