# generated using pymatgen
data_Sc5Co19(Si5P)2
_symmetry_space_group_name_H-M   'P 1'
_cell_length_a   11.99042471
_cell_length_b   11.99042474
_cell_length_c   3.62316900
_cell_angle_alpha   90.00000000
_cell_angle_beta   90.00000000
_cell_angle_gamma   120.15508782
_symmetry_Int_Tables_number   1
_chemical_formula_structural   Sc5Co19(Si5P)2
_chemical_formula_sum   'Sc5 Co19 Si10 P2'
_cell_volume   450.40949027
_cell_formula_units_Z   1
loop_
 _symmetry_equiv_pos_site_id
 _symmetry_equiv_pos_as_xyz
  1  'x, y, z'
loop_
 _atom_site_type_symbol
 _atom_site_label
 _atom_site_symmetry_multiplicity
 _atom_site_fract_x
 _atom_site_fract_y
 _atom_site_fract_z
 _atom_site_occupancy
  Sc  Sc0  1  0.666430  0.332318  0.000000  1
  Sc  Sc1  1  0.332318  0.666430  0.000000  1
  Sc  Sc2  1  0.184898  0.184898  0.500000  1
  Sc  Sc3  1  0.815488  0.000854  0.500000  1
  Sc  Sc4  1  0.000854  0.815488  0.500000  1
  Co  Co5  1  0.557528  0.557528  0.000000  1
  Co  Co6  1  0.442963  0.000804  0.000000  1
  Co  Co7  1  0.000804  0.442963  0.000000  1
  Co  Co8  1  0.823977  0.195788  0.000000  1
  Co  Co9  1  0.804049  0.624634  0.000000  1
  Co  Co10  1  0.371603  0.176148  0.000000  1
  Co  Co11  1  0.195788  0.823977  0.000000  1
  Co  Co12  1  0.624634  0.804049  0.000000  1
  Co  Co13  1  0.176148  0.371603  0.000000  1
  Co  Co14  1  0.645468  0.124740  0.500000  1
  Co  Co15  1  0.876433  0.520346  0.500000  1
  Co  Co16  1  0.478772  0.354277  0.500000  1
  Co  Co17  1  0.124740  0.645468  0.500000  1
  Co  Co18  1  0.520346  0.876433  0.500000  1
  Co  Co19  1  0.354277  0.478772  0.500000  1
  Co  Co20  1  0.719089  0.719089  0.500000  1
  Co  Co21  1  0.276922  0.999894  0.500000  1
  Co  Co22  1  0.999894  0.276922  0.500000  1
  Co  Co23  1  0.005183  0.005183  0.000000  1
  Si  Si24  1  0.366485  0.366485  0.000000  1
  Si  Si25  1  0.633612  0.000238  0.000000  1
  Si  Si26  1  0.000238  0.633612  0.000000  1
  Si  Si27  1  0.837786  0.318622  0.500000  1
  Si  Si28  1  0.681966  0.518106  0.500000  1
  Si  Si29  1  0.481237  0.162560  0.500000  1
  Si  Si30  1  0.318622  0.837786  0.500000  1
  Si  Si31  1  0.518106  0.681966  0.500000  1
  Si  Si32  1  0.162560  0.481237  0.500000  1
  Si  Si33  1  0.822229  0.822229  0.000000  1
  P  P34  1  0.178920  0.999632  0.000000  1
  P  P35  1  0.999632  0.178920  0.000000  1
