# generated using pymatgen
data_Er4TmPb3
_symmetry_space_group_name_H-M   'P 1'
_cell_length_a   8.98144700
_cell_length_b   8.98144520
_cell_length_c   6.54654900
_cell_angle_alpha   89.99884423
_cell_angle_beta   89.99884183
_cell_angle_gamma   119.99901379
_symmetry_Int_Tables_number   1
_chemical_formula_structural   Er4TmPb3
_chemical_formula_sum   'Er8 Tm2 Pb6'
_cell_volume   457.34075660
_cell_formula_units_Z   2
loop_
 _symmetry_equiv_pos_site_id
 _symmetry_equiv_pos_as_xyz
  1  'x, y, z'
loop_
 _atom_site_type_symbol
 _atom_site_label
 _atom_site_symmetry_multiplicity
 _atom_site_fract_x
 _atom_site_fract_y
 _atom_site_fract_z
 _atom_site_occupancy
  Er  Er0  1  0.666651  0.333336  0.999990  1
  Er  Er1  1  0.333335  0.666651  0.999990  1
  Er  Er2  1  0.763406  0.763407  0.250124  1
  Er  Er3  1  0.236602  0.000023  0.250119  1
  Er  Er4  1  0.000023  0.236603  0.250119  1
  Er  Er5  1  0.236577  0.236577  0.749874  1
  Er  Er6  1  0.763393  0.000016  0.749878  1
  Er  Er7  1  0.000016  0.763394  0.749878  1
  Tm  Tm8  1  0.666672  0.333338  0.500007  1
  Tm  Tm9  1  0.333337  0.666672  0.500007  1
  Pb  Pb10  1  0.605268  0.000009  0.250301  1
  Pb  Pb11  1  0.000009  0.605268  0.250301  1
  Pb  Pb12  1  0.394731  0.394730  0.250308  1
  Pb  Pb13  1  0.394732  0.999999  0.749708  1
  Pb  Pb14  1  0.999999  0.394732  0.749708  1
  Pb  Pb15  1  0.605247  0.605248  0.749688  1
