# generated using pymatgen
data_PrDyP7Ru12
_symmetry_space_group_name_H-M   'P 1'
_cell_length_a   9.45808600
_cell_length_b   9.45808485
_cell_length_c   3.97064800
_cell_angle_alpha   90.00000000
_cell_angle_beta   90.00000000
_cell_angle_gamma   119.99999702
_symmetry_Int_Tables_number   1
_chemical_formula_structural   PrDyP7Ru12
_chemical_formula_sum   'Pr1 Dy1 P7 Ru12'
_cell_volume   307.60861738
_cell_formula_units_Z   1
loop_
 _symmetry_equiv_pos_site_id
 _symmetry_equiv_pos_as_xyz
  1  'x, y, z'
loop_
 _atom_site_type_symbol
 _atom_site_label
 _atom_site_symmetry_multiplicity
 _atom_site_fract_x
 _atom_site_fract_y
 _atom_site_fract_z
 _atom_site_occupancy
  Pr  Pr0  1  0.333333  0.666667  0.000000  1
  Dy  Dy1  1  0.666667  0.333333  0.500000  1
  P  P2  1  0.605204  0.718527  0.500000  1
  P  P3  1  0.000000  0.000000  0.000000  1
  P  P4  1  0.281473  0.886677  0.500000  1
  P  P5  1  0.113323  0.394796  0.500000  1
  P  P6  1  0.886920  0.572345  0.000000  1
  P  P7  1  0.427655  0.314576  0.000000  1
  P  P8  1  0.685424  0.113080  0.000000  1
  Ru  Ru9  1  0.559797  0.955156  0.500000  1
  Ru  Ru10  1  0.395360  0.440203  0.500000  1
  Ru  Ru11  1  0.914573  0.119578  0.500000  1
  Ru  Ru12  1  0.205004  0.085427  0.500000  1
  Ru  Ru13  1  0.880422  0.794996  0.500000  1
  Ru  Ru14  1  0.729010  0.892809  0.000000  1
  Ru  Ru15  1  0.107191  0.836199  0.000000  1
  Ru  Ru16  1  0.163801  0.270990  0.000000  1
  Ru  Ru17  1  0.421953  0.068645  0.000000  1
  Ru  Ru18  1  0.931355  0.353309  0.000000  1
  Ru  Ru19  1  0.646691  0.578047  0.000000  1
  Ru  Ru20  1  0.044844  0.604640  0.500000  1
