# generated using pymatgen
data_Lu5In4HgRu
_symmetry_space_group_name_H-M   'P 1'
_cell_length_a   3.55923200
_cell_length_b   8.15000746
_cell_length_c   18.24658961
_cell_angle_alpha   89.70745350
_cell_angle_beta   90.00000000
_cell_angle_gamma   90.00000000
_symmetry_Int_Tables_number   1
_chemical_formula_structural   Lu5In4HgRu
_chemical_formula_sum   'Lu10 In8 Hg2 Ru2'
_cell_volume   529.28592715
_cell_formula_units_Z   2
loop_
 _symmetry_equiv_pos_site_id
 _symmetry_equiv_pos_as_xyz
  1  'x, y, z'
loop_
 _atom_site_type_symbol
 _atom_site_label
 _atom_site_symmetry_multiplicity
 _atom_site_fract_x
 _atom_site_fract_y
 _atom_site_fract_z
 _atom_site_occupancy
  Lu  Lu0  1  0.000000  0.123060  0.424329  1
  Lu  Lu1  1  0.000000  0.876940  0.575671  1
  Lu  Lu2  1  0.000000  0.383739  0.914825  1
  Lu  Lu3  1  0.000000  0.616261  0.085175  1
  Lu  Lu4  1  0.000000  0.269841  0.213731  1
  Lu  Lu5  1  0.000000  0.730159  0.786269  1
  Lu  Lu6  1  0.000000  0.290997  0.723840  1
  Lu  Lu7  1  0.000000  0.709003  0.276160  1
  Lu  Lu8  1  0.000000  0.000000  0.000000  1
  Lu  Lu9  1  0.000000  0.500000  0.500000  1
  In  In10  1  0.500000  0.420219  0.352061  1
  In  In11  1  0.500000  0.579781  0.647939  1
  In  In12  1  0.500000  0.082912  0.854534  1
  In  In13  1  0.500000  0.917088  0.145466  1
  In  In14  1  0.500000  0.294205  0.065155  1
  In  In15  1  0.500000  0.705795  0.934845  1
  In  In16  1  0.500000  0.213368  0.568289  1
  In  In17  1  0.500000  0.786632  0.431711  1
  Hg  Hg18  1  0.500000  0.024367  0.300697  1
  Hg  Hg19  1  0.500000  0.975633  0.699303  1
  Ru  Ru20  1  0.500000  0.475192  0.806021  1
  Ru  Ru21  1  0.500000  0.524808  0.193979  1
