# generated using pymatgen
data_K(PrB8)3
_symmetry_space_group_name_H-M   'P 1'
_cell_length_a   7.17807493
_cell_length_b   7.17807489
_cell_length_c   5.91745700
_cell_angle_alpha   90.00000000
_cell_angle_beta   90.00000000
_cell_angle_gamma   109.14110488
_symmetry_Int_Tables_number   1
_chemical_formula_structural   K(PrB8)3
_chemical_formula_sum   'K1 Pr3 B24'
_cell_volume   288.03906800
_cell_formula_units_Z   1
loop_
 _symmetry_equiv_pos_site_id
 _symmetry_equiv_pos_as_xyz
  1  'x, y, z'
loop_
 _atom_site_type_symbol
 _atom_site_label
 _atom_site_symmetry_multiplicity
 _atom_site_fract_x
 _atom_site_fract_y
 _atom_site_fract_z
 _atom_site_occupancy
  K  K0  1  0.000000  0.000000  0.000000  1
  Pr  Pr1  1  0.750977  0.249023  0.500000  1
  Pr  Pr2  1  0.500000  0.500000  0.000000  1
  Pr  Pr3  1  0.249023  0.750977  0.500000  1
  B  B4  1  0.175713  0.325391  0.649521  1
  B  B5  1  0.924160  0.575192  0.147946  1
  B  B6  1  0.674609  0.824287  0.649521  1
  B  B7  1  0.424808  0.075840  0.147946  1
  B  B8  1  0.175713  0.325391  0.350479  1
  B  B9  1  0.924160  0.575192  0.852054  1
  B  B10  1  0.674609  0.824287  0.350479  1
  B  B11  1  0.424808  0.075840  0.852054  1
  B  B12  1  0.400070  0.400070  0.500000  1
  B  B13  1  0.148497  0.650652  0.000000  1
  B  B14  1  0.898913  0.898913  0.500000  1
  B  B15  1  0.650652  0.148497  0.000000  1
  B  B16  1  0.325391  0.175713  0.649521  1
  B  B17  1  0.075840  0.424808  0.147946  1
  B  B18  1  0.824287  0.674609  0.649521  1
  B  B19  1  0.575192  0.924160  0.147946  1
  B  B20  1  0.101087  0.101087  0.500000  1
  B  B21  1  0.851503  0.349348  0.000000  1
  B  B22  1  0.599930  0.599930  0.500000  1
  B  B23  1  0.349348  0.851503  0.000000  1
  B  B24  1  0.325391  0.175713  0.350479  1
  B  B25  1  0.075840  0.424808  0.852054  1
  B  B26  1  0.824287  0.674609  0.350479  1
  B  B27  1  0.575192  0.924160  0.852054  1
