# generated using pymatgen
data_Cd2OsRuO7
_symmetry_space_group_name_H-M   'P 1'
_cell_length_a   7.28138011
_cell_length_b   7.24179775
_cell_length_c   7.28137991
_cell_angle_alpha   60.17965756
_cell_angle_beta   60.21960761
_cell_angle_gamma   60.17965792
_symmetry_Int_Tables_number   1
_chemical_formula_structural   Cd2OsRuO7
_chemical_formula_sum   'Cd4 Os2 Ru2 O14'
_cell_volume   272.67939306
_cell_formula_units_Z   2
loop_
 _symmetry_equiv_pos_site_id
 _symmetry_equiv_pos_as_xyz
  1  'x, y, z'
loop_
 _atom_site_type_symbol
 _atom_site_label
 _atom_site_symmetry_multiplicity
 _atom_site_fract_x
 _atom_site_fract_y
 _atom_site_fract_z
 _atom_site_occupancy
  Cd  Cd0  1  0.125000  0.125000  0.125000  1
  Cd  Cd1  1  0.625000  0.125000  0.125000  1
  Cd  Cd2  1  0.125000  0.625000  0.125000  1
  Cd  Cd3  1  0.125000  0.125000  0.625000  1
  Os  Os4  1  0.125000  0.625000  0.625000  1
  Os  Os5  1  0.625000  0.625000  0.125000  1
  Ru  Ru6  1  0.625000  0.625000  0.625000  1
  Ru  Ru7  1  0.625000  0.125000  0.625000  1
  O  O8  1  0.250054  0.249946  0.250054  1
  O  O9  1  0.999946  0.000054  0.999946  1
  O  O10  1  0.556812  0.943188  0.556812  1
  O  O11  1  0.308426  0.691574  0.308426  1
  O  O12  1  0.557330  0.557744  0.946114  1
  O  O13  1  0.946114  0.557744  0.557330  1
  O  O14  1  0.557330  0.938812  0.946114  1
  O  O15  1  0.946114  0.938812  0.557330  1
  O  O16  1  0.941574  0.558426  0.941574  1
  O  O17  1  0.692670  0.311188  0.303886  1
  O  O18  1  0.303886  0.692256  0.692670  1
  O  O19  1  0.693188  0.306812  0.693188  1
  O  O20  1  0.303886  0.311188  0.692670  1
  O  O21  1  0.692670  0.692256  0.303886  1
