# generated using pymatgen
data_BeV3GaN
_symmetry_space_group_name_H-M   'P 1'
_cell_length_a   6.44892800
_cell_length_b   6.44892800
_cell_length_c   6.44892800
_cell_angle_alpha   90.00000000
_cell_angle_beta   90.00000000
_cell_angle_gamma   90.00000000
_symmetry_Int_Tables_number   1
_chemical_formula_structural   BeV3GaN
_chemical_formula_sum   'Be4 V12 Ga4 N4'
_cell_volume   268.20235360
_cell_formula_units_Z   4
loop_
 _symmetry_equiv_pos_site_id
 _symmetry_equiv_pos_as_xyz
  1  'x, y, z'
loop_
 _atom_site_type_symbol
 _atom_site_label
 _atom_site_symmetry_multiplicity
 _atom_site_fract_x
 _atom_site_fract_y
 _atom_site_fract_z
 _atom_site_occupancy
  Be  Be0  1  0.177245  0.822755  0.322755  1
  Be  Be1  1  0.322755  0.177245  0.822755  1
  Be  Be2  1  0.822755  0.322755  0.177245  1
  Be  Be3  1  0.677245  0.677245  0.677245  1
  V  V4  1  0.794696  0.960033  0.373316  1
  V  V5  1  0.705304  0.039967  0.873316  1
  V  V6  1  0.205304  0.460033  0.126684  1
  V  V7  1  0.294696  0.539967  0.626684  1
  V  V8  1  0.960033  0.373316  0.794696  1
  V  V9  1  0.039967  0.873316  0.705304  1
  V  V10  1  0.460033  0.126684  0.205304  1
  V  V11  1  0.539967  0.626684  0.294696  1
  V  V12  1  0.373316  0.794696  0.960033  1
  V  V13  1  0.873316  0.705304  0.039967  1
  V  V14  1  0.126684  0.205304  0.460033  1
  V  V15  1  0.626684  0.294696  0.539967  1
  Ga  Ga16  1  0.574185  0.425815  0.925815  1
  Ga  Ga17  1  0.425815  0.925815  0.574185  1
  Ga  Ga18  1  0.925815  0.574185  0.425815  1
  Ga  Ga19  1  0.074185  0.074185  0.074185  1
  N  N20  1  0.875665  0.124335  0.624335  1
  N  N21  1  0.624335  0.875665  0.124335  1
  N  N22  1  0.124335  0.624335  0.875665  1
  N  N23  1  0.375665  0.375665  0.375665  1
