# generated using pymatgen
data_Rb4TaTiBr12
_symmetry_space_group_name_H-M   'P 1'
_cell_length_a   7.59191800
_cell_length_b   7.59191800
_cell_length_c   11.11236300
_cell_angle_alpha   90.00000000
_cell_angle_beta   90.00000000
_cell_angle_gamma   90.00000000
_symmetry_Int_Tables_number   1
_chemical_formula_structural   Rb4TaTiBr12
_chemical_formula_sum   'Rb4 Ta1 Ti1 Br12'
_cell_volume   640.48569894
_cell_formula_units_Z   1
loop_
 _symmetry_equiv_pos_site_id
 _symmetry_equiv_pos_as_xyz
  1  'x, y, z'
loop_
 _atom_site_type_symbol
 _atom_site_label
 _atom_site_symmetry_multiplicity
 _atom_site_fract_x
 _atom_site_fract_y
 _atom_site_fract_z
 _atom_site_occupancy
  Rb  Rb0  1  0.500000  0.000000  0.773622  1
  Rb  Rb1  1  0.500000  0.000000  0.226378  1
  Rb  Rb2  1  0.000000  0.500000  0.226378  1
  Rb  Rb3  1  0.000000  0.500000  0.773622  1
  Ta  Ta4  1  0.500000  0.500000  0.500000  1
  Ti  Ti5  1  0.000000  0.000000  0.000000  1
  Br  Br6  1  0.775725  0.252991  0.000000  1
  Br  Br7  1  0.224275  0.747009  0.000000  1
  Br  Br8  1  0.500000  0.500000  0.268498  1
  Br  Br9  1  0.313508  0.220115  0.500000  1
  Br  Br10  1  0.252991  0.224275  0.000000  1
  Br  Br11  1  0.779885  0.313508  0.500000  1
  Br  Br12  1  0.000000  0.000000  0.231380  1
  Br  Br13  1  0.686492  0.779885  0.500000  1
  Br  Br14  1  0.220115  0.686492  0.500000  1
  Br  Br15  1  0.500000  0.500000  0.731502  1
  Br  Br16  1  0.747009  0.775725  0.000000  1
  Br  Br17  1  0.000000  0.000000  0.768620  1
