# generated using pymatgen
data_Nd4MgPb4
_symmetry_space_group_name_H-M   'P 1'
_cell_length_a   8.10532900
_cell_length_b   8.55374700
_cell_length_c   16.05059400
_cell_angle_alpha   90.00000000
_cell_angle_beta   90.00000000
_cell_angle_gamma   90.00000000
_symmetry_Int_Tables_number   1
_chemical_formula_structural   Nd4MgPb4
_chemical_formula_sum   'Nd16 Mg4 Pb16'
_cell_volume   1112.80266714
_cell_formula_units_Z   4
loop_
 _symmetry_equiv_pos_site_id
 _symmetry_equiv_pos_as_xyz
  1  'x, y, z'
loop_
 _atom_site_type_symbol
 _atom_site_label
 _atom_site_symmetry_multiplicity
 _atom_site_fract_x
 _atom_site_fract_y
 _atom_site_fract_z
 _atom_site_occupancy
  Nd  Nd0  1  0.653317  0.165903  0.628034  1
  Nd  Nd1  1  0.153317  0.334097  0.871966  1
  Nd  Nd2  1  0.346683  0.834097  0.128034  1
  Nd  Nd3  1  0.846683  0.665903  0.371966  1
  Nd  Nd4  1  0.346683  0.834097  0.371966  1
  Nd  Nd5  1  0.846683  0.665903  0.128034  1
  Nd  Nd6  1  0.653317  0.165903  0.871966  1
  Nd  Nd7  1  0.153317  0.334097  0.628034  1
  Nd  Nd8  1  0.492031  0.685715  0.594191  1
  Nd  Nd9  1  0.992031  0.814285  0.905809  1
  Nd  Nd10  1  0.507969  0.314285  0.094191  1
  Nd  Nd11  1  0.007969  0.185715  0.405809  1
  Nd  Nd12  1  0.507969  0.314285  0.405809  1
  Nd  Nd13  1  0.007969  0.185715  0.094191  1
  Nd  Nd14  1  0.492031  0.685715  0.905809  1
  Nd  Nd15  1  0.992031  0.814285  0.594191  1
  Mg  Mg16  1  0.823717  0.502932  0.750000  1
  Mg  Mg17  1  0.323717  0.997068  0.750000  1
  Mg  Mg18  1  0.176283  0.497068  0.250000  1
  Mg  Mg19  1  0.676283  0.002932  0.250000  1
  Pb  Pb20  1  0.691330  0.962170  0.461055  1
  Pb  Pb21  1  0.191330  0.537830  0.038945  1
  Pb  Pb22  1  0.308670  0.037830  0.961055  1
  Pb  Pb23  1  0.808670  0.462170  0.538945  1
  Pb  Pb24  1  0.308670  0.037830  0.538945  1
  Pb  Pb25  1  0.808670  0.462170  0.961055  1
  Pb  Pb26  1  0.691330  0.962170  0.038945  1
  Pb  Pb27  1  0.191330  0.537830  0.461055  1
  Pb  Pb28  1  0.466634  0.404151  0.750000  1
  Pb  Pb29  1  0.966634  0.095849  0.750000  1
  Pb  Pb30  1  0.533366  0.595849  0.250000  1
  Pb  Pb31  1  0.033366  0.904151  0.250000  1
  Pb  Pb32  1  0.683451  0.842710  0.750000  1
  Pb  Pb33  1  0.183451  0.657290  0.750000  1
  Pb  Pb34  1  0.316549  0.157290  0.250000  1
  Pb  Pb35  1  0.816549  0.342710  0.250000  1
