# generated using pymatgen
data_Sc5Al15(Si5Os4)2
_symmetry_space_group_name_H-M   'P 1'
_cell_length_a   8.56668323
_cell_length_b   8.58404663
_cell_length_c   9.17705100
_cell_angle_alpha   90.00000000
_cell_angle_beta   90.00000000
_cell_angle_gamma   119.87600150
_symmetry_Int_Tables_number   1
_chemical_formula_structural   Sc5Al15(Si5Os4)2
_chemical_formula_sum   'Sc5 Al15 Si10 Os8'
_cell_volume   585.16702545
_cell_formula_units_Z   1
loop_
 _symmetry_equiv_pos_site_id
 _symmetry_equiv_pos_as_xyz
  1  'x, y, z'
loop_
 _atom_site_type_symbol
 _atom_site_label
 _atom_site_symmetry_multiplicity
 _atom_site_fract_x
 _atom_site_fract_y
 _atom_site_fract_z
 _atom_site_occupancy
  Sc  Sc0  1  0.805693  0.609069  0.750000  1
  Sc  Sc1  1  0.636412  0.817655  0.250000  1
  Sc  Sc2  1  0.381387  0.186726  0.750000  1
  Sc  Sc3  1  0.180105  0.818964  0.250000  1
  Sc  Sc4  1  0.801853  0.193265  0.750000  1
  Al  Al5  1  0.278234  0.438898  0.250000  1
  Al  Al6  1  0.157309  0.319240  0.573428  1
  Al  Al7  1  0.829971  0.661414  0.418889  1
  Al  Al8  1  0.664508  0.827313  0.578800  1
  Al  Al9  1  0.829971  0.661414  0.081111  1
  Al  Al10  1  0.323318  0.159542  0.419386  1
  Al  Al11  1  0.157309  0.319240  0.926572  1
  Al  Al12  1  0.159206  0.832409  0.580972  1
  Al  Al13  1  0.323318  0.159542  0.080614  1
  Al  Al14  1  0.832614  0.164424  0.420313  1
  Al  Al15  1  0.664508  0.827313  0.921200  1
  Al  Al16  1  0.832614  0.164424  0.079687  1
  Al  Al17  1  0.159206  0.832409  0.919028  1
  Al  Al18  1  0.430338  0.554520  0.750000  1
  Al  Al19  1  0.995159  0.998092  0.750000  1
  Si  Si20  1  0.328703  0.665540  0.051751  1
  Si  Si21  1  0.660271  0.329694  0.947568  1
  Si  Si22  1  0.660271  0.329694  0.552432  1
  Si  Si23  1  0.328703  0.665540  0.448249  1
  Si  Si24  1  0.555014  0.115611  0.250000  1
  Si  Si25  1  0.433563  0.873037  0.750000  1
  Si  Si26  1  0.897357  0.440384  0.250000  1
  Si  Si27  1  0.122074  0.559570  0.750000  1
  Si  Si28  1  0.579219  0.431767  0.250000  1
  Si  Si29  1  0.051900  0.106868  0.250000  1
  Os  Os30  1  0.496129  0.996933  0.999785  1
  Os  Os31  1  0.993547  0.496429  0.995496  1
  Os  Os32  1  0.496129  0.996933  0.500215  1
  Os  Os33  1  0.493126  0.491671  0.009672  1
  Os  Os34  1  0.993547  0.496429  0.504504  1
  Os  Os35  1  0.493126  0.491671  0.490328  1
  Os  Os36  1  0.987140  0.983180  0.010740  1
  Os  Os37  1  0.987140  0.983180  0.489260  1
