# generated using pymatgen
data_Cs13K5(InBi4)2
_symmetry_space_group_name_H-M   'P 1'
_cell_length_a   11.42364900
_cell_length_b   11.54902043
_cell_length_c   12.13248200
_cell_angle_alpha   90.00000000
_cell_angle_beta   90.00000000
_cell_angle_gamma   119.64154216
_symmetry_Int_Tables_number   1
_chemical_formula_structural   Cs13K5(InBi4)2
_chemical_formula_sum   'Cs13 K5 In2 Bi8'
_cell_volume   1391.19394737
_cell_formula_units_Z   1
loop_
 _symmetry_equiv_pos_site_id
 _symmetry_equiv_pos_as_xyz
  1  'x, y, z'
loop_
 _atom_site_type_symbol
 _atom_site_label
 _atom_site_symmetry_multiplicity
 _atom_site_fract_x
 _atom_site_fract_y
 _atom_site_fract_z
 _atom_site_occupancy
  Cs  Cs0  1  0.208822  0.417643  0.543815  1
  Cs  Cs1  1  0.790993  0.207811  0.040641  1
  Cs  Cs2  1  0.416816  0.207811  0.040641  1
  Cs  Cs3  1  0.583889  0.791795  0.542178  1
  Cs  Cs4  1  0.207909  0.791795  0.542178  1
  Cs  Cs5  1  0.791787  0.583578  0.459130  1
  Cs  Cs6  1  0.790993  0.207811  0.459359  1
  Cs  Cs7  1  0.791787  0.583578  0.040870  1
  Cs  Cs8  1  0.416816  0.207811  0.459359  1
  Cs  Cs9  1  0.583889  0.791795  0.957822  1
  Cs  Cs10  1  0.208822  0.417643  0.956185  1
  Cs  Cs11  1  0.207909  0.791795  0.957822  1
  Cs  Cs12  1  0.118637  0.237274  0.250000  1
  K  K13  1  0.880373  0.118539  0.750000  1
  K  K14  1  0.238164  0.118539  0.750000  1
  K  K15  1  0.760586  0.879524  0.250000  1
  K  K16  1  0.118939  0.879524  0.250000  1
  K  K17  1  0.880090  0.760181  0.750000  1
  In  In18  1  0.334311  0.668622  0.250000  1
  In  In19  1  0.666305  0.332608  0.750000  1
  Bi  Bi20  1  0.490352  0.527886  0.250000  1
  Bi  Bi21  1  0.962356  0.479429  0.750000  1
  Bi  Bi22  1  0.519682  0.039365  0.750000  1
  Bi  Bi23  1  0.481152  0.962302  0.250000  1
  Bi  Bi24  1  0.037536  0.527886  0.250000  1
  Bi  Bi25  1  0.517071  0.479429  0.750000  1
  Bi  Bi26  1  0.997007  0.994013  0.994474  1
  Bi  Bi27  1  0.997007  0.994013  0.505526  1
