# generated using pymatgen
data_Cu6SiWSe8
_symmetry_space_group_name_H-M   'P 1'
_cell_length_a   7.88902500
_cell_length_b   7.88902470
_cell_length_c   12.95097400
_cell_angle_alpha   90.00000000
_cell_angle_beta   90.00000000
_cell_angle_gamma   119.99999708
_symmetry_Int_Tables_number   1
_chemical_formula_structural   Cu6SiWSe8
_chemical_formula_sum   'Cu12 Si2 W2 Se16'
_cell_volume   698.03905831
_cell_formula_units_Z   2
loop_
 _symmetry_equiv_pos_site_id
 _symmetry_equiv_pos_as_xyz
  1  'x, y, z'
loop_
 _atom_site_type_symbol
 _atom_site_label
 _atom_site_symmetry_multiplicity
 _atom_site_fract_x
 _atom_site_fract_y
 _atom_site_fract_z
 _atom_site_occupancy
  Cu  Cu0  1  0.836283  0.672568  0.102445  1
  Cu  Cu1  1  0.500427  0.499573  0.355948  1
  Cu  Cu2  1  0.000855  0.500427  0.855948  1
  Cu  Cu3  1  0.836283  0.163717  0.102445  1
  Cu  Cu4  1  0.499573  0.500427  0.855948  1
  Cu  Cu5  1  0.163717  0.327432  0.602445  1
  Cu  Cu6  1  0.500427  0.000855  0.355948  1
  Cu  Cu7  1  0.999145  0.499573  0.355948  1
  Cu  Cu8  1  0.163717  0.836283  0.602445  1
  Cu  Cu9  1  0.499573  0.999145  0.855948  1
  Cu  Cu10  1  0.672568  0.836283  0.602445  1
  Cu  Cu11  1  0.327432  0.163717  0.102445  1
  Si  Si12  1  0.000000  0.000000  0.851608  1
  Si  Si13  1  0.000000  0.000000  0.351608  1
  W  W14  1  0.333333  0.666667  0.481984  1
  W  W15  1  0.666667  0.333333  0.981984  1
  Se  Se16  1  0.000000  0.000000  0.030740  1
  Se  Se17  1  0.323602  0.161802  0.290599  1
  Se  Se18  1  0.838198  0.161802  0.290599  1
  Se  Se19  1  0.999487  0.499744  0.543107  1
  Se  Se20  1  0.838198  0.676398  0.290599  1
  Se  Se21  1  0.666667  0.333333  0.795374  1
  Se  Se22  1  0.161802  0.323602  0.790599  1
  Se  Se23  1  0.500256  0.499744  0.543107  1
  Se  Se24  1  0.000000  0.000000  0.530740  1
  Se  Se25  1  0.333333  0.666667  0.295374  1
  Se  Se26  1  0.000513  0.500256  0.043107  1
  Se  Se27  1  0.500256  0.000513  0.543107  1
  Se  Se28  1  0.161802  0.838198  0.790599  1
  Se  Se29  1  0.676398  0.838198  0.790599  1
  Se  Se30  1  0.499744  0.999487  0.043107  1
  Se  Se31  1  0.499744  0.500256  0.043107  1
