# generated using pymatgen
data_Y7Co3Sn23Ir3
_symmetry_space_group_name_H-M   'P 1'
_cell_length_a   9.81455783
_cell_length_b   9.82199394
_cell_length_c   10.03386416
_cell_angle_alpha   90.06638771
_cell_angle_beta   89.87410624
_cell_angle_gamma   120.25146621
_symmetry_Int_Tables_number   1
_chemical_formula_structural   Y7Co3Sn23Ir3
_chemical_formula_sum   'Y7 Co3 Sn23 Ir3'
_cell_volume   835.53017129
_cell_formula_units_Z   1
loop_
 _symmetry_equiv_pos_site_id
 _symmetry_equiv_pos_as_xyz
  1  'x, y, z'
loop_
 _atom_site_type_symbol
 _atom_site_label
 _atom_site_symmetry_multiplicity
 _atom_site_fract_x
 _atom_site_fract_y
 _atom_site_fract_z
 _atom_site_occupancy
  Y  Y0  1  0.996274  0.993007  0.004299  1
  Y  Y1  1  0.479107  0.521799  0.308219  1
  Y  Y2  1  0.520682  0.478219  0.691142  1
  Y  Y3  1  0.480025  0.958124  0.307721  1
  Y  Y4  1  0.520378  0.043337  0.691981  1
  Y  Y5  1  0.042375  0.520551  0.306642  1
  Y  Y6  1  0.957386  0.479462  0.692391  1
  Co  Co7  1  0.169935  0.337260  0.801850  1
  Co  Co8  1  0.336989  0.170468  0.197162  1
  Co  Co9  1  0.664504  0.833014  0.800867  1
  Sn  Sn10  1  0.352407  0.006279  0.004878  1
  Sn  Sn11  1  0.647864  0.994669  0.994346  1
  Sn  Sn12  1  0.006625  0.349877  0.994054  1
  Sn  Sn13  1  0.999801  0.644293  0.999283  1
  Sn  Sn14  1  0.644925  0.650519  0.994640  1
  Sn  Sn15  1  0.345466  0.345887  0.999720  1
  Sn  Sn16  1  0.336104  0.664463  0.821680  1
  Sn  Sn17  1  0.661247  0.331282  0.175485  1
  Sn  Sn18  1  0.999983  0.999829  0.500736  1
  Sn  Sn19  1  0.780230  0.220600  0.456741  1
  Sn  Sn20  1  0.220073  0.778973  0.542839  1
  Sn  Sn21  1  0.779736  0.558223  0.457260  1
  Sn  Sn22  1  0.217520  0.436541  0.548601  1
  Sn  Sn23  1  0.437036  0.218271  0.450937  1
  Sn  Sn24  1  0.561970  0.781642  0.549532  1
  Sn  Sn25  1  0.335038  0.666360  0.115242  1
  Sn  Sn26  1  0.665442  0.334511  0.883231  1
  Sn  Sn27  1  0.124338  0.889104  0.278951  1
  Sn  Sn28  1  0.884767  0.117637  0.726432  1
  Sn  Sn29  1  0.123610  0.236006  0.278484  1
  Sn  Sn30  1  0.877346  0.765401  0.721332  1
  Sn  Sn31  1  0.761234  0.881919  0.286151  1
  Sn  Sn32  1  0.235876  0.124543  0.721657  1
  Ir  Ir33  1  0.832119  0.169520  0.196628  1
  Ir  Ir34  1  0.170174  0.833647  0.801200  1
  Ir  Ir35  1  0.831415  0.664761  0.197690  1
