# generated using pymatgen
data_Ta8V2Si6N
_symmetry_space_group_name_H-M   'P 1'
_cell_length_a   7.46605800
_cell_length_b   7.46605946
_cell_length_c   5.13416000
_cell_angle_alpha   90.00000000
_cell_angle_beta   90.00000000
_cell_angle_gamma   120.00000240
_symmetry_Int_Tables_number   1
_chemical_formula_structural   Ta8V2Si6N
_chemical_formula_sum   'Ta8 V2 Si6 N1'
_cell_volume   247.84651900
_cell_formula_units_Z   1
loop_
 _symmetry_equiv_pos_site_id
 _symmetry_equiv_pos_as_xyz
  1  'x, y, z'
loop_
 _atom_site_type_symbol
 _atom_site_label
 _atom_site_symmetry_multiplicity
 _atom_site_fract_x
 _atom_site_fract_y
 _atom_site_fract_z
 _atom_site_occupancy
  Ta  Ta0  1  0.000000  0.757457  0.255330  1
  Ta  Ta1  1  0.242543  0.242543  0.255330  1
  Ta  Ta2  1  0.757457  0.000000  0.255330  1
  Ta  Ta3  1  0.000000  0.242543  0.744670  1
  Ta  Ta4  1  0.757457  0.757457  0.744670  1
  Ta  Ta5  1  0.242543  0.000000  0.744670  1
  Ta  Ta6  1  0.333333  0.666667  0.500000  1
  Ta  Ta7  1  0.666667  0.333333  0.500000  1
  V  V8  1  0.666667  0.333333  0.000000  1
  V  V9  1  0.333333  0.666667  0.000000  1
  Si  Si10  1  0.000000  0.404478  0.226472  1
  Si  Si11  1  0.595522  0.595522  0.226472  1
  Si  Si12  1  0.404478  0.000000  0.226472  1
  Si  Si13  1  0.000000  0.595522  0.773528  1
  Si  Si14  1  0.404478  0.404478  0.773528  1
  Si  Si15  1  0.595522  0.000000  0.773528  1
  N  N16  1  0.000000  0.000000  0.500000  1
