# generated using pymatgen
data_Sr2Ga4IrRh3
_symmetry_space_group_name_H-M   'P 1'
_cell_length_a   8.61673953
_cell_length_b   7.38797760
_cell_length_c   6.04260327
_cell_angle_alpha   79.12512608
_cell_angle_beta   57.35075341
_cell_angle_gamma   43.60420870
_symmetry_Int_Tables_number   1
_chemical_formula_structural   Sr2Ga4IrRh3
_chemical_formula_sum   'Sr2 Ga4 Ir1 Rh3'
_cell_volume   209.42900157
_cell_formula_units_Z   1
loop_
 _symmetry_equiv_pos_site_id
 _symmetry_equiv_pos_as_xyz
  1  'x, y, z'
loop_
 _atom_site_type_symbol
 _atom_site_label
 _atom_site_symmetry_multiplicity
 _atom_site_fract_x
 _atom_site_fract_y
 _atom_site_fract_z
 _atom_site_occupancy
  Sr  Sr0  1  0.500122  0.500127  0.499875  1
  Sr  Sr1  1  0.749163  0.749154  0.750832  1
  Ga  Ga2  1  0.816034  0.184174  0.820001  1
  Ga  Ga3  1  0.184164  0.816033  0.179800  1
  Ga  Ga4  1  0.433429  0.067328  0.431534  1
  Ga  Ga5  1  0.067337  0.433430  0.067699  1
  Ir  Ir6  1  0.115813  0.115808  0.884204  1
  Rh  Rh7  1  0.884528  0.884535  0.115464  1
  Rh  Rh8  1  0.134151  0.134154  0.365845  1
  Rh  Rh9  1  0.365258  0.365257  0.134745  1
