# generated using pymatgen
data_Nd8AlPd23Au
_symmetry_space_group_name_H-M   'P 1'
_cell_length_a   8.47737000
_cell_length_b   8.53237000
_cell_length_c   8.53454800
_cell_angle_alpha   90.00000000
_cell_angle_beta   90.00000000
_cell_angle_gamma   90.00000000
_symmetry_Int_Tables_number   1
_chemical_formula_structural   Nd8AlPd23Au
_chemical_formula_sum   'Nd8 Al1 Pd23 Au1'
_cell_volume   617.32141639
_cell_formula_units_Z   1
loop_
 _symmetry_equiv_pos_site_id
 _symmetry_equiv_pos_as_xyz
  1  'x, y, z'
loop_
 _atom_site_type_symbol
 _atom_site_label
 _atom_site_symmetry_multiplicity
 _atom_site_fract_x
 _atom_site_fract_y
 _atom_site_fract_z
 _atom_site_occupancy
  Nd  Nd0  1  0.251857  0.248352  0.256442  1
  Nd  Nd1  1  0.747714  0.747726  0.747592  1
  Nd  Nd2  1  0.747714  0.747726  0.252408  1
  Nd  Nd3  1  0.747714  0.252274  0.747592  1
  Nd  Nd4  1  0.251857  0.248352  0.743558  1
  Nd  Nd5  1  0.251857  0.751648  0.256442  1
  Nd  Nd6  1  0.251857  0.751648  0.743558  1
  Nd  Nd7  1  0.747714  0.252274  0.252408  1
  Al  Al8  1  0.000571  0.000000  0.000000  1
  Pd  Pd9  1  0.739968  0.500000  0.000000  1
  Pd  Pd10  1  0.999376  0.260007  0.500000  1
  Pd  Pd11  1  0.499446  0.258908  0.000000  1
  Pd  Pd12  1  0.999376  0.739993  0.500000  1
  Pd  Pd13  1  0.499446  0.741092  0.000000  1
  Pd  Pd14  1  0.500683  0.000000  0.260037  1
  Pd  Pd15  1  0.260306  0.000000  0.500000  1
  Pd  Pd16  1  0.500683  0.000000  0.739963  1
  Pd  Pd17  1  0.739620  0.000000  0.500000  1
  Pd  Pd18  1  0.000678  0.500000  0.260684  1
  Pd  Pd19  1  0.000678  0.500000  0.739316  1
  Pd  Pd20  1  0.253029  0.500000  0.500000  1
  Pd  Pd21  1  0.746926  0.500000  0.500000  1
  Pd  Pd22  1  0.500593  0.253418  0.500000  1
  Pd  Pd23  1  0.500593  0.746582  0.500000  1
  Pd  Pd24  1  0.499368  0.500000  0.254489  1
  Pd  Pd25  1  0.499368  0.500000  0.745511  1
  Pd  Pd26  1  0.290841  0.000000  0.000000  1
  Pd  Pd27  1  0.709036  0.000000  0.000000  1
  Pd  Pd28  1  0.000546  0.289457  0.000000  1
  Pd  Pd29  1  0.000546  0.710543  0.000000  1
  Pd  Pd30  1  0.998842  0.000000  0.290365  1
  Pd  Pd31  1  0.998842  0.000000  0.709635  1
  Au  Au32  1  0.262352  0.500000  0.000000  1
