# generated using pymatgen
data_CdFe4SnBr16
_symmetry_space_group_name_H-M   'P 1'
_cell_length_a   10.69607214
_cell_length_b   10.69607223
_cell_length_c   12.89681100
_cell_angle_alpha   55.11772152
_cell_angle_beta   55.11772120
_cell_angle_gamma   49.96292561
_symmetry_Int_Tables_number   1
_chemical_formula_structural   CdFe4SnBr16
_chemical_formula_sum   'Cd1 Fe4 Sn1 Br16'
_cell_volume   876.44863372
_cell_formula_units_Z   1
loop_
 _symmetry_equiv_pos_site_id
 _symmetry_equiv_pos_as_xyz
  1  'x, y, z'
loop_
 _atom_site_type_symbol
 _atom_site_label
 _atom_site_symmetry_multiplicity
 _atom_site_fract_x
 _atom_site_fract_y
 _atom_site_fract_z
 _atom_site_occupancy
  Cd  Cd0  1  0.997699  0.002301  0.750000  1
  Fe  Fe1  1  0.662496  0.163287  0.030146  1
  Fe  Fe2  1  0.337699  0.837269  0.957837  1
  Fe  Fe3  1  0.836713  0.337504  0.469854  1
  Fe  Fe4  1  0.162731  0.662301  0.542163  1
  Sn  Sn5  1  0.000110  0.999890  0.250000  1
  Br  Br6  1  0.880025  0.803497  0.534146  1
  Br  Br7  1  0.122233  0.183864  0.479885  1
  Br  Br8  1  0.694944  0.619520  0.458698  1
  Br  Br9  1  0.619457  0.691731  0.947037  1
  Br  Br10  1  0.816136  0.877767  0.020115  1
  Br  Br11  1  0.847610  0.340798  0.278763  1
  Br  Br12  1  0.170947  0.707084  0.165569  1
  Br  Br13  1  0.292916  0.829053  0.334431  1
  Br  Br14  1  0.148880  0.677709  0.726269  1
  Br  Br15  1  0.308269  0.380543  0.552963  1
  Br  Br16  1  0.659202  0.152390  0.221237  1
  Br  Br17  1  0.196503  0.119975  0.965854  1
  Br  Br18  1  0.380480  0.305056  0.041302  1
  Br  Br19  1  0.322291  0.851120  0.773731  1
  Br  Br20  1  0.708529  0.165868  0.671243  1
  Br  Br21  1  0.834132  0.291471  0.828757  1
