# generated using pymatgen
data_Zr13BeAl9Rh7
_symmetry_space_group_name_H-M   'P 1'
_cell_length_a   9.16449048
_cell_length_b   9.16449063
_cell_length_c   9.16449100
_cell_angle_alpha   59.74937681
_cell_angle_beta   59.74937625
_cell_angle_gamma   59.74938450
_symmetry_Int_Tables_number   1
_chemical_formula_structural   Zr13BeAl9Rh7
_chemical_formula_sum   'Zr13 Be1 Al9 Rh7'
_cell_volume   541.16703987
_cell_formula_units_Z   1
loop_
 _symmetry_equiv_pos_site_id
 _symmetry_equiv_pos_as_xyz
  1  'x, y, z'
loop_
 _atom_site_type_symbol
 _atom_site_label
 _atom_site_symmetry_multiplicity
 _atom_site_fract_x
 _atom_site_fract_y
 _atom_site_fract_z
 _atom_site_occupancy
  Zr  Zr0  1  0.201559  0.201559  0.798512  1
  Zr  Zr1  1  0.798512  0.201559  0.201559  1
  Zr  Zr2  1  0.201559  0.798512  0.201559  1
  Zr  Zr3  1  0.808127  0.808127  0.172462  1
  Zr  Zr4  1  0.172462  0.808127  0.808127  1
  Zr  Zr5  1  0.808127  0.172462  0.808127  1
  Zr  Zr6  1  0.378024  0.378024  0.378024  1
  Zr  Zr7  1  0.379284  0.866617  0.379284  1
  Zr  Zr8  1  0.866617  0.379284  0.379284  1
  Zr  Zr9  1  0.379284  0.379284  0.866617  1
  Zr  Zr10  1  0.838257  0.487211  0.838257  1
  Zr  Zr11  1  0.487211  0.838257  0.838257  1
  Zr  Zr12  1  0.838257  0.838257  0.487211  1
  Be  Be13  1  0.004481  0.004481  0.004481  1
  Al  Al14  1  0.155972  0.155972  0.155972  1
  Al  Al15  1  0.159471  0.525658  0.159471  1
  Al  Al16  1  0.525658  0.159471  0.159471  1
  Al  Al17  1  0.159471  0.159471  0.525658  1
  Al  Al18  1  0.616501  0.616501  0.616501  1
  Al  Al19  1  0.619714  0.147560  0.619714  1
  Al  Al20  1  0.147560  0.619714  0.619714  1
  Al  Al21  1  0.619714  0.619714  0.147560  1
  Al  Al22  1  0.828363  0.828363  0.828363  1
  Rh  Rh23  1  0.005986  0.005986  0.498463  1
  Rh  Rh24  1  0.498463  0.005986  0.005986  1
  Rh  Rh25  1  0.005986  0.498463  0.005986  1
  Rh  Rh26  1  0.494287  0.494287  0.007170  1
  Rh  Rh27  1  0.007170  0.494287  0.494287  1
  Rh  Rh28  1  0.494287  0.007170  0.494287  1
  Rh  Rh29  1  0.499642  0.499642  0.499642  1
