# generated using pymatgen
data_PaClF8
_symmetry_space_group_name_H-M   'P 1'
_cell_length_a   5.44806318
_cell_length_b   6.08877380
_cell_length_c   10.99631667
_cell_angle_alpha   90.15615928
_cell_angle_beta   93.01830886
_cell_angle_gamma   93.36190343
_symmetry_Int_Tables_number   1
_chemical_formula_structural   PaClF8
_chemical_formula_sum   'Pa2 Cl2 F16'
_cell_volume   363.63099455
_cell_formula_units_Z   2
loop_
 _symmetry_equiv_pos_site_id
 _symmetry_equiv_pos_as_xyz
  1  'x, y, z'
loop_
 _atom_site_type_symbol
 _atom_site_label
 _atom_site_symmetry_multiplicity
 _atom_site_fract_x
 _atom_site_fract_y
 _atom_site_fract_z
 _atom_site_occupancy
  Pa  Pa0  1  0.000000  0.000000  0.500000  1
  Pa  Pa1  1  0.000000  0.000000  0.000000  1
  Cl  Cl2  1  0.406312  0.389412  0.747613  1
  Cl  Cl3  1  0.593688  0.610588  0.252387  1
  F  F4  1  0.850123  0.186381  0.361501  1
  F  F5  1  0.149877  0.813619  0.638499  1
  F  F6  1  0.702551  0.051094  0.604102  1
  F  F7  1  0.297449  0.948906  0.395898  1
  F  F8  1  0.431668  0.548498  0.125654  1
  F  F9  1  0.568332  0.451502  0.874346  1
  F  F10  1  0.400017  0.474700  0.338116  1
  F  F11  1  0.599983  0.525300  0.661884  1
  F  F12  1  0.887721  0.280344  0.081384  1
  F  F13  1  0.112279  0.719656  0.918616  1
  F  F14  1  0.329465  0.035345  0.102463  1
  F  F15  1  0.670535  0.964655  0.897537  1
  F  F16  1  0.849041  0.790939  0.147932  1
  F  F17  1  0.150959  0.209061  0.852068  1
  F  F18  1  0.811118  0.699920  0.413815  1
  F  F19  1  0.188882  0.300080  0.586185  1
