# generated using pymatgen
data_Tb13Tm7(Bi2Ir)4
_symmetry_space_group_name_H-M   'P 1'
_cell_length_a   7.98810226
_cell_length_b   9.02133315
_cell_length_c   12.53012413
_cell_angle_alpha   89.97947073
_cell_angle_beta   90.06390979
_cell_angle_gamma   90.00471264
_symmetry_Int_Tables_number   1
_chemical_formula_structural   Tb13Tm7(Bi2Ir)4
_chemical_formula_sum   'Tb13 Tm7 Bi8 Ir4'
_cell_volume   902.96186944
_cell_formula_units_Z   1
loop_
 _symmetry_equiv_pos_site_id
 _symmetry_equiv_pos_as_xyz
  1  'x, y, z'
loop_
 _atom_site_type_symbol
 _atom_site_label
 _atom_site_symmetry_multiplicity
 _atom_site_fract_x
 _atom_site_fract_y
 _atom_site_fract_z
 _atom_site_occupancy
  Tb  Tb0  1  0.842135  0.750347  0.793925  1
  Tb  Tb1  1  0.157491  0.249866  0.206281  1
  Tb  Tb2  1  0.342935  0.249878  0.705704  1
  Tb  Tb3  1  0.657333  0.750023  0.293973  1
  Tb  Tb4  1  0.375992  0.749983  0.693200  1
  Tb  Tb5  1  0.624133  0.249965  0.306648  1
  Tb  Tb6  1  0.875091  0.249656  0.806228  1
  Tb  Tb7  1  0.123643  0.750553  0.193768  1
  Tb  Tb8  1  0.946863  0.750089  0.501786  1
  Tb  Tb9  1  0.053057  0.249978  0.498143  1
  Tb  Tb10  1  0.448393  0.249279  0.998355  1
  Tb  Tb11  1  0.553442  0.750578  0.001843  1
  Tb  Tb12  1  0.177559  0.540726  0.934818  1
  Tm  Tm13  1  0.673711  0.040644  0.564688  1
  Tm  Tm14  1  0.326255  0.959314  0.435203  1
  Tm  Tm15  1  0.173616  0.959217  0.935404  1
  Tm  Tm16  1  0.326283  0.540738  0.435300  1
  Tm  Tm17  1  0.825929  0.041146  0.065083  1
  Tm  Tm18  1  0.673791  0.459441  0.564659  1
  Tm  Tm19  1  0.825797  0.459143  0.065004  1
  Bi  Bi20  1  0.569329  0.491114  0.826754  1
  Bi  Bi21  1  0.431672  0.508475  0.172652  1
  Bi  Bi22  1  0.067386  0.508389  0.672369  1
  Bi  Bi23  1  0.431976  0.991499  0.172862  1
  Bi  Bi24  1  0.932232  0.491427  0.327212  1
  Bi  Bi25  1  0.567633  0.008563  0.827116  1
  Bi  Bi26  1  0.932095  0.008598  0.327430  1
  Bi  Bi27  1  0.067676  0.991554  0.672811  1
  Ir  Ir28  1  0.567391  0.750023  0.508856  1
  Ir  Ir29  1  0.432672  0.250007  0.491038  1
  Ir  Ir30  1  0.066175  0.248455  0.991307  1
  Ir  Ir31  1  0.930312  0.751333  0.009580  1
