# generated using pymatgen
data_TbY4(MnB3)2
_symmetry_space_group_name_H-M   'P 1'
_cell_length_a   5.44402843
_cell_length_b   5.44402816
_cell_length_c   8.22215622
_cell_angle_alpha   70.66696422
_cell_angle_beta   70.66696708
_cell_angle_gamma   60.00001859
_symmetry_Int_Tables_number   1
_chemical_formula_structural   TbY4(MnB3)2
_chemical_formula_sum   'Tb1 Y4 Mn2 B6'
_cell_volume   195.00794254
_cell_formula_units_Z   1
loop_
 _symmetry_equiv_pos_site_id
 _symmetry_equiv_pos_as_xyz
  1  'x, y, z'
loop_
 _atom_site_type_symbol
 _atom_site_label
 _atom_site_symmetry_multiplicity
 _atom_site_fract_x
 _atom_site_fract_y
 _atom_site_fract_z
 _atom_site_occupancy
  Tb  Tb0  1  0.000000  0.000000  0.000000  1
  Y  Y1  1  0.251448  0.251448  0.245656  1
  Y  Y2  1  0.748552  0.748552  0.754344  1
  Y  Y3  1  0.415949  0.415949  0.752154  1
  Y  Y4  1  0.584051  0.584051  0.247846  1
  Mn  Mn5  1  0.114623  0.114623  0.656132  1
  Mn  Mn6  1  0.885377  0.885377  0.343868  1
  B  B7  1  0.166088  0.833912  0.500000  1
  B  B8  1  0.833912  0.500000  0.500000  1
  B  B9  1  0.500000  0.166088  0.500000  1
  B  B10  1  0.166088  0.500000  0.500000  1
  B  B11  1  0.500000  0.833912  0.500000  1
  B  B12  1  0.833912  0.166088  0.500000  1
