# generated using pymatgen
data_Ce3Ho2Ir2Os
_symmetry_space_group_name_H-M   'P 1'
_cell_length_a   10.95750500
_cell_length_b   11.10750200
_cell_length_c   6.28359800
_cell_angle_alpha   90.00000000
_cell_angle_beta   90.00000000
_cell_angle_gamma   90.00000000
_symmetry_Int_Tables_number   1
_chemical_formula_structural   Ce3Ho2Ir2Os
_chemical_formula_sum   'Ce12 Ho8 Ir8 Os4'
_cell_volume   764.77990906
_cell_formula_units_Z   4
loop_
 _symmetry_equiv_pos_site_id
 _symmetry_equiv_pos_as_xyz
  1  'x, y, z'
loop_
 _atom_site_type_symbol
 _atom_site_label
 _atom_site_symmetry_multiplicity
 _atom_site_fract_x
 _atom_site_fract_y
 _atom_site_fract_z
 _atom_site_occupancy
  Ce  Ce0  1  0.292865  0.090012  0.378276  1
  Ce  Ce1  1  0.292865  0.909988  0.878276  1
  Ce  Ce2  1  0.707135  0.090012  0.878276  1
  Ce  Ce3  1  0.707135  0.909988  0.378276  1
  Ce  Ce4  1  0.591605  0.788856  0.881254  1
  Ce  Ce5  1  0.591605  0.211144  0.381254  1
  Ce  Ce6  1  0.408395  0.788856  0.381254  1
  Ce  Ce7  1  0.408395  0.211144  0.881254  1
  Ce  Ce8  1  0.201888  0.412133  0.619821  1
  Ce  Ce9  1  0.201888  0.587867  0.119821  1
  Ce  Ce10  1  0.798112  0.412133  0.119821  1
  Ce  Ce11  1  0.798112  0.587867  0.619821  1
  Ho  Ho12  1  0.914471  0.712009  0.121729  1
  Ho  Ho13  1  0.914471  0.287991  0.621729  1
  Ho  Ho14  1  0.085529  0.712009  0.621729  1
  Ho  Ho15  1  0.085529  0.287991  0.121729  1
  Ho  Ho16  1  0.000000  0.000000  0.497522  1
  Ho  Ho17  1  0.000000  0.000000  0.997522  1
  Ho  Ho18  1  0.500000  0.500000  0.005222  1
  Ho  Ho19  1  0.500000  0.500000  0.505222  1
  Ir  Ir20  1  0.843810  0.151497  0.243083  1
  Ir  Ir21  1  0.843810  0.848503  0.743083  1
  Ir  Ir22  1  0.156190  0.151497  0.743083  1
  Ir  Ir23  1  0.156190  0.848503  0.243083  1
  Ir  Ir24  1  0.655248  0.343712  0.753808  1
  Ir  Ir25  1  0.655248  0.656288  0.253808  1
  Ir  Ir26  1  0.344752  0.343712  0.253808  1
  Ir  Ir27  1  0.344752  0.656288  0.753808  1
  Os  Os28  1  0.500000  0.000000  0.125136  1
  Os  Os29  1  0.500000  0.000000  0.625136  1
  Os  Os30  1  0.000000  0.500000  0.876180  1
  Os  Os31  1  0.000000  0.500000  0.376180  1
