# generated using pymatgen
data_TmZr2SnF15
_symmetry_space_group_name_H-M   'P 1'
_cell_length_a   8.09936978
_cell_length_b   8.09936871
_cell_length_c   8.09850300
_cell_angle_alpha   79.93174934
_cell_angle_beta   79.93174350
_cell_angle_gamma   100.11090680
_symmetry_Int_Tables_number   1
_chemical_formula_structural   TmZr2SnF15
_chemical_formula_sum   'Tm2 Zr4 Sn2 F30'
_cell_volume   503.24799649
_cell_formula_units_Z   2
loop_
 _symmetry_equiv_pos_site_id
 _symmetry_equiv_pos_as_xyz
  1  'x, y, z'
loop_
 _atom_site_type_symbol
 _atom_site_label
 _atom_site_symmetry_multiplicity
 _atom_site_fract_x
 _atom_site_fract_y
 _atom_site_fract_z
 _atom_site_occupancy
  Tm  Tm0  1  0.677967  0.322033  0.750000  1
  Tm  Tm1  1  0.322033  0.677967  0.250000  1
  Zr  Zr2  1  0.821761  0.749841  0.325378  1
  Zr  Zr3  1  0.250159  0.178239  0.174622  1
  Zr  Zr4  1  0.178239  0.250159  0.674622  1
  Zr  Zr5  1  0.749841  0.821761  0.825378  1
  Sn  Sn6  1  0.250496  0.749504  0.750000  1
  Sn  Sn7  1  0.749504  0.250496  0.250000  1
  F  F8  1  0.149299  0.183854  0.947581  1
  F  F9  1  0.685676  0.560412  0.848149  1
  F  F10  1  0.041863  0.653794  0.315729  1
  F  F11  1  0.653794  0.041863  0.815729  1
  F  F12  1  0.560412  0.685676  0.348149  1
  F  F13  1  0.183854  0.149299  0.447581  1
  F  F14  1  0.850701  0.816146  0.052419  1
  F  F15  1  0.314324  0.439588  0.151851  1
  F  F16  1  0.958137  0.346206  0.684271  1
  F  F17  1  0.346206  0.958137  0.184271  1
  F  F18  1  0.439588  0.314324  0.651851  1
  F  F19  1  0.816146  0.850701  0.552419  1
  F  F20  1  0.968468  0.031532  0.750000  1
  F  F21  1  0.540997  0.752312  0.029063  1
  F  F22  1  0.247688  0.459003  0.470937  1
  F  F23  1  0.459003  0.247688  0.970937  1
  F  F24  1  0.752312  0.540997  0.529063  1
  F  F25  1  0.031532  0.968468  0.250000  1
  F  F26  1  0.215589  0.727326  0.001900  1
  F  F27  1  0.226393  0.493938  0.786447  1
  F  F28  1  0.994299  0.716588  0.774493  1
  F  F29  1  0.716588  0.994299  0.274493  1
  F  F30  1  0.493938  0.226393  0.286447  1
  F  F31  1  0.727326  0.215589  0.501900  1
  F  F32  1  0.784411  0.272674  0.998100  1
  F  F33  1  0.773607  0.506062  0.213553  1
  F  F34  1  0.005701  0.283412  0.225507  1
  F  F35  1  0.283412  0.005701  0.725507  1
  F  F36  1  0.506062  0.773607  0.713553  1
  F  F37  1  0.272674  0.784411  0.498100  1
