# generated using pymatgen
data_Tb4Ti3Co16ReP12
_symmetry_space_group_name_H-M   'P 1'
_cell_length_a   3.68265700
_cell_length_b   10.45590345
_cell_length_c   11.93208454
_cell_angle_alpha   89.96597159
_cell_angle_beta   90.00000000
_cell_angle_gamma   90.00000000
_symmetry_Int_Tables_number   1
_chemical_formula_structural   Tb4Ti3Co16ReP12
_chemical_formula_sum   'Tb4 Ti3 Co16 Re1 P12'
_cell_volume   459.45087214
_cell_formula_units_Z   1
loop_
 _symmetry_equiv_pos_site_id
 _symmetry_equiv_pos_as_xyz
  1  'x, y, z'
loop_
 _atom_site_type_symbol
 _atom_site_label
 _atom_site_symmetry_multiplicity
 _atom_site_fract_x
 _atom_site_fract_y
 _atom_site_fract_z
 _atom_site_occupancy
  Tb  Tb0  1  0.250000  0.582329  0.705052  1
  Tb  Tb1  1  0.250000  0.918114  0.204892  1
  Tb  Tb2  1  0.750000  0.417197  0.295508  1
  Tb  Tb3  1  0.750000  0.082053  0.794664  1
  Ti  Ti4  1  0.250000  0.798360  0.490869  1
  Ti  Ti5  1  0.750000  0.295564  0.009725  1
  Ti  Ti6  1  0.750000  0.202209  0.509945  1
  Co  Co7  1  0.250000  0.406790  0.488671  1
  Co  Co8  1  0.250000  0.093197  0.989620  1
  Co  Co9  1  0.750000  0.594503  0.508597  1
  Co  Co10  1  0.750000  0.904176  0.010896  1
  Co  Co11  1  0.250000  0.221445  0.175708  1
  Co  Co12  1  0.250000  0.279100  0.675609  1
  Co  Co13  1  0.750000  0.777018  0.825941  1
  Co  Co14  1  0.750000  0.722057  0.320809  1
  Co  Co15  1  0.250000  0.884009  0.701804  1
  Co  Co16  1  0.250000  0.612775  0.199539  1
  Co  Co17  1  0.750000  0.114816  0.300295  1
  Co  Co18  1  0.750000  0.386697  0.800080  1
  Co  Co19  1  0.250000  0.466866  0.934218  1
  Co  Co20  1  0.250000  0.034774  0.433769  1
  Co  Co21  1  0.750000  0.536092  0.066859  1
  Co  Co22  1  0.750000  0.963841  0.567523  1
  Re  Re23  1  0.250000  0.707929  0.990025  1
  P  P24  1  0.250000  0.419802  0.115520  1
  P  P25  1  0.250000  0.078205  0.615992  1
  P  P26  1  0.750000  0.579352  0.886218  1
  P  P27  1  0.750000  0.921902  0.384667  1
  P  P28  1  0.250000  0.271252  0.861993  1
  P  P29  1  0.250000  0.229610  0.362591  1
  P  P30  1  0.750000  0.731286  0.133683  1
  P  P31  1  0.750000  0.768813  0.637998  1
  P  P32  1  0.250000  0.594891  0.389597  1
  P  P33  1  0.250000  0.902719  0.892993  1
  P  P34  1  0.750000  0.406563  0.608621  1
  P  P35  1  0.750000  0.093695  0.109510  1
