# generated using pymatgen
data_Cs2KErAs2
_symmetry_space_group_name_H-M   'P 1'
_cell_length_a   9.92239444
_cell_length_b   9.92239406
_cell_length_c   9.92239491
_cell_angle_alpha   132.55154552
_cell_angle_beta   66.26140180
_cell_angle_gamma   136.57805063
_symmetry_Int_Tables_number   1
_chemical_formula_structural   Cs2KErAs2
_chemical_formula_sum   'Cs4 K2 Er2 As4'
_cell_volume   487.03141245
_cell_formula_units_Z   2
loop_
 _symmetry_equiv_pos_site_id
 _symmetry_equiv_pos_as_xyz
  1  'x, y, z'
loop_
 _atom_site_type_symbol
 _atom_site_label
 _atom_site_symmetry_multiplicity
 _atom_site_fract_x
 _atom_site_fract_y
 _atom_site_fract_z
 _atom_site_occupancy
  Cs  Cs0  1  0.814399  0.239065  0.053464  1
  Cs  Cs1  1  0.685601  0.739065  0.424666  1
  Cs  Cs2  1  0.314399  0.260935  0.575335  1
  Cs  Cs3  1  0.185601  0.760935  0.946536  1
  K  K4  1  0.749999  0.249999  0.500000  1
  K  K5  1  0.249999  0.749999  0.500000  1
  Er  Er6  1  0.249999  0.249999  0.000000  1
  Er  Er7  1  0.750000  0.750000  0.000000  1
  As  As8  1  0.409018  0.694732  0.103749  1
  As  As9  1  0.090982  0.194731  0.285713  1
  As  As10  1  0.909018  0.805269  0.714287  1
  As  As11  1  0.590982  0.305269  0.896251  1
