# generated using pymatgen
data_Ho2Cu5P4Pd3
_symmetry_space_group_name_H-M   'P 1'
_cell_length_a   7.45446383
_cell_length_b   7.30176477
_cell_length_c   3.83811100
_cell_angle_alpha   90.00000000
_cell_angle_beta   90.00000000
_cell_angle_gamma   89.53860959
_symmetry_Int_Tables_number   1
_chemical_formula_structural   Ho2Cu5P4Pd3
_chemical_formula_sum   'Ho2 Cu5 P4 Pd3'
_cell_volume   208.90445360
_cell_formula_units_Z   1
loop_
 _symmetry_equiv_pos_site_id
 _symmetry_equiv_pos_as_xyz
  1  'x, y, z'
loop_
 _atom_site_type_symbol
 _atom_site_label
 _atom_site_symmetry_multiplicity
 _atom_site_fract_x
 _atom_site_fract_y
 _atom_site_fract_z
 _atom_site_occupancy
  Ho  Ho0  1  0.501033  0.501157  0.000000  1
  Ho  Ho1  1  0.000641  0.002162  0.500000  1
  Cu  Cu2  1  0.913746  0.667979  0.000000  1
  Cu  Cu3  1  0.156320  0.585255  0.500000  1
  Cu  Cu4  1  0.839617  0.421989  0.500000  1
  Cu  Cu5  1  0.339443  0.082796  0.000000  1
  Cu  Cu6  1  0.668434  0.909472  0.000000  1
  P  P7  1  0.721749  0.718578  0.500000  1
  P  P8  1  0.282415  0.279574  0.500000  1
  P  P9  1  0.206286  0.778705  0.000000  1
  P  P10  1  0.784881  0.215058  0.000000  1
  Pd  Pd11  1  0.587629  0.173618  0.500000  1
  Pd  Pd12  1  0.412094  0.827231  0.500000  1
  Pd  Pd13  1  0.085711  0.336425  0.000000  1
