# generated using pymatgen
data_Tb2Y2MoRu7
_symmetry_space_group_name_H-M   'P 1'
_cell_length_a   5.48781600
_cell_length_b   5.19566290
_cell_length_c   9.07650000
_cell_angle_alpha   89.99973366
_cell_angle_beta   90.00000000
_cell_angle_gamma   121.87820055
_symmetry_Int_Tables_number   1
_chemical_formula_structural   Tb2Y2MoRu7
_chemical_formula_sum   'Tb2 Y2 Mo1 Ru7'
_cell_volume   219.76318156
_cell_formula_units_Z   1
loop_
 _symmetry_equiv_pos_site_id
 _symmetry_equiv_pos_as_xyz
  1  'x, y, z'
loop_
 _atom_site_type_symbol
 _atom_site_label
 _atom_site_symmetry_multiplicity
 _atom_site_fract_x
 _atom_site_fract_y
 _atom_site_fract_z
 _atom_site_occupancy
  Tb  Tb0  1  0.335547  0.671093  0.432204  1
  Tb  Tb1  1  0.673578  0.347156  0.563463  1
  Y  Y2  1  0.673643  0.347284  0.936041  1
  Y  Y3  1  0.335063  0.670126  0.068192  1
  Mo  Mo4  1  0.158565  0.317130  0.750377  1
  Ru  Ru5  1  0.172481  0.821446  0.750248  1
  Ru  Ru6  1  0.329055  0.161761  0.249721  1
  Ru  Ru7  1  0.820727  0.641455  0.249713  1
  Ru  Ru8  1  0.648966  0.821446  0.750248  1
  Ru  Ru9  1  0.009693  0.019386  0.002109  1
  Ru  Ru10  1  0.832706  0.161761  0.249721  1
  Ru  Ru11  1  0.009978  0.019956  0.497961  1
