# generated using pymatgen
data_Er20FeCo3Sb8
_symmetry_space_group_name_H-M   'P 1'
_cell_length_a   7.78732449
_cell_length_b   8.72426400
_cell_length_c   12.07134696
_cell_angle_alpha   90.00000000
_cell_angle_beta   90.12303725
_cell_angle_gamma   90.00000000
_symmetry_Int_Tables_number   1
_chemical_formula_structural   Er20FeCo3Sb8
_chemical_formula_sum   'Er20 Fe1 Co3 Sb8'
_cell_volume   820.10942319
_cell_formula_units_Z   1
loop_
 _symmetry_equiv_pos_site_id
 _symmetry_equiv_pos_as_xyz
  1  'x, y, z'
loop_
 _atom_site_type_symbol
 _atom_site_label
 _atom_site_symmetry_multiplicity
 _atom_site_fract_x
 _atom_site_fract_y
 _atom_site_fract_z
 _atom_site_occupancy
  Er  Er0  1  0.157730  0.750000  0.206034  1
  Er  Er1  1  0.654893  0.250000  0.295513  1
  Er  Er2  1  0.844701  0.250000  0.797330  1
  Er  Er3  1  0.344609  0.750000  0.703029  1
  Er  Er4  1  0.451487  0.750000  0.997381  1
  Er  Er5  1  0.947588  0.250000  0.503074  1
  Er  Er6  1  0.545920  0.250000  0.001970  1
  Er  Er7  1  0.046925  0.750000  0.497072  1
  Er  Er8  1  0.623343  0.750000  0.306037  1
  Er  Er9  1  0.124316  0.250000  0.191903  1
  Er  Er10  1  0.378072  0.250000  0.692746  1
  Er  Er11  1  0.877793  0.750000  0.807735  1
  Er  Er12  1  0.822400  0.963702  0.065593  1
  Er  Er13  1  0.324695  0.032457  0.436363  1
  Er  Er14  1  0.177085  0.463962  0.934619  1
  Er  Er15  1  0.678439  0.539835  0.565410  1
  Er  Er16  1  0.177085  0.036038  0.934619  1
  Er  Er17  1  0.678439  0.960165  0.565410  1
  Er  Er18  1  0.822400  0.536298  0.065593  1
  Er  Er19  1  0.324695  0.467543  0.436363  1
  Fe  Fe20  1  0.428083  0.750000  0.487614  1
  Co  Co21  1  0.934976  0.250000  0.009510  1
  Co  Co22  1  0.567360  0.250000  0.509087  1
  Co  Co23  1  0.066081  0.750000  0.991793  1
  Sb  Sb24  1  0.930211  0.993191  0.327119  1
  Sb  Sb25  1  0.430182  0.008019  0.172197  1
  Sb  Sb26  1  0.069700  0.491463  0.672480  1
  Sb  Sb27  1  0.570350  0.508136  0.827306  1
  Sb  Sb28  1  0.069700  0.008537  0.672480  1
  Sb  Sb29  1  0.570350  0.991864  0.827306  1
  Sb  Sb30  1  0.930211  0.506809  0.327119  1
  Sb  Sb31  1  0.430182  0.491981  0.172197  1
