# generated using pymatgen
data_Ho5Hg4IrPd
_symmetry_space_group_name_H-M   'P 1'
_cell_length_a   3.69000500
_cell_length_b   7.95876227
_cell_length_c   17.83802239
_cell_angle_alpha   90.40496145
_cell_angle_beta   90.00000000
_cell_angle_gamma   90.00000000
_symmetry_Int_Tables_number   1
_chemical_formula_structural   Ho5Hg4IrPd
_chemical_formula_sum   'Ho10 Hg8 Ir2 Pd2'
_cell_volume   523.85168375
_cell_formula_units_Z   2
loop_
 _symmetry_equiv_pos_site_id
 _symmetry_equiv_pos_as_xyz
  1  'x, y, z'
loop_
 _atom_site_type_symbol
 _atom_site_label
 _atom_site_symmetry_multiplicity
 _atom_site_fract_x
 _atom_site_fract_y
 _atom_site_fract_z
 _atom_site_occupancy
  Ho  Ho0  1  0.000000  0.500000  0.500000  1
  Ho  Ho1  1  0.000000  0.000000  0.000000  1
  Ho  Ho2  1  0.000000  0.718405  0.284341  1
  Ho  Ho3  1  0.000000  0.281595  0.715659  1
  Ho  Ho4  1  0.000000  0.753451  0.784989  1
  Ho  Ho5  1  0.000000  0.246549  0.215011  1
  Ho  Ho6  1  0.000000  0.609920  0.088636  1
  Ho  Ho7  1  0.000000  0.390080  0.911364  1
  Ho  Ho8  1  0.000000  0.891031  0.586662  1
  Ho  Ho9  1  0.000000  0.108969  0.413338  1
  Hg  Hg10  1  0.500000  0.711300  0.940085  1
  Hg  Hg11  1  0.500000  0.288700  0.059915  1
  Hg  Hg12  1  0.500000  0.790085  0.439057  1
  Hg  Hg13  1  0.500000  0.209915  0.560943  1
  Hg  Hg14  1  0.500000  0.591461  0.643802  1
  Hg  Hg15  1  0.500000  0.408539  0.356198  1
  Hg  Hg16  1  0.500000  0.915780  0.145912  1
  Hg  Hg17  1  0.500000  0.084220  0.854088  1
  Ir  Ir18  1  0.500000  0.521938  0.197737  1
  Ir  Ir19  1  0.500000  0.478062  0.802263  1
  Pd  Pd20  1  0.500000  0.980536  0.698752  1
  Pd  Pd21  1  0.500000  0.019464  0.301248  1
