# generated using pymatgen
data_Ce3Ho5(CdTc)2
_symmetry_space_group_name_H-M   'P 1'
_cell_length_a   9.68919970
_cell_length_b   9.65933184
_cell_length_c   9.65933232
_cell_angle_alpha   60.20468443
_cell_angle_beta   59.89765927
_cell_angle_gamma   59.89766239
_symmetry_Int_Tables_number   1
_chemical_formula_structural   Ce3Ho5(CdTc)2
_chemical_formula_sum   'Ce6 Ho10 Cd4 Tc4'
_cell_volume   639.23241906
_cell_formula_units_Z   2
loop_
 _symmetry_equiv_pos_site_id
 _symmetry_equiv_pos_as_xyz
  1  'x, y, z'
loop_
 _atom_site_type_symbol
 _atom_site_label
 _atom_site_symmetry_multiplicity
 _atom_site_fract_x
 _atom_site_fract_y
 _atom_site_fract_z
 _atom_site_occupancy
  Ce  Ce0  1  0.355503  0.344258  0.344258  1
  Ce  Ce1  1  0.344258  0.355503  0.955982  1
  Ce  Ce2  1  0.344258  0.955982  0.355503  1
  Ce  Ce3  1  0.955982  0.344258  0.344258  1
  Ce  Ce4  1  0.815410  0.184590  0.184590  1
  Ce  Ce5  1  0.184590  0.815410  0.815410  1
  Ho  Ho6  1  0.191215  0.808785  0.191215  1
  Ho  Ho7  1  0.808785  0.191215  0.808785  1
  Ho  Ho8  1  0.191215  0.191215  0.808785  1
  Ho  Ho9  1  0.808785  0.808785  0.191215  1
  Ho  Ho10  1  0.932868  0.567132  0.567132  1
  Ho  Ho11  1  0.567132  0.932868  0.932868  1
  Ho  Ho12  1  0.562761  0.937239  0.562761  1
  Ho  Ho13  1  0.937239  0.562761  0.937239  1
  Ho  Ho14  1  0.562761  0.562761  0.937239  1
  Ho  Ho15  1  0.937239  0.937239  0.562761  1
  Cd  Cd16  1  0.587441  0.578883  0.578883  1
  Cd  Cd17  1  0.578883  0.587441  0.254794  1
  Cd  Cd18  1  0.578883  0.254794  0.587441  1
  Cd  Cd19  1  0.254794  0.578883  0.578883  1
  Tc  Tc20  1  0.090500  0.165235  0.165235  1
  Tc  Tc21  1  0.165235  0.090500  0.579032  1
  Tc  Tc22  1  0.165235  0.579032  0.090500  1
  Tc  Tc23  1  0.579032  0.165235  0.165235  1
