# generated using pymatgen
data_Y16In3HgIr3Pt
_symmetry_space_group_name_H-M   'P 1'
_cell_length_a   9.70261895
_cell_length_b   9.70261831
_cell_length_c   9.69279344
_cell_angle_alpha   60.04134762
_cell_angle_beta   60.04134757
_cell_angle_gamma   60.10536409
_symmetry_Int_Tables_number   1
_chemical_formula_structural   Y16In3HgIr3Pt
_chemical_formula_sum   'Y16 In3 Hg1 Ir3 Pt1'
_cell_volume   646.14216674
_cell_formula_units_Z   1
loop_
 _symmetry_equiv_pos_site_id
 _symmetry_equiv_pos_as_xyz
  1  'x, y, z'
loop_
 _atom_site_type_symbol
 _atom_site_label
 _atom_site_symmetry_multiplicity
 _atom_site_fract_x
 _atom_site_fract_y
 _atom_site_fract_z
 _atom_site_occupancy
  Y  Y0  1  0.805744  0.188890  0.812441  1
  Y  Y1  1  0.936249  0.563844  0.560558  1
  Y  Y2  1  0.563844  0.936249  0.560558  1
  Y  Y3  1  0.808057  0.191328  0.190638  1
  Y  Y4  1  0.191328  0.808057  0.190638  1
  Y  Y5  1  0.354167  0.945984  0.349772  1
  Y  Y6  1  0.938774  0.938774  0.559895  1
  Y  Y7  1  0.560523  0.940142  0.939258  1
  Y  Y8  1  0.188890  0.805744  0.812441  1
  Y  Y9  1  0.351427  0.351427  0.949094  1
  Y  Y10  1  0.561956  0.561956  0.936203  1
  Y  Y11  1  0.349939  0.349939  0.346388  1
  Y  Y12  1  0.191277  0.191277  0.810757  1
  Y  Y13  1  0.809788  0.809788  0.188164  1
  Y  Y14  1  0.940142  0.560523  0.939258  1
  Y  Y15  1  0.945984  0.354167  0.349772  1
  In  In16  1  0.582018  0.252345  0.582745  1
  In  In17  1  0.582627  0.582627  0.251777  1
  In  In18  1  0.252345  0.582018  0.582745  1
  Hg  Hg19  1  0.586717  0.586717  0.586225  1
  Ir  Ir20  1  0.574711  0.140475  0.141693  1
  Ir  Ir21  1  0.140475  0.574711  0.141693  1
  Ir  Ir22  1  0.142014  0.142014  0.143150  1
  Pt  Pt23  1  0.141007  0.141007  0.574137  1
