# generated using pymatgen
data_Er2HfZr(Al3Ir)6
_symmetry_space_group_name_H-M   'P 1'
_cell_length_a   7.51524547
_cell_length_b   7.50180166
_cell_length_c   9.33521000
_cell_angle_alpha   90.00000000
_cell_angle_beta   90.00000000
_cell_angle_gamma   119.69822678
_symmetry_Int_Tables_number   1
_chemical_formula_structural   Er2HfZr(Al3Ir)6
_chemical_formula_sum   'Er2 Hf1 Zr1 Al18 Ir6'
_cell_volume   457.16827825
_cell_formula_units_Z   1
loop_
 _symmetry_equiv_pos_site_id
 _symmetry_equiv_pos_as_xyz
  1  'x, y, z'
loop_
 _atom_site_type_symbol
 _atom_site_label
 _atom_site_symmetry_multiplicity
 _atom_site_fract_x
 _atom_site_fract_y
 _atom_site_fract_z
 _atom_site_occupancy
  Er  Er0  1  0.671169  0.993674  0.750000  1
  Er  Er1  1  0.328561  0.006438  0.250000  1
  Hf  Hf2  1  0.004636  0.326624  0.250000  1
  Zr  Zr3  1  0.995003  0.671373  0.750000  1
  Al  Al4  1  0.126501  0.125037  0.750000  1
  Al  Al5  1  0.872841  0.874156  0.250000  1
  Al  Al6  1  0.999547  0.336946  0.575645  1
  Al  Al7  1  0.000632  0.662959  0.424294  1
  Al  Al8  1  0.000632  0.662959  0.075706  1
  Al  Al9  1  0.332872  0.998785  0.921515  1
  Al  Al10  1  0.999547  0.336946  0.924355  1
  Al  Al11  1  0.666988  0.001387  0.078925  1
  Al  Al12  1  0.666988  0.001387  0.421075  1
  Al  Al13  1  0.332872  0.998785  0.578485  1
  Al  Al14  1  0.331382  0.333659  0.056384  1
  Al  Al15  1  0.668886  0.666802  0.944394  1
  Al  Al16  1  0.668886  0.666802  0.555606  1
  Al  Al17  1  0.331382  0.333659  0.443616  1
  Al  Al18  1  0.335196  0.548492  0.750000  1
  Al  Al19  1  0.665123  0.451826  0.250000  1
  Al  Al20  1  0.554748  0.344018  0.750000  1
  Al  Al21  1  0.444680  0.655473  0.250000  1
  Ir  Ir22  1  0.672138  0.327251  0.499251  1
  Ir  Ir23  1  0.328044  0.672847  0.500300  1
  Ir  Ir24  1  0.328044  0.672847  0.999700  1
  Ir  Ir25  1  0.672138  0.327251  0.000749  1
  Ir  Ir26  1  0.000281  0.000807  0.499365  1
  Ir  Ir27  1  0.000281  0.000807  0.000635  1
