# generated using pymatgen
data_Tb19YPb16
_symmetry_space_group_name_H-M   'P 1'
_cell_length_a   8.24494800
_cell_length_b   8.32950151
_cell_length_c   15.74390400
_cell_angle_alpha   90.00000000
_cell_angle_beta   90.00000000
_cell_angle_gamma   90.02005816
_symmetry_Int_Tables_number   1
_chemical_formula_structural   Tb19YPb16
_chemical_formula_sum   'Tb19 Y1 Pb16'
_cell_volume   1081.23311538
_cell_formula_units_Z   1
loop_
 _symmetry_equiv_pos_site_id
 _symmetry_equiv_pos_as_xyz
  1  'x, y, z'
loop_
 _atom_site_type_symbol
 _atom_site_label
 _atom_site_symmetry_multiplicity
 _atom_site_fract_x
 _atom_site_fract_y
 _atom_site_fract_z
 _atom_site_occupancy
  Tb  Tb0  1  0.377420  0.840582  0.879694  1
  Tb  Tb1  1  0.877423  0.659427  0.620403  1
  Tb  Tb2  1  0.622511  0.159318  0.379628  1
  Tb  Tb3  1  0.122667  0.340608  0.120379  1
  Tb  Tb4  1  0.622511  0.159318  0.120372  1
  Tb  Tb5  1  0.122667  0.340608  0.379621  1
  Tb  Tb6  1  0.377420  0.840582  0.620306  1
  Tb  Tb7  1  0.877423  0.659427  0.879597  1
  Tb  Tb8  1  0.534490  0.323263  0.899782  1
  Tb  Tb9  1  0.034483  0.176745  0.600141  1
  Tb  Tb10  1  0.465441  0.676848  0.399831  1
  Tb  Tb11  1  0.965544  0.823356  0.100161  1
  Tb  Tb12  1  0.465441  0.676848  0.100169  1
  Tb  Tb13  1  0.965544  0.823356  0.399839  1
  Tb  Tb14  1  0.534490  0.323263  0.600218  1
  Tb  Tb15  1  0.034483  0.176745  0.899859  1
  Tb  Tb16  1  0.209028  0.503683  0.750000  1
  Tb  Tb17  1  0.708996  0.996397  0.750000  1
  Tb  Tb18  1  0.791018  0.496390  0.250000  1
  Y  Y19  1  0.291015  0.003667  0.250000  1
  Pb  Pb20  1  0.280968  0.032612  0.042882  1
  Pb  Pb21  1  0.780966  0.467238  0.457350  1
  Pb  Pb22  1  0.719019  0.967142  0.542609  1
  Pb  Pb23  1  0.218991  0.532793  0.957388  1
  Pb  Pb24  1  0.719019  0.967142  0.957391  1
  Pb  Pb25  1  0.218991  0.532793  0.542612  1
  Pb  Pb26  1  0.280968  0.032612  0.457118  1
  Pb  Pb27  1  0.780966  0.467238  0.042650  1
  Pb  Pb28  1  0.573098  0.625789  0.750000  1
  Pb  Pb29  1  0.073109  0.874266  0.750000  1
  Pb  Pb30  1  0.426824  0.374003  0.250000  1
  Pb  Pb31  1  0.927362  0.125466  0.250000  1
  Pb  Pb32  1  0.345683  0.151668  0.750000  1
  Pb  Pb33  1  0.845771  0.348110  0.750000  1
  Pb  Pb34  1  0.654061  0.848255  0.250000  1
  Pb  Pb35  1  0.154189  0.652446  0.250000  1
