# generated using pymatgen
data_Er3Tm2In2Sb
_symmetry_space_group_name_H-M   'P 1'
_cell_length_a   8.90692800
_cell_length_b   8.90696791
_cell_length_c   6.47366900
_cell_angle_alpha   90.00000000
_cell_angle_beta   90.00000000
_cell_angle_gamma   119.99985178
_symmetry_Int_Tables_number   1
_chemical_formula_structural   Er3Tm2In2Sb
_chemical_formula_sum   'Er6 Tm4 In4 Sb2'
_cell_volume   444.77421273
_cell_formula_units_Z   2
loop_
 _symmetry_equiv_pos_site_id
 _symmetry_equiv_pos_as_xyz
  1  'x, y, z'
loop_
 _atom_site_type_symbol
 _atom_site_label
 _atom_site_symmetry_multiplicity
 _atom_site_fract_x
 _atom_site_fract_y
 _atom_site_fract_z
 _atom_site_occupancy
  Er  Er0  1  0.236645  0.000000  0.250000  1
  Er  Er1  1  0.760338  0.000000  0.750000  1
  Er  Er2  1  0.999741  0.238504  0.250000  1
  Er  Er3  1  0.761237  0.761496  0.250000  1
  Er  Er4  1  0.239190  0.235376  0.750000  1
  Er  Er5  1  0.003814  0.764624  0.750000  1
  Tm  Tm6  1  0.331372  0.665043  0.003573  1
  Tm  Tm7  1  0.666330  0.334957  0.496427  1
  Tm  Tm8  1  0.666330  0.334957  0.003573  1
  Tm  Tm9  1  0.331372  0.665043  0.496427  1
  In  In10  1  0.601975  0.000000  0.250000  1
  In  In11  1  0.401831  0.000000  0.750000  1
  In  In12  1  0.999265  0.604899  0.250000  1
  In  In13  1  0.394366  0.395101  0.250000  1
  Sb  Sb14  1  0.606181  0.606166  0.750000  1
  Sb  Sb15  1  0.000016  0.393834  0.750000  1
