# generated using pymatgen
data_Ba2MnSeS2
_symmetry_space_group_name_H-M   'P 1'
_cell_length_a   4.45121200
_cell_length_b   8.95312900
_cell_length_c   17.44484400
_cell_angle_alpha   90.00000000
_cell_angle_beta   90.00000000
_cell_angle_gamma   90.00000000
_symmetry_Int_Tables_number   1
_chemical_formula_structural   Ba2MnSeS2
_chemical_formula_sum   'Ba8 Mn4 Se4 S8'
_cell_volume   695.21672465
_cell_formula_units_Z   4
loop_
 _symmetry_equiv_pos_site_id
 _symmetry_equiv_pos_as_xyz
  1  'x, y, z'
loop_
 _atom_site_type_symbol
 _atom_site_label
 _atom_site_symmetry_multiplicity
 _atom_site_fract_x
 _atom_site_fract_y
 _atom_site_fract_z
 _atom_site_occupancy
  Ba  Ba0  1  0.250000  0.265977  0.543036  1
  Ba  Ba1  1  0.250000  0.765977  0.956964  1
  Ba  Ba2  1  0.750000  0.734023  0.456964  1
  Ba  Ba3  1  0.750000  0.234023  0.043036  1
  Ba  Ba4  1  0.250000  0.416176  0.285646  1
  Ba  Ba5  1  0.250000  0.916176  0.214354  1
  Ba  Ba6  1  0.750000  0.583824  0.714354  1
  Ba  Ba7  1  0.750000  0.083824  0.785646  1
  Mn  Mn8  1  0.250000  0.366875  0.864768  1
  Mn  Mn9  1  0.250000  0.866875  0.635232  1
  Mn  Mn10  1  0.750000  0.633125  0.135232  1
  Mn  Mn11  1  0.750000  0.133125  0.364768  1
  Se  Se12  1  0.250000  0.999873  0.400581  1
  Se  Se13  1  0.250000  0.499873  0.099419  1
  Se  Se14  1  0.750000  0.000127  0.599419  1
  Se  Se15  1  0.750000  0.500127  0.900581  1
  S  S16  1  0.250000  0.128655  0.926126  1
  S  S17  1  0.250000  0.628655  0.573874  1
  S  S18  1  0.750000  0.871345  0.073874  1
  S  S19  1  0.750000  0.371345  0.426126  1
  S  S20  1  0.250000  0.322319  0.729696  1
  S  S21  1  0.250000  0.822319  0.770304  1
  S  S22  1  0.750000  0.677681  0.270304  1
  S  S23  1  0.750000  0.177681  0.229696  1
