# generated using pymatgen
data_Ce3MgNi(SnIr)2
_symmetry_space_group_name_H-M   'P 1'
_cell_length_a   7.46435361
_cell_length_b   7.43964959
_cell_length_c   4.00361600
_cell_angle_alpha   90.00000000
_cell_angle_beta   90.00000000
_cell_angle_gamma   119.89057262
_symmetry_Int_Tables_number   1
_chemical_formula_structural   Ce3MgNi(SnIr)2
_chemical_formula_sum   'Ce3 Mg1 Ni1 Sn2 Ir2'
_cell_volume   192.75495850
_cell_formula_units_Z   1
loop_
 _symmetry_equiv_pos_site_id
 _symmetry_equiv_pos_as_xyz
  1  'x, y, z'
loop_
 _atom_site_type_symbol
 _atom_site_label
 _atom_site_symmetry_multiplicity
 _atom_site_fract_x
 _atom_site_fract_y
 _atom_site_fract_z
 _atom_site_occupancy
  Ce  Ce0  1  0.416096  0.418022  0.000000  1
  Ce  Ce1  1  0.583904  0.001926  0.000000  1
  Ce  Ce2  1  0.000000  0.583039  0.000000  1
  Mg  Mg3  1  0.000000  0.242011  0.500000  1
  Ni  Ni4  1  0.000000  0.995070  0.000000  1
  Sn  Sn5  1  0.757620  0.761419  0.500000  1
  Sn  Sn6  1  0.242380  0.003799  0.500000  1
  Ir  Ir7  1  0.669920  0.332316  0.500000  1
  Ir  Ir8  1  0.330080  0.662398  0.500000  1
