# generated using pymatgen
data_Yb2SmHg3PdPt2
_symmetry_space_group_name_H-M   'P 1'
_cell_length_a   7.66193899
_cell_length_b   7.66193786
_cell_length_c   3.94242400
_cell_angle_alpha   90.00000000
_cell_angle_beta   90.00000000
_cell_angle_gamma   119.67407195
_symmetry_Int_Tables_number   1
_chemical_formula_structural   Yb2SmHg3PdPt2
_chemical_formula_sum   'Yb2 Sm1 Hg3 Pd1 Pt2'
_cell_volume   201.08897830
_cell_formula_units_Z   1
loop_
 _symmetry_equiv_pos_site_id
 _symmetry_equiv_pos_as_xyz
  1  'x, y, z'
loop_
 _atom_site_type_symbol
 _atom_site_label
 _atom_site_symmetry_multiplicity
 _atom_site_fract_x
 _atom_site_fract_y
 _atom_site_fract_z
 _atom_site_occupancy
  Yb  Yb0  1  0.599920  0.000199  0.500000  1
  Yb  Yb1  1  0.000199  0.599920  0.500000  1
  Sm  Sm2  1  0.403644  0.403644  0.500000  1
  Hg  Hg3  1  0.261998  0.991417  0.000000  1
  Hg  Hg4  1  0.744566  0.744566  0.000000  1
  Hg  Hg5  1  0.991417  0.261998  0.000000  1
  Pd  Pd6  1  0.003772  0.003772  0.500000  1
  Pt  Pt7  1  0.660800  0.333685  0.000000  1
  Pt  Pt8  1  0.333685  0.660800  0.000000  1
