# generated using pymatgen
data_Ho5V3(P3Ir4)4
_symmetry_space_group_name_H-M   'P 1'
_cell_length_a   12.67842700
_cell_length_b   12.67842687
_cell_length_c   3.95469300
_cell_angle_alpha   90.00000000
_cell_angle_beta   90.00000000
_cell_angle_gamma   119.99999773
_symmetry_Int_Tables_number   1
_chemical_formula_structural   Ho5V3(P3Ir4)4
_chemical_formula_sum   'Ho5 V3 P12 Ir16'
_cell_volume   550.52134357
_cell_formula_units_Z   1
loop_
 _symmetry_equiv_pos_site_id
 _symmetry_equiv_pos_as_xyz
  1  'x, y, z'
loop_
 _atom_site_type_symbol
 _atom_site_label
 _atom_site_symmetry_multiplicity
 _atom_site_fract_x
 _atom_site_fract_y
 _atom_site_fract_z
 _atom_site_occupancy
  Ho  Ho0  1  0.333333  0.666667  0.500000  1
  Ho  Ho1  1  0.666667  0.333333  0.500000  1
  Ho  Ho2  1  0.000000  0.811477  0.000000  1
  Ho  Ho3  1  0.188523  0.188523  0.000000  1
  Ho  Ho4  1  0.811477  0.000000  0.000000  1
  V  V5  1  0.000000  0.450997  0.500000  1
  V  V6  1  0.549003  0.549003  0.500000  1
  V  V7  1  0.450997  0.000000  0.500000  1
  P  P8  1  0.000000  0.636146  0.500000  1
  P  P9  1  0.363854  0.363854  0.500000  1
  P  P10  1  0.636146  0.000000  0.500000  1
  P  P11  1  0.516503  0.683700  0.000000  1
  P  P12  1  0.316300  0.832802  0.000000  1
  P  P13  1  0.167198  0.483497  0.000000  1
  P  P14  1  0.483497  0.167198  0.000000  1
  P  P15  1  0.683700  0.516503  0.000000  1
  P  P16  1  0.832802  0.316300  0.000000  1
  P  P17  1  0.000000  0.177017  0.500000  1
  P  P18  1  0.822983  0.822983  0.500000  1
  P  P19  1  0.177017  0.000000  0.500000  1
  Ir  Ir20  1  0.509300  0.867235  0.000000  1
  Ir  Ir21  1  0.132765  0.642065  0.000000  1
  Ir  Ir22  1  0.357935  0.490700  0.000000  1
  Ir  Ir23  1  0.490700  0.357935  0.000000  1
  Ir  Ir24  1  0.867235  0.509300  0.000000  1
  Ir  Ir25  1  0.642065  0.132765  0.000000  1
  Ir  Ir26  1  0.000000  0.285171  0.000000  1
  Ir  Ir27  1  0.714829  0.714829  0.000000  1
  Ir  Ir28  1  0.285171  0.000000  0.000000  1
  Ir  Ir29  1  0.625484  0.804211  0.500000  1
  Ir  Ir30  1  0.195789  0.821273  0.500000  1
  Ir  Ir31  1  0.178727  0.374516  0.500000  1
  Ir  Ir32  1  0.374516  0.178727  0.500000  1
  Ir  Ir33  1  0.804211  0.625484  0.500000  1
  Ir  Ir34  1  0.821273  0.195789  0.500000  1
  Ir  Ir35  1  0.000000  0.000000  0.500000  1
