# generated using pymatgen
data_DyPa3(InRh2)2
_symmetry_space_group_name_H-M   'P 1'
_cell_length_a   7.70854545
_cell_length_b   7.70854569
_cell_length_c   3.61430000
_cell_angle_alpha   90.00000000
_cell_angle_beta   90.00000000
_cell_angle_gamma   92.28245252
_symmetry_Int_Tables_number   1
_chemical_formula_structural   DyPa3(InRh2)2
_chemical_formula_sum   'Dy1 Pa3 In2 Rh4'
_cell_volume   214.59737094
_cell_formula_units_Z   1
loop_
 _symmetry_equiv_pos_site_id
 _symmetry_equiv_pos_as_xyz
  1  'x, y, z'
loop_
 _atom_site_type_symbol
 _atom_site_label
 _atom_site_symmetry_multiplicity
 _atom_site_fract_x
 _atom_site_fract_y
 _atom_site_fract_z
 _atom_site_occupancy
  Dy  Dy0  1  0.170466  0.329534  0.500000  1
  Pa  Pa1  1  0.668416  0.171714  0.500000  1
  Pa  Pa2  1  0.328286  0.831584  0.500000  1
  Pa  Pa3  1  0.831120  0.668880  0.500000  1
  In  In4  1  0.491124  0.498752  0.000000  1
  In  In5  1  0.001248  0.008876  0.000000  1
  Rh  Rh6  1  0.386033  0.113967  0.000000  1
  Rh  Rh7  1  0.643437  0.856563  0.000000  1
  Rh  Rh8  1  0.850814  0.370946  0.000000  1
  Rh  Rh9  1  0.129054  0.649186  0.000000  1
