# generated using pymatgen
data_Pr8MgAgIr2
_symmetry_space_group_name_H-M   'P 1'
_cell_length_a   10.02655494
_cell_length_b   10.02655453
_cell_length_c   10.03234900
_cell_angle_alpha   59.98087768
_cell_angle_beta   59.98087902
_cell_angle_gamma   60.39297880
_symmetry_Int_Tables_number   1
_chemical_formula_structural   Pr8MgAgIr2
_chemical_formula_sum   'Pr16 Mg2 Ag2 Ir4'
_cell_volume   715.05262455
_cell_formula_units_Z   2
loop_
 _symmetry_equiv_pos_site_id
 _symmetry_equiv_pos_as_xyz
  1  'x, y, z'
loop_
 _atom_site_type_symbol
 _atom_site_label
 _atom_site_symmetry_multiplicity
 _atom_site_fract_x
 _atom_site_fract_y
 _atom_site_fract_z
 _atom_site_occupancy
  Pr  Pr0  1  0.347305  0.347305  0.346507  1
  Pr  Pr1  1  0.347305  0.347305  0.958885  1
  Pr  Pr2  1  0.348415  0.955116  0.348235  1
  Pr  Pr3  1  0.955116  0.348415  0.348235  1
  Pr  Pr4  1  0.810317  0.188890  0.189917  1
  Pr  Pr5  1  0.188890  0.810317  0.810876  1
  Pr  Pr6  1  0.188890  0.810317  0.189917  1
  Pr  Pr7  1  0.810317  0.188890  0.810876  1
  Pr  Pr8  1  0.189012  0.189012  0.810988  1
  Pr  Pr9  1  0.806364  0.806364  0.193636  1
  Pr  Pr10  1  0.935193  0.561666  0.562660  1
  Pr  Pr11  1  0.561666  0.935193  0.940480  1
  Pr  Pr12  1  0.561666  0.935193  0.562660  1
  Pr  Pr13  1  0.935193  0.561666  0.940480  1
  Pr  Pr14  1  0.561146  0.561146  0.938854  1
  Pr  Pr15  1  0.937235  0.937235  0.562765  1
  Mg  Mg16  1  0.579683  0.274851  0.572733  1
  Mg  Mg17  1  0.274851  0.579683  0.572733  1
  Ag  Ag18  1  0.580379  0.580379  0.583234  1
  Ag  Ag19  1  0.580379  0.580379  0.256008  1
  Ir  Ir20  1  0.141645  0.141645  0.141069  1
  Ir  Ir21  1  0.141645  0.141645  0.575640  1
  Ir  Ir22  1  0.141437  0.575951  0.141306  1
  Ir  Ir23  1  0.575951  0.141437  0.141306  1
