# generated using pymatgen
data_La10Nd6Cd4Co3Pd
_symmetry_space_group_name_H-M   'P 1'
_cell_length_a   9.97770173
_cell_length_b   9.98349823
_cell_length_c   9.98349900
_cell_angle_alpha   60.00000076
_cell_angle_beta   59.98078138
_cell_angle_gamma   59.98078597
_symmetry_Int_Tables_number   1
_chemical_formula_structural   La10Nd6Cd4Co3Pd
_chemical_formula_sum   'La10 Nd6 Cd4 Co3 Pd1'
_cell_volume   702.99921796
_cell_formula_units_Z   1
loop_
 _symmetry_equiv_pos_site_id
 _symmetry_equiv_pos_as_xyz
  1  'x, y, z'
loop_
 _atom_site_type_symbol
 _atom_site_label
 _atom_site_symmetry_multiplicity
 _atom_site_fract_x
 _atom_site_fract_y
 _atom_site_fract_z
 _atom_site_occupancy
  La  La0  1  0.335951  0.351845  0.351845  1
  La  La1  1  0.335951  0.351845  0.960360  1
  La  La2  1  0.335951  0.960360  0.351845  1
  La  La3  1  0.966393  0.344536  0.344536  1
  La  La4  1  0.821075  0.191237  0.191237  1
  La  La5  1  0.191173  0.810144  0.810144  1
  La  La6  1  0.191173  0.810144  0.188539  1
  La  La7  1  0.821075  0.191237  0.796451  1
  La  La8  1  0.191173  0.188539  0.810144  1
  La  La9  1  0.821075  0.796451  0.191237  1
  Nd  Nd10  1  0.933820  0.565217  0.565217  1
  Nd  Nd11  1  0.564111  0.935665  0.935665  1
  Nd  Nd12  1  0.564111  0.935665  0.564561  1
  Nd  Nd13  1  0.933820  0.565217  0.935746  1
  Nd  Nd14  1  0.564111  0.564561  0.935665  1
  Nd  Nd15  1  0.933820  0.935746  0.565217  1
  Cd  Cd16  1  0.580266  0.579288  0.579288  1
  Cd  Cd17  1  0.580266  0.579288  0.261157  1
  Cd  Cd18  1  0.580266  0.261157  0.579288  1
  Cd  Cd19  1  0.259687  0.580104  0.580104  1
  Co  Co20  1  0.138822  0.140786  0.140786  1
  Co  Co21  1  0.138822  0.140786  0.579605  1
  Co  Co22  1  0.138822  0.579605  0.140786  1
  Pd  Pd23  1  0.578271  0.140576  0.140576  1
