# generated using pymatgen
data_Y2Er3Co2
_symmetry_space_group_name_H-M   'P 1'
_cell_length_a   6.23821722
_cell_length_b   6.90876766
_cell_length_c   8.46451281
_cell_angle_alpha   96.57333158
_cell_angle_beta   111.62267035
_cell_angle_gamma   90.00000164
_symmetry_Int_Tables_number   1
_chemical_formula_structural   Y2Er3Co2
_chemical_formula_sum   'Y4 Er6 Co4'
_cell_volume   336.55465798
_cell_formula_units_Z   2
loop_
 _symmetry_equiv_pos_site_id
 _symmetry_equiv_pos_as_xyz
  1  'x, y, z'
loop_
 _atom_site_type_symbol
 _atom_site_label
 _atom_site_symmetry_multiplicity
 _atom_site_fract_x
 _atom_site_fract_y
 _atom_site_fract_z
 _atom_site_occupancy
  Y  Y0  1  0.791003  0.585077  0.809189  1
  Y  Y1  1  0.981813  0.914923  0.190811  1
  Y  Y2  1  0.208997  0.414923  0.190811  1
  Y  Y3  1  0.018187  0.085077  0.809189  1
  Er  Er4  1  0.211330  0.684614  0.567236  1
  Er  Er5  1  0.644094  0.815386  0.432764  1
  Er  Er6  1  0.788670  0.315386  0.432764  1
  Er  Er7  1  0.355906  0.184614  0.567236  1
  Er  Er8  1  0.426532  0.750000  0.000000  1
  Er  Er9  1  0.573468  0.250000  0.000000  1
  Co  Co10  1  0.594582  0.927877  0.777533  1
  Co  Co11  1  0.817047  0.572123  0.222467  1
  Co  Co12  1  0.405418  0.072123  0.222467  1
  Co  Co13  1  0.182953  0.427877  0.777533  1
