# generated using pymatgen
data_Bi3Pt4AuO14
_symmetry_space_group_name_H-M   'P 1'
_cell_length_a   7.46587216
_cell_length_b   7.31389936
_cell_length_c   7.46587300
_cell_angle_alpha   59.31023545
_cell_angle_beta   60.00000072
_cell_angle_gamma   59.31023257
_symmetry_Int_Tables_number   1
_chemical_formula_structural   Bi3Pt4AuO14
_chemical_formula_sum   'Bi3 Pt4 Au1 O14'
_cell_volume   285.22506734
_cell_formula_units_Z   1
loop_
 _symmetry_equiv_pos_site_id
 _symmetry_equiv_pos_as_xyz
  1  'x, y, z'
loop_
 _atom_site_type_symbol
 _atom_site_label
 _atom_site_symmetry_multiplicity
 _atom_site_fract_x
 _atom_site_fract_y
 _atom_site_fract_z
 _atom_site_occupancy
  Bi  Bi0  1  0.125000  0.125000  0.625000  1
  Bi  Bi1  1  0.625000  0.125000  0.125000  1
  Bi  Bi2  1  0.125000  0.125000  0.125000  1
  Pt  Pt3  1  0.625000  0.625000  0.125000  1
  Pt  Pt4  1  0.625000  0.125000  0.625000  1
  Pt  Pt5  1  0.125000  0.625000  0.625000  1
  Pt  Pt6  1  0.625000  0.625000  0.625000  1
  Au  Au7  1  0.125000  0.625000  0.125000  1
  O  O8  1  0.239951  0.280146  0.239951  1
  O  O9  1  0.010049  0.969854  0.010049  1
  O  O10  1  0.539164  0.963481  0.539164  1
  O  O11  1  0.296317  0.707674  0.296317  1
  O  O12  1  0.550308  0.542326  0.953683  1
  O  O13  1  0.953683  0.542326  0.550308  1
  O  O14  1  0.539164  0.963481  0.958190  1
  O  O15  1  0.958190  0.963481  0.539164  1
  O  O16  1  0.953683  0.542326  0.953683  1
  O  O17  1  0.710836  0.286519  0.291810  1
  O  O18  1  0.296317  0.707674  0.699692  1
  O  O19  1  0.710836  0.286519  0.710836  1
  O  O20  1  0.291810  0.286519  0.710836  1
  O  O21  1  0.699692  0.707674  0.296317  1
