# generated using pymatgen
data_Ba5NdOs3O16
_symmetry_space_group_name_H-M   'P 1'
_cell_length_a   6.07605118
_cell_length_b   6.08895162
_cell_length_c   10.77919568
_cell_angle_alpha   93.33699077
_cell_angle_beta   93.21736326
_cell_angle_gamma   90.08041369
_symmetry_Int_Tables_number   1
_chemical_formula_structural   Ba5NdOs3O16
_chemical_formula_sum   'Ba5 Nd1 Os3 O16'
_cell_volume   397.48749028
_cell_formula_units_Z   1
loop_
 _symmetry_equiv_pos_site_id
 _symmetry_equiv_pos_as_xyz
  1  'x, y, z'
loop_
 _atom_site_type_symbol
 _atom_site_label
 _atom_site_symmetry_multiplicity
 _atom_site_fract_x
 _atom_site_fract_y
 _atom_site_fract_z
 _atom_site_occupancy
  Ba  Ba0  1  0.511129  0.027053  0.208900  1
  Ba  Ba1  1  0.028678  0.506312  0.210743  1
  Ba  Ba2  1  0.999975  0.000024  0.499999  1
  Ba  Ba3  1  0.971221  0.493682  0.789244  1
  Ba  Ba4  1  0.488879  0.972932  0.791087  1
  Nd  Nd5  1  0.499991  0.500004  0.000001  1
  Os  Os6  1  0.000007  0.000006  0.000003  1
  Os  Os7  1  0.560659  0.560464  0.395865  1
  Os  Os8  1  0.439372  0.439430  0.604184  1
  O  O9  1  0.743968  0.199819  0.001641  1
  O  O10  1  0.803340  0.748705  0.021272  1
  O  O11  1  0.043454  0.045438  0.170814  1
  O  O12  1  0.478381  0.477126  0.211884  1
  O  O13  1  0.760769  0.761053  0.334657  1
  O  O14  1  0.319916  0.747618  0.378453  1
  O  O15  1  0.750495  0.321780  0.378894  1
  O  O16  1  0.328156  0.326297  0.437722  1
  O  O17  1  0.671871  0.673765  0.562287  1
  O  O18  1  0.249478  0.678248  0.621095  1
  O  O19  1  0.680194  0.252314  0.621570  1
  O  O20  1  0.239250  0.238986  0.665322  1
  O  O21  1  0.521577  0.522906  0.788084  1
  O  O22  1  0.956537  0.954553  0.829214  1
  O  O23  1  0.196657  0.251284  0.978725  1
  O  O24  1  0.256043  0.800189  0.998352  1
