# generated using pymatgen
data_Ho8Ti10ReSi16Rh
_symmetry_space_group_name_H-M   'P 1'
_cell_length_a   7.00246769
_cell_length_b   6.99278532
_cell_length_c   12.81601408
_cell_angle_alpha   90.14195613
_cell_angle_beta   89.84563892
_cell_angle_gamma   89.71525529
_symmetry_Int_Tables_number   1
_chemical_formula_structural   Ho8Ti10ReSi16Rh
_chemical_formula_sum   'Ho8 Ti10 Re1 Si16 Rh1'
_cell_volume   627.54662492
_cell_formula_units_Z   1
loop_
 _symmetry_equiv_pos_site_id
 _symmetry_equiv_pos_as_xyz
  1  'x, y, z'
loop_
 _atom_site_type_symbol
 _atom_site_label
 _atom_site_symmetry_multiplicity
 _atom_site_fract_x
 _atom_site_fract_y
 _atom_site_fract_z
 _atom_site_occupancy
  Ho  Ho0  1  0.340548  0.000645  0.466567  1
  Ho  Ho1  1  0.496784  0.841742  0.719142  1
  Ho  Ho2  1  0.500652  0.157663  0.215982  1
  Ho  Ho3  1  0.842934  0.499045  0.280665  1
  Ho  Ho4  1  0.156759  0.501874  0.784040  1
  Ho  Ho5  1  0.656663  0.999454  0.969390  1
  Ho  Ho6  1  0.002735  0.338546  0.531044  1
  Ho  Ho7  1  0.999855  0.658871  0.033014  1
  Ti  Ti8  1  0.826612  0.175064  0.752129  1
  Ti  Ti9  1  0.671854  0.672577  0.498231  1
  Ti  Ti10  1  0.150532  0.002315  0.877748  1
  Ti  Ti11  1  0.496252  0.656459  0.127237  1
  Ti  Ti12  1  0.507651  0.350738  0.628345  1
  Ti  Ti13  1  0.657129  0.494532  0.873335  1
  Ti  Ti14  1  0.348812  0.504659  0.371454  1
  Ti  Ti15  1  0.847352  0.992383  0.373728  1
  Ti  Ti16  1  0.003723  0.150343  0.124279  1
  Ti  Ti17  1  0.995402  0.850628  0.623400  1
  Re  Re18  1  0.173670  0.826500  0.248153  1
  Si  Si19  1  0.203125  0.132579  0.685742  1
  Si  Si20  1  0.372018  0.698767  0.935852  1
  Si  Si21  1  0.631369  0.295231  0.433633  1
  Si  Si22  1  0.704201  0.373301  0.065886  1
  Si  Si23  1  0.296333  0.630550  0.565485  1
  Si  Si24  1  0.800177  0.869702  0.183173  1
  Si  Si25  1  0.131108  0.197479  0.315306  1
  Si  Si26  1  0.866499  0.798918  0.815578  1
  Si  Si27  1  0.287427  0.947158  0.065514  1
  Si  Si28  1  0.544389  0.790397  0.315499  1
  Si  Si29  1  0.447773  0.210859  0.818981  1
  Si  Si30  1  0.792155  0.549196  0.683642  1
  Si  Si31  1  0.211317  0.450851  0.182409  1
  Si  Si32  1  0.708305  0.048140  0.565357  1
  Si  Si33  1  0.950293  0.287199  0.936851  1
  Si  Si34  1  0.049893  0.708625  0.432114  1
  Rh  Rh35  1  0.327697  0.337011  0.001097  1
