# generated using pymatgen
data_Ta3Cr2ReSi3
_symmetry_space_group_name_H-M   'P 1'
_cell_length_a   6.69983922
_cell_length_b   6.74774424
_cell_length_c   3.30784700
_cell_angle_alpha   90.00000000
_cell_angle_beta   90.00000000
_cell_angle_gamma   120.23680778
_symmetry_Int_Tables_number   1
_chemical_formula_structural   Ta3Cr2ReSi3
_chemical_formula_sum   'Ta3 Cr2 Re1 Si3'
_cell_volume   129.19858535
_cell_formula_units_Z   1
loop_
 _symmetry_equiv_pos_site_id
 _symmetry_equiv_pos_as_xyz
  1  'x, y, z'
loop_
 _atom_site_type_symbol
 _atom_site_label
 _atom_site_symmetry_multiplicity
 _atom_site_fract_x
 _atom_site_fract_y
 _atom_site_fract_z
 _atom_site_occupancy
  Ta  Ta0  1  0.408718  0.405056  0.500000  1
  Ta  Ta1  1  0.591282  0.996338  0.500000  1
  Ta  Ta2  1  0.000000  0.605730  0.500000  1
  Cr  Cr3  1  0.743232  0.743830  0.000000  1
  Cr  Cr4  1  0.256768  0.000598  0.000000  1
  Re  Re5  1  0.000000  0.254161  0.000000  1
  Si  Si6  1  0.665206  0.334077  0.000000  1
  Si  Si7  1  0.334794  0.668872  0.000000  1
  Si  Si8  1  0.000000  0.991338  0.500000  1
