# generated using pymatgen
data_Y6ErTm13(Cd3Rh)2
_symmetry_space_group_name_H-M   'P 1'
_cell_length_a   9.57373010
_cell_length_b   9.57372984
_cell_length_c   9.70489800
_cell_angle_alpha   89.99376086
_cell_angle_beta   90.00623884
_cell_angle_gamma   120.00164808
_symmetry_Int_Tables_number   1
_chemical_formula_structural   Y6ErTm13(Cd3Rh)2
_chemical_formula_sum   'Y6 Er1 Tm13 Cd6 Rh2'
_cell_volume   770.32987097
_cell_formula_units_Z   1
loop_
 _symmetry_equiv_pos_site_id
 _symmetry_equiv_pos_as_xyz
  1  'x, y, z'
loop_
 _atom_site_type_symbol
 _atom_site_label
 _atom_site_symmetry_multiplicity
 _atom_site_fract_x
 _atom_site_fract_y
 _atom_site_fract_z
 _atom_site_occupancy
  Y  Y0  1  0.540865  0.459135  0.250056  1
  Y  Y1  1  0.541053  0.081943  0.249916  1
  Y  Y2  1  0.918057  0.458947  0.249916  1
  Y  Y3  1  0.459070  0.540930  0.750004  1
  Y  Y4  1  0.459152  0.918230  0.750106  1
  Y  Y5  1  0.081770  0.540848  0.750106  1
  Er  Er6  1  0.209306  0.790694  0.440559  1
  Tm  Tm7  1  0.999852  0.000148  0.500043  1
  Tm  Tm8  1  0.000012  0.999988  0.000069  1
  Tm  Tm9  1  0.209335  0.418397  0.440766  1
  Tm  Tm10  1  0.581603  0.790665  0.440766  1
  Tm  Tm11  1  0.790637  0.209363  0.559291  1
  Tm  Tm12  1  0.790547  0.581295  0.559353  1
  Tm  Tm13  1  0.418705  0.209453  0.559353  1
  Tm  Tm14  1  0.790657  0.209343  0.940720  1
  Tm  Tm15  1  0.790652  0.581303  0.940709  1
  Tm  Tm16  1  0.418697  0.209348  0.940709  1
  Tm  Tm17  1  0.209292  0.790708  0.059064  1
  Tm  Tm18  1  0.209375  0.418694  0.059298  1
  Tm  Tm19  1  0.581306  0.790625  0.059298  1
  Cd  Cd20  1  0.886189  0.113811  0.250016  1
  Cd  Cd21  1  0.886072  0.772349  0.249993  1
  Cd  Cd22  1  0.227651  0.113928  0.249993  1
  Cd  Cd23  1  0.113768  0.886232  0.750123  1
  Cd  Cd24  1  0.113801  0.227631  0.750022  1
  Cd  Cd25  1  0.772369  0.886199  0.750022  1
  Rh  Rh26  1  0.333559  0.666441  0.249637  1
  Rh  Rh27  1  0.666647  0.333353  0.750096  1
