# generated using pymatgen
data_Nd8Si(Pd3Pt)6
_symmetry_space_group_name_H-M   'P 1'
_cell_length_a   8.47789800
_cell_length_b   8.47858400
_cell_length_c   8.48706700
_cell_angle_alpha   90.00000000
_cell_angle_beta   90.00104021
_cell_angle_gamma   90.00000000
_symmetry_Int_Tables_number   1
_chemical_formula_structural   Nd8Si(Pd3Pt)6
_chemical_formula_sum   'Nd8 Si1 Pd18 Pt6'
_cell_volume   610.05521639
_cell_formula_units_Z   1
loop_
 _symmetry_equiv_pos_site_id
 _symmetry_equiv_pos_as_xyz
  1  'x, y, z'
loop_
 _atom_site_type_symbol
 _atom_site_label
 _atom_site_symmetry_multiplicity
 _atom_site_fract_x
 _atom_site_fract_y
 _atom_site_fract_z
 _atom_site_occupancy
  Nd  Nd0  1  0.252377  0.252663  0.252685  1
  Nd  Nd1  1  0.746974  0.747045  0.746760  1
  Nd  Nd2  1  0.747521  0.747607  0.252427  1
  Nd  Nd3  1  0.746974  0.252955  0.746760  1
  Nd  Nd4  1  0.252951  0.253211  0.746466  1
  Nd  Nd5  1  0.252377  0.747337  0.252685  1
  Nd  Nd6  1  0.252951  0.746789  0.746466  1
  Nd  Nd7  1  0.747521  0.252393  0.252427  1
  Si  Si8  1  0.000408  0.000000  0.006400  1
  Pd  Pd9  1  0.258081  0.500000  0.999789  1
  Pd  Pd10  1  0.741535  0.500000  0.999811  1
  Pd  Pd11  1  0.000037  0.259200  0.499843  1
  Pd  Pd12  1  0.500192  0.258093  0.999806  1
  Pd  Pd13  1  0.000037  0.740800  0.499843  1
  Pd  Pd14  1  0.500192  0.741907  0.999806  1
  Pd  Pd15  1  0.500208  0.000000  0.257470  1
  Pd  Pd16  1  0.258935  0.000000  0.499846  1
  Pd  Pd17  1  0.500191  0.000000  0.740741  1
  Pd  Pd18  1  0.740672  0.000000  0.499894  1
  Pd  Pd19  1  0.000008  0.500000  0.257665  1
  Pd  Pd20  1  0.000025  0.500000  0.740545  1
  Pd  Pd21  1  0.746909  0.500000  0.499966  1
  Pd  Pd22  1  0.499951  0.253437  0.499943  1
  Pd  Pd23  1  0.499951  0.746563  0.499943  1
  Pd  Pd24  1  0.499931  0.500000  0.253788  1
  Pd  Pd25  1  0.499991  0.500000  0.746589  1
  Pd  Pd26  1  0.999801  0.000000  0.720256  1
  Pt  Pt27  1  0.253257  0.500000  0.499829  1
  Pt  Pt28  1  0.281682  0.000000  0.998581  1
  Pt  Pt29  1  0.718875  0.000000  0.998569  1
  Pt  Pt30  1  0.999837  0.281277  0.998584  1
  Pt  Pt31  1  0.999837  0.718723  0.998584  1
  Pt  Pt32  1  0.999810  0.000000  0.287232  1
