# generated using pymatgen
data_La13Sm7Si15Ge
_symmetry_space_group_name_H-M   'P 1'
_cell_length_a   7.98924826
_cell_length_b   7.98381517
_cell_length_c   15.11167109
_cell_angle_alpha   90.19239315
_cell_angle_beta   89.99355657
_cell_angle_gamma   89.98283941
_symmetry_Int_Tables_number   1
_chemical_formula_structural   La13Sm7Si15Ge
_chemical_formula_sum   'La13 Sm7 Si15 Ge1'
_cell_volume   963.88764386
_cell_formula_units_Z   1
loop_
 _symmetry_equiv_pos_site_id
 _symmetry_equiv_pos_as_xyz
  1  'x, y, z'
loop_
 _atom_site_type_symbol
 _atom_site_label
 _atom_site_symmetry_multiplicity
 _atom_site_fract_x
 _atom_site_fract_y
 _atom_site_fract_z
 _atom_site_occupancy
  La  La0  1  0.130714  0.987367  0.875840  1
  La  La1  1  0.990319  0.625930  0.050311  1
  La  La2  1  0.010169  0.372119  0.548568  1
  La  La3  1  0.629161  0.987345  0.952921  1
  La  La4  1  0.127592  0.510998  0.798020  1
  La  La5  1  0.869419  0.486763  0.295933  1
  La  La6  1  0.510914  0.127657  0.202508  1
  La  La7  1  0.490310  0.874353  0.700272  1
  La  La8  1  0.372967  0.012723  0.451871  1
  La  La9  1  0.683976  0.689909  0.500036  1
  La  La10  1  0.815709  0.186454  0.751269  1
  La  La11  1  0.189281  0.812592  0.249359  1
  La  La12  1  0.306873  0.307776  0.997836  1
  Sm  Sm13  1  0.369157  0.488268  0.374988  1
  Sm  Sm14  1  0.867029  0.014629  0.373675  1
  Sm  Sm15  1  0.985545  0.132443  0.126751  1
  Sm  Sm16  1  0.012287  0.867915  0.624555  1
  Sm  Sm17  1  0.631573  0.513427  0.875248  1
  Sm  Sm18  1  0.489924  0.368709  0.623722  1
  Sm  Sm19  1  0.512787  0.629658  0.126211  1
  Si  Si20  1  0.917723  0.290987  0.943939  1
  Si  Si21  1  0.713629  0.079285  0.557310  1
  Si  Si22  1  0.213443  0.421783  0.192577  1
  Si  Si23  1  0.787564  0.575256  0.690885  1
  Si  Si24  1  0.425436  0.216482  0.805358  1
  Si  Si25  1  0.577637  0.787680  0.308067  1
  Si  Si26  1  0.292567  0.921616  0.060197  1
  Si  Si27  1  0.834401  0.795654  0.801645  1
  Si  Si28  1  0.161465  0.203879  0.305194  1
  Si  Si29  1  0.797858  0.837497  0.195486  1
  Si  Si30  1  0.299720  0.661525  0.557037  1
  Si  Si31  1  0.700950  0.338912  0.056467  1
  Si  Si32  1  0.661823  0.298161  0.444129  1
  Si  Si33  1  0.340859  0.697991  0.949127  1
  Si  Si34  1  0.205026  0.163123  0.692474  1
  Ge  Ge35  1  0.074193  0.713131  0.440216  1
