# generated using pymatgen
data_Tb5Nd2Tm(Si3Rh)4
_symmetry_space_group_name_H-M   'P 1'
_cell_length_a   8.20282825
_cell_length_b   8.20282704
_cell_length_c   8.05996600
_cell_angle_alpha   90.00000000
_cell_angle_beta   90.00000000
_cell_angle_gamma   119.96203700
_symmetry_Int_Tables_number   1
_chemical_formula_structural   Tb5Nd2Tm(Si3Rh)4
_chemical_formula_sum   'Tb5 Nd2 Tm1 Si12 Rh4'
_cell_volume   469.84761051
_cell_formula_units_Z   1
loop_
 _symmetry_equiv_pos_site_id
 _symmetry_equiv_pos_as_xyz
  1  'x, y, z'
loop_
 _atom_site_type_symbol
 _atom_site_label
 _atom_site_symmetry_multiplicity
 _atom_site_fract_x
 _atom_site_fract_y
 _atom_site_fract_z
 _atom_site_occupancy
  Tb  Tb0  1  0.492017  0.983407  0.250000  1
  Tb  Tb1  1  0.016593  0.507983  0.250000  1
  Tb  Tb2  1  0.507899  0.492101  0.750000  1
  Tb  Tb3  1  0.984089  0.492090  0.750000  1
  Tb  Tb4  1  0.507910  0.015911  0.750000  1
  Nd  Nd5  1  0.999895  0.000105  0.250000  1
  Nd  Nd6  1  0.000082  0.999918  0.750000  1
  Tm  Tm7  1  0.492653  0.507347  0.250000  1
  Si  Si8  1  0.831756  0.168244  0.501604  1
  Si  Si9  1  0.831639  0.663830  0.501302  1
  Si  Si10  1  0.336170  0.168361  0.501302  1
  Si  Si11  1  0.831756  0.168244  0.998396  1
  Si  Si12  1  0.831639  0.663830  0.998698  1
  Si  Si13  1  0.336170  0.168361  0.998698  1
  Si  Si14  1  0.167992  0.832008  0.001865  1
  Si  Si15  1  0.663738  0.831299  0.003067  1
  Si  Si16  1  0.168701  0.336262  0.003067  1
  Si  Si17  1  0.167992  0.832008  0.498135  1
  Si  Si18  1  0.663738  0.831299  0.496933  1
  Si  Si19  1  0.168701  0.336262  0.496933  1
  Rh  Rh20  1  0.665697  0.334303  0.463453  1
  Rh  Rh21  1  0.665697  0.334303  0.036547  1
  Rh  Rh22  1  0.333738  0.666262  0.967562  1
  Rh  Rh23  1  0.333738  0.666262  0.532438  1
