# generated using pymatgen
data_Lu16Sc4(IrPt3)3
_symmetry_space_group_name_H-M   'P 1'
_cell_length_a   10.84180400
_cell_length_b   10.84180400
_cell_length_c   6.19038200
_cell_angle_alpha   90.00000000
_cell_angle_beta   90.00000000
_cell_angle_gamma   90.00000000
_symmetry_Int_Tables_number   1
_chemical_formula_structural   Lu16Sc4(IrPt3)3
_chemical_formula_sum   'Lu16 Sc4 Ir3 Pt9'
_cell_volume   727.64668158
_cell_formula_units_Z   1
loop_
 _symmetry_equiv_pos_site_id
 _symmetry_equiv_pos_as_xyz
  1  'x, y, z'
loop_
 _atom_site_type_symbol
 _atom_site_label
 _atom_site_symmetry_multiplicity
 _atom_site_fract_x
 _atom_site_fract_y
 _atom_site_fract_z
 _atom_site_occupancy
  Lu  Lu0  1  0.290847  0.086536  0.378388  1
  Lu  Lu1  1  0.290250  0.913474  0.872012  1
  Lu  Lu2  1  0.709750  0.086526  0.872012  1
  Lu  Lu3  1  0.709153  0.913464  0.378388  1
  Lu  Lu4  1  0.586526  0.790250  0.872012  1
  Lu  Lu5  1  0.586536  0.209153  0.378388  1
  Lu  Lu6  1  0.413464  0.790847  0.378388  1
  Lu  Lu7  1  0.413474  0.209750  0.872012  1
  Lu  Lu8  1  0.206833  0.414533  0.624476  1
  Lu  Lu9  1  0.207006  0.585683  0.125224  1
  Lu  Lu10  1  0.792994  0.414317  0.125224  1
  Lu  Lu11  1  0.793167  0.585467  0.624476  1
  Lu  Lu12  1  0.914317  0.707006  0.125224  1
  Lu  Lu13  1  0.914533  0.293167  0.624476  1
  Lu  Lu14  1  0.085467  0.706833  0.624476  1
  Lu  Lu15  1  0.085683  0.292994  0.125224  1
  Sc  Sc16  1  0.000000  0.000000  0.500786  1
  Sc  Sc17  1  0.000000  0.000000  0.000689  1
  Sc  Sc18  1  0.500000  0.500000  0.000689  1
  Sc  Sc19  1  0.500000  0.500000  0.500786  1
  Ir  Ir20  1  0.500000  0.000000  0.618437  1
  Ir  Ir21  1  0.000000  0.500000  0.879357  1
  Ir  Ir22  1  0.000000  0.500000  0.379055  1
  Pt  Pt23  1  0.848765  0.149196  0.250257  1
  Pt  Pt24  1  0.849841  0.849761  0.750331  1
  Pt  Pt25  1  0.150159  0.150239  0.750331  1
  Pt  Pt26  1  0.151235  0.850804  0.250257  1
  Pt  Pt27  1  0.650239  0.349841  0.750331  1
  Pt  Pt28  1  0.649196  0.651235  0.250257  1
  Pt  Pt29  1  0.350804  0.348765  0.250257  1
  Pt  Pt30  1  0.349761  0.650159  0.750331  1
  Pt  Pt31  1  0.500000  0.000000  0.117443  1
