# generated using pymatgen
data_Dy10FeHg3
_symmetry_space_group_name_H-M   'P 1'
_cell_length_a   9.58239500
_cell_length_b   9.58239605
_cell_length_c   9.61105800
_cell_angle_alpha   90.00000000
_cell_angle_beta   90.00000000
_cell_angle_gamma   119.99999292
_symmetry_Int_Tables_number   1
_chemical_formula_structural   Dy10FeHg3
_chemical_formula_sum   'Dy20 Fe2 Hg6'
_cell_volume   764.27569140
_cell_formula_units_Z   2
loop_
 _symmetry_equiv_pos_site_id
 _symmetry_equiv_pos_as_xyz
  1  'x, y, z'
loop_
 _atom_site_type_symbol
 _atom_site_label
 _atom_site_symmetry_multiplicity
 _atom_site_fract_x
 _atom_site_fract_y
 _atom_site_fract_z
 _atom_site_occupancy
  Dy  Dy0  1  0.000000  0.000000  0.500000  1
  Dy  Dy1  1  0.000000  0.000000  0.000000  1
  Dy  Dy2  1  0.541784  0.458216  0.250000  1
  Dy  Dy3  1  0.541784  0.083567  0.250000  1
  Dy  Dy4  1  0.916433  0.458216  0.250000  1
  Dy  Dy5  1  0.458216  0.541784  0.750000  1
  Dy  Dy6  1  0.458216  0.916433  0.750000  1
  Dy  Dy7  1  0.083567  0.541784  0.750000  1
  Dy  Dy8  1  0.212040  0.787960  0.435548  1
  Dy  Dy9  1  0.212040  0.424081  0.435548  1
  Dy  Dy10  1  0.575919  0.787960  0.435548  1
  Dy  Dy11  1  0.787960  0.212040  0.564452  1
  Dy  Dy12  1  0.787960  0.575919  0.564452  1
  Dy  Dy13  1  0.424081  0.212040  0.564452  1
  Dy  Dy14  1  0.787960  0.212040  0.935548  1
  Dy  Dy15  1  0.787960  0.575919  0.935548  1
  Dy  Dy16  1  0.424081  0.212040  0.935548  1
  Dy  Dy17  1  0.212040  0.787960  0.064452  1
  Dy  Dy18  1  0.212040  0.424081  0.064452  1
  Dy  Dy19  1  0.575919  0.787960  0.064452  1
  Fe  Fe20  1  0.333333  0.666667  0.250000  1
  Fe  Fe21  1  0.666667  0.333333  0.750000  1
  Hg  Hg22  1  0.881871  0.118129  0.250000  1
  Hg  Hg23  1  0.881871  0.763743  0.250000  1
  Hg  Hg24  1  0.236257  0.118129  0.250000  1
  Hg  Hg25  1  0.118129  0.881871  0.750000  1
  Hg  Hg26  1  0.118129  0.236257  0.750000  1
  Hg  Hg27  1  0.763743  0.881871  0.750000  1
