# generated using pymatgen
data_WI10Cl
_symmetry_space_group_name_H-M   'P 1'
_cell_length_a   8.56006728
_cell_length_b   8.66378643
_cell_length_c   9.04750610
_cell_angle_alpha   86.24965435
_cell_angle_beta   89.36641173
_cell_angle_gamma   110.01626840
_symmetry_Int_Tables_number   1
_chemical_formula_structural   WI10Cl
_chemical_formula_sum   'W1 I10 Cl1'
_cell_volume   628.70537840
_cell_formula_units_Z   1
loop_
 _symmetry_equiv_pos_site_id
 _symmetry_equiv_pos_as_xyz
  1  'x, y, z'
loop_
 _atom_site_type_symbol
 _atom_site_label
 _atom_site_symmetry_multiplicity
 _atom_site_fract_x
 _atom_site_fract_y
 _atom_site_fract_z
 _atom_site_occupancy
  W  W0  1  0.000729  0.499450  0.501326  1
  I  I1  1  0.000303  0.002604  0.003042  1
  I  I2  1  0.680753  0.764938  0.924878  1
  I  I3  1  0.318773  0.238518  0.080830  1
  I  I4  1  0.709104  0.228678  0.543070  1
  I  I5  1  0.289521  0.771473  0.463492  1
  I  I6  1  0.485872  0.759796  0.192845  1
  I  I7  1  0.518447  0.241236  0.815608  1
  I  I8  1  0.832487  0.708074  0.548982  1
  I  I9  1  0.173747  0.293222  0.462036  1
  I  I10  1  0.943620  0.513137  0.210870  1
  Cl  Cl11  1  0.046643  0.478873  0.753017  1
