# generated using pymatgen
data_Cs3K(ThS3)2
_symmetry_space_group_name_H-M   'P 1'
_cell_length_a   7.48658676
_cell_length_b   7.48658646
_cell_length_c   8.55002000
_cell_angle_alpha   81.68466431
_cell_angle_beta   81.68465691
_cell_angle_gamma   119.95674492
_symmetry_Int_Tables_number   1
_chemical_formula_structural   Cs3K(ThS3)2
_chemical_formula_sum   'Cs3 K1 Th2 S6'
_cell_volume   397.47385057
_cell_formula_units_Z   1
loop_
 _symmetry_equiv_pos_site_id
 _symmetry_equiv_pos_as_xyz
  1  'x, y, z'
loop_
 _atom_site_type_symbol
 _atom_site_label
 _atom_site_symmetry_multiplicity
 _atom_site_fract_x
 _atom_site_fract_y
 _atom_site_fract_z
 _atom_site_occupancy
  Cs  Cs0  1  0.653675  0.346325  0.500000  1
  Cs  Cs1  1  0.346325  0.653675  0.500000  1
  Cs  Cs2  1  0.000000  0.000000  0.500000  1
  K  K3  1  0.500000  0.500000  0.000000  1
  Th  Th4  1  0.832687  0.167313  0.000000  1
  Th  Th5  1  0.167313  0.832687  0.000000  1
  S  S6  1  0.812496  0.812496  0.185907  1
  S  S7  1  0.187504  0.187504  0.814093  1
  S  S8  1  0.435664  0.058045  0.192147  1
  S  S9  1  0.564336  0.941955  0.807853  1
  S  S10  1  0.941955  0.564336  0.807853  1
  S  S11  1  0.058045  0.435664  0.192147  1
