# generated using pymatgen
data_LuCo5As3
_symmetry_space_group_name_H-M   'P 1'
_cell_length_a   3.76098400
_cell_length_b   12.15827200
_cell_length_c   10.64403000
_cell_angle_alpha   90.00000000
_cell_angle_beta   90.00000000
_cell_angle_gamma   90.00000000
_symmetry_Int_Tables_number   1
_chemical_formula_structural   LuCo5As3
_chemical_formula_sum   'Lu4 Co20 As12'
_cell_volume   486.72026721
_cell_formula_units_Z   4
loop_
 _symmetry_equiv_pos_site_id
 _symmetry_equiv_pos_as_xyz
  1  'x, y, z'
loop_
 _atom_site_type_symbol
 _atom_site_label
 _atom_site_symmetry_multiplicity
 _atom_site_fract_x
 _atom_site_fract_y
 _atom_site_fract_z
 _atom_site_occupancy
  Lu  Lu0  1  0.750000  0.702122  0.081299  1
  Lu  Lu1  1  0.250000  0.297878  0.918701  1
  Lu  Lu2  1  0.250000  0.797878  0.581299  1
  Lu  Lu3  1  0.750000  0.202122  0.418701  1
  Co  Co4  1  0.750000  0.697351  0.385191  1
  Co  Co5  1  0.250000  0.302649  0.614809  1
  Co  Co6  1  0.250000  0.802649  0.885191  1
  Co  Co7  1  0.750000  0.197351  0.114809  1
  Co  Co8  1  0.750000  0.991209  0.213488  1
  Co  Co9  1  0.250000  0.008791  0.786512  1
  Co  Co10  1  0.250000  0.508791  0.713488  1
  Co  Co11  1  0.750000  0.491209  0.286512  1
  Co  Co12  1  0.750000  0.678183  0.784629  1
  Co  Co13  1  0.250000  0.321817  0.215371  1
  Co  Co14  1  0.250000  0.821817  0.284629  1
  Co  Co15  1  0.750000  0.178183  0.715371  1
  Co  Co16  1  0.750000  0.931539  0.969343  1
  Co  Co17  1  0.250000  0.068461  0.030657  1
  Co  Co18  1  0.250000  0.568461  0.469343  1
  Co  Co19  1  0.750000  0.431539  0.530657  1
  Co  Co20  1  0.750000  0.986872  0.592482  1
  Co  Co21  1  0.250000  0.013128  0.407518  1
  Co  Co22  1  0.250000  0.513128  0.092482  1
  Co  Co23  1  0.750000  0.486871  0.907518  1
  As  As24  1  0.750000  0.614558  0.585769  1
  As  As25  1  0.250000  0.385442  0.414231  1
  As  As26  1  0.250000  0.885442  0.085769  1
  As  As27  1  0.750000  0.114558  0.914231  1
  As  As28  1  0.750000  0.889802  0.400886  1
  As  As29  1  0.250000  0.110198  0.599114  1
  As  As30  1  0.250000  0.610198  0.900886  1
  As  As31  1  0.750000  0.389802  0.099114  1
  As  As32  1  0.750000  0.870145  0.767816  1
  As  As33  1  0.250000  0.129855  0.232184  1
  As  As34  1  0.250000  0.629855  0.267816  1
  As  As35  1  0.750000  0.370145  0.732184  1
