# generated using pymatgen
data_Ac(IO3)3
_symmetry_space_group_name_H-M   'P 1'
_cell_length_a   4.50843303
_cell_length_b   10.95873116
_cell_length_c   10.95945410
_cell_angle_alpha   60.01295499
_cell_angle_beta   89.99382937
_cell_angle_gamma   89.99998158
_symmetry_Int_Tables_number   1
_chemical_formula_structural   Ac(IO3)3
_chemical_formula_sum   'Ac2 I6 O18'
_cell_volume   468.98842634
_cell_formula_units_Z   2
loop_
 _symmetry_equiv_pos_site_id
 _symmetry_equiv_pos_as_xyz
  1  'x, y, z'
loop_
 _atom_site_type_symbol
 _atom_site_label
 _atom_site_symmetry_multiplicity
 _atom_site_fract_x
 _atom_site_fract_y
 _atom_site_fract_z
 _atom_site_occupancy
  Ac  Ac0  1  0.340884  0.333271  0.333374  1
  Ac  Ac1  1  0.840966  0.666686  0.666695  1
  I  I2  1  0.831228  0.679022  0.045055  1
  I  I3  1  0.831269  0.044972  0.275993  1
  I  I4  1  0.331302  0.724066  0.320950  1
  I  I5  1  0.831176  0.275923  0.679059  1
  I  I6  1  0.331177  0.955027  0.724057  1
  I  I7  1  0.331223  0.320975  0.954958  1
  O  O8  1  0.206356  0.744595  0.042713  1
  O  O9  1  0.852282  0.500493  0.198731  1
  O  O10  1  0.206464  0.042750  0.212758  1
  O  O11  1  0.362721  0.365511  0.093580  1
  O  O12  1  0.706442  0.787305  0.255391  1
  O  O13  1  0.362759  0.540923  0.365480  1
  O  O14  1  0.852064  0.198701  0.300866  1
  O  O15  1  0.862773  0.906430  0.459101  1
  O  O16  1  0.852063  0.300739  0.500514  1
  O  O17  1  0.352310  0.699249  0.499486  1
  O  O18  1  0.362478  0.093540  0.540910  1
  O  O19  1  0.352173  0.801290  0.699196  1
  O  O20  1  0.862706  0.459079  0.634498  1
  O  O21  1  0.206367  0.212702  0.744483  1
  O  O22  1  0.862596  0.634440  0.906463  1
  O  O23  1  0.706372  0.957392  0.787184  1
  O  O24  1  0.352104  0.499525  0.801305  1
  O  O25  1  0.706383  0.255517  0.957126  1
