# generated using pymatgen
data_YEr9(Bi2Os)2
_symmetry_space_group_name_H-M   'P 1'
_cell_length_a   7.90795188
_cell_length_b   8.98953200
_cell_length_c   12.46150153
_cell_angle_alpha   90.00000000
_cell_angle_beta   90.12405937
_cell_angle_gamma   90.00000000
_symmetry_Int_Tables_number   1
_chemical_formula_structural   YEr9(Bi2Os)2
_chemical_formula_sum   'Y2 Er18 Bi8 Os4'
_cell_volume   885.87094445
_cell_formula_units_Z   2
loop_
 _symmetry_equiv_pos_site_id
 _symmetry_equiv_pos_as_xyz
  1  'x, y, z'
loop_
 _atom_site_type_symbol
 _atom_site_label
 _atom_site_symmetry_multiplicity
 _atom_site_fract_x
 _atom_site_fract_y
 _atom_site_fract_z
 _atom_site_occupancy
  Y  Y0  1  0.661222  0.750000  0.710324  1
  Y  Y1  1  0.338778  0.250000  0.289676  1
  Er  Er2  1  0.159513  0.250000  0.791964  1
  Er  Er3  1  0.840487  0.750000  0.208036  1
  Er  Er4  1  0.125044  0.750000  0.809728  1
  Er  Er5  1  0.874956  0.250000  0.190272  1
  Er  Er6  1  0.624429  0.250000  0.690462  1
  Er  Er7  1  0.375571  0.750000  0.309538  1
  Er  Er8  1  0.557458  0.750000  0.995613  1
  Er  Er9  1  0.442542  0.250000  0.004387  1
  Er  Er10  1  0.057586  0.250000  0.504348  1
  Er  Er11  1  0.942414  0.750000  0.495652  1
  Er  Er12  1  0.827032  0.458079  0.935500  1
  Er  Er13  1  0.172968  0.541921  0.064500  1
  Er  Er14  1  0.327008  0.541583  0.564161  1
  Er  Er15  1  0.172968  0.958079  0.064500  1
  Er  Er16  1  0.672992  0.458417  0.435839  1
  Er  Er17  1  0.827032  0.041921  0.935500  1
  Er  Er18  1  0.672992  0.041583  0.435839  1
  Er  Er19  1  0.327008  0.958417  0.564161  1
  Bi  Bi20  1  0.934636  0.006794  0.671857  1
  Bi  Bi21  1  0.065364  0.993206  0.328143  1
  Bi  Bi22  1  0.432751  0.994337  0.828291  1
  Bi  Bi23  1  0.065364  0.506794  0.328143  1
  Bi  Bi24  1  0.567249  0.005663  0.171709  1
  Bi  Bi25  1  0.934636  0.493206  0.671857  1
  Bi  Bi26  1  0.567249  0.494337  0.171709  1
  Bi  Bi27  1  0.432751  0.505663  0.828291  1
  Os  Os28  1  0.924585  0.750000  0.990330  1
  Os  Os29  1  0.075415  0.250000  0.009670  1
  Os  Os30  1  0.424941  0.250000  0.509994  1
  Os  Os31  1  0.575059  0.750000  0.490006  1
