# generated using pymatgen
data_Dy7ScTi6(Nb3Si8)2
_symmetry_space_group_name_H-M   'P 1'
_cell_length_a   7.06122707
_cell_length_b   7.05994210
_cell_length_c   12.98894500
_cell_angle_alpha   90.11135444
_cell_angle_beta   89.99179661
_cell_angle_gamma   90.02677313
_symmetry_Int_Tables_number   1
_chemical_formula_structural   Dy7ScTi6(Nb3Si8)2
_chemical_formula_sum   'Dy7 Sc1 Ti6 Nb6 Si16'
_cell_volume   647.52169361
_cell_formula_units_Z   1
loop_
 _symmetry_equiv_pos_site_id
 _symmetry_equiv_pos_as_xyz
  1  'x, y, z'
loop_
 _atom_site_type_symbol
 _atom_site_label
 _atom_site_symmetry_multiplicity
 _atom_site_fract_x
 _atom_site_fract_y
 _atom_site_fract_z
 _atom_site_occupancy
  Dy  Dy0  1  0.341480  0.001002  0.465869  1
  Dy  Dy1  1  0.498244  0.841579  0.716985  1
  Dy  Dy2  1  0.502360  0.157123  0.215521  1
  Dy  Dy3  1  0.840221  0.498964  0.282833  1
  Dy  Dy4  1  0.158381  0.501985  0.783501  1
  Dy  Dy5  1  0.659496  0.997359  0.967631  1
  Dy  Dy6  1  0.000982  0.340872  0.533263  1
  Sc  Sc7  1  0.005078  0.657567  0.034370  1
  Ti  Ti8  1  0.508538  0.346724  0.625247  1
  Ti  Ti9  1  0.653101  0.493354  0.876617  1
  Ti  Ti10  1  0.347485  0.508232  0.374736  1
  Ti  Ti11  1  0.846910  0.990209  0.373029  1
  Ti  Ti12  1  0.007802  0.151125  0.124989  1
  Ti  Ti13  1  0.991110  0.846689  0.626319  1
  Nb  Nb14  1  0.326714  0.329007  0.000476  1
  Nb  Nb15  1  0.171799  0.826327  0.249132  1
  Nb  Nb16  1  0.828329  0.173027  0.751066  1
  Nb  Nb17  1  0.672378  0.671781  0.499976  1
  Nb  Nb18  1  0.149858  0.009216  0.875953  1
  Nb  Nb19  1  0.490527  0.652237  0.123527  1
  Si  Si20  1  0.204498  0.131341  0.683608  1
  Si  Si21  1  0.365042  0.704422  0.933351  1
  Si  Si22  1  0.630190  0.296693  0.434306  1
  Si  Si23  1  0.709114  0.370606  0.067036  1
  Si  Si24  1  0.297102  0.630215  0.565411  1
  Si  Si25  1  0.800362  0.865518  0.180462  1
  Si  Si26  1  0.130429  0.203274  0.315458  1
  Si  Si27  1  0.866675  0.794037  0.817960  1
  Si  Si28  1  0.289328  0.951983  0.063844  1
  Si  Si29  1  0.547720  0.792146  0.313706  1
  Si  Si30  1  0.454139  0.210262  0.813634  1
  Si  Si31  1  0.791937  0.546234  0.686616  1
  Si  Si32  1  0.203975  0.453110  0.185330  1
  Si  Si33  1  0.709194  0.046406  0.563411  1
  Si  Si34  1  0.952997  0.300755  0.938193  1
  Si  Si35  1  0.046510  0.708621  0.436636  1
