# generated using pymatgen
data_Ta3Nb3Si6(MoRu2)2
_symmetry_space_group_name_H-M   'P 1'
_cell_length_a   7.50316631
_cell_length_b   7.52014880
_cell_length_c   7.50316727
_cell_angle_alpha   126.72091728
_cell_angle_beta   123.95606836
_cell_angle_gamma   80.93981686
_symmetry_Int_Tables_number   1
_chemical_formula_structural   Ta3Nb3Si6(MoRu2)2
_chemical_formula_sum   'Ta3 Nb3 Si6 Mo2 Ru4'
_cell_volume   271.38136405
_cell_formula_units_Z   1
loop_
 _symmetry_equiv_pos_site_id
 _symmetry_equiv_pos_as_xyz
  1  'x, y, z'
loop_
 _atom_site_type_symbol
 _atom_site_label
 _atom_site_symmetry_multiplicity
 _atom_site_fract_x
 _atom_site_fract_y
 _atom_site_fract_z
 _atom_site_occupancy
  Ta  Ta0  1  0.557983  0.094922  0.036940  1
  Ta  Ta1  1  0.440855  0.476343  0.535488  1
  Ta  Ta2  1  0.961816  0.490698  0.028882  1
  Nb  Nb3  1  0.039523  0.068855  0.529332  1
  Nb  Nb4  1  0.753024  0.921064  0.668040  1
  Nb  Nb5  1  0.248149  0.916396  0.168247  1
  Si  Si6  1  0.779237  0.552735  0.273498  1
  Si  Si7  1  0.219903  0.491590  0.771687  1
  Si  Si8  1  0.335292  0.818963  0.492882  1
  Si  Si9  1  0.665459  0.156785  0.483094  1
  Si  Si10  1  0.826081  0.818963  0.983670  1
  Si  Si11  1  0.173690  0.156785  0.991327  1
  Mo  Mo12  1  0.503106  0.250713  0.752925  1
  Mo  Mo13  1  0.997789  0.250713  0.247607  1
  Ru  Ru14  1  0.162713  0.745830  0.654454  1
  Ru  Ru15  1  0.837449  0.492507  0.585951  1
  Ru  Ru16  1  0.591376  0.745830  0.083117  1
  Ru  Ru17  1  0.406556  0.492507  0.155059  1
