# generated using pymatgen
data_Ta12MnCr3(Fe2N)4
_symmetry_space_group_name_H-M   'P 1'
_cell_length_a   8.02109997
_cell_length_b   8.02110029
_cell_length_c   8.02109960
_cell_angle_alpha   59.74187477
_cell_angle_beta   59.74187180
_cell_angle_gamma   59.74187388
_symmetry_Int_Tables_number   1
_chemical_formula_structural   Ta12MnCr3(Fe2N)4
_chemical_formula_sum   'Ta12 Mn1 Cr3 Fe8 N4'
_cell_volume   362.77182335
_cell_formula_units_Z   1
loop_
 _symmetry_equiv_pos_site_id
 _symmetry_equiv_pos_as_xyz
  1  'x, y, z'
loop_
 _atom_site_type_symbol
 _atom_site_label
 _atom_site_symmetry_multiplicity
 _atom_site_fract_x
 _atom_site_fract_y
 _atom_site_fract_z
 _atom_site_occupancy
  Ta  Ta0  1  0.802138  0.802138  0.198403  1
  Ta  Ta1  1  0.195908  0.195908  0.803669  1
  Ta  Ta2  1  0.802138  0.198403  0.802138  1
  Ta  Ta3  1  0.195908  0.803669  0.195908  1
  Ta  Ta4  1  0.198403  0.802138  0.802138  1
  Ta  Ta5  1  0.803669  0.195908  0.195908  1
  Ta  Ta6  1  0.447862  0.447862  0.051597  1
  Ta  Ta7  1  0.054092  0.054092  0.446331  1
  Ta  Ta8  1  0.447862  0.051597  0.447862  1
  Ta  Ta9  1  0.054092  0.446331  0.054092  1
  Ta  Ta10  1  0.051597  0.447862  0.447862  1
  Ta  Ta11  1  0.446331  0.054092  0.054092  1
  Mn  Mn12  1  0.625000  0.625000  0.625000  1
  Cr  Cr13  1  0.125000  0.625000  0.625000  1
  Cr  Cr14  1  0.625000  0.125000  0.625000  1
  Cr  Cr15  1  0.625000  0.625000  0.125000  1
  Fe  Fe16  1  0.729218  0.423511  0.423511  1
  Fe  Fe17  1  0.423511  0.729218  0.423511  1
  Fe  Fe18  1  0.423511  0.423511  0.729218  1
  Fe  Fe19  1  0.422853  0.422853  0.422853  1
  Fe  Fe20  1  0.520782  0.826489  0.826489  1
  Fe  Fe21  1  0.826489  0.520782  0.826489  1
  Fe  Fe22  1  0.826489  0.826489  0.520782  1
  Fe  Fe23  1  0.827147  0.827147  0.827147  1
  N  N24  1  0.625000  0.125000  0.125000  1
  N  N25  1  0.125000  0.625000  0.125000  1
  N  N26  1  0.125000  0.125000  0.625000  1
  N  N27  1  0.125000  0.125000  0.125000  1
