# generated using pymatgen
data_Th5Pa(Al3Fe)8
_symmetry_space_group_name_H-M   'P 1'
_cell_length_a   8.80848800
_cell_length_b   8.82343169
_cell_length_c   9.35739200
_cell_angle_alpha   90.00000000
_cell_angle_beta   90.00000000
_cell_angle_gamma   119.94399072
_symmetry_Int_Tables_number   1
_chemical_formula_structural   Th5Pa(Al3Fe)8
_chemical_formula_sum   'Th5 Pa1 Al24 Fe8'
_cell_volume   630.18662777
_cell_formula_units_Z   1
loop_
 _symmetry_equiv_pos_site_id
 _symmetry_equiv_pos_as_xyz
  1  'x, y, z'
loop_
 _atom_site_type_symbol
 _atom_site_label
 _atom_site_symmetry_multiplicity
 _atom_site_fract_x
 _atom_site_fract_y
 _atom_site_fract_z
 _atom_site_occupancy
  Th  Th0  1  0.804396  0.194861  0.750000  1
  Th  Th1  1  0.195133  0.802628  0.250000  1
  Th  Th2  1  0.390465  0.194861  0.750000  1
  Th  Th3  1  0.607494  0.802628  0.250000  1
  Th  Th4  1  0.804830  0.609659  0.750000  1
  Pa  Pa5  1  0.198332  0.396665  0.250000  1
  Al  Al6  1  0.666658  0.333315  0.995542  1
  Al  Al7  1  0.333085  0.666170  0.007482  1
  Al  Al8  1  0.333085  0.666170  0.492518  1
  Al  Al9  1  0.666658  0.333315  0.504458  1
  Al  Al10  1  0.841574  0.162268  0.421039  1
  Al  Al11  1  0.161663  0.838893  0.576344  1
  Al  Al12  1  0.320695  0.162268  0.421039  1
  Al  Al13  1  0.161663  0.838893  0.923656  1
  Al  Al14  1  0.677229  0.838893  0.576344  1
  Al  Al15  1  0.841574  0.162268  0.078961  1
  Al  Al16  1  0.838776  0.677551  0.422537  1
  Al  Al17  1  0.677229  0.838893  0.923656  1
  Al  Al18  1  0.161318  0.322636  0.572827  1
  Al  Al19  1  0.320695  0.162268  0.078961  1
  Al  Al20  1  0.161318  0.322636  0.927173  1
  Al  Al21  1  0.838776  0.677551  0.077463  1
  Al  Al22  1  0.437523  0.561218  0.750000  1
  Al  Al23  1  0.559578  0.437129  0.250000  1
  Al  Al24  1  0.123695  0.561218  0.750000  1
  Al  Al25  1  0.877551  0.437129  0.250000  1
  Al  Al26  1  0.437618  0.875237  0.750000  1
  Al  Al27  1  0.561817  0.123634  0.250000  1
  Al  Al28  1  0.000032  0.000065  0.750000  1
  Al  Al29  1  0.002823  0.005646  0.250000  1
  Fe  Fe30  1  0.495735  0.498516  0.003848  1
  Fe  Fe31  1  0.002781  0.498516  0.003848  1
  Fe  Fe32  1  0.495735  0.498516  0.496152  1
  Fe  Fe33  1  0.500048  0.000096  0.000454  1
  Fe  Fe34  1  0.002781  0.498516  0.496152  1
  Fe  Fe35  1  0.500048  0.000096  0.499546  1
  Fe  Fe36  1  0.999795  0.999590  0.000022  1
  Fe  Fe37  1  0.999795  0.999590  0.499978  1
