# generated using pymatgen
data_Nb4V4GaAsP2
_symmetry_space_group_name_H-M   'P 1'
_cell_length_a   3.42419000
_cell_length_b   6.59662166
_cell_length_c   7.90501863
_cell_angle_alpha   89.85641131
_cell_angle_beta   90.00000000
_cell_angle_gamma   90.00000000
_symmetry_Int_Tables_number   1
_chemical_formula_structural   Nb4V4GaAsP2
_chemical_formula_sum   'Nb4 V4 Ga1 As1 P2'
_cell_volume   178.55867937
_cell_formula_units_Z   1
loop_
 _symmetry_equiv_pos_site_id
 _symmetry_equiv_pos_as_xyz
  1  'x, y, z'
loop_
 _atom_site_type_symbol
 _atom_site_label
 _atom_site_symmetry_multiplicity
 _atom_site_fract_x
 _atom_site_fract_y
 _atom_site_fract_z
 _atom_site_occupancy
  Nb  Nb0  1  0.250000  0.025575  0.838057  1
  Nb  Nb1  1  0.250000  0.557166  0.672740  1
  Nb  Nb2  1  0.750000  0.973126  0.159381  1
  Nb  Nb3  1  0.750000  0.442858  0.325741  1
  V  V4  1  0.250000  0.135831  0.435552  1
  V  V5  1  0.250000  0.625402  0.052721  1
  V  V6  1  0.750000  0.869255  0.569092  1
  V  V7  1  0.750000  0.370851  0.945005  1
  Ga  Ga8  1  0.250000  0.754001  0.357055  1
  As  As9  1  0.750000  0.248049  0.642688  1
  P  P10  1  0.250000  0.257611  0.135386  1
  P  P11  1  0.750000  0.740274  0.866583  1
