# generated using pymatgen
data_Zr5Sc4(In2Co)7
_symmetry_space_group_name_H-M   'P 1'
_cell_length_a   9.43107439
_cell_length_b   9.43107527
_cell_length_c   9.42630260
_cell_angle_alpha   120.01906756
_cell_angle_beta   90.02541255
_cell_angle_gamma   119.96835908
_symmetry_Int_Tables_number   1
_chemical_formula_structural   Zr5Sc4(In2Co)7
_chemical_formula_sum   'Zr5 Sc4 In14 Co7'
_cell_volume   592.83637836
_cell_formula_units_Z   1
loop_
 _symmetry_equiv_pos_site_id
 _symmetry_equiv_pos_as_xyz
  1  'x, y, z'
loop_
 _atom_site_type_symbol
 _atom_site_label
 _atom_site_symmetry_multiplicity
 _atom_site_fract_x
 _atom_site_fract_y
 _atom_site_fract_z
 _atom_site_occupancy
  Zr  Zr0  1  0.619293  0.757883  0.377176  1
  Zr  Zr1  1  0.377722  0.238525  0.616248  1
  Zr  Zr2  1  0.862284  0.242269  0.618618  1
  Zr  Zr3  1  0.376349  0.756334  0.618618  1
  Zr  Zr4  1  0.620817  0.241400  0.862217  1
  Sc  Sc5  1  0.000859  0.000719  0.001577  1
  Sc  Sc6  1  0.378840  0.762475  0.141315  1
  Sc  Sc7  1  0.616821  0.236455  0.376269  1
  Sc  Sc8  1  0.139814  0.759448  0.376269  1
  In  In9  1  0.341988  0.999376  0.000784  1
  In  In10  1  0.657873  0.999538  0.000362  1
  In  In11  1  0.000824  0.342491  0.000362  1
  In  In12  1  0.341094  0.342679  0.999096  1
  In  In13  1  0.001409  0.658798  0.000784  1
  In  In14  1  0.656419  0.658003  0.999096  1
  In  In15  1  0.751620  0.500693  0.252313  1
  In  In16  1  0.000216  0.999246  0.342028  1
  In  In17  1  0.998675  0.342253  0.340928  1
  In  In18  1  0.342781  0.341812  0.342028  1
  In  In19  1  0.000407  0.000202  0.658478  1
  In  In20  1  0.999567  0.658034  0.657601  1
  In  In21  1  0.658275  0.658071  0.658478  1
  In  In22  1  0.252152  0.501574  0.753726  1
  Co  Co23  1  0.277204  0.003377  0.280581  1
  Co  Co24  1  0.725576  0.000278  0.281488  1
  Co  Co25  1  0.281210  0.555911  0.281488  1
  Co  Co26  1  0.500096  0.999735  0.499830  1
  Co  Co27  1  0.283183  0.003004  0.723030  1
  Co  Co28  1  0.716609  0.999578  0.716187  1
  Co  Co29  1  0.720026  0.439848  0.723030  1
