# generated using pymatgen
data_TbHo5(Sc2Bi3)2
_symmetry_space_group_name_H-M   'P 1'
_cell_length_a   9.00141423
_cell_length_b   8.99327558
_cell_length_c   6.18888300
_cell_angle_alpha   90.00000000
_cell_angle_beta   90.00000000
_cell_angle_gamma   119.97009783
_symmetry_Int_Tables_number   1
_chemical_formula_structural   TbHo5(Sc2Bi3)2
_chemical_formula_sum   'Tb1 Ho5 Sc4 Bi6'
_cell_volume   434.01259590
_cell_formula_units_Z   1
loop_
 _symmetry_equiv_pos_site_id
 _symmetry_equiv_pos_as_xyz
  1  'x, y, z'
loop_
 _atom_site_type_symbol
 _atom_site_label
 _atom_site_symmetry_multiplicity
 _atom_site_fract_x
 _atom_site_fract_y
 _atom_site_fract_z
 _atom_site_occupancy
  Tb  Tb0  1  0.000000  0.756625  0.250000  1
  Ho  Ho1  1  0.756247  0.756500  0.750000  1
  Ho  Ho2  1  0.243753  0.000253  0.750000  1
  Ho  Ho3  1  0.000000  0.243184  0.750000  1
  Ho  Ho4  1  0.243720  0.243667  0.250000  1
  Ho  Ho5  1  0.756280  0.999947  0.250000  1
  Sc  Sc6  1  0.666774  0.333405  0.000049  1
  Sc  Sc7  1  0.333226  0.666632  0.000049  1
  Sc  Sc8  1  0.333226  0.666632  0.499951  1
  Sc  Sc9  1  0.666774  0.333405  0.499951  1
  Bi  Bi10  1  0.394628  0.394628  0.750000  1
  Bi  Bi11  1  0.605372  0.000000  0.750000  1
  Bi  Bi12  1  0.000000  0.605257  0.750000  1
  Bi  Bi13  1  0.604610  0.605276  0.250000  1
  Bi  Bi14  1  0.395390  0.000666  0.250000  1
  Bi  Bi15  1  0.000000  0.393919  0.250000  1
