# generated using pymatgen
data_Y3Co7(As3Rh)2
_symmetry_space_group_name_H-M   'P 1'
_cell_length_a   3.83925500
_cell_length_b   11.02052200
_cell_length_c   12.88362300
_cell_angle_alpha   90.00000000
_cell_angle_beta   90.00000000
_cell_angle_gamma   90.00000000
_symmetry_Int_Tables_number   1
_chemical_formula_structural   Y3Co7(As3Rh)2
_chemical_formula_sum   'Y6 Co14 As12 Rh4'
_cell_volume   545.11374446
_cell_formula_units_Z   2
loop_
 _symmetry_equiv_pos_site_id
 _symmetry_equiv_pos_as_xyz
  1  'x, y, z'
loop_
 _atom_site_type_symbol
 _atom_site_label
 _atom_site_symmetry_multiplicity
 _atom_site_fract_x
 _atom_site_fract_y
 _atom_site_fract_z
 _atom_site_occupancy
  Y  Y0  1  0.000000  0.500000  0.521911  1
  Y  Y1  1  0.500000  0.000000  0.478089  1
  Y  Y2  1  0.500000  0.815169  0.207706  1
  Y  Y3  1  0.500000  0.184831  0.207706  1
  Y  Y4  1  0.000000  0.684831  0.792294  1
  Y  Y5  1  0.000000  0.315169  0.792294  1
  Co  Co6  1  0.000000  0.500000  0.988891  1
  Co  Co7  1  0.500000  0.000000  0.011109  1
  Co  Co8  1  0.500000  0.331641  0.995922  1
  Co  Co9  1  0.500000  0.668359  0.995922  1
  Co  Co10  1  0.000000  0.168359  0.004078  1
  Co  Co11  1  0.000000  0.831641  0.004078  1
  Co  Co12  1  0.500000  0.302414  0.429663  1
  Co  Co13  1  0.500000  0.697586  0.429663  1
  Co  Co14  1  0.000000  0.197586  0.570337  1
  Co  Co15  1  0.000000  0.802414  0.570337  1
  Co  Co16  1  0.500000  0.882885  0.709080  1
  Co  Co17  1  0.500000  0.117115  0.709080  1
  Co  Co18  1  0.000000  0.617115  0.290920  1
  Co  Co19  1  0.000000  0.382885  0.290920  1
  As  As20  1  0.500000  0.500000  0.889041  1
  As  As21  1  0.000000  0.000000  0.110959  1
  As  As22  1  0.500000  0.500000  0.350992  1
  As  As23  1  0.000000  0.000000  0.649008  1
  As  As24  1  0.500000  0.304003  0.613061  1
  As  As25  1  0.500000  0.695997  0.613061  1
  As  As26  1  0.000000  0.195997  0.386939  1
  As  As27  1  0.000000  0.804003  0.386939  1
  As  As28  1  0.500000  0.844104  0.891832  1
  As  As29  1  0.500000  0.155896  0.891832  1
  As  As30  1  0.000000  0.655896  0.108168  1
  As  As31  1  0.000000  0.344104  0.108168  1
  Rh  Rh32  1  0.500000  0.500000  0.157605  1
  Rh  Rh33  1  0.000000  0.000000  0.842395  1
  Rh  Rh34  1  0.500000  0.500000  0.703324  1
  Rh  Rh35  1  0.000000  0.000000  0.296676  1
