# generated using pymatgen
data_YbCu4
_symmetry_space_group_name_H-M   'P 1'
_cell_length_a   4.93085377
_cell_length_b   4.93085412
_cell_length_c   10.51059436
_cell_angle_alpha   94.41329815
_cell_angle_beta   94.41329632
_cell_angle_gamma   119.15881001
_symmetry_Int_Tables_number   1
_chemical_formula_structural   YbCu4
_chemical_formula_sum   'Yb3 Cu12'
_cell_volume   220.57047820
_cell_formula_units_Z   3
loop_
 _symmetry_equiv_pos_site_id
 _symmetry_equiv_pos_as_xyz
  1  'x, y, z'
loop_
 _atom_site_type_symbol
 _atom_site_label
 _atom_site_symmetry_multiplicity
 _atom_site_fract_x
 _atom_site_fract_y
 _atom_site_fract_z
 _atom_site_occupancy
  Yb  Yb0  1  0.000000  0.000000  0.000000  1
  Yb  Yb1  1  0.128063  0.128063  0.358085  1
  Yb  Yb2  1  0.871937  0.871937  0.641915  1
  Cu  Cu3  1  0.663699  0.336302  0.000000  1
  Cu  Cu4  1  0.336302  0.663699  0.000000  1
  Cu  Cu5  1  0.569225  0.068541  0.197411  1
  Cu  Cu6  1  0.068541  0.569225  0.197411  1
  Cu  Cu7  1  0.573654  0.573654  0.203355  1
  Cu  Cu8  1  0.804200  0.460627  0.405861  1
  Cu  Cu9  1  0.460627  0.804200  0.405861  1
  Cu  Cu10  1  0.539375  0.195801  0.594139  1
  Cu  Cu11  1  0.195801  0.539375  0.594139  1
  Cu  Cu12  1  0.426345  0.426345  0.796645  1
  Cu  Cu13  1  0.931458  0.430774  0.802590  1
  Cu  Cu14  1  0.430774  0.931458  0.802590  1
