# generated using pymatgen
data_Li2Er3AgSn3
_symmetry_space_group_name_H-M   'P 1'
_cell_length_a   7.23249100
_cell_length_b   7.23505526
_cell_length_c   4.58365000
_cell_angle_alpha   90.00000000
_cell_angle_beta   90.00000000
_cell_angle_gamma   119.98827197
_symmetry_Int_Tables_number   1
_chemical_formula_structural   Li2Er3AgSn3
_chemical_formula_sum   'Li2 Er3 Ag1 Sn3'
_cell_volume   207.74144428
_cell_formula_units_Z   1
loop_
 _symmetry_equiv_pos_site_id
 _symmetry_equiv_pos_as_xyz
  1  'x, y, z'
loop_
 _atom_site_type_symbol
 _atom_site_label
 _atom_site_symmetry_multiplicity
 _atom_site_fract_x
 _atom_site_fract_y
 _atom_site_fract_z
 _atom_site_occupancy
  Li  Li0  1  0.005249  0.231573  0.500000  1
  Li  Li1  1  0.773675  0.768427  0.500000  1
  Er  Er2  1  0.001715  0.563535  0.000000  1
  Er  Er3  1  0.438180  0.436465  0.000000  1
  Er  Er4  1  0.550727  0.000000  0.000000  1
  Ag  Ag5  1  0.234773  0.000000  0.500000  1
  Sn  Sn6  1  0.989566  0.000000  0.000000  1
  Sn  Sn7  1  0.672298  0.338480  0.500000  1
  Sn  Sn8  1  0.333817  0.661520  0.500000  1
