# generated using pymatgen
data_Pr2Tm2Ti(ReN4)3
_symmetry_space_group_name_H-M   'P 1'
_cell_length_a   7.19154491
_cell_length_b   7.31734150
_cell_length_c   6.18307316
_cell_angle_alpha   74.70002502
_cell_angle_beta   77.60035322
_cell_angle_gamma   84.67427095
_symmetry_Int_Tables_number   1
_chemical_formula_structural   Pr2Tm2Ti(ReN4)3
_chemical_formula_sum   'Pr2 Tm2 Ti1 Re3 N12'
_cell_volume   306.29322299
_cell_formula_units_Z   1
loop_
 _symmetry_equiv_pos_site_id
 _symmetry_equiv_pos_as_xyz
  1  'x, y, z'
loop_
 _atom_site_type_symbol
 _atom_site_label
 _atom_site_symmetry_multiplicity
 _atom_site_fract_x
 _atom_site_fract_y
 _atom_site_fract_z
 _atom_site_occupancy
  Pr  Pr0  1  0.673078  0.275864  0.238403  1
  Pr  Pr1  1  0.339463  0.718660  0.744884  1
  Tm  Tm2  1  0.910005  0.080279  0.763089  1
  Tm  Tm3  1  0.088574  0.910053  0.265667  1
  Ti  Ti4  1  0.617648  0.800936  0.234480  1
  Re  Re5  1  0.189105  0.382175  0.248819  1
  Re  Re6  1  0.377714  0.207777  0.757196  1
  Re  Re7  1  0.803653  0.614124  0.747282  1
  N  N8  1  0.624614  0.650160  0.996381  1
  N  N9  1  0.384133  0.896901  0.344753  1
  N  N10  1  0.336163  0.360204  0.476474  1
  N  N11  1  0.112051  0.622610  0.170940  1
  N  N12  1  0.996972  0.217909  0.351497  1
  N  N13  1  0.799113  0.990298  0.135213  1
  N  N14  1  0.216423  0.014356  0.862984  1
  N  N15  1  0.615776  0.116025  0.672332  1
  N  N16  1  0.361320  0.350100  0.976451  1
  N  N17  1  0.892178  0.375010  0.834472  1
  N  N18  1  0.666127  0.630499  0.523808  1
  N  N19  1  0.995890  0.786059  0.654877  1
