# generated using pymatgen
data_Ho5Er3SbPd24
_symmetry_space_group_name_H-M   'P 1'
_cell_length_a   8.37866302
_cell_length_b   8.37855002
_cell_length_c   8.37839602
_cell_angle_alpha   90.00493720
_cell_angle_beta   89.99307965
_cell_angle_gamma   89.99473463
_symmetry_Int_Tables_number   1
_chemical_formula_structural   Ho5Er3SbPd24
_chemical_formula_sum   'Ho5 Er3 Sb1 Pd24'
_cell_volume   588.17216588
_cell_formula_units_Z   1
loop_
 _symmetry_equiv_pos_site_id
 _symmetry_equiv_pos_as_xyz
  1  'x, y, z'
loop_
 _atom_site_type_symbol
 _atom_site_label
 _atom_site_symmetry_multiplicity
 _atom_site_fract_x
 _atom_site_fract_y
 _atom_site_fract_z
 _atom_site_occupancy
  Ho  Ho0  1  0.745466  0.745489  0.254536  1
  Ho  Ho1  1  0.745471  0.254529  0.745481  1
  Ho  Ho2  1  0.254525  0.745487  0.745483  1
  Ho  Ho3  1  0.745500  0.745483  0.745483  1
  Ho  Ho4  1  0.745492  0.254501  0.254514  1
  Er  Er5  1  0.254527  0.254535  0.745505  1
  Er  Er6  1  0.254554  0.745471  0.254519  1
  Er  Er7  1  0.254548  0.254536  0.254520  1
  Sb  Sb8  1  0.999824  0.999941  0.999945  1
  Pd  Pd9  1  0.000270  0.000021  0.304474  1
  Pd  Pd10  1  0.735947  0.000004  0.499998  1
  Pd  Pd11  1  0.735945  0.499999  0.000004  1
  Pd  Pd12  1  0.499874  0.000140  0.735937  1
  Pd  Pd13  1  0.000158  0.735936  0.499881  1
  Pd  Pd14  1  0.499759  0.000011  0.264072  1
  Pd  Pd15  1  0.000286  0.264068  0.499997  1
  Pd  Pd16  1  0.499877  0.735938  0.000137  1
  Pd  Pd17  1  0.254702  0.499862  0.499855  1
  Pd  Pd18  1  0.499851  0.499857  0.745299  1
  Pd  Pd19  1  0.499713  0.499988  0.254697  1
  Pd  Pd20  1  0.499707  0.254698  0.499992  1
  Pd  Pd21  1  0.499842  0.745298  0.499860  1
  Pd  Pd22  1  0.745301  0.499997  0.500001  1
  Pd  Pd23  1  0.304439  0.000121  0.000118  1
  Pd  Pd24  1  0.000167  0.000122  0.695496  1
  Pd  Pd25  1  0.000281  0.499992  0.264073  1
  Pd  Pd26  1  0.000270  0.304469  0.000019  1
  Pd  Pd27  1  0.000164  0.695505  0.000123  1
  Pd  Pd28  1  0.695470  0.000026  0.000027  1
  Pd  Pd29  1  0.264083  0.499882  0.000137  1
  Pd  Pd30  1  0.264077  0.000141  0.499876  1
  Pd  Pd31  1  0.000153  0.499885  0.735931  1
  Pd  Pd32  1  0.499758  0.264070  0.000009  1
