# generated using pymatgen
data_Tb5PrCoBr10
_symmetry_space_group_name_H-M   'P 1'
_cell_length_a   7.41579923
_cell_length_b   9.22760035
_cell_length_c   9.31710337
_cell_angle_alpha   108.16552279
_cell_angle_beta   96.73089137
_cell_angle_gamma   104.29636978
_symmetry_Int_Tables_number   1
_chemical_formula_structural   Tb5PrCoBr10
_chemical_formula_sum   'Tb5 Pr1 Co1 Br10'
_cell_volume   573.82748948
_cell_formula_units_Z   1
loop_
 _symmetry_equiv_pos_site_id
 _symmetry_equiv_pos_as_xyz
  1  'x, y, z'
loop_
 _atom_site_type_symbol
 _atom_site_label
 _atom_site_symmetry_multiplicity
 _atom_site_fract_x
 _atom_site_fract_y
 _atom_site_fract_z
 _atom_site_occupancy
  Tb  Tb0  1  0.964947  0.279222  0.587652  1
  Tb  Tb1  1  0.877857  0.952458  0.744096  1
  Tb  Tb2  1  0.125565  0.046776  0.256890  1
  Tb  Tb3  1  0.353552  0.131364  0.676969  1
  Tb  Tb4  1  0.646723  0.873101  0.323938  1
  Pr  Pr5  1  0.034013  0.710089  0.408664  1
  Co  Co6  1  0.001254  0.998646  0.499798  1
  Br  Br7  1  0.462502  0.825986  0.587532  1
  Br  Br8  1  0.547235  0.181034  0.418445  1
  Br  Br9  1  0.909418  0.629302  0.678903  1
  Br  Br10  1  0.085218  0.362272  0.329309  1
  Br  Br11  1  0.246889  0.085349  0.955357  1
  Br  Br12  1  0.756199  0.919957  0.046267  1
  Br  Br13  1  0.338696  0.445555  0.768596  1
  Br  Br14  1  0.639500  0.553582  0.225412  1
  Br  Br15  1  0.779439  0.249821  0.842934  1
  Br  Br16  1  0.230996  0.755486  0.149238  1
