# generated using pymatgen
data_PrNdEr2(Co2I)2
_symmetry_space_group_name_H-M   'P 1'
_cell_length_a   3.96377500
_cell_length_b   3.96377488
_cell_length_c   17.27392500
_cell_angle_alpha   90.00000000
_cell_angle_beta   90.00000000
_cell_angle_gamma   119.99999262
_symmetry_Int_Tables_number   1
_chemical_formula_structural   PrNdEr2(Co2I)2
_chemical_formula_sum   'Pr1 Nd1 Er2 Co4 I2'
_cell_volume   235.03885856
_cell_formula_units_Z   1
loop_
 _symmetry_equiv_pos_site_id
 _symmetry_equiv_pos_as_xyz
  1  'x, y, z'
loop_
 _atom_site_type_symbol
 _atom_site_label
 _atom_site_symmetry_multiplicity
 _atom_site_fract_x
 _atom_site_fract_y
 _atom_site_fract_z
 _atom_site_occupancy
  Pr  Pr0  1  0.000000  0.000000  0.609229  1
  Nd  Nd1  1  0.000000  0.000000  0.391148  1
  Er  Er2  1  0.000000  0.000000  0.099436  1
  Er  Er3  1  0.000000  0.000000  0.900748  1
  Co  Co4  1  0.333333  0.666667  0.498926  1
  Co  Co5  1  0.666667  0.333333  0.499604  1
  Co  Co6  1  0.666667  0.333333  0.001744  1
  Co  Co7  1  0.333333  0.666667  0.998318  1
  I  I8  1  0.333333  0.666667  0.240971  1
  I  I9  1  0.666667  0.333333  0.759875  1
