# generated using pymatgen
data_Tb2UFe2
_symmetry_space_group_name_H-M   'P 1'
_cell_length_a   5.98073201
_cell_length_b   5.98073239
_cell_length_c   5.98073194
_cell_angle_alpha   145.70284578
_cell_angle_beta   121.42910878
_cell_angle_gamma   69.66127604
_symmetry_Int_Tables_number   1
_chemical_formula_structural   Tb2UFe2
_chemical_formula_sum   'Tb2 U1 Fe2'
_cell_volume   101.30650669
_cell_formula_units_Z   1
loop_
 _symmetry_equiv_pos_site_id
 _symmetry_equiv_pos_as_xyz
  1  'x, y, z'
loop_
 _atom_site_type_symbol
 _atom_site_label
 _atom_site_symmetry_multiplicity
 _atom_site_fract_x
 _atom_site_fract_y
 _atom_site_fract_z
 _atom_site_occupancy
  Tb  Tb0  1  0.699549  0.199550  0.500000  1
  Tb  Tb1  1  0.300450  0.800450  0.500000  1
  U  U2  1  0.000000  0.000000  0.000000  1
  Fe  Fe3  1  0.717802  0.500000  0.217802  1
  Fe  Fe4  1  0.282197  0.500000  0.782198  1
