# generated using pymatgen
data_Ti8Tc2Ge6C
_symmetry_space_group_name_H-M   'P 1'
_cell_length_a   7.54641700
_cell_length_b   7.54641640
_cell_length_c   5.14926100
_cell_angle_alpha   90.00000000
_cell_angle_beta   90.00000000
_cell_angle_gamma   119.99998949
_symmetry_Int_Tables_number   1
_chemical_formula_structural   Ti8Tc2Ge6C
_chemical_formula_sum   'Ti8 Tc2 Ge6 C1'
_cell_volume   253.95522228
_cell_formula_units_Z   1
loop_
 _symmetry_equiv_pos_site_id
 _symmetry_equiv_pos_as_xyz
  1  'x, y, z'
loop_
 _atom_site_type_symbol
 _atom_site_label
 _atom_site_symmetry_multiplicity
 _atom_site_fract_x
 _atom_site_fract_y
 _atom_site_fract_z
 _atom_site_occupancy
  Ti  Ti0  1  0.000000  0.766277  0.258119  1
  Ti  Ti1  1  0.233723  0.233723  0.258119  1
  Ti  Ti2  1  0.766277  0.000000  0.258119  1
  Ti  Ti3  1  0.000000  0.233723  0.741881  1
  Ti  Ti4  1  0.766277  0.766277  0.741881  1
  Ti  Ti5  1  0.233723  0.000000  0.741881  1
  Ti  Ti6  1  0.333333  0.666667  0.000000  1
  Ti  Ti7  1  0.666667  0.333333  0.000000  1
  Tc  Tc8  1  0.666667  0.333333  0.500000  1
  Tc  Tc9  1  0.333333  0.666667  0.500000  1
  Ge  Ge10  1  0.000000  0.397887  0.249810  1
  Ge  Ge11  1  0.602113  0.602113  0.249810  1
  Ge  Ge12  1  0.397887  0.000000  0.249810  1
  Ge  Ge13  1  0.000000  0.602113  0.750190  1
  Ge  Ge14  1  0.397887  0.397887  0.750190  1
  Ge  Ge15  1  0.602113  0.000000  0.750190  1
  C  C16  1  0.000000  0.000000  0.500000  1
