# generated using pymatgen
data_Y3Er7Ru3Rh
_symmetry_space_group_name_H-M   'P 1'
_cell_length_a   6.32784719
_cell_length_b   7.29501845
_cell_length_c   8.43305803
_cell_angle_alpha   96.84488298
_cell_angle_beta   111.98681488
_cell_angle_gamma   90.21211276
_symmetry_Int_Tables_number   1
_chemical_formula_structural   Y3Er7Ru3Rh
_chemical_formula_sum   'Y3 Er7 Ru3 Rh1'
_cell_volume   357.90528184
_cell_formula_units_Z   1
loop_
 _symmetry_equiv_pos_site_id
 _symmetry_equiv_pos_as_xyz
  1  'x, y, z'
loop_
 _atom_site_type_symbol
 _atom_site_label
 _atom_site_symmetry_multiplicity
 _atom_site_fract_x
 _atom_site_fract_y
 _atom_site_fract_z
 _atom_site_occupancy
  Y  Y0  1  0.791329  0.580747  0.813151  1
  Y  Y1  1  0.979818  0.916386  0.190055  1
  Y  Y2  1  0.210274  0.416227  0.187469  1
  Er  Er3  1  0.023222  0.086619  0.813571  1
  Er  Er4  1  0.203185  0.683101  0.564671  1
  Er  Er5  1  0.642462  0.815964  0.432865  1
  Er  Er6  1  0.793488  0.314601  0.434608  1
  Er  Er7  1  0.357177  0.186187  0.564860  1
  Er  Er8  1  0.419924  0.749682  0.000071  1
  Er  Er9  1  0.578539  0.251454  0.000964  1
  Ru  Ru10  1  0.819695  0.575927  0.220977  1
  Ru  Ru11  1  0.401147  0.074467  0.221691  1
  Ru  Ru12  1  0.180241  0.422436  0.778130  1
  Rh  Rh13  1  0.599501  0.926201  0.776916  1
