# generated using pymatgen
data_Tb4MnFe3Br2
_symmetry_space_group_name_H-M   'P 1'
_cell_length_a   3.89119200
_cell_length_b   3.89119176
_cell_length_c   16.74584000
_cell_angle_alpha   90.00000000
_cell_angle_beta   90.00000000
_cell_angle_gamma   119.99996804
_symmetry_Int_Tables_number   1
_chemical_formula_structural   Tb4MnFe3Br2
_chemical_formula_sum   'Tb4 Mn1 Fe3 Br2'
_cell_volume   219.58516838
_cell_formula_units_Z   1
loop_
 _symmetry_equiv_pos_site_id
 _symmetry_equiv_pos_as_xyz
  1  'x, y, z'
loop_
 _atom_site_type_symbol
 _atom_site_label
 _atom_site_symmetry_multiplicity
 _atom_site_fract_x
 _atom_site_fract_y
 _atom_site_fract_z
 _atom_site_occupancy
  Tb  Tb0  1  0.000000  0.000000  0.110840  1
  Tb  Tb1  1  0.000000  0.000000  0.610920  1
  Tb  Tb2  1  0.000000  0.000000  0.388171  1
  Tb  Tb3  1  0.000000  0.000000  0.889316  1
  Mn  Mn4  1  0.333333  0.666667  0.490618  1
  Fe  Fe5  1  0.666667  0.333333  0.995436  1
  Fe  Fe6  1  0.333333  0.666667  0.004595  1
  Fe  Fe7  1  0.666667  0.333333  0.510152  1
  Br  Br8  1  0.666667  0.333333  0.250088  1
  Br  Br9  1  0.333333  0.666667  0.749862  1
