# generated using pymatgen
data_Sr12AgGe12Au11
_symmetry_space_group_name_H-M   'P 1'
_cell_length_a   4.66155300
_cell_length_b   8.00161339
_cell_length_c   23.17779000
_cell_angle_alpha   90.01783688
_cell_angle_beta   90.00000000
_cell_angle_gamma   90.00000000
_symmetry_Int_Tables_number   1
_chemical_formula_structural   Sr12AgGe12Au11
_chemical_formula_sum   'Sr12 Ag1 Ge12 Au11'
_cell_volume   864.53024784
_cell_formula_units_Z   1
loop_
 _symmetry_equiv_pos_site_id
 _symmetry_equiv_pos_as_xyz
  1  'x, y, z'
loop_
 _atom_site_type_symbol
 _atom_site_label
 _atom_site_symmetry_multiplicity
 _atom_site_fract_x
 _atom_site_fract_y
 _atom_site_fract_z
 _atom_site_occupancy
  Sr  Sr0  1  0.750000  0.213851  0.498473  1
  Sr  Sr1  1  0.250000  0.795108  0.166245  1
  Sr  Sr2  1  0.250000  0.784681  0.501749  1
  Sr  Sr3  1  0.250000  0.794737  0.832303  1
  Sr  Sr4  1  0.250000  0.704703  0.333086  1
  Sr  Sr5  1  0.750000  0.204483  0.833388  1
  Sr  Sr6  1  0.750000  0.285594  0.998670  1
  Sr  Sr7  1  0.750000  0.297913  0.667601  1
  Sr  Sr8  1  0.750000  0.295072  0.334191  1
  Sr  Sr9  1  0.250000  0.704190  0.665351  1
  Sr  Sr10  1  0.250000  0.713997  0.001011  1
  Sr  Sr11  1  0.750000  0.205277  0.167329  1
  Ag  Ag12  1  0.250000  0.086280  0.597624  1
  Ge  Ge13  1  0.250000  0.411680  0.566369  1
  Ge  Ge14  1  0.250000  0.082534  0.393679  1
  Ge  Ge15  1  0.250000  0.089825  0.066926  1
  Ge  Ge16  1  0.250000  0.416880  0.892920  1
  Ge  Ge17  1  0.750000  0.583325  0.106577  1
  Ge  Ge18  1  0.250000  0.418810  0.773989  1
  Ge  Ge19  1  0.750000  0.581478  0.225602  1
  Ge  Ge20  1  0.750000  0.589465  0.434080  1
  Ge  Ge21  1  0.750000  0.910133  0.933511  1
  Ge  Ge22  1  0.250000  0.081452  0.274551  1
  Ge  Ge23  1  0.750000  0.916243  0.606350  1
  Ge  Ge24  1  0.750000  0.919111  0.724756  1
  Au  Au25  1  0.250000  0.085866  0.736827  1
  Au  Au26  1  0.750000  0.585620  0.904222  1
  Au  Au27  1  0.750000  0.913190  0.404661  1
  Au  Au28  1  0.750000  0.581730  0.567820  1
  Au  Au29  1  0.750000  0.585835  0.762143  1
  Au  Au30  1  0.250000  0.417658  0.432788  1
  Au  Au31  1  0.250000  0.414395  0.237572  1
  Au  Au32  1  0.750000  0.917559  0.068083  1
  Au  Au33  1  0.250000  0.414500  0.095484  1
  Au  Au34  1  0.250000  0.082422  0.931387  1
  Au  Au35  1  0.750000  0.914402  0.262681  1
