# generated using pymatgen
data_LaSm2AuO7
_symmetry_space_group_name_H-M   'P 1'
_cell_length_a   6.67210640
_cell_length_b   6.67210675
_cell_length_c   7.69242000
_cell_angle_alpha   90.00000000
_cell_angle_beta   90.00000000
_cell_angle_gamma   108.82504416
_symmetry_Int_Tables_number   1
_chemical_formula_structural   LaSm2AuO7
_chemical_formula_sum   'La2 Sm4 Au2 O14'
_cell_volume   324.12562520
_cell_formula_units_Z   2
loop_
 _symmetry_equiv_pos_site_id
 _symmetry_equiv_pos_as_xyz
  1  'x, y, z'
loop_
 _atom_site_type_symbol
 _atom_site_label
 _atom_site_symmetry_multiplicity
 _atom_site_fract_x
 _atom_site_fract_y
 _atom_site_fract_z
 _atom_site_occupancy
  La  La0  1  0.500000  0.500000  0.500000  1
  La  La1  1  0.500000  0.500000  0.000000  1
  Sm  Sm2  1  0.529186  0.998382  0.750000  1
  Sm  Sm3  1  0.998382  0.529186  0.250000  1
  Sm  Sm4  1  0.470814  0.001618  0.250000  1
  Sm  Sm5  1  0.001618  0.470814  0.750000  1
  Au  Au6  1  0.000000  0.000000  0.500000  1
  Au  Au7  1  0.000000  0.000000  0.000000  1
  O  O8  1  0.678475  0.928937  0.475906  1
  O  O9  1  0.928937  0.678475  0.524094  1
  O  O10  1  0.678475  0.928937  0.024094  1
  O  O11  1  0.928937  0.678475  0.975906  1
  O  O12  1  0.321525  0.071063  0.524094  1
  O  O13  1  0.071063  0.321525  0.475906  1
  O  O14  1  0.321525  0.071063  0.975906  1
  O  O15  1  0.071063  0.321525  0.024094  1
  O  O16  1  0.926473  0.073527  0.750000  1
  O  O17  1  0.073527  0.926473  0.250000  1
  O  O18  1  0.365733  0.634266  0.750000  1
  O  O19  1  0.634266  0.365733  0.250000  1
  O  O20  1  0.640598  0.359402  0.750000  1
  O  O21  1  0.359402  0.640598  0.250000  1
