# generated using pymatgen
data_Th2Al9Pd2W
_symmetry_space_group_name_H-M   'P 1'
_cell_length_a   7.74035700
_cell_length_b   7.74035647
_cell_length_c   9.59602900
_cell_angle_alpha   90.00000000
_cell_angle_beta   90.00000000
_cell_angle_gamma   119.04897819
_symmetry_Int_Tables_number   1
_chemical_formula_structural   Th2Al9Pd2W
_chemical_formula_sum   'Th4 Al18 Pd4 W2'
_cell_volume   502.60496024
_cell_formula_units_Z   2
loop_
 _symmetry_equiv_pos_site_id
 _symmetry_equiv_pos_as_xyz
  1  'x, y, z'
loop_
 _atom_site_type_symbol
 _atom_site_label
 _atom_site_symmetry_multiplicity
 _atom_site_fract_x
 _atom_site_fract_y
 _atom_site_fract_z
 _atom_site_occupancy
  Th  Th0  1  0.994608  0.690333  0.250000  1
  Th  Th1  1  0.005392  0.309667  0.750000  1
  Th  Th2  1  0.690333  0.994608  0.250000  1
  Th  Th3  1  0.309667  0.005392  0.750000  1
  Al  Al4  1  0.148608  0.148608  0.250000  1
  Al  Al5  1  0.851392  0.851392  0.750000  1
  Al  Al6  1  0.008015  0.342773  0.077689  1
  Al  Al7  1  0.991985  0.657227  0.922311  1
  Al  Al8  1  0.991985  0.657227  0.577689  1
  Al  Al9  1  0.342773  0.008015  0.422311  1
  Al  Al10  1  0.008015  0.342773  0.422311  1
  Al  Al11  1  0.657227  0.991985  0.577689  1
  Al  Al12  1  0.657227  0.991985  0.922311  1
  Al  Al13  1  0.342773  0.008015  0.077689  1
  Al  Al14  1  0.334817  0.334817  0.543006  1
  Al  Al15  1  0.665183  0.665183  0.456994  1
  Al  Al16  1  0.665183  0.665183  0.043006  1
  Al  Al17  1  0.334817  0.334817  0.956994  1
  Al  Al18  1  0.348066  0.555218  0.250000  1
  Al  Al19  1  0.651934  0.444782  0.750000  1
  Al  Al20  1  0.555218  0.348066  0.250000  1
  Al  Al21  1  0.444782  0.651934  0.750000  1
  Pd  Pd22  1  0.672310  0.327690  0.000000  1
  Pd  Pd23  1  0.327690  0.672310  0.000000  1
  Pd  Pd24  1  0.327690  0.672310  0.500000  1
  Pd  Pd25  1  0.672310  0.327690  0.500000  1
  W  W26  1  0.000000  0.000000  0.000000  1
  W  W27  1  0.000000  0.000000  0.500000  1
