# generated using pymatgen
data_Hf8Mn2Fe5Si14Ni
_symmetry_space_group_name_H-M   'P 1'
_cell_length_a   9.50288257
_cell_length_b   9.50949300
_cell_length_c   9.49070568
_cell_angle_alpha   94.07926520
_cell_angle_beta   94.05139702
_cell_angle_gamma   149.03645865
_symmetry_Int_Tables_number   1
_chemical_formula_structural   Hf8Mn2Fe5Si14Ni
_chemical_formula_sum   'Hf8 Mn2 Fe5 Si14 Ni1'
_cell_volume   425.40867613
_cell_formula_units_Z   1
loop_
 _symmetry_equiv_pos_site_id
 _symmetry_equiv_pos_as_xyz
  1  'x, y, z'
loop_
 _atom_site_type_symbol
 _atom_site_label
 _atom_site_symmetry_multiplicity
 _atom_site_fract_x
 _atom_site_fract_y
 _atom_site_fract_z
 _atom_site_occupancy
  Hf  Hf0  1  0.136289  0.136189  0.277673  1
  Hf  Hf1  1  0.865077  0.865060  0.724325  1
  Hf  Hf2  1  0.861485  0.136430  0.000392  1
  Hf  Hf3  1  0.139319  0.863462  0.000320  1
  Hf  Hf4  1  0.505619  0.308885  0.803725  1
  Hf  Hf5  1  0.502259  0.697355  0.196430  1
  Hf  Hf6  1  0.694301  0.497153  0.197445  1
  Hf  Hf7  1  0.299204  0.494755  0.804273  1
  Mn  Mn8  1  0.893692  0.100496  0.500408  1
  Mn  Mn9  1  0.893693  0.393709  0.788272  1
  Fe  Fe10  1  0.399775  0.901169  0.800324  1
  Fe  Fe11  1  0.099259  0.601589  0.201891  1
  Fe  Fe12  1  0.100622  0.906347  0.500666  1
  Fe  Fe13  1  0.396897  0.596784  0.500018  1
  Fe  Fe14  1  0.609925  0.395728  0.499235  1
  Si  Si15  1  0.475228  0.069918  0.586031  1
  Si  Si16  1  0.470911  0.878886  0.407239  1
  Si  Si17  1  0.937131  0.533236  0.411091  1
  Si  Si18  1  0.113302  0.522918  0.589190  1
  Si  Si19  1  0.750906  0.749894  0.001173  1
  Si  Si20  1  0.250219  0.250087  0.000519  1
  Si  Si21  1  0.301677  0.298523  0.581622  1
  Si  Si22  1  0.702714  0.699360  0.419718  1
  Si  Si23  1  0.716477  0.297874  0.000351  1
  Si  Si24  1  0.282885  0.701712  0.000550  1
  Si  Si25  1  0.007289  0.307494  0.297321  1
  Si  Si26  1  0.011292  0.716222  0.699498  1
  Si  Si27  1  0.688298  0.984313  0.703893  1
  Si  Si28  1  0.292367  0.993277  0.301916  1
  Ni  Ni29  1  0.601889  0.101177  0.204491  1
