# generated using pymatgen
data_InSn7(B3Ir7)2
_symmetry_space_group_name_H-M   'P 1'
_cell_length_a   9.41273950
_cell_length_b   9.35359839
_cell_length_c   5.69911100
_cell_angle_alpha   90.00000000
_cell_angle_beta   90.00000000
_cell_angle_gamma   119.95810008
_symmetry_Int_Tables_number   1
_chemical_formula_structural   InSn7(B3Ir7)2
_chemical_formula_sum   'In1 Sn7 B6 Ir14'
_cell_volume   434.72610019
_cell_formula_units_Z   1
loop_
 _symmetry_equiv_pos_site_id
 _symmetry_equiv_pos_as_xyz
  1  'x, y, z'
loop_
 _atom_site_type_symbol
 _atom_site_label
 _atom_site_symmetry_multiplicity
 _atom_site_fract_x
 _atom_site_fract_y
 _atom_site_fract_z
 _atom_site_occupancy
  In  In0  1  0.507010  0.093131  0.750000  1
  Sn  Sn1  1  0.091307  0.589906  0.250000  1
  Sn  Sn2  1  0.905650  0.407781  0.750000  1
  Sn  Sn3  1  0.588142  0.495692  0.750000  1
  Sn  Sn4  1  0.498246  0.911850  0.250000  1
  Sn  Sn5  1  0.332868  0.668605  0.750000  1
  Sn  Sn6  1  0.411103  0.503031  0.250000  1
  Sn  Sn7  1  0.664842  0.331064  0.250000  1
  B  B8  1  0.827031  0.790657  0.250000  1
  B  B9  1  0.964898  0.173614  0.250000  1
  B  B10  1  0.209905  0.036975  0.250000  1
  B  B11  1  0.790605  0.963196  0.750000  1
  B  B12  1  0.037314  0.827050  0.750000  1
  B  B13  1  0.172689  0.209225  0.750000  1
  Ir  Ir14  1  0.124309  0.354452  0.998638  1
  Ir  Ir15  1  0.773325  0.123001  0.496870  1
  Ir  Ir16  1  0.773325  0.123001  0.003130  1
  Ir  Ir17  1  0.646747  0.770380  0.500800  1
  Ir  Ir18  1  0.124309  0.354452  0.501362  1
  Ir  Ir19  1  0.875397  0.646152  0.001052  1
  Ir  Ir20  1  0.350989  0.229664  0.001462  1
  Ir  Ir21  1  0.227907  0.875847  0.501200  1
  Ir  Ir22  1  0.875397  0.646152  0.498948  1
  Ir  Ir23  1  0.350989  0.229664  0.498538  1
  Ir  Ir24  1  0.227907  0.875847  0.998800  1
  Ir  Ir25  1  0.000522  0.999615  0.499918  1
  Ir  Ir26  1  0.000522  0.999615  0.000082  1
  Ir  Ir27  1  0.646747  0.770380  0.999200  1
