# generated using pymatgen
data_Tm3Lu7Sn6
_symmetry_space_group_name_H-M   'P 1'
_cell_length_a   8.79900724
_cell_length_b   8.79565669
_cell_length_c   6.39128000
_cell_angle_alpha   90.00000000
_cell_angle_beta   90.00000000
_cell_angle_gamma   120.04134285
_symmetry_Int_Tables_number   1
_chemical_formula_structural   Tm3Lu7Sn6
_chemical_formula_sum   'Tm3 Lu7 Sn6'
_cell_volume   428.19278344
_cell_formula_units_Z   1
loop_
 _symmetry_equiv_pos_site_id
 _symmetry_equiv_pos_as_xyz
  1  'x, y, z'
loop_
 _atom_site_type_symbol
 _atom_site_label
 _atom_site_symmetry_multiplicity
 _atom_site_fract_x
 _atom_site_fract_y
 _atom_site_fract_z
 _atom_site_occupancy
  Tm  Tm0  1  0.762947  0.763022  0.250000  1
  Tm  Tm1  1  0.237003  0.237085  0.750001  1
  Tm  Tm2  1  0.999987  0.762804  0.750001  1
  Lu  Lu3  1  0.333325  0.666698  0.000024  1
  Lu  Lu4  1  0.666681  0.333257  0.499974  1
  Lu  Lu5  1  0.666681  0.333257  0.000025  1
  Lu  Lu6  1  0.333325  0.666698  0.499975  1
  Lu  Lu7  1  0.237269  0.000088  0.250000  1
  Lu  Lu8  1  0.762790  0.000076  0.750001  1
  Lu  Lu9  1  0.000016  0.237073  0.250000  1
  Sn  Sn10  1  0.604103  0.000201  0.250000  1
  Sn  Sn11  1  0.396199  0.999997  0.750001  1
  Sn  Sn12  1  0.000200  0.604143  0.250000  1
  Sn  Sn13  1  0.395553  0.395559  0.250000  1
  Sn  Sn14  1  0.604130  0.604341  0.750001  1
  Sn  Sn15  1  0.999794  0.395704  0.750001  1
