# generated using pymatgen
data_La2Mn3Ni9P7
_symmetry_space_group_name_H-M   'P 1'
_cell_length_a   9.21823400
_cell_length_b   9.21823465
_cell_length_c   3.75506800
_cell_angle_alpha   90.00000000
_cell_angle_beta   90.00000000
_cell_angle_gamma   120.00000483
_symmetry_Int_Tables_number   1
_chemical_formula_structural   La2Mn3Ni9P7
_chemical_formula_sum   'La2 Mn3 Ni9 P7'
_cell_volume   276.34009585
_cell_formula_units_Z   1
loop_
 _symmetry_equiv_pos_site_id
 _symmetry_equiv_pos_as_xyz
  1  'x, y, z'
loop_
 _atom_site_type_symbol
 _atom_site_label
 _atom_site_symmetry_multiplicity
 _atom_site_fract_x
 _atom_site_fract_y
 _atom_site_fract_z
 _atom_site_occupancy
  La  La0  1  0.666667  0.333333  0.000000  1
  La  La1  1  0.333333  0.666667  0.500000  1
  Mn  Mn2  1  0.216097  0.099834  0.000000  1
  Mn  Mn3  1  0.900166  0.116264  0.000000  1
  Mn  Mn4  1  0.883736  0.783903  0.000000  1
  Ni  Ni5  1  0.428817  0.059863  0.500000  1
  Ni  Ni6  1  0.940137  0.368955  0.500000  1
  Ni  Ni7  1  0.631045  0.571183  0.500000  1
  Ni  Ni8  1  0.149398  0.273498  0.500000  1
  Ni  Ni9  1  0.726502  0.875899  0.500000  1
  Ni  Ni10  1  0.124101  0.850602  0.500000  1
  Ni  Ni11  1  0.382109  0.431609  0.000000  1
  Ni  Ni12  1  0.568391  0.950500  0.000000  1
  Ni  Ni13  1  0.049500  0.617891  0.000000  1
  P  P14  1  0.104401  0.397206  0.000000  1
  P  P15  1  0.602794  0.707194  0.000000  1
  P  P16  1  0.292806  0.895599  0.000000  1
  P  P17  1  0.000000  0.000000  0.500000  1
  P  P18  1  0.402391  0.298138  0.500000  1
  P  P19  1  0.701862  0.104253  0.500000  1
  P  P20  1  0.895747  0.597609  0.500000  1
