# generated using pymatgen
data_Yb2ErTh(Al8Pt3)3
_symmetry_space_group_name_H-M   'P 1'
_cell_length_a   7.55058504
_cell_length_b   7.54874263
_cell_length_c   13.22262856
_cell_angle_alpha   84.60337162
_cell_angle_beta   100.90622769
_cell_angle_gamma   119.83457030
_symmetry_Int_Tables_number   1
_chemical_formula_structural   Yb2ErTh(Al8Pt3)3
_chemical_formula_sum   'Yb2 Er1 Th1 Al24 Pt9'
_cell_volume   641.96201905
_cell_formula_units_Z   1
loop_
 _symmetry_equiv_pos_site_id
 _symmetry_equiv_pos_as_xyz
  1  'x, y, z'
loop_
 _atom_site_type_symbol
 _atom_site_label
 _atom_site_symmetry_multiplicity
 _atom_site_fract_x
 _atom_site_fract_y
 _atom_site_fract_z
 _atom_site_occupancy
  Yb  Yb0  1  0.266506  0.000635  0.806638  1
  Yb  Yb1  1  0.062665  0.668609  0.192333  1
  Er  Er2  1  0.937664  0.332388  0.806673  1
  Th  Th3  1  0.731765  0.998903  0.192330  1
  Al  Al4  1  0.807148  0.869475  0.815640  1
  Al  Al5  1  0.195930  0.132788  0.184206  1
  Al  Al6  1  0.982598  0.666297  0.944118  1
  Al  Al7  1  0.020941  0.337174  0.052972  1
  Al  Al8  1  0.397171  0.661726  0.816647  1
  Al  Al9  1  0.600002  0.337864  0.182985  1
  Al  Al10  1  0.883200  0.665653  0.671096  1
  Al  Al11  1  0.122426  0.338765  0.332236  1
  Al  Al12  1  0.605064  0.458665  0.816373  1
  Al  Al13  1  0.394675  0.537623  0.183539  1
  Al  Al14  1  0.230387  0.339496  0.669781  1
  Al  Al15  1  0.771292  0.656044  0.333911  1
  Al  Al16  1  0.853393  0.334060  0.559140  1
  Al  Al17  1  0.185985  0.998888  0.559593  1
  Al  Al18  1  0.814997  0.000542  0.443397  1
  Al  Al19  1  0.348096  0.999977  0.052300  1
  Al  Al20  1  0.646940  0.001488  0.941380  1
  Al  Al21  1  0.555534  0.993207  0.671171  1
  Al  Al22  1  0.440333  0.006027  0.332136  1
  Al  Al23  1  0.520594  0.667265  0.562189  1
  Al  Al24  1  0.479378  0.332263  0.439777  1
  Al  Al25  1  0.681963  0.665039  0.043077  1
  Al  Al26  1  0.315027  0.331520  0.951418  1
  Al  Al27  1  0.147056  0.666816  0.441471  1
  Pt  Pt28  1  0.329923  0.672195  0.000071  1
  Pt  Pt29  1  0.546429  0.325321  0.637319  1
  Pt  Pt30  1  0.455809  0.675540  0.363369  1
  Pt  Pt31  1  0.887316  0.008474  0.638863  1
  Pt  Pt32  1  0.111663  0.992541  0.361876  1
  Pt  Pt33  1  0.671578  0.328508  0.999944  1
  Pt  Pt34  1  0.204425  0.666224  0.638415  1
  Pt  Pt35  1  0.795068  0.331468  0.361668  1
  Pt  Pt36  1  0.999054  0.000536  0.999951  1
