# generated using pymatgen
data_BiSb3(SeO3)8
_symmetry_space_group_name_H-M   'P 1'
_cell_length_a   8.53555213
_cell_length_b   8.84206573
_cell_length_c   8.51860550
_cell_angle_alpha   90.57930872
_cell_angle_beta   89.80913048
_cell_angle_gamma   90.06700022
_symmetry_Int_Tables_number   1
_chemical_formula_structural   BiSb3(SeO3)8
_chemical_formula_sum   'Bi1 Sb3 Se8 O24'
_cell_volume   642.87860898
_cell_formula_units_Z   1
loop_
 _symmetry_equiv_pos_site_id
 _symmetry_equiv_pos_as_xyz
  1  'x, y, z'
loop_
 _atom_site_type_symbol
 _atom_site_label
 _atom_site_symmetry_multiplicity
 _atom_site_fract_x
 _atom_site_fract_y
 _atom_site_fract_z
 _atom_site_occupancy
  Bi  Bi0  1  0.000000  0.500000  0.000000  1
  Sb  Sb1  1  0.500000  0.500000  0.500000  1
  Sb  Sb2  1  0.000000  0.000000  0.500000  1
  Sb  Sb3  1  0.500000  0.000000  0.000000  1
  Se  Se4  1  0.352767  0.684921  0.161622  1
  Se  Se5  1  0.844213  0.314143  0.348736  1
  Se  Se6  1  0.688326  0.843964  0.684316  1
  Se  Se7  1  0.189168  0.147079  0.816062  1
  Se  Se8  1  0.647233  0.315079  0.838378  1
  Se  Se9  1  0.155787  0.685857  0.651264  1
  Se  Se10  1  0.311674  0.156036  0.315684  1
  Se  Se11  1  0.810832  0.852921  0.183938  1
  O  O12  1  0.262321  0.567306  0.031760  1
  O  O13  1  0.752913  0.431667  0.479913  1
  O  O14  1  0.768137  0.978672  0.551948  1
  O  O15  1  0.267620  0.010427  0.946688  1
  O  O16  1  0.552518  0.974640  0.768356  1
  O  O17  1  0.488300  0.570317  0.246533  1
  O  O18  1  0.977719  0.429861  0.262770  1
  O  O19  1  0.051762  0.017468  0.732244  1
  O  O20  1  0.978506  0.223909  0.486080  1
  O  O21  1  0.568775  0.748429  0.561969  1
  O  O22  1  0.488554  0.776419  0.024807  1
  O  O23  1  0.070998  0.243439  0.939070  1
  O  O24  1  0.737679  0.432694  0.968240  1
  O  O25  1  0.247087  0.568333  0.520087  1
  O  O26  1  0.231863  0.021328  0.448052  1
  O  O27  1  0.732380  0.989573  0.053312  1
  O  O28  1  0.447482  0.025360  0.231644  1
  O  O29  1  0.511700  0.429683  0.753467  1
  O  O30  1  0.022281  0.570139  0.737230  1
  O  O31  1  0.948238  0.982532  0.267756  1
  O  O32  1  0.021494  0.776091  0.513920  1
  O  O33  1  0.431225  0.251571  0.438031  1
  O  O34  1  0.511446  0.223581  0.975193  1
  O  O35  1  0.929002  0.756561  0.060930  1
