# generated using pymatgen
data_La4InHgPd4
_symmetry_space_group_name_H-M   'P 1'
_cell_length_a   3.96226300
_cell_length_b   7.95601800
_cell_length_c   7.95601800
_cell_angle_alpha   90.00000000
_cell_angle_beta   90.00000000
_cell_angle_gamma   90.00000000
_symmetry_Int_Tables_number   1
_chemical_formula_structural   La4InHgPd4
_chemical_formula_sum   'La4 In1 Hg1 Pd4'
_cell_volume   250.80420465
_cell_formula_units_Z   1
loop_
 _symmetry_equiv_pos_site_id
 _symmetry_equiv_pos_as_xyz
  1  'x, y, z'
loop_
 _atom_site_type_symbol
 _atom_site_label
 _atom_site_symmetry_multiplicity
 _atom_site_fract_x
 _atom_site_fract_y
 _atom_site_fract_z
 _atom_site_occupancy
  La  La0  1  0.500000  0.178069  0.673422  1
  La  La1  1  0.500000  0.821931  0.326578  1
  La  La2  1  0.500000  0.326578  0.178069  1
  La  La3  1  0.500000  0.673422  0.821931  1
  In  In4  1  0.000000  0.000000  0.000000  1
  Hg  Hg5  1  0.000000  0.500000  0.500000  1
  Pd  Pd6  1  0.000000  0.631306  0.122075  1
  Pd  Pd7  1  0.000000  0.368694  0.877925  1
  Pd  Pd8  1  0.000000  0.877925  0.631306  1
  Pd  Pd9  1  0.000000  0.122075  0.368694  1
