# generated using pymatgen
data_LiCe2Nd2Zn7Ru2
_symmetry_space_group_name_H-M   'P 1'
_cell_length_a   7.22663138
_cell_length_b   7.22663138
_cell_length_c   5.16599264
_cell_angle_alpha   90.17080873
_cell_angle_beta   90.17080873
_cell_angle_gamma   90.86163574
_symmetry_Int_Tables_number   1
_chemical_formula_structural   LiCe2Nd2Zn7Ru2
_chemical_formula_sum   'Li1 Ce2 Nd2 Zn7 Ru2'
_cell_volume   269.75689876
_cell_formula_units_Z   1
loop_
 _symmetry_equiv_pos_site_id
 _symmetry_equiv_pos_as_xyz
  1  'x, y, z'
loop_
 _atom_site_type_symbol
 _atom_site_label
 _atom_site_symmetry_multiplicity
 _atom_site_fract_x
 _atom_site_fract_y
 _atom_site_fract_z
 _atom_site_occupancy
  Li  Li0  1  0.185544  0.685544  0.293252  1
  Ce  Ce1  1  0.001412  0.998670  0.002273  1
  Ce  Ce2  1  0.498670  0.501412  0.002273  1
  Nd  Nd3  1  0.999805  0.499805  0.767604  1
  Nd  Nd4  1  0.501911  0.001911  0.227927  1
  Zn  Zn5  1  0.815013  0.686125  0.290924  1
  Zn  Zn6  1  0.815811  0.315811  0.288409  1
  Zn  Zn7  1  0.313679  0.185179  0.709621  1
  Zn  Zn8  1  0.186125  0.315013  0.290924  1
  Zn  Zn9  1  0.685731  0.185731  0.710791  1
  Zn  Zn10  1  0.685179  0.813679  0.709621  1
  Zn  Zn11  1  0.311250  0.811250  0.709871  1
  Ru  Ru12  1  0.502236  0.497633  0.498255  1
  Ru  Ru13  1  0.997633  0.002236  0.498255  1
