# generated using pymatgen
data_Er5Tm5(CoHg)4
_symmetry_space_group_name_H-M   'P 1'
_cell_length_a   7.79748770
_cell_length_b   7.79748782
_cell_length_c   15.29271450
_cell_angle_alpha   89.85325031
_cell_angle_beta   90.14674972
_cell_angle_gamma   152.80640815
_symmetry_Int_Tables_number   1
_chemical_formula_structural   Er5Tm5(CoHg)4
_chemical_formula_sum   'Er5 Tm5 Co4 Hg4'
_cell_volume   424.92002932
_cell_formula_units_Z   1
loop_
 _symmetry_equiv_pos_site_id
 _symmetry_equiv_pos_as_xyz
  1  'x, y, z'
loop_
 _atom_site_type_symbol
 _atom_site_label
 _atom_site_symmetry_multiplicity
 _atom_site_fract_x
 _atom_site_fract_y
 _atom_site_fract_z
 _atom_site_occupancy
  Er  Er0  1  0.960361  0.039639  0.372664  1
  Er  Er1  1  0.039863  0.960137  0.627201  1
  Er  Er2  1  0.253160  0.746840  0.127472  1
  Er  Er3  1  0.253221  0.746779  0.371739  1
  Er  Er4  1  0.746990  0.253010  0.872898  1
  Tm  Tm5  1  0.607319  0.392681  0.249529  1
  Tm  Tm6  1  0.746347  0.253653  0.628294  1
  Tm  Tm7  1  0.959594  0.040406  0.127538  1
  Tm  Tm8  1  0.040248  0.959752  0.872303  1
  Tm  Tm9  1  0.392118  0.607882  0.750173  1
  Co  Co10  1  0.405914  0.594086  0.249931  1
  Co  Co11  1  0.594590  0.405410  0.749876  1
  Co  Co12  1  0.809729  0.190271  0.249522  1
  Co  Co13  1  0.190872  0.809128  0.750318  1
  Hg  Hg14  1  0.608971  0.391029  0.032223  1
  Hg  Hg15  1  0.610408  0.389592  0.467805  1
  Hg  Hg16  1  0.389057  0.610943  0.531836  1
  Hg  Hg17  1  0.391237  0.608763  0.968676  1
