# generated using pymatgen
data_Ho20Ga8BiPb3
_symmetry_space_group_name_H-M   'P 1'
_cell_length_a   8.17152600
_cell_length_b   8.17152600
_cell_length_c   12.74967900
_cell_angle_alpha   90.00000000
_cell_angle_beta   90.00000000
_cell_angle_gamma   90.00000000
_symmetry_Int_Tables_number   1
_chemical_formula_structural   Ho20Ga8BiPb3
_chemical_formula_sum   'Ho20 Ga8 Bi1 Pb3'
_cell_volume   851.34498950
_cell_formula_units_Z   1
loop_
 _symmetry_equiv_pos_site_id
 _symmetry_equiv_pos_as_xyz
  1  'x, y, z'
loop_
 _atom_site_type_symbol
 _atom_site_label
 _atom_site_symmetry_multiplicity
 _atom_site_fract_x
 _atom_site_fract_y
 _atom_site_fract_z
 _atom_site_occupancy
  Ho  Ho0  1  0.000000  0.500000  0.750571  1
  Ho  Ho1  1  0.000000  0.500000  0.251509  1
  Ho  Ho2  1  0.500000  0.000000  0.253017  1
  Ho  Ho3  1  0.500000  0.000000  0.745405  1
  Ho  Ho4  1  0.654130  0.653104  0.607657  1
  Ho  Ho5  1  0.655107  0.348884  0.107059  1
  Ho  Ho6  1  0.846378  0.846338  0.392304  1
  Ho  Ho7  1  0.151574  0.845377  0.892997  1
  Ho  Ho8  1  0.345870  0.346896  0.607657  1
  Ho  Ho9  1  0.344893  0.651116  0.107059  1
  Ho  Ho10  1  0.153622  0.153662  0.392304  1
  Ho  Ho11  1  0.848426  0.154623  0.892997  1
  Ho  Ho12  1  0.653662  0.346378  0.392304  1
  Ho  Ho13  1  0.345377  0.348426  0.892997  1
  Ho  Ho14  1  0.153104  0.845870  0.607657  1
  Ho  Ho15  1  0.848884  0.844893  0.107059  1
  Ho  Ho16  1  0.346338  0.653622  0.392304  1
  Ho  Ho17  1  0.654623  0.651574  0.892997  1
  Ho  Ho18  1  0.846896  0.154130  0.607657  1
  Ho  Ho19  1  0.151116  0.155107  0.107059  1
  Ga  Ga20  1  0.852275  0.853001  0.750732  1
  Ga  Ga21  1  0.852283  0.146950  0.249267  1
  Ga  Ga22  1  0.646950  0.647717  0.249267  1
  Ga  Ga23  1  0.353001  0.647725  0.750732  1
  Ga  Ga24  1  0.147725  0.146999  0.750732  1
  Ga  Ga25  1  0.147717  0.853050  0.249267  1
  Ga  Ga26  1  0.353050  0.352283  0.249267  1
  Ga  Ga27  1  0.646999  0.352275  0.750732  1
  Bi  Bi28  1  0.500000  0.000000  0.999424  1
  Pb  Pb29  1  0.000000  0.500000  0.500308  1
  Pb  Pb30  1  0.000000  0.500000  0.000139  1
  Pb  Pb31  1  0.500000  0.000000  0.499561  1
