# generated using pymatgen
data_Ce5(Th3Ru2)3
_symmetry_space_group_name_H-M   'P 1'
_cell_length_a   9.86350377
_cell_length_b   9.84354163
_cell_length_c   6.21979247
_cell_angle_alpha   90.17424892
_cell_angle_beta   90.02789877
_cell_angle_gamma   119.88205893
_symmetry_Int_Tables_number   1
_chemical_formula_structural   Ce5(Th3Ru2)3
_chemical_formula_sum   'Ce5 Th9 Ru6'
_cell_volume   523.60148515
_cell_formula_units_Z   1
loop_
 _symmetry_equiv_pos_site_id
 _symmetry_equiv_pos_as_xyz
  1  'x, y, z'
loop_
 _atom_site_type_symbol
 _atom_site_label
 _atom_site_symmetry_multiplicity
 _atom_site_fract_x
 _atom_site_fract_y
 _atom_site_fract_z
 _atom_site_occupancy
  Ce  Ce0  1  0.460397  0.540148  0.297594  1
  Ce  Ce1  1  0.077803  0.538370  0.306888  1
  Ce  Ce2  1  0.922811  0.461949  0.806273  1
  Ce  Ce3  1  0.250869  0.126211  0.509371  1
  Ce  Ce4  1  0.538396  0.079947  0.797244  1
  Th  Th5  1  0.747790  0.873729  0.009697  1
  Th  Th6  1  0.667952  0.335685  0.292934  1
  Th  Th7  1  0.126028  0.873908  0.006257  1
  Th  Th8  1  0.459416  0.920305  0.293780  1
  Th  Th9  1  0.538357  0.457521  0.791895  1
  Th  Th10  1  0.871998  0.128574  0.512102  1
  Th  Th11  1  0.128010  0.253075  0.013386  1
  Th  Th12  1  0.873920  0.747754  0.507660  1
  Th  Th13  1  0.332389  0.667638  0.790444  1
  Ru  Ru14  1  0.815375  0.628156  0.040551  1
  Ru  Ru15  1  0.814144  0.186836  0.039482  1
  Ru  Ru16  1  0.627419  0.811099  0.541052  1
  Ru  Ru17  1  0.374507  0.184621  0.045648  1
  Ru  Ru18  1  0.188350  0.369864  0.540698  1
  Ru  Ru19  1  0.184068  0.814613  0.541039  1
