# generated using pymatgen
data_LuU(BRu)8
_symmetry_space_group_name_H-M   'P 1'
_cell_length_a   9.18579408
_cell_length_b   7.45764782
_cell_length_c   7.45764800
_cell_angle_alpha   90.00000000
_cell_angle_beta   113.94965508
_cell_angle_gamma   113.94965450
_symmetry_Int_Tables_number   1
_chemical_formula_structural   LuU(BRu)8
_chemical_formula_sum   'Lu2 U2 B16 Ru16'
_cell_volume   418.31070330
_cell_formula_units_Z   2
loop_
 _symmetry_equiv_pos_site_id
 _symmetry_equiv_pos_as_xyz
  1  'x, y, z'
loop_
 _atom_site_type_symbol
 _atom_site_label
 _atom_site_symmetry_multiplicity
 _atom_site_fract_x
 _atom_site_fract_y
 _atom_site_fract_z
 _atom_site_occupancy
  Lu  Lu0  1  0.750000  0.375000  0.625000  1
  Lu  Lu1  1  0.250000  0.125000  0.875000  1
  U  U2  1  0.750000  0.875000  0.125000  1
  U  U3  1  0.250000  0.625000  0.375000  1
  B  B4  1  0.914617  0.288244  0.068709  1
  B  B5  1  0.414616  0.568709  0.126372  1
  B  B6  1  0.085383  0.211756  0.154092  1
  B  B7  1  0.584977  0.150238  0.210492  1
  B  B8  1  0.415022  0.065260  0.289507  1
  B  B9  1  0.914617  0.626373  0.345908  1
  B  B10  1  0.585383  0.654092  0.373627  1
  B  B11  1  0.085383  0.873626  0.431291  1
  B  B12  1  0.915023  0.125517  0.565260  1
  B  B13  1  0.415022  0.349762  0.625515  1
  B  B14  1  0.084977  0.374483  0.650237  1
  B  B15  1  0.585383  0.931291  0.711755  1
  B  B16  1  0.414616  0.845908  0.788243  1
  B  B17  1  0.915023  0.789506  0.849762  1
  B  B18  1  0.584977  0.434740  0.874483  1
  B  B19  1  0.084977  0.710493  0.934740  1
  Ru  Ru20  1  0.872644  0.550956  0.037035  1
  Ru  Ru21  1  0.372645  0.835610  0.050956  1
  Ru  Ru22  1  0.127356  0.949044  0.164391  1
  Ru  Ru23  1  0.626347  0.465452  0.176627  1
  Ru  Ru24  1  0.373654  0.339106  0.323373  1
  Ru  Ru25  1  0.872644  0.321688  0.335610  1
  Ru  Ru26  1  0.627356  0.962965  0.449044  1
  Ru  Ru27  1  0.127356  0.178312  0.462965  1
  Ru  Ru28  1  0.873653  0.823373  0.534548  1
  Ru  Ru29  1  0.373654  0.034549  0.550280  1
  Ru  Ru30  1  0.126347  0.676627  0.660895  1
  Ru  Ru31  1  0.627356  0.664390  0.678312  1
  Ru  Ru32  1  0.372645  0.537036  0.821688  1
  Ru  Ru33  1  0.873653  0.050280  0.839106  1
  Ru  Ru34  1  0.626347  0.160894  0.949720  1
  Ru  Ru35  1  0.126347  0.449720  0.965452  1
