# generated using pymatgen
data_Hf4Al24OsPt8
_symmetry_space_group_name_H-M   'P 1'
_cell_length_a   7.44092862
_cell_length_b   7.47199952
_cell_length_c   12.92026386
_cell_angle_alpha   84.68240023
_cell_angle_beta   78.99963127
_cell_angle_gamma   59.86753111
_symmetry_Int_Tables_number   1
_chemical_formula_structural   Hf4Al24OsPt8
_chemical_formula_sum   'Hf4 Al24 Os1 Pt8'
_cell_volume   609.85675290
_cell_formula_units_Z   1
loop_
 _symmetry_equiv_pos_site_id
 _symmetry_equiv_pos_as_xyz
  1  'x, y, z'
loop_
 _atom_site_type_symbol
 _atom_site_label
 _atom_site_symmetry_multiplicity
 _atom_site_fract_x
 _atom_site_fract_y
 _atom_site_fract_z
 _atom_site_occupancy
  Hf  Hf0  1  0.390276  0.169837  0.811447  1
  Hf  Hf1  1  0.609724  0.830163  0.188553  1
  Hf  Hf2  1  0.734345  0.498599  0.810954  1
  Hf  Hf3  1  0.265655  0.501401  0.189046  1
  Al  Al4  1  0.685678  0.829684  0.942313  1
  Al  Al5  1  0.314322  0.170316  0.057687  1
  Al  Al6  1  0.145567  0.832236  0.564351  1
  Al  Al7  1  0.854433  0.167764  0.435649  1
  Al  Al8  1  0.480503  0.166281  0.561574  1
  Al  Al9  1  0.519497  0.833719  0.438426  1
  Al  Al10  1  0.222379  0.164151  0.320455  1
  Al  Al11  1  0.777621  0.835849  0.679545  1
  Al  Al12  1  0.436430  0.505725  0.679649  1
  Al  Al13  1  0.563570  0.494275  0.320351  1
  Al  Al14  1  0.107473  0.162477  0.676952  1
  Al  Al15  1  0.892527  0.837523  0.323048  1
  Al  Al16  1  0.352758  0.496266  0.942155  1
  Al  Al17  1  0.647242  0.503734  0.057845  1
  Al  Al18  1  0.016648  0.174651  0.949565  1
  Al  Al19  1  0.983352  0.825349  0.050435  1
  Al  Al20  1  0.187577  0.499714  0.439225  1
  Al  Al21  1  0.812423  0.500286  0.560775  1
  Al  Al22  1  0.728676  0.161947  0.182444  1
  Al  Al23  1  0.271324  0.838053  0.817556  1
  Al  Al24  1  0.060591  0.625489  0.818225  1
  Al  Al25  1  0.939409  0.374511  0.181775  1
  Al  Al26  1  0.849456  0.049375  0.816730  1
  Al  Al27  1  0.150544  0.950625  0.183271  1
  Os  Os28  1  0.000000  0.500000  0.000000  1
  Pt  Pt29  1  0.119784  0.489999  0.640530  1
  Pt  Pt30  1  0.880216  0.510001  0.359470  1
  Pt  Pt31  1  0.655498  0.172521  0.999600  1
  Pt  Pt32  1  0.344502  0.827479  0.000400  1
  Pt  Pt33  1  0.535533  0.166415  0.360923  1
  Pt  Pt34  1  0.464467  0.833585  0.639077  1
  Pt  Pt35  1  0.777117  0.177713  0.637480  1
  Pt  Pt36  1  0.222883  0.822287  0.362520  1
