# generated using pymatgen
data_Tb4DyTm3(SiBr6)2
_symmetry_space_group_name_H-M   'P 1'
_cell_length_a   4.04365000
_cell_length_b   13.23287220
_cell_length_c   13.97484668
_cell_angle_alpha   90.12765942
_cell_angle_beta   90.00000000
_cell_angle_gamma   90.00000000
_symmetry_Int_Tables_number   1
_chemical_formula_structural   Tb4DyTm3(SiBr6)2
_chemical_formula_sum   'Tb4 Dy1 Tm3 Si2 Br12'
_cell_volume   747.77966390
_cell_formula_units_Z   1
loop_
 _symmetry_equiv_pos_site_id
 _symmetry_equiv_pos_as_xyz
  1  'x, y, z'
loop_
 _atom_site_type_symbol
 _atom_site_label
 _atom_site_symmetry_multiplicity
 _atom_site_fract_x
 _atom_site_fract_y
 _atom_site_fract_z
 _atom_site_occupancy
  Tb  Tb0  1  0.000000  0.118942  0.579187  1
  Tb  Tb1  1  0.000000  0.881190  0.420654  1
  Tb  Tb2  1  0.000000  0.618787  0.920835  1
  Tb  Tb3  1  0.000000  0.381393  0.079025  1
  Dy  Dy4  1  0.500000  0.117591  0.341826  1
  Tm  Tm5  1  0.500000  0.882429  0.658171  1
  Tm  Tm6  1  0.500000  0.617282  0.157735  1
  Tm  Tm7  1  0.500000  0.382758  0.842222  1
  Si  Si8  1  0.500000  0.999292  0.501001  1
  Si  Si9  1  0.500000  0.500127  0.999900  1
  Br  Br10  1  0.500000  0.242960  0.163749  1
  Br  Br11  1  0.500000  0.757912  0.834785  1
  Br  Br12  1  0.500000  0.741760  0.334589  1
  Br  Br13  1  0.500000  0.258116  0.665653  1
  Br  Br14  1  0.000000  0.255836  0.410363  1
  Br  Br15  1  0.000000  0.746163  0.591483  1
  Br  Br16  1  0.000000  0.753609  0.091501  1
  Br  Br17  1  0.000000  0.246366  0.908438  1
  Br  Br18  1  0.000000  0.002896  0.241873  1
  Br  Br19  1  0.000000  0.994567  0.757048  1
  Br  Br20  1  0.000000  0.505529  0.256833  1
  Br  Br21  1  0.000000  0.494494  0.743131  1
