# generated using pymatgen
data_Lu3Al2Ga3Co
_symmetry_space_group_name_H-M   'P 1'
_cell_length_a   6.79799995
_cell_length_b   6.79800112
_cell_length_c   4.17178200
_cell_angle_alpha   90.00000000
_cell_angle_beta   90.00000000
_cell_angle_gamma   119.82474597
_symmetry_Int_Tables_number   1
_chemical_formula_structural   Lu3Al2Ga3Co
_chemical_formula_sum   'Lu3 Al2 Ga3 Co1'
_cell_volume   167.25490936
_cell_formula_units_Z   1
loop_
 _symmetry_equiv_pos_site_id
 _symmetry_equiv_pos_as_xyz
  1  'x, y, z'
loop_
 _atom_site_type_symbol
 _atom_site_label
 _atom_site_symmetry_multiplicity
 _atom_site_fract_x
 _atom_site_fract_y
 _atom_site_fract_z
 _atom_site_occupancy
  Lu  Lu0  1  0.593441  0.999270  0.000000  1
  Lu  Lu1  1  0.999270  0.593441  0.000000  1
  Lu  Lu2  1  0.407049  0.407049  0.000000  1
  Al  Al3  1  0.229407  0.001270  0.500000  1
  Al  Al4  1  0.001270  0.229407  0.500000  1
  Ga  Ga5  1  0.768721  0.768721  0.500000  1
  Ga  Ga6  1  0.331835  0.666723  0.500000  1
  Ga  Ga7  1  0.666723  0.331835  0.500000  1
  Co  Co8  1  0.002284  0.002284  0.000000  1
