# generated using pymatgen
data_Yb2Mn(Al2Pt)8
_symmetry_space_group_name_H-M   'P 1'
_cell_length_a   11.19676667
_cell_length_b   11.19676716
_cell_length_c   11.19676747
_cell_angle_alpha   158.70726397
_cell_angle_beta   116.72774110
_cell_angle_gamma   67.57407437
_symmetry_Int_Tables_number   1
_chemical_formula_structural   Yb2Mn(Al2Pt)8
_chemical_formula_sum   'Yb2 Mn1 Al16 Pt8'
_cell_volume   452.20759350
_cell_formula_units_Z   1
loop_
 _symmetry_equiv_pos_site_id
 _symmetry_equiv_pos_as_xyz
  1  'x, y, z'
loop_
 _atom_site_type_symbol
 _atom_site_label
 _atom_site_symmetry_multiplicity
 _atom_site_fract_x
 _atom_site_fract_y
 _atom_site_fract_z
 _atom_site_occupancy
  Yb  Yb0  1  0.229463  0.229911  0.999551  1
  Yb  Yb1  1  0.769640  0.770089  0.999551  1
  Mn  Mn2  1  0.781622  0.500000  0.281622  1
  Al  Al3  1  0.274563  0.391952  0.882612  1
  Al  Al4  1  0.087620  0.923557  0.164063  1
  Al  Al5  1  0.504965  0.201955  0.303011  1
  Al  Al6  1  0.240506  0.076443  0.164063  1
  Al  Al7  1  0.910032  0.416609  0.493424  1
  Al  Al8  1  0.725363  0.598403  0.126960  1
  Al  Al9  1  0.901857  0.208400  0.693458  1
  Al  Al10  1  0.485059  0.791600  0.693458  1
  Al  Al11  1  0.386863  0.000000  0.386863  1
  Al  Al12  1  0.628104  0.000000  0.628104  1
  Al  Al13  1  0.490660  0.608048  0.882612  1
  Al  Al14  1  0.101056  0.798045  0.303011  1
  Al  Al15  1  0.906838  0.085245  0.821594  1
  Al  Al16  1  0.736349  0.914755  0.821594  1
  Al  Al17  1  0.528557  0.401597  0.126960  1
  Al  Al18  1  0.076815  0.583391  0.493424  1
  Pt  Pt19  1  0.024242  0.343000  0.681242  1
  Pt  Pt20  1  0.627368  0.123892  0.503476  1
  Pt  Pt21  1  0.253935  0.500000  0.753935  1
  Pt  Pt22  1  0.379584  0.876108  0.503476  1
  Pt  Pt23  1  0.984200  0.000000  0.984200  1
  Pt  Pt24  1  0.649663  0.336416  0.313247  1
  Pt  Pt25  1  0.338243  0.657000  0.681242  1
  Pt  Pt26  1  0.976831  0.663584  0.313247  1
