# generated using pymatgen
data_MnAl6V5Fe12
_symmetry_space_group_name_H-M   'P 1'
_cell_length_a   4.02888700
_cell_length_b   5.69845300
_cell_length_c   12.08194600
_cell_angle_alpha   90.00000000
_cell_angle_beta   89.99922716
_cell_angle_gamma   90.00000000
_symmetry_Int_Tables_number   1
_chemical_formula_structural   MnAl6V5Fe12
_chemical_formula_sum   'Mn1 Al6 V5 Fe12'
_cell_volume   277.38242948
_cell_formula_units_Z   1
loop_
 _symmetry_equiv_pos_site_id
 _symmetry_equiv_pos_as_xyz
  1  'x, y, z'
loop_
 _atom_site_type_symbol
 _atom_site_label
 _atom_site_symmetry_multiplicity
 _atom_site_fract_x
 _atom_site_fract_y
 _atom_site_fract_z
 _atom_site_occupancy
  Mn  Mn0  1  0.000000  0.000000  0.000000  1
  Al  Al1  1  0.000000  0.500000  0.000000  1
  Al  Al2  1  0.500134  0.000000  0.165974  1
  Al  Al3  1  0.000124  0.500000  0.333378  1
  Al  Al4  1  0.500001  0.000000  0.500000  1
  Al  Al5  1  0.999876  0.500000  0.666622  1
  Al  Al6  1  0.499866  0.000000  0.834025  1
  V  V7  1  0.500058  0.500000  0.166295  1
  V  V8  1  0.000057  0.000000  0.333031  1
  V  V9  1  0.500001  0.500000  0.500000  1
  V  V10  1  0.999943  0.000000  0.666969  1
  V  V11  1  0.499942  0.500000  0.833705  1
  Fe  Fe12  1  0.500001  0.249224  0.000000  1
  Fe  Fe13  1  0.500001  0.750775  0.000000  1
  Fe  Fe14  1  0.000129  0.249527  0.166547  1
  Fe  Fe15  1  0.000129  0.750473  0.166547  1
  Fe  Fe16  1  0.500122  0.249927  0.333327  1
  Fe  Fe17  1  0.500122  0.750073  0.333327  1
  Fe  Fe18  1  0.000000  0.249913  0.500000  1
  Fe  Fe19  1  0.000000  0.750087  0.500000  1
  Fe  Fe20  1  0.499878  0.249927  0.666673  1
  Fe  Fe21  1  0.499878  0.750073  0.666673  1
  Fe  Fe22  1  0.999871  0.249527  0.833453  1
  Fe  Fe23  1  0.999871  0.750473  0.833453  1
