# generated using pymatgen
data_Y9Er(InSb)4
_symmetry_space_group_name_H-M   'P 1'
_cell_length_a   8.84590900
_cell_length_b   8.84590813
_cell_length_c   8.12237400
_cell_angle_alpha   90.00076430
_cell_angle_beta   90.00077077
_cell_angle_gamma   125.22117192
_symmetry_Int_Tables_number   1
_chemical_formula_structural   Y9Er(InSb)4
_chemical_formula_sum   'Y9 Er1 In4 Sb4'
_cell_volume   519.22273173
_cell_formula_units_Z   1
loop_
 _symmetry_equiv_pos_site_id
 _symmetry_equiv_pos_as_xyz
  1  'x, y, z'
loop_
 _atom_site_type_symbol
 _atom_site_label
 _atom_site_symmetry_multiplicity
 _atom_site_fract_x
 _atom_site_fract_y
 _atom_site_fract_z
 _atom_site_occupancy
  Y  Y0  1  0.031576  0.306995  0.334169  1
  Y  Y1  1  0.968424  0.693005  0.665831  1
  Y  Y2  1  0.468297  0.192934  0.834281  1
  Y  Y3  1  0.807066  0.531703  0.165719  1
  Y  Y4  1  0.531703  0.807066  0.165719  1
  Y  Y5  1  0.192934  0.468297  0.834281  1
  Y  Y6  1  0.693005  0.968424  0.665831  1
  Y  Y7  1  0.306995  0.031576  0.334169  1
  Y  Y8  1  0.500000  0.500000  0.500000  1
  Er  Er9  1  0.000000  0.000000  0.000000  1
  In  In10  1  0.369991  0.369991  0.127909  1
  In  In11  1  0.630009  0.630009  0.872091  1
  In  In12  1  0.128805  0.128805  0.628849  1
  In  In13  1  0.871195  0.871195  0.371151  1
  Sb  Sb14  1  0.797570  0.202430  0.000000  1
  Sb  Sb15  1  0.202430  0.797570  0.000000  1
  Sb  Sb16  1  0.702773  0.297227  0.500000  1
  Sb  Sb17  1  0.297227  0.702773  0.500000  1
