# generated using pymatgen
data_Gd4GaSi6Rh
_symmetry_space_group_name_H-M   'P 1'
_cell_length_a   8.19500800
_cell_length_b   8.19500790
_cell_length_c   4.08388300
_cell_angle_alpha   90.00000000
_cell_angle_beta   90.00000000
_cell_angle_gamma   120.00000039
_symmetry_Int_Tables_number   1
_chemical_formula_structural   Gd4GaSi6Rh
_chemical_formula_sum   'Gd4 Ga1 Si6 Rh1'
_cell_volume   237.52136475
_cell_formula_units_Z   1
loop_
 _symmetry_equiv_pos_site_id
 _symmetry_equiv_pos_as_xyz
  1  'x, y, z'
loop_
 _atom_site_type_symbol
 _atom_site_label
 _atom_site_symmetry_multiplicity
 _atom_site_fract_x
 _atom_site_fract_y
 _atom_site_fract_z
 _atom_site_occupancy
  Gd  Gd0  1  0.000000  0.000000  0.500000  1
  Gd  Gd1  1  0.006205  0.503103  0.500000  1
  Gd  Gd2  1  0.496897  0.503103  0.500000  1
  Gd  Gd3  1  0.496897  0.993795  0.500000  1
  Ga  Ga4  1  0.666667  0.333333  0.000000  1
  Si  Si5  1  0.325796  0.162899  0.000000  1
  Si  Si6  1  0.837101  0.162899  0.000000  1
  Si  Si7  1  0.837101  0.674204  0.000000  1
  Si  Si8  1  0.168759  0.337520  0.000000  1
  Si  Si9  1  0.168759  0.831241  0.000000  1
  Si  Si10  1  0.662480  0.831241  0.000000  1
  Rh  Rh11  1  0.333333  0.666667  0.000000  1
