# generated using pymatgen
data_TaNbAlTe4
_symmetry_space_group_name_H-M   'P 1'
_cell_length_a   8.18436221
_cell_length_b   6.53693390
_cell_length_c   7.83990426
_cell_angle_alpha   97.40533888
_cell_angle_beta   104.93415244
_cell_angle_gamma   89.79193084
_symmetry_Int_Tables_number   1
_chemical_formula_structural   TaNbAlTe4
_chemical_formula_sum   'Ta2 Nb2 Al2 Te8'
_cell_volume   401.70035917
_cell_formula_units_Z   2
loop_
 _symmetry_equiv_pos_site_id
 _symmetry_equiv_pos_as_xyz
  1  'x, y, z'
loop_
 _atom_site_type_symbol
 _atom_site_label
 _atom_site_symmetry_multiplicity
 _atom_site_fract_x
 _atom_site_fract_y
 _atom_site_fract_z
 _atom_site_occupancy
  Ta  Ta0  1  0.088525  0.100974  0.999778  1
  Ta  Ta1  1  0.411475  0.899026  0.000222  1
  Nb  Nb2  1  0.589109  0.394199  0.000224  1
  Nb  Nb3  1  0.910891  0.605801  0.999776  1
  Al  Al4  1  0.250000  0.500000  0.000000  1
  Al  Al5  1  0.750000  0.000000  0.000000  1
  Te  Te6  1  0.079716  0.743017  0.753445  1
  Te  Te7  1  0.200760  0.818665  0.246363  1
  Te  Te8  1  0.299240  0.181335  0.753637  1
  Te  Te9  1  0.420284  0.256983  0.246555  1
  Te  Te10  1  0.578539  0.681433  0.754761  1
  Te  Te11  1  0.700016  0.756911  0.245599  1
  Te  Te12  1  0.799984  0.243089  0.754401  1
  Te  Te13  1  0.921461  0.318567  0.245239  1
