# generated using pymatgen
data_CaYbBi3
_symmetry_space_group_name_H-M   'P 1'
_cell_length_a   6.47863400
_cell_length_b   6.76996200
_cell_length_c   14.95757600
_cell_angle_alpha   90.00000000
_cell_angle_beta   90.00000000
_cell_angle_gamma   90.00000000
_symmetry_Int_Tables_number   1
_chemical_formula_structural   CaYbBi3
_chemical_formula_sum   'Ca4 Yb4 Bi12'
_cell_volume   656.04086874
_cell_formula_units_Z   4
loop_
 _symmetry_equiv_pos_site_id
 _symmetry_equiv_pos_as_xyz
  1  'x, y, z'
loop_
 _atom_site_type_symbol
 _atom_site_label
 _atom_site_symmetry_multiplicity
 _atom_site_fract_x
 _atom_site_fract_y
 _atom_site_fract_z
 _atom_site_occupancy
  Ca  Ca0  1  0.938888  0.000000  0.250000  1
  Ca  Ca1  1  0.561112  0.500000  0.250000  1
  Ca  Ca2  1  0.061112  0.000000  0.750000  1
  Ca  Ca3  1  0.438888  0.500000  0.750000  1
  Yb  Yb4  1  0.750000  0.750000  0.999764  1
  Yb  Yb5  1  0.750000  0.250000  0.500236  1
  Yb  Yb6  1  0.250000  0.250000  0.000236  1
  Yb  Yb7  1  0.250000  0.750000  0.499764  1
  Bi  Bi8  1  0.750000  0.750000  0.434208  1
  Bi  Bi9  1  0.750000  0.250000  0.065792  1
  Bi  Bi10  1  0.250000  0.250000  0.565792  1
  Bi  Bi11  1  0.250000  0.750000  0.934208  1
  Bi  Bi12  1  0.420643  0.933106  0.149611  1
  Bi  Bi13  1  0.420643  0.066894  0.350389  1
  Bi  Bi14  1  0.079357  0.433106  0.350389  1
  Bi  Bi15  1  0.079357  0.566894  0.149611  1
  Bi  Bi16  1  0.579357  0.066894  0.850389  1
  Bi  Bi17  1  0.579357  0.933106  0.649611  1
  Bi  Bi18  1  0.920643  0.566894  0.649611  1
  Bi  Bi19  1  0.920643  0.433106  0.850389  1
