# generated using pymatgen
data_Zr3InTc2
_symmetry_space_group_name_H-M   'P 1'
_cell_length_a   3.36393100
_cell_length_b   3.36393100
_cell_length_c   10.38013000
_cell_angle_alpha   90.00000000
_cell_angle_beta   90.00000000
_cell_angle_gamma   90.00000000
_symmetry_Int_Tables_number   1
_chemical_formula_structural   Zr3InTc2
_chemical_formula_sum   'Zr3 In1 Tc2'
_cell_volume   117.46188089
_cell_formula_units_Z   1
loop_
 _symmetry_equiv_pos_site_id
 _symmetry_equiv_pos_as_xyz
  1  'x, y, z'
loop_
 _atom_site_type_symbol
 _atom_site_label
 _atom_site_symmetry_multiplicity
 _atom_site_fract_x
 _atom_site_fract_y
 _atom_site_fract_z
 _atom_site_occupancy
  Zr  Zr0  1  0.000000  0.000000  0.000000  1
  Zr  Zr1  1  0.000000  0.000000  0.306680  1
  Zr  Zr2  1  0.000000  0.000000  0.693319  1
  In  In3  1  0.500001  0.500001  0.500000  1
  Tc  Tc4  1  0.500001  0.500001  0.161389  1
  Tc  Tc5  1  0.500001  0.500001  0.838611  1
