# generated using pymatgen
data_GaSCl7
_symmetry_space_group_name_H-M   'P 1'
_cell_length_a   6.44615700
_cell_length_b   6.65304638
_cell_length_c   13.70801581
_cell_angle_alpha   75.05605939
_cell_angle_beta   90.00000000
_cell_angle_gamma   90.00000000
_symmetry_Int_Tables_number   1
_chemical_formula_structural   GaSCl7
_chemical_formula_sum   'Ga2 S2 Cl14'
_cell_volume   568.00667530
_cell_formula_units_Z   2
loop_
 _symmetry_equiv_pos_site_id
 _symmetry_equiv_pos_as_xyz
  1  'x, y, z'
loop_
 _atom_site_type_symbol
 _atom_site_label
 _atom_site_symmetry_multiplicity
 _atom_site_fract_x
 _atom_site_fract_y
 _atom_site_fract_z
 _atom_site_occupancy
  Ga  Ga0  1  0.491720  0.555187  0.856221  1
  Ga  Ga1  1  0.508280  0.555187  0.356221  1
  S  S2  1  0.080021  0.874144  0.690642  1
  S  S3  1  0.919979  0.874144  0.190642  1
  Cl  Cl4  1  0.712838  0.052558  0.095147  1
  Cl  Cl5  1  0.110182  0.786081  0.092002  1
  Cl  Cl6  1  0.366210  0.327979  0.989105  1
  Cl  Cl7  1  0.287162  0.052558  0.595147  1
  Cl  Cl8  1  0.911252  0.094385  0.732113  1
  Cl  Cl9  1  0.633790  0.327979  0.489105  1
  Cl  Cl10  1  0.167103  0.528091  0.357215  1
  Cl  Cl11  1  0.390400  0.870927  0.861095  1
  Cl  Cl12  1  0.832897  0.528091  0.857215  1
  Cl  Cl13  1  0.609600  0.870927  0.361095  1
  Cl  Cl14  1  0.633383  0.502347  0.214360  1
  Cl  Cl15  1  0.889818  0.786081  0.592002  1
  Cl  Cl16  1  0.366617  0.502347  0.714360  1
  Cl  Cl17  1  0.088748  0.094385  0.232113  1
