# generated using pymatgen
data_EuCrWO6
_symmetry_space_group_name_H-M   'P 1'
_cell_length_a   5.22639400
_cell_length_b   5.22616139
_cell_length_c   10.22688900
_cell_angle_alpha   89.99912294
_cell_angle_beta   89.99870639
_cell_angle_gamma   119.98891490
_symmetry_Int_Tables_number   1
_chemical_formula_structural   EuCrWO6
_chemical_formula_sum   'Eu2 Cr2 W2 O12'
_cell_volume   241.93997860
_cell_formula_units_Z   2
loop_
 _symmetry_equiv_pos_site_id
 _symmetry_equiv_pos_as_xyz
  1  'x, y, z'
loop_
 _atom_site_type_symbol
 _atom_site_label
 _atom_site_symmetry_multiplicity
 _atom_site_fract_x
 _atom_site_fract_y
 _atom_site_fract_z
 _atom_site_occupancy
  Eu  Eu0  1  0.999989  0.999994  0.999998  1
  Eu  Eu1  1  0.000001  0.000000  0.499999  1
  Cr  Cr2  1  0.666647  0.333481  0.750032  1
  Cr  Cr3  1  0.333366  0.666471  0.249954  1
  W  W4  1  0.666532  0.333013  0.249872  1
  W  W5  1  0.333481  0.667030  0.750123  1
  O  O6  1  0.628946  0.992163  0.856102  1
  O  O7  1  0.362900  0.371067  0.856134  1
  O  O8  1  0.007918  0.637054  0.856123  1
  O  O9  1  0.371041  0.007836  0.143909  1
  O  O10  1  0.637109  0.628945  0.143876  1
  O  O11  1  0.992066  0.362936  0.143883  1
  O  O12  1  0.363243  0.992193  0.644035  1
  O  O13  1  0.628663  0.636758  0.643991  1
  O  O14  1  0.007932  0.371282  0.644018  1
  O  O15  1  0.636760  0.007800  0.355963  1
  O  O16  1  0.371335  0.363242  0.356014  1
  O  O17  1  0.992073  0.628731  0.355976  1
