# generated using pymatgen
data_LaPaCo3NiAs4
_symmetry_space_group_name_H-M   'P 1'
_cell_length_a   4.18355800
_cell_length_b   4.18355800
_cell_length_c   9.37816200
_cell_angle_alpha   90.00000000
_cell_angle_beta   90.00000000
_cell_angle_gamma   90.00000000
_symmetry_Int_Tables_number   1
_chemical_formula_structural   LaPaCo3NiAs4
_chemical_formula_sum   'La1 Pa1 Co3 Ni1 As4'
_cell_volume   164.13806875
_cell_formula_units_Z   1
loop_
 _symmetry_equiv_pos_site_id
 _symmetry_equiv_pos_as_xyz
  1  'x, y, z'
loop_
 _atom_site_type_symbol
 _atom_site_label
 _atom_site_symmetry_multiplicity
 _atom_site_fract_x
 _atom_site_fract_y
 _atom_site_fract_z
 _atom_site_occupancy
  La  La0  1  0.500000  0.000000  0.251540  1
  Pa  Pa1  1  0.000000  0.500000  0.736210  1
  Co  Co2  1  0.000000  0.000000  0.512932  1
  Co  Co3  1  0.500000  0.000000  0.879753  1
  Co  Co4  1  0.500000  0.500000  0.512932  1
  Ni  Ni5  1  0.000000  0.500000  0.113043  1
  As  As6  1  0.000000  0.500000  0.373767  1
  As  As7  1  0.000000  0.000000  0.992245  1
  As  As8  1  0.500000  0.000000  0.635336  1
  As  As9  1  0.500000  0.500000  0.992245  1
