# generated using pymatgen
data_Gd2DyLu(ReB6)2
_symmetry_space_group_name_H-M   'P 1'
_cell_length_a   3.67741600
_cell_length_b   9.16817719
_cell_length_c   11.56608624
_cell_angle_alpha   89.97659143
_cell_angle_beta   90.00000000
_cell_angle_gamma   90.00000000
_symmetry_Int_Tables_number   1
_chemical_formula_structural   Gd2DyLu(ReB6)2
_chemical_formula_sum   'Gd4 Dy2 Lu2 Re4 B24'
_cell_volume   389.95289558
_cell_formula_units_Z   2
loop_
 _symmetry_equiv_pos_site_id
 _symmetry_equiv_pos_as_xyz
  1  'x, y, z'
loop_
 _atom_site_type_symbol
 _atom_site_label
 _atom_site_symmetry_multiplicity
 _atom_site_fract_x
 _atom_site_fract_y
 _atom_site_fract_z
 _atom_site_occupancy
  Gd  Gd0  1  0.000000  0.322597  0.414260  1
  Gd  Gd1  1  0.000000  0.677403  0.585740  1
  Gd  Gd2  1  0.000000  0.823538  0.086195  1
  Gd  Gd3  1  0.000000  0.176462  0.913805  1
  Dy  Dy4  1  0.000000  0.442999  0.130710  1
  Dy  Dy5  1  0.000000  0.557001  0.869290  1
  Lu  Lu6  1  0.000000  0.943089  0.370180  1
  Lu  Lu7  1  0.000000  0.056911  0.629820  1
  Re  Re8  1  0.000000  0.640725  0.321093  1
  Re  Re9  1  0.000000  0.359275  0.678907  1
  Re  Re10  1  0.000000  0.137634  0.181187  1
  Re  Re11  1  0.000000  0.862366  0.818813  1
  B  B12  1  0.500000  0.554446  0.432699  1
  B  B13  1  0.500000  0.445554  0.567301  1
  B  B14  1  0.500000  0.053102  0.068179  1
  B  B15  1  0.500000  0.946898  0.931821  1
  B  B16  1  0.500000  0.751465  0.418403  1
  B  B17  1  0.500000  0.248535  0.581597  1
  B  B18  1  0.500000  0.248389  0.082623  1
  B  B19  1  0.500000  0.751611  0.917377  1
  B  B20  1  0.500000  0.793495  0.266114  1
  B  B21  1  0.500000  0.206505  0.733886  1
  B  B22  1  0.500000  0.290916  0.235490  1
  B  B23  1  0.500000  0.709084  0.764510  1
  B  B24  1  0.500000  0.631506  0.186286  1
  B  B25  1  0.500000  0.368494  0.813714  1
  B  B26  1  0.500000  0.128878  0.315680  1
  B  B27  1  0.500000  0.871122  0.684320  1
  B  B28  1  0.500000  0.981637  0.213344  1
  B  B29  1  0.500000  0.018363  0.786656  1
  B  B30  1  0.500000  0.483402  0.288581  1
  B  B31  1  0.500000  0.516598  0.711419  1
  B  B32  1  0.500000  0.599787  0.027602  1
  B  B33  1  0.500000  0.400213  0.972398  1
  B  B34  1  0.500000  0.096420  0.473066  1
  B  B35  1  0.500000  0.903580  0.526934  1
