# generated using pymatgen
data_Sc9Co8Si20Ag
_symmetry_space_group_name_H-M   'P 1'
_cell_length_a   11.98067404
_cell_length_b   11.98067404
_cell_length_c   3.94027400
_cell_angle_alpha   90.00000000
_cell_angle_beta   90.00000000
_cell_angle_gamma   89.46609649
_symmetry_Int_Tables_number   1
_chemical_formula_structural   Sc9Co8Si20Ag
_chemical_formula_sum   'Sc9 Co8 Si20 Ag1'
_cell_volume   565.54878284
_cell_formula_units_Z   1
loop_
 _symmetry_equiv_pos_site_id
 _symmetry_equiv_pos_as_xyz
  1  'x, y, z'
loop_
 _atom_site_type_symbol
 _atom_site_label
 _atom_site_symmetry_multiplicity
 _atom_site_fract_x
 _atom_site_fract_y
 _atom_site_fract_z
 _atom_site_occupancy
  Sc  Sc0  1  0.997512  0.001002  0.000000  1
  Sc  Sc1  1  0.501002  0.497512  0.000000  1
  Sc  Sc2  1  0.181542  0.326544  0.500000  1
  Sc  Sc3  1  0.826544  0.681542  0.500000  1
  Sc  Sc4  1  0.320995  0.820995  0.500000  1
  Sc  Sc5  1  0.893065  0.393065  0.500000  1
  Sc  Sc6  1  0.383122  0.110059  0.500000  1
  Sc  Sc7  1  0.610059  0.883122  0.500000  1
  Sc  Sc8  1  0.111135  0.611135  0.500000  1
  Co  Co9  1  0.528919  0.249177  0.000000  1
  Co  Co10  1  0.256757  0.472721  0.000000  1
  Co  Co11  1  0.746827  0.521560  0.000000  1
  Co  Co12  1  0.475035  0.743814  0.000000  1
  Co  Co13  1  0.972721  0.756757  0.000000  1
  Co  Co14  1  0.021560  0.246827  0.000000  1
  Co  Co15  1  0.749177  0.028919  0.000000  1
  Co  Co16  1  0.243814  0.975035  0.000000  1
  Si  Si17  1  0.564700  0.064700  0.000000  1
  Si  Si18  1  0.070120  0.432010  0.000000  1
  Si  Si19  1  0.932010  0.570120  0.000000  1
  Si  Si20  1  0.429539  0.929539  0.000000  1
  Si  Si21  1  0.196485  0.156181  0.000000  1
  Si  Si22  1  0.155418  0.801546  0.000000  1
  Si  Si23  1  0.842899  0.197281  0.000000  1
  Si  Si24  1  0.797988  0.845905  0.000000  1
  Si  Si25  1  0.301546  0.655418  0.000000  1
  Si  Si26  1  0.697281  0.342899  0.000000  1
  Si  Si27  1  0.656181  0.696485  0.000000  1
  Si  Si28  1  0.345905  0.297988  0.000000  1
  Si  Si29  1  0.012627  0.163647  0.500000  1
  Si  Si30  1  0.161287  0.998328  0.500000  1
  Si  Si31  1  0.832678  0.002438  0.500000  1
  Si  Si32  1  0.006853  0.835156  0.500000  1
  Si  Si33  1  0.498328  0.661287  0.500000  1
  Si  Si34  1  0.502438  0.332678  0.500000  1
  Si  Si35  1  0.663647  0.512627  0.500000  1
  Si  Si36  1  0.335156  0.506853  0.500000  1
  Ag  Ag37  1  0.677129  0.177129  0.500000  1
