# generated using pymatgen
data_YHoPb4
_symmetry_space_group_name_H-M   'P 1'
_cell_length_a   8.57340567
_cell_length_b   8.57340544
_cell_length_c   4.52873500
_cell_angle_alpha   90.00000000
_cell_angle_beta   90.00000000
_cell_angle_gamma   148.54163952
_symmetry_Int_Tables_number   1
_chemical_formula_structural   YHoPb4
_chemical_formula_sum   'Y1 Ho1 Pb4'
_cell_volume   173.72138276
_cell_formula_units_Z   1
loop_
 _symmetry_equiv_pos_site_id
 _symmetry_equiv_pos_as_xyz
  1  'x, y, z'
loop_
 _atom_site_type_symbol
 _atom_site_label
 _atom_site_symmetry_multiplicity
 _atom_site_fract_x
 _atom_site_fract_y
 _atom_site_fract_z
 _atom_site_occupancy
  Y  Y0  1  0.904646  0.095354  0.750000  1
  Ho  Ho1  1  0.095661  0.904339  0.250000  1
  Pb  Pb2  1  0.568899  0.431101  0.750000  1
  Pb  Pb3  1  0.431570  0.568430  0.250000  1
  Pb  Pb4  1  0.250116  0.749884  0.750000  1
  Pb  Pb5  1  0.749109  0.250891  0.250000  1
