# generated using pymatgen
data_La5Pr11(ErIr3)4
_symmetry_space_group_name_H-M   'P 1'
_cell_length_a   11.28572573
_cell_length_b   11.30592289
_cell_length_c   6.54860286
_cell_angle_alpha   89.91392555
_cell_angle_beta   89.99275076
_cell_angle_gamma   89.92068172
_symmetry_Int_Tables_number   1
_chemical_formula_structural   La5Pr11(ErIr3)4
_chemical_formula_sum   'La5 Pr11 Er4 Ir12'
_cell_volume   835.57080026
_cell_formula_units_Z   1
loop_
 _symmetry_equiv_pos_site_id
 _symmetry_equiv_pos_as_xyz
  1  'x, y, z'
loop_
 _atom_site_type_symbol
 _atom_site_label
 _atom_site_symmetry_multiplicity
 _atom_site_fract_x
 _atom_site_fract_y
 _atom_site_fract_z
 _atom_site_occupancy
  La  La0  1  0.288483  0.088170  0.382304  1
  La  La1  1  0.287728  0.911762  0.882131  1
  La  La2  1  0.711921  0.089104  0.882267  1
  La  La3  1  0.711955  0.912132  0.382356  1
  La  La4  1  0.587718  0.787018  0.881788  1
  Pr  Pr5  1  0.587628  0.212980  0.380829  1
  Pr  Pr6  1  0.411719  0.786864  0.380728  1
  Pr  Pr7  1  0.412380  0.213157  0.880763  1
  Pr  Pr8  1  0.211645  0.413238  0.619237  1
  Pr  Pr9  1  0.211628  0.586744  0.119235  1
  Pr  Pr10  1  0.788410  0.413024  0.118682  1
  Pr  Pr11  1  0.788710  0.586426  0.618404  1
  Pr  Pr12  1  0.913012  0.711179  0.118497  1
  Pr  Pr13  1  0.912715  0.288743  0.618088  1
  Pr  Pr14  1  0.087332  0.711327  0.618124  1
  Pr  Pr15  1  0.087289  0.288733  0.118049  1
  Er  Er16  1  0.999971  0.000017  0.500070  1
  Er  Er17  1  0.999966  0.000204  0.000091  1
  Er  Er18  1  0.499663  0.499336  0.000985  1
  Er  Er19  1  0.500095  0.499855  0.500422  1
  Ir  Ir20  1  0.852035  0.146931  0.248629  1
  Ir  Ir21  1  0.851918  0.853170  0.748848  1
  Ir  Ir22  1  0.148266  0.146753  0.748424  1
  Ir  Ir23  1  0.148077  0.853220  0.248592  1
  Ir  Ir24  1  0.647028  0.352672  0.750097  1
  Ir  Ir25  1  0.646785  0.648033  0.248920  1
  Ir  Ir26  1  0.352999  0.352636  0.250488  1
  Ir  Ir27  1  0.352858  0.647206  0.750109  1
  Ir  Ir28  1  0.499885  0.000022  0.117326  1
  Ir  Ir29  1  0.500205  0.999388  0.618034  1
  Ir  Ir30  1  0.000098  0.499882  0.883699  1
  Ir  Ir31  1  0.999879  0.500074  0.383783  1
