# generated using pymatgen
data_NaDyPbI6
_symmetry_space_group_name_H-M   'P 1'
_cell_length_a   8.57233084
_cell_length_b   8.57224812
_cell_length_c   8.57224900
_cell_angle_alpha   55.88821099
_cell_angle_beta   55.88817374
_cell_angle_gamma   55.88758762
_symmetry_Int_Tables_number   1
_chemical_formula_structural   NaDyPbI6
_chemical_formula_sum   'Na1 Dy1 Pb1 I6'
_cell_volume   402.96996988
_cell_formula_units_Z   1
loop_
 _symmetry_equiv_pos_site_id
 _symmetry_equiv_pos_as_xyz
  1  'x, y, z'
loop_
 _atom_site_type_symbol
 _atom_site_label
 _atom_site_symmetry_multiplicity
 _atom_site_fract_x
 _atom_site_fract_y
 _atom_site_fract_z
 _atom_site_occupancy
  Na  Na0  1  0.669706  0.669709  0.669710  1
  Dy  Dy1  1  0.999869  0.999880  0.999874  1
  Pb  Pb2  1  0.330847  0.330854  0.330851  1
  I  I3  1  0.234576  0.609355  0.914714  1
  I  I4  1  0.609365  0.914718  0.234567  1
  I  I5  1  0.914721  0.234572  0.609357  1
  I  I6  1  0.763113  0.389099  0.088711  1
  I  I7  1  0.389098  0.088703  0.763115  1
  I  I8  1  0.088708  0.763110  0.389101  1
