# generated using pymatgen
data_TbCe(ReN3)2
_symmetry_space_group_name_H-M   'P 1'
_cell_length_a   5.45499900
_cell_length_b   5.64649600
_cell_length_c   7.76102700
_cell_angle_alpha   90.00000000
_cell_angle_beta   90.00000000
_cell_angle_gamma   90.00000000
_symmetry_Int_Tables_number   1
_chemical_formula_structural   TbCe(ReN3)2
_chemical_formula_sum   'Tb2 Ce2 Re4 N12'
_cell_volume   239.05228233
_cell_formula_units_Z   2
loop_
 _symmetry_equiv_pos_site_id
 _symmetry_equiv_pos_as_xyz
  1  'x, y, z'
loop_
 _atom_site_type_symbol
 _atom_site_label
 _atom_site_symmetry_multiplicity
 _atom_site_fract_x
 _atom_site_fract_y
 _atom_site_fract_z
 _atom_site_occupancy
  Tb  Tb0  1  0.501032  0.561499  0.750000  1
  Tb  Tb1  1  0.998968  0.061499  0.750000  1
  Ce  Ce2  1  0.478438  0.451242  0.250000  1
  Ce  Ce3  1  0.021562  0.951242  0.250000  1
  Re  Re4  1  0.509428  0.004457  0.502798  1
  Re  Re5  1  0.990572  0.504457  0.997202  1
  Re  Re6  1  0.990572  0.504457  0.502798  1
  Re  Re7  1  0.509428  0.004457  0.997202  1
  N  N8  1  0.701964  0.293023  0.541569  1
  N  N9  1  0.300521  0.699433  0.043647  1
  N  N10  1  0.199479  0.199433  0.043647  1
  N  N11  1  0.418687  0.980151  0.750000  1
  N  N12  1  0.927239  0.513281  0.250000  1
  N  N13  1  0.300521  0.699433  0.456353  1
  N  N14  1  0.798036  0.793023  0.958431  1
  N  N15  1  0.701964  0.293023  0.958431  1
  N  N16  1  0.798036  0.793023  0.541569  1
  N  N17  1  0.081313  0.480151  0.750000  1
  N  N18  1  0.199479  0.199433  0.456353  1
  N  N19  1  0.572761  0.013281  0.250000  1
