# generated using pymatgen
data_Li3Tm4AlPt4
_symmetry_space_group_name_H-M   'P 1'
_cell_length_a   3.99646000
_cell_length_b   6.94575164
_cell_length_c   8.35422532
_cell_angle_alpha   90.84301120
_cell_angle_beta   90.00000000
_cell_angle_gamma   90.00000000
_symmetry_Int_Tables_number   1
_chemical_formula_structural   Li3Tm4AlPt4
_chemical_formula_sum   'Li3 Tm4 Al1 Pt4'
_cell_volume   231.87498310
_cell_formula_units_Z   1
loop_
 _symmetry_equiv_pos_site_id
 _symmetry_equiv_pos_as_xyz
  1  'x, y, z'
loop_
 _atom_site_type_symbol
 _atom_site_label
 _atom_site_symmetry_multiplicity
 _atom_site_fract_x
 _atom_site_fract_y
 _atom_site_fract_z
 _atom_site_occupancy
  Li  Li0  1  0.250000  0.128713  0.060843  1
  Li  Li1  1  0.250000  0.628639  0.438979  1
  Li  Li2  1  0.750000  0.876257  0.942625  1
  Tm  Tm3  1  0.250000  0.044107  0.681188  1
  Tm  Tm4  1  0.250000  0.547988  0.820126  1
  Tm  Tm5  1  0.750000  0.951622  0.321749  1
  Tm  Tm6  1  0.750000  0.452515  0.178899  1
  Al  Al7  1  0.750000  0.374010  0.557104  1
  Pt  Pt8  1  0.250000  0.251399  0.386795  1
  Pt  Pt9  1  0.250000  0.741944  0.127320  1
  Pt  Pt10  1  0.750000  0.745079  0.621557  1
  Pt  Pt11  1  0.750000  0.257726  0.862814  1
