# generated using pymatgen
data_GaCu3(RhO3)2
_symmetry_space_group_name_H-M   'P 1'
_cell_length_a   6.00907563
_cell_length_b   6.00907558
_cell_length_c   9.18497930
_cell_angle_alpha   61.22688702
_cell_angle_beta   61.22687773
_cell_angle_gamma   29.91497976
_symmetry_Int_Tables_number   1
_chemical_formula_structural   GaCu3(RhO3)2
_chemical_formula_sum   'Ga1 Cu3 Rh2 O6'
_cell_volume   143.41311400
_cell_formula_units_Z   1
loop_
 _symmetry_equiv_pos_site_id
 _symmetry_equiv_pos_as_xyz
  1  'x, y, z'
loop_
 _atom_site_type_symbol
 _atom_site_label
 _atom_site_symmetry_multiplicity
 _atom_site_fract_x
 _atom_site_fract_y
 _atom_site_fract_z
 _atom_site_occupancy
  Ga  Ga0  1  0.000000  0.000000  0.500000  1
  Cu  Cu1  1  0.000000  0.000000  0.000000  1
  Cu  Cu2  1  0.334946  0.334946  0.329704  1
  Cu  Cu3  1  0.665054  0.665054  0.670296  1
  Rh  Rh4  1  0.335004  0.335004  0.830403  1
  Rh  Rh5  1  0.664996  0.664996  0.169597  1
  O  O6  1  0.186439  0.186439  0.303730  1
  O  O7  1  0.525907  0.525907  0.625271  1
  O  O8  1  0.856473  0.856473  0.964464  1
  O  O9  1  0.813561  0.813561  0.696270  1
  O  O10  1  0.143527  0.143527  0.035536  1
  O  O11  1  0.474093  0.474093  0.374729  1
