# generated using pymatgen
data_TbGd4(ReO6)2
_symmetry_space_group_name_H-M   'P 1'
_cell_length_a   6.92515498
_cell_length_b   6.92515437
_cell_length_c   7.64662911
_cell_angle_alpha   73.71838933
_cell_angle_beta   73.71839302
_cell_angle_gamma   48.71747317
_symmetry_Int_Tables_number   1
_chemical_formula_structural   TbGd4(ReO6)2
_chemical_formula_sum   'Tb1 Gd4 Re2 O12'
_cell_volume   262.19905271
_cell_formula_units_Z   1
loop_
 _symmetry_equiv_pos_site_id
 _symmetry_equiv_pos_as_xyz
  1  'x, y, z'
loop_
 _atom_site_type_symbol
 _atom_site_label
 _atom_site_symmetry_multiplicity
 _atom_site_fract_x
 _atom_site_fract_y
 _atom_site_fract_z
 _atom_site_occupancy
  Tb  Tb0  1  0.000000  0.000000  0.500000  1
  Gd  Gd1  1  0.695402  0.695402  0.642204  1
  Gd  Gd2  1  0.304598  0.304598  0.357796  1
  Gd  Gd3  1  0.685315  0.685315  0.174186  1
  Gd  Gd4  1  0.314685  0.314685  0.825814  1
  Re  Re5  1  0.786239  0.213761  0.000000  1
  Re  Re6  1  0.213761  0.786239  0.000000  1
  O  O7  1  0.000688  0.000688  0.204575  1
  O  O8  1  0.999312  0.999312  0.795425  1
  O  O9  1  0.585858  0.087476  0.083267  1
  O  O10  1  0.414142  0.912524  0.916733  1
  O  O11  1  0.912524  0.414142  0.916733  1
  O  O12  1  0.087476  0.585858  0.083267  1
  O  O13  1  0.498941  0.498941  0.173528  1
  O  O14  1  0.501059  0.501059  0.826472  1
  O  O15  1  0.404215  0.902248  0.425925  1
  O  O16  1  0.595785  0.097752  0.574075  1
  O  O17  1  0.097752  0.595785  0.574075  1
  O  O18  1  0.902248  0.404215  0.425925  1
