# generated using pymatgen
data_Sm2YSi3Os2
_symmetry_space_group_name_H-M   'P 1'
_cell_length_a   5.92146236
_cell_length_b   5.92146207
_cell_length_c   13.79053400
_cell_angle_alpha   90.00000000
_cell_angle_beta   90.00000000
_cell_angle_gamma   138.37884495
_symmetry_Int_Tables_number   1
_chemical_formula_structural   Sm2YSi3Os2
_chemical_formula_sum   'Sm4 Y2 Si6 Os4'
_cell_volume   321.17324978
_cell_formula_units_Z   2
loop_
 _symmetry_equiv_pos_site_id
 _symmetry_equiv_pos_as_xyz
  1  'x, y, z'
loop_
 _atom_site_type_symbol
 _atom_site_label
 _atom_site_symmetry_multiplicity
 _atom_site_fract_x
 _atom_site_fract_y
 _atom_site_fract_z
 _atom_site_occupancy
  Sm  Sm0  1  0.925582  0.074418  0.116351  1
  Sm  Sm1  1  0.074418  0.925582  0.883649  1
  Sm  Sm2  1  0.074418  0.925582  0.616351  1
  Sm  Sm3  1  0.925582  0.074418  0.383649  1
  Y  Y4  1  0.643248  0.356752  0.250000  1
  Y  Y5  1  0.356752  0.643248  0.750000  1
  Si  Si6  1  0.318783  0.681217  0.250000  1
  Si  Si7  1  0.681217  0.318783  0.750000  1
  Si  Si8  1  0.622931  0.377069  0.038703  1
  Si  Si9  1  0.377069  0.622931  0.961297  1
  Si  Si10  1  0.377069  0.622931  0.538703  1
  Si  Si11  1  0.622931  0.377069  0.461297  1
  Os  Os12  1  0.784674  0.215326  0.582145  1
  Os  Os13  1  0.215326  0.784674  0.417855  1
  Os  Os14  1  0.215326  0.784674  0.082145  1
  Os  Os15  1  0.784674  0.215326  0.917855  1
