# generated using pymatgen
data_Rb3Li2ZrBi3
_symmetry_space_group_name_H-M   'P 1'
_cell_length_a   14.23411549
_cell_length_b   14.23411523
_cell_length_c   14.23411507
_cell_angle_alpha   150.84212829
_cell_angle_beta   105.58037595
_cell_angle_gamma   81.84390388
_symmetry_Int_Tables_number   1
_chemical_formula_structural   Rb3Li2ZrBi3
_chemical_formula_sum   'Rb12 Li8 Zr4 Bi12'
_cell_volume   1326.83511498
_cell_formula_units_Z   4
loop_
 _symmetry_equiv_pos_site_id
 _symmetry_equiv_pos_as_xyz
  1  'x, y, z'
loop_
 _atom_site_type_symbol
 _atom_site_label
 _atom_site_symmetry_multiplicity
 _atom_site_fract_x
 _atom_site_fract_y
 _atom_site_fract_z
 _atom_site_occupancy
  Rb  Rb0  1  0.590850  0.948513  0.197964  1
  Rb  Rb1  1  0.071682  0.750000  0.821682  1
  Rb  Rb2  1  0.909150  0.107114  0.357663  1
  Rb  Rb3  1  0.409150  0.051487  0.802036  1
  Rb  Rb4  1  0.749452  0.607114  0.697964  1
  Rb  Rb5  1  0.250548  0.392886  0.302036  1
  Rb  Rb6  1  0.090850  0.892886  0.642337  1
  Rb  Rb7  1  0.428318  0.250000  0.678318  1
  Rb  Rb8  1  0.750548  0.448513  0.857663  1
  Rb  Rb9  1  0.249452  0.551487  0.142337  1
  Rb  Rb10  1  0.928318  0.250000  0.178318  1
  Rb  Rb11  1  0.571682  0.750000  0.321682  1
  Li  Li12  1  0.998172  0.248172  0.750000  1
  Li  Li13  1  0.665442  0.915442  0.750000  1
  Li  Li14  1  0.001828  0.751828  0.250000  1
  Li  Li15  1  0.501828  0.251828  0.250000  1
  Li  Li16  1  0.498172  0.748172  0.750000  1
  Li  Li17  1  0.165442  0.415442  0.750000  1
  Li  Li18  1  0.334558  0.084558  0.250000  1
  Li  Li19  1  0.834558  0.584558  0.250000  1
  Zr  Zr20  1  0.667064  0.417064  0.250000  1
  Zr  Zr21  1  0.167064  0.917064  0.250000  1
  Zr  Zr22  1  0.832936  0.082936  0.750000  1
  Zr  Zr23  1  0.332936  0.582936  0.750000  1
  Bi  Bi24  1  0.340606  0.750000  0.090606  1
  Bi  Bi25  1  0.493105  0.566467  0.384882  1
  Bi  Bi26  1  0.993105  0.608223  0.926638  1
  Bi  Bi27  1  0.506895  0.433533  0.615118  1
  Bi  Bi28  1  0.318415  0.891777  0.884882  1
  Bi  Bi29  1  0.681585  0.108223  0.115118  1
  Bi  Bi30  1  0.006895  0.391777  0.073362  1
  Bi  Bi31  1  0.659394  0.250000  0.909394  1
  Bi  Bi32  1  0.818415  0.933533  0.426638  1
  Bi  Bi33  1  0.159394  0.250000  0.409394  1
  Bi  Bi34  1  0.181585  0.066467  0.573362  1
  Bi  Bi35  1  0.840606  0.750000  0.590606  1
