# generated using pymatgen
data_Nd6In8HgP
_symmetry_space_group_name_H-M   'P 1'
_cell_length_a   8.52509310
_cell_length_b   8.52509267
_cell_length_c   8.52509240
_cell_angle_alpha   119.71312255
_cell_angle_beta   119.71312035
_cell_angle_gamma   90.49762150
_symmetry_Int_Tables_number   1
_chemical_formula_structural   Nd6In8HgP
_chemical_formula_sum   'Nd6 In8 Hg1 P1'
_cell_volume   439.99086635
_cell_formula_units_Z   1
loop_
 _symmetry_equiv_pos_site_id
 _symmetry_equiv_pos_as_xyz
  1  'x, y, z'
loop_
 _atom_site_type_symbol
 _atom_site_label
 _atom_site_symmetry_multiplicity
 _atom_site_fract_x
 _atom_site_fract_y
 _atom_site_fract_z
 _atom_site_occupancy
  Nd  Nd0  1  0.769066  0.769066  0.000000  1
  Nd  Nd1  1  0.230934  0.230934  0.000000  1
  Nd  Nd2  1  0.682787  0.142401  0.825189  1
  Nd  Nd3  1  0.317213  0.857599  0.174811  1
  Nd  Nd4  1  0.142401  0.317213  0.459613  1
  Nd  Nd5  1  0.857599  0.682787  0.540387  1
  In  In6  1  0.336260  0.816244  0.788136  1
  In  In7  1  0.663740  0.183756  0.211864  1
  In  In8  1  0.028109  0.548124  0.211864  1
  In  In9  1  0.816244  0.028109  0.479984  1
  In  In10  1  0.451876  0.663740  0.479984  1
  In  In11  1  0.971891  0.451876  0.788136  1
  In  In12  1  0.183756  0.971891  0.520016  1
  In  In13  1  0.548124  0.336260  0.520016  1
  Hg  Hg14  1  0.500000  0.500000  0.000000  1
  P  P15  1  0.000000  0.000000  0.000000  1
