# generated using pymatgen
data_Tb7YSe12
_symmetry_space_group_name_H-M   'P 1'
_cell_length_a   13.63485492
_cell_length_b   13.01477878
_cell_length_c   7.13098012
_cell_angle_alpha   79.34294129
_cell_angle_beta   69.72805855
_cell_angle_gamma   30.91013914
_symmetry_Int_Tables_number   1
_chemical_formula_structural   Tb7YSe12
_chemical_formula_sum   'Tb7 Y1 Se12'
_cell_volume   592.97446581
_cell_formula_units_Z   1
loop_
 _symmetry_equiv_pos_site_id
 _symmetry_equiv_pos_as_xyz
  1  'x, y, z'
loop_
 _atom_site_type_symbol
 _atom_site_label
 _atom_site_symmetry_multiplicity
 _atom_site_fract_x
 _atom_site_fract_y
 _atom_site_fract_z
 _atom_site_occupancy
  Tb  Tb0  1  0.333805  0.333805  0.166195  1
  Tb  Tb1  1  0.166203  0.166203  0.333797  1
  Tb  Tb2  1  0.916153  0.916153  0.083847  1
  Tb  Tb3  1  0.083841  0.083841  0.916159  1
  Tb  Tb4  1  0.997489  0.997489  0.502511  1
  Tb  Tb5  1  0.502524  0.502524  0.997476  1
  Tb  Tb6  1  0.252510  0.252510  0.747490  1
  Y  Y7  1  0.747541  0.747541  0.252459  1
  Se  Se8  1  0.008147  0.491843  0.491621  1
  Se  Se9  1  0.491843  0.008147  0.008388  1
  Se  Se10  1  0.241744  0.758263  0.758245  1
  Se  Se11  1  0.758263  0.241744  0.241748  1
  Se  Se12  1  0.663956  0.174002  0.842114  1
  Se  Se13  1  0.842100  0.319942  0.663979  1
  Se  Se14  1  0.319942  0.842100  0.173978  1
  Se  Se15  1  0.174002  0.663956  0.319926  1
  Se  Se16  1  0.586192  0.075675  0.407767  1
  Se  Se17  1  0.408205  0.929866  0.585721  1
  Se  Se18  1  0.929866  0.408205  0.076210  1
  Se  Se19  1  0.075675  0.586192  0.930367  1
