# generated using pymatgen
data_Ti12Al5Pd3O4
_symmetry_space_group_name_H-M   'P 1'
_cell_length_a   6.86008665
_cell_length_b   6.86008543
_cell_length_c   6.86008600
_cell_angle_alpha   90.15045401
_cell_angle_beta   90.15045398
_cell_angle_gamma   90.15045931
_symmetry_Int_Tables_number   1
_chemical_formula_structural   Ti12Al5Pd3O4
_chemical_formula_sum   'Ti12 Al5 Pd3 O4'
_cell_volume   322.83765622
_cell_formula_units_Z   1
loop_
 _symmetry_equiv_pos_site_id
 _symmetry_equiv_pos_as_xyz
  1  'x, y, z'
loop_
 _atom_site_type_symbol
 _atom_site_label
 _atom_site_symmetry_multiplicity
 _atom_site_fract_x
 _atom_site_fract_y
 _atom_site_fract_z
 _atom_site_occupancy
  Ti  Ti0  1  0.788875  0.958749  0.375617  1
  Ti  Ti1  1  0.711269  0.040514  0.872660  1
  Ti  Ti2  1  0.212066  0.459488  0.124106  1
  Ti  Ti3  1  0.289766  0.542839  0.624890  1
  Ti  Ti4  1  0.958749  0.375617  0.788875  1
  Ti  Ti5  1  0.040514  0.872660  0.711269  1
  Ti  Ti6  1  0.459488  0.124106  0.212066  1
  Ti  Ti7  1  0.542839  0.624890  0.289766  1
  Ti  Ti8  1  0.375617  0.788875  0.958749  1
  Ti  Ti9  1  0.872660  0.711269  0.040514  1
  Ti  Ti10  1  0.124106  0.212066  0.459488  1
  Ti  Ti11  1  0.624890  0.289766  0.542839  1
  Al  Al12  1  0.678130  0.678130  0.678130  1
  Al  Al13  1  0.571376  0.421774  0.932186  1
  Al  Al14  1  0.421774  0.932186  0.571376  1
  Al  Al15  1  0.932186  0.571376  0.421774  1
  Al  Al16  1  0.073439  0.073439  0.073439  1
  Pd  Pd17  1  0.177941  0.822315  0.320380  1
  Pd  Pd18  1  0.320380  0.177941  0.822315  1
  Pd  Pd19  1  0.822315  0.320380  0.177941  1
  O  O20  1  0.878213  0.124796  0.623589  1
  O  O21  1  0.623589  0.878213  0.124796  1
  O  O22  1  0.124796  0.623589  0.878213  1
  O  O23  1  0.375020  0.375020  0.375020  1
