# generated using pymatgen
data_Mn2Be8AlFe
_symmetry_space_group_name_H-M   'P 1'
_cell_length_a   4.19230700
_cell_length_b   4.19230477
_cell_length_c   6.86419800
_cell_angle_alpha   89.99984192
_cell_angle_beta   89.99985654
_cell_angle_gamma   60.00001564
_symmetry_Int_Tables_number   1
_chemical_formula_structural   Mn2Be8AlFe
_chemical_formula_sum   'Mn2 Be8 Al1 Fe1'
_cell_volume   104.47837943
_cell_formula_units_Z   1
loop_
 _symmetry_equiv_pos_site_id
 _symmetry_equiv_pos_as_xyz
  1  'x, y, z'
loop_
 _atom_site_type_symbol
 _atom_site_label
 _atom_site_symmetry_multiplicity
 _atom_site_fract_x
 _atom_site_fract_y
 _atom_site_fract_z
 _atom_site_occupancy
  Mn  Mn0  1  0.666664  0.666670  0.051193  1
  Mn  Mn1  1  0.333345  0.333339  0.936817  1
  Be  Be2  1  0.999986  0.999994  0.504231  1
  Be  Be3  1  0.000003  0.000002  0.002867  1
  Be  Be4  1  0.831148  0.337708  0.753372  1
  Be  Be5  1  0.337709  0.831146  0.753372  1
  Be  Be6  1  0.831147  0.831144  0.753375  1
  Be  Be7  1  0.170523  0.658947  0.246263  1
  Be  Be8  1  0.658946  0.170525  0.246263  1
  Be  Be9  1  0.170526  0.170526  0.246261  1
  Al  Al10  1  0.666666  0.666666  0.437073  1
  Fe  Fe11  1  0.333334  0.333333  0.568914  1
