# generated using pymatgen
data_Nd6MoO12
_symmetry_space_group_name_H-M   'P 1'
_cell_length_a   6.73077906
_cell_length_b   6.73077907
_cell_length_c   6.73077838
_cell_angle_alpha   98.44985146
_cell_angle_beta   98.44985149
_cell_angle_gamma   98.44985142
_symmetry_Int_Tables_number   1
_chemical_formula_structural   Nd6MoO12
_chemical_formula_sum   'Nd6 Mo1 O12'
_cell_volume   293.88338937
_cell_formula_units_Z   1
loop_
 _symmetry_equiv_pos_site_id
 _symmetry_equiv_pos_as_xyz
  1  'x, y, z'
loop_
 _atom_site_type_symbol
 _atom_site_label
 _atom_site_symmetry_multiplicity
 _atom_site_fract_x
 _atom_site_fract_y
 _atom_site_fract_z
 _atom_site_occupancy
  Nd  Nd0  1  0.144427  0.309912  0.611764  1
  Nd  Nd1  1  0.388236  0.855573  0.690088  1
  Nd  Nd2  1  0.690088  0.388236  0.855573  1
  Nd  Nd3  1  0.309912  0.611764  0.144427  1
  Nd  Nd4  1  0.611764  0.144427  0.309912  1
  Nd  Nd5  1  0.855573  0.690088  0.388236  1
  Mo  Mo6  1  0.000000  0.000000  0.000000  1
  O  O7  1  0.069866  0.288311  0.968324  1
  O  O8  1  0.031676  0.930134  0.711689  1
  O  O9  1  0.407770  0.560584  0.822561  1
  O  O10  1  0.177439  0.592230  0.439416  1
  O  O11  1  0.711689  0.031676  0.930134  1
  O  O12  1  0.439416  0.177439  0.592230  1
  O  O13  1  0.560584  0.822561  0.407770  1
  O  O14  1  0.288311  0.968324  0.069866  1
  O  O15  1  0.822561  0.407770  0.560584  1
  O  O16  1  0.592230  0.439416  0.177439  1
  O  O17  1  0.968324  0.069866  0.288311  1
  O  O18  1  0.930134  0.711689  0.031676  1
