# generated using pymatgen
data_Zr10Al2CuGeSb4
_symmetry_space_group_name_H-M   'P 1'
_cell_length_a   8.59079877
_cell_length_b   8.63842863
_cell_length_c   5.83249947
_cell_angle_alpha   90.14163303
_cell_angle_beta   89.92879024
_cell_angle_gamma   120.18358554
_symmetry_Int_Tables_number   1
_chemical_formula_structural   Zr10Al2CuGeSb4
_chemical_formula_sum   'Zr10 Al2 Cu1 Ge1 Sb4'
_cell_volume   374.15014506
_cell_formula_units_Z   1
loop_
 _symmetry_equiv_pos_site_id
 _symmetry_equiv_pos_as_xyz
  1  'x, y, z'
loop_
 _atom_site_type_symbol
 _atom_site_label
 _atom_site_symmetry_multiplicity
 _atom_site_fract_x
 _atom_site_fract_y
 _atom_site_fract_z
 _atom_site_occupancy
  Zr  Zr0  1  0.663848  0.330959  0.994652  1
  Zr  Zr1  1  0.336152  0.667112  0.994652  1
  Zr  Zr2  1  0.336037  0.667056  0.505600  1
  Zr  Zr3  1  0.663963  0.331017  0.505600  1
  Zr  Zr4  1  0.720772  0.729644  0.750670  1
  Zr  Zr5  1  0.279228  0.008870  0.750670  1
  Zr  Zr6  1  0.000000  0.271131  0.750048  1
  Zr  Zr7  1  0.259374  0.256747  0.250639  1
  Zr  Zr8  1  0.740626  0.997372  0.250639  1
  Zr  Zr9  1  0.000000  0.740320  0.252058  1
  Al  Al10  1  0.383254  0.384333  0.752436  1
  Al  Al11  1  0.616746  0.001079  0.752436  1
  Cu  Cu12  1  0.000000  0.002088  0.972545  1
  Ge  Ge13  1  0.000000  0.000337  0.518260  1
  Sb  Sb14  1  0.000000  0.619113  0.753925  1
  Sb  Sb15  1  0.604614  0.604088  0.247942  1
  Sb  Sb16  1  0.395386  0.999474  0.247942  1
  Sb  Sb17  1  0.000000  0.389260  0.249286  1
