# generated using pymatgen
data_Dy2Ho7Tm(Tl2Ni)4
_symmetry_space_group_name_H-M   'P 1'
_cell_length_a   3.57234400
_cell_length_b   8.10811734
_cell_length_c   18.06204812
_cell_angle_alpha   89.96321594
_cell_angle_beta   90.00000000
_cell_angle_gamma   90.00000000
_symmetry_Int_Tables_number   1
_chemical_formula_structural   Dy2Ho7Tm(Tl2Ni)4
_chemical_formula_sum   'Dy2 Ho7 Tm1 Tl8 Ni4'
_cell_volume   523.16683298
_cell_formula_units_Z   1
loop_
 _symmetry_equiv_pos_site_id
 _symmetry_equiv_pos_as_xyz
  1  'x, y, z'
loop_
 _atom_site_type_symbol
 _atom_site_label
 _atom_site_symmetry_multiplicity
 _atom_site_fract_x
 _atom_site_fract_y
 _atom_site_fract_z
 _atom_site_occupancy
  Dy  Dy0  1  0.500000  0.500474  0.999859  1
  Dy  Dy1  1  0.500000  0.998949  0.500384  1
  Ho  Ho2  1  0.500000  0.883921  0.909085  1
  Ho  Ho3  1  0.500000  0.116823  0.090844  1
  Ho  Ho4  1  0.500000  0.755340  0.719015  1
  Ho  Ho5  1  0.500000  0.255261  0.780155  1
  Ho  Ho6  1  0.500000  0.745276  0.219739  1
  Ho  Ho7  1  0.500000  0.245077  0.280753  1
  Ho  Ho8  1  0.500000  0.615917  0.409494  1
  Tm  Tm9  1  0.500000  0.383116  0.591171  1
  Tl  Tl10  1  0.000000  0.798399  0.066421  1
  Tl  Tl11  1  0.000000  0.922177  0.347741  1
  Tl  Tl12  1  0.000000  0.078869  0.652159  1
  Tl  Tl13  1  0.000000  0.577980  0.846871  1
  Tl  Tl14  1  0.000000  0.699184  0.566067  1
  Tl  Tl15  1  0.000000  0.202418  0.933588  1
  Tl  Tl16  1  0.000000  0.297696  0.434649  1
  Tl  Tl17  1  0.000000  0.422703  0.152703  1
  Ni  Ni18  1  0.000000  0.973813  0.802636  1
  Ni  Ni19  1  0.000000  0.526464  0.303132  1
  Ni  Ni20  1  0.000000  0.473054  0.696161  1
  Ni  Ni21  1  0.000000  0.027092  0.197373  1
