# generated using pymatgen
data_Th4Ag3Au5
_symmetry_space_group_name_H-M   'P 1'
_cell_length_a   4.82770000
_cell_length_b   6.86367720
_cell_length_c   8.37054708
_cell_angle_alpha   89.84294787
_cell_angle_beta   90.00000000
_cell_angle_gamma   90.00000000
_symmetry_Int_Tables_number   1
_chemical_formula_structural   Th4Ag3Au5
_chemical_formula_sum   'Th4 Ag3 Au5'
_cell_volume   277.36351780
_cell_formula_units_Z   1
loop_
 _symmetry_equiv_pos_site_id
 _symmetry_equiv_pos_as_xyz
  1  'x, y, z'
loop_
 _atom_site_type_symbol
 _atom_site_label
 _atom_site_symmetry_multiplicity
 _atom_site_fract_x
 _atom_site_fract_y
 _atom_site_fract_z
 _atom_site_occupancy
  Th  Th0  1  0.500000  0.500053  0.763438  1
  Th  Th1  1  0.500000  0.002585  0.745245  1
  Th  Th2  1  0.000000  0.496717  0.236631  1
  Th  Th3  1  0.000000  0.999598  0.254657  1
  Ag  Ag4  1  0.500000  0.733207  0.417191  1
  Ag  Ag5  1  0.000000  0.765069  0.915194  1
  Ag  Ag6  1  0.000000  0.266831  0.582200  1
  Au  Au7  1  0.500000  0.755996  0.084331  1
  Au  Au8  1  0.500000  0.257378  0.420088  1
  Au  Au9  1  0.000000  0.241099  0.912432  1
  Au  Au10  1  0.000000  0.741658  0.583088  1
  Au  Au11  1  0.500000  0.239806  0.085507  1
