# generated using pymatgen
data_Cs2Tb2MnZnTe6
_symmetry_space_group_name_H-M   'P 1'
_cell_length_a   4.46363800
_cell_length_b   8.86853721
_cell_length_c   11.77734200
_cell_angle_alpha   90.00000000
_cell_angle_beta   90.00000000
_cell_angle_gamma   75.42447662
_symmetry_Int_Tables_number   1
_chemical_formula_structural   Cs2Tb2MnZnTe6
_chemical_formula_sum   'Cs2 Tb2 Mn1 Zn1 Te6'
_cell_volume   451.21277445
_cell_formula_units_Z   1
loop_
 _symmetry_equiv_pos_site_id
 _symmetry_equiv_pos_as_xyz
  1  'x, y, z'
loop_
 _atom_site_type_symbol
 _atom_site_label
 _atom_site_symmetry_multiplicity
 _atom_site_fract_x
 _atom_site_fract_y
 _atom_site_fract_z
 _atom_site_occupancy
  Cs  Cs0  1  0.744900  0.510198  0.250000  1
  Cs  Cs1  1  0.255024  0.489951  0.750000  1
  Tb  Tb2  1  0.000130  0.999741  0.999529  1
  Tb  Tb3  1  0.000130  0.999741  0.500471  1
  Mn  Mn4  1  0.461611  0.076778  0.250000  1
  Zn  Zn5  1  0.539115  0.921770  0.750000  1
  Te  Te6  1  0.378876  0.242250  0.057112  1
  Te  Te7  1  0.058192  0.883616  0.250000  1
  Te  Te8  1  0.378876  0.242250  0.442888  1
  Te  Te9  1  0.620535  0.758931  0.558058  1
  Te  Te10  1  0.942076  0.115848  0.750000  1
  Te  Te11  1  0.620535  0.758931  0.941942  1
