# generated using pymatgen
data_Nd3Th(B10Ru)2
_symmetry_space_group_name_H-M   'P 1'
_cell_length_a   4.21475200
_cell_length_b   5.75841290
_cell_length_c   11.46093012
_cell_angle_alpha   89.95079794
_cell_angle_beta   90.00000000
_cell_angle_gamma   90.00000000
_symmetry_Int_Tables_number   1
_chemical_formula_structural   Nd3Th(B10Ru)2
_chemical_formula_sum   'Nd3 Th1 B20 Ru2'
_cell_volume   278.15990655
_cell_formula_units_Z   1
loop_
 _symmetry_equiv_pos_site_id
 _symmetry_equiv_pos_as_xyz
  1  'x, y, z'
loop_
 _atom_site_type_symbol
 _atom_site_label
 _atom_site_symmetry_multiplicity
 _atom_site_fract_x
 _atom_site_fract_y
 _atom_site_fract_z
 _atom_site_occupancy
  Nd  Nd0  1  0.500000  0.715623  0.133534  1
  Nd  Nd1  1  0.500000  0.781142  0.628954  1
  Nd  Nd2  1  0.500000  0.216850  0.369604  1
  Th  Th3  1  0.500000  0.280120  0.869241  1
  B  B4  1  0.000000  0.120227  0.542638  1
  B  B5  1  0.000000  0.880487  0.457288  1
  B  B6  1  0.000000  0.622204  0.958109  1
  B  B7  1  0.000000  0.382029  0.042584  1
  B  B8  1  0.000000  0.134945  0.697370  1
  B  B9  1  0.000000  0.864058  0.302153  1
  B  B10  1  0.299326  0.222572  0.117269  1
  B  B11  1  0.300007  0.779476  0.881327  1
  B  B12  1  0.700741  0.721356  0.381858  1
  B  B13  1  0.700356  0.279442  0.618770  1
  B  B14  1  0.699993  0.779476  0.881327  1
  B  B15  1  0.700674  0.222572  0.117269  1
  B  B16  1  0.299644  0.279442  0.618770  1
  B  B17  1  0.299259  0.721356  0.381858  1
  B  B18  1  0.000000  0.057409  0.191614  1
  B  B19  1  0.000000  0.941131  0.806798  1
  B  B20  1  0.000000  0.556768  0.308092  1
  B  B21  1  0.000000  0.441105  0.693511  1
  B  B22  1  0.000000  0.363784  0.197621  1
  B  B23  1  0.000000  0.633884  0.803372  1
  Ru  Ru24  1  0.000000  0.499951  0.500144  1
  Ru  Ru25  1  0.000000  0.002594  0.998928  1
