# generated using pymatgen
data_Cs5Rb5Ba2(TaAs4)2
_symmetry_space_group_name_H-M   'P 1'
_cell_length_a   11.17049180
_cell_length_b   11.17012969
_cell_length_c   8.31757151
_cell_angle_alpha   88.33951646
_cell_angle_beta   88.69435912
_cell_angle_gamma   121.18388776
_symmetry_Int_Tables_number   1
_chemical_formula_structural   Cs5Rb5Ba2(TaAs4)2
_chemical_formula_sum   'Cs5 Rb5 Ba2 Ta2 As8'
_cell_volume   886.63572533
_cell_formula_units_Z   1
loop_
 _symmetry_equiv_pos_site_id
 _symmetry_equiv_pos_as_xyz
  1  'x, y, z'
loop_
 _atom_site_type_symbol
 _atom_site_label
 _atom_site_symmetry_multiplicity
 _atom_site_fract_x
 _atom_site_fract_y
 _atom_site_fract_z
 _atom_site_occupancy
  Cs  Cs0  1  0.291185  0.150997  0.724340  1
  Cs  Cs1  1  0.858206  0.721527  0.659206  1
  Cs  Cs2  1  0.139674  0.866527  0.180416  1
  Cs  Cs3  1  0.721604  0.858111  0.160450  1
  Cs  Cs4  1  0.151191  0.290622  0.224725  1
  Rb  Rb5  1  0.466380  0.526674  0.498020  1
  Rb  Rb6  1  0.058967  0.527639  0.498621  1
  Rb  Rb7  1  0.526510  0.465642  0.998533  1
  Rb  Rb8  1  0.528350  0.058381  0.000320  1
  Rb  Rb9  1  0.859042  0.145209  0.680525  1
  Ba  Ba10  1  0.464618  0.934437  0.490464  1
  Ba  Ba11  1  0.935076  0.462918  0.992734  1
  Ta  Ta12  1  0.670141  0.329575  0.393569  1
  Ta  Ta13  1  0.330558  0.668250  0.888651  1
  As  As14  1  0.686312  0.338393  0.695718  1
  As  As15  1  0.337273  0.684438  0.190436  1
  As  As16  1  0.787402  0.202947  0.289542  1
  As  As17  1  0.417631  0.197077  0.322188  1
  As  As18  1  0.794203  0.573548  0.268717  1
  As  As19  1  0.205138  0.786211  0.785337  1
  As  As20  1  0.576880  0.796815  0.767579  1
  As  As21  1  0.193657  0.414062  0.818486  1
