# generated using pymatgen
data_LuU3(TcB4)4
_symmetry_space_group_name_H-M   'P 1'
_cell_length_a   3.59807200
_cell_length_b   5.91989417
_cell_length_c   11.46195609
_cell_angle_alpha   89.87326588
_cell_angle_beta   90.00000000
_cell_angle_gamma   90.00000000
_symmetry_Int_Tables_number   1
_chemical_formula_structural   LuU3(TcB4)4
_chemical_formula_sum   'Lu1 U3 Tc4 B16'
_cell_volume   244.14142225
_cell_formula_units_Z   1
loop_
 _symmetry_equiv_pos_site_id
 _symmetry_equiv_pos_as_xyz
  1  'x, y, z'
loop_
 _atom_site_type_symbol
 _atom_site_label
 _atom_site_symmetry_multiplicity
 _atom_site_fract_x
 _atom_site_fract_y
 _atom_site_fract_z
 _atom_site_occupancy
  Lu  Lu0  1  0.500000  0.873001  0.350703  1
  U  U1  1  0.500000  0.372777  0.150720  1
  U  U2  1  0.500000  0.627931  0.849896  1
  U  U3  1  0.500000  0.127688  0.649670  1
  Tc  Tc4  1  0.500000  0.362090  0.409395  1
  Tc  Tc5  1  0.500000  0.638302  0.594541  1
  Tc  Tc6  1  0.500000  0.139289  0.905245  1
  Tc  Tc7  1  0.500000  0.860458  0.091708  1
  B  B8  1  0.000000  0.113750  0.047512  1
  B  B9  1  0.000000  0.884274  0.953617  1
  B  B10  1  0.000000  0.386024  0.546232  1
  B  B11  1  0.000000  0.615862  0.452351  1
  B  B12  1  0.000000  0.135342  0.468260  1
  B  B13  1  0.000000  0.866796  0.531916  1
  B  B14  1  0.000000  0.366587  0.968016  1
  B  B15  1  0.000000  0.630715  0.032609  1
  B  B16  1  0.000000  0.026723  0.192596  1
  B  B17  1  0.000000  0.972069  0.806979  1
  B  B18  1  0.000000  0.472628  0.692349  1
  B  B19  1  0.000000  0.525124  0.307414  1
  B  B20  1  0.000000  0.213092  0.312108  1
  B  B21  1  0.000000  0.790166  0.688115  1
  B  B22  1  0.000000  0.289658  0.811183  1
  B  B23  1  0.000000  0.709658  0.186867  1
