# generated using pymatgen
data_Tm8Si16Mo5W7
_symmetry_space_group_name_H-M   'P 1'
_cell_length_a   6.72479551
_cell_length_b   6.90773531
_cell_length_c   12.84647303
_cell_angle_alpha   89.97084478
_cell_angle_beta   89.97560139
_cell_angle_gamma   90.05699745
_symmetry_Int_Tables_number   1
_chemical_formula_structural   Tm8Si16Mo5W7
_chemical_formula_sum   'Tm8 Si16 Mo5 W7'
_cell_volume   596.75816495
_cell_formula_units_Z   1
loop_
 _symmetry_equiv_pos_site_id
 _symmetry_equiv_pos_as_xyz
  1  'x, y, z'
loop_
 _atom_site_type_symbol
 _atom_site_label
 _atom_site_symmetry_multiplicity
 _atom_site_fract_x
 _atom_site_fract_y
 _atom_site_fract_z
 _atom_site_occupancy
  Tm  Tm0  1  0.495273  0.331827  0.093300  1
  Tm  Tm1  1  0.996092  0.168446  0.406687  1
  Tm  Tm2  1  0.504636  0.668225  0.593463  1
  Tm  Tm3  1  0.004696  0.831461  0.906857  1
  Tm  Tm4  1  0.503891  0.668677  0.906906  1
  Tm  Tm5  1  0.004132  0.831408  0.593376  1
  Tm  Tm6  1  0.496456  0.331380  0.406651  1
  Tm  Tm7  1  0.995680  0.168767  0.093431  1
  Si  Si8  1  0.661210  0.040371  0.546890  1
  Si  Si9  1  0.161851  0.458960  0.953584  1
  Si  Si10  1  0.337484  0.959483  0.046347  1
  Si  Si11  1  0.838985  0.541113  0.453040  1
  Si  Si12  1  0.338315  0.958630  0.452527  1
  Si  Si13  1  0.837219  0.541532  0.046689  1
  Si  Si14  1  0.662821  0.041233  0.953286  1
  Si  Si15  1  0.162432  0.458797  0.546827  1
  Si  Si16  1  0.533979  0.371482  0.749110  1
  Si  Si17  1  0.034201  0.128789  0.750735  1
  Si  Si18  1  0.466405  0.629235  0.249979  1
  Si  Si19  1  0.965108  0.870782  0.250712  1
  Si  Si20  1  0.801869  0.635524  0.750503  1
  Si  Si21  1  0.301844  0.864665  0.749588  1
  Si  Si22  1  0.198405  0.364707  0.250191  1
  Si  Si23  1  0.697867  0.134788  0.249788  1
  Mo  Mo24  1  0.669441  0.835911  0.374587  1
  Mo  Mo25  1  0.170983  0.662782  0.375246  1
  Mo  Mo26  1  0.669576  0.836569  0.125296  1
  Mo  Mo27  1  0.828985  0.337639  0.875471  1
  Mo  Mo28  1  0.329088  0.162710  0.624203  1
  W  W29  1  0.830925  0.335874  0.626036  1
  W  W30  1  0.331485  0.164209  0.873620  1
  W  W31  1  0.169077  0.663435  0.125833  1
  W  W32  1  0.665650  0.998629  0.750330  1
  W  W33  1  0.165606  0.501557  0.750172  1
  W  W34  1  0.333552  0.002037  0.249082  1
  W  W35  1  0.834784  0.498361  0.249657  1
