# generated using pymatgen
data_Dy4Y(AlTe)2
_symmetry_space_group_name_H-M   'P 1'
_cell_length_a   8.68781400
_cell_length_b   8.68781510
_cell_length_c   7.92078900
_cell_angle_alpha   90.00000000
_cell_angle_beta   90.00000000
_cell_angle_gamma   126.04202085
_symmetry_Int_Tables_number   1
_chemical_formula_structural   Dy4Y(AlTe)2
_chemical_formula_sum   'Dy8 Y2 Al4 Te4'
_cell_volume   483.40994564
_cell_formula_units_Z   2
loop_
 _symmetry_equiv_pos_site_id
 _symmetry_equiv_pos_as_xyz
  1  'x, y, z'
loop_
 _atom_site_type_symbol
 _atom_site_label
 _atom_site_symmetry_multiplicity
 _atom_site_fract_x
 _atom_site_fract_y
 _atom_site_fract_z
 _atom_site_occupancy
  Dy  Dy0  1  0.798632  0.537704  0.168065  1
  Dy  Dy1  1  0.462296  0.201368  0.831935  1
  Dy  Dy2  1  0.962296  0.701368  0.668065  1
  Dy  Dy3  1  0.298632  0.037704  0.331935  1
  Dy  Dy4  1  0.201368  0.462296  0.831935  1
  Dy  Dy5  1  0.537704  0.798632  0.168065  1
  Dy  Dy6  1  0.037704  0.298632  0.331935  1
  Dy  Dy7  1  0.701368  0.962296  0.668065  1
  Y  Y8  1  0.000000  0.000000  0.000000  1
  Y  Y9  1  0.500000  0.500000  0.500000  1
  Al  Al10  1  0.876216  0.876216  0.377181  1
  Al  Al11  1  0.123784  0.123784  0.622819  1
  Al  Al12  1  0.623784  0.623784  0.877181  1
  Al  Al13  1  0.376216  0.376216  0.122819  1
  Te  Te14  1  0.204785  0.795215  0.000000  1
  Te  Te15  1  0.704785  0.295215  0.500000  1
  Te  Te16  1  0.795215  0.204785  0.000000  1
  Te  Te17  1  0.295215  0.704785  0.500000  1
