# generated using pymatgen
data_Pr2Sn4Pt3
_symmetry_space_group_name_H-M   'P 1'
_cell_length_a   14.69644300
_cell_length_b   14.69644500
_cell_length_c   4.53314000
_cell_angle_alpha   90.00000000
_cell_angle_beta   90.00000000
_cell_angle_gamma   119.99999776
_symmetry_Int_Tables_number   1
_chemical_formula_structural   Pr2Sn4Pt3
_chemical_formula_sum   'Pr8 Sn16 Pt12'
_cell_volume   847.91887231
_cell_formula_units_Z   4
loop_
 _symmetry_equiv_pos_site_id
 _symmetry_equiv_pos_as_xyz
  1  'x, y, z'
loop_
 _atom_site_type_symbol
 _atom_site_label
 _atom_site_symmetry_multiplicity
 _atom_site_fract_x
 _atom_site_fract_y
 _atom_site_fract_z
 _atom_site_occupancy
  Pr  Pr0  1  0.179887  0.000000  0.500000  1
  Pr  Pr1  1  0.820113  0.820113  0.500000  1
  Pr  Pr2  1  0.000000  0.179887  0.500000  1
  Pr  Pr3  1  0.666667  0.333333  0.000000  1
  Pr  Pr4  1  0.333333  0.666667  0.000000  1
  Pr  Pr5  1  0.565828  0.000000  0.000000  1
  Pr  Pr6  1  0.434172  0.434172  0.000000  1
  Pr  Pr7  1  0.000000  0.565828  0.000000  1
  Sn  Sn8  1  0.496502  0.125248  0.500000  1
  Sn  Sn9  1  0.874752  0.371255  0.500000  1
  Sn  Sn10  1  0.628745  0.503498  0.500000  1
  Sn  Sn11  1  0.503498  0.628745  0.500000  1
  Sn  Sn12  1  0.371255  0.874752  0.500000  1
  Sn  Sn13  1  0.125248  0.496502  0.500000  1
  Sn  Sn14  1  0.375029  0.186553  0.000000  1
  Sn  Sn15  1  0.813447  0.188477  0.000000  1
  Sn  Sn16  1  0.811523  0.624971  0.000000  1
  Sn  Sn17  1  0.624971  0.811523  0.000000  1
  Sn  Sn18  1  0.000000  0.000000  0.000000  1
  Sn  Sn19  1  0.188477  0.813447  0.000000  1
  Sn  Sn20  1  0.727908  0.000000  0.500000  1
  Sn  Sn21  1  0.272092  0.272092  0.500000  1
  Sn  Sn22  1  0.000000  0.727908  0.500000  1
  Sn  Sn23  1  0.186553  0.375029  0.000000  1
  Pt  Pt24  1  0.000000  0.363414  0.000000  1
  Pt  Pt25  1  0.363414  0.000000  0.000000  1
  Pt  Pt26  1  0.476205  0.297886  0.500000  1
  Pt  Pt27  1  0.702114  0.178320  0.500000  1
  Pt  Pt28  1  0.821680  0.523795  0.500000  1
  Pt  Pt29  1  0.523795  0.821680  0.500000  1
  Pt  Pt30  1  0.178320  0.702114  0.500000  1
  Pt  Pt31  1  0.297886  0.476205  0.500000  1
  Pt  Pt32  1  0.000000  0.820454  0.000000  1
  Pt  Pt33  1  0.179546  0.179546  0.000000  1
  Pt  Pt34  1  0.820454  0.000000  0.000000  1
  Pt  Pt35  1  0.636586  0.636586  0.000000  1
