# generated using pymatgen
data_Hf7ZrTi2Cu2(SnSb2)2
_symmetry_space_group_name_H-M   'P 1'
_cell_length_a   8.51703600
_cell_length_b   8.51703590
_cell_length_c   5.69111300
_cell_angle_alpha   90.00000000
_cell_angle_beta   90.00000000
_cell_angle_gamma   119.99999263
_symmetry_Int_Tables_number   1
_chemical_formula_structural   Hf7ZrTi2Cu2(SnSb2)2
_chemical_formula_sum   'Hf7 Zr1 Ti2 Cu2 Sn2 Sb4'
_cell_volume   357.52369774
_cell_formula_units_Z   1
loop_
 _symmetry_equiv_pos_site_id
 _symmetry_equiv_pos_as_xyz
  1  'x, y, z'
loop_
 _atom_site_type_symbol
 _atom_site_label
 _atom_site_symmetry_multiplicity
 _atom_site_fract_x
 _atom_site_fract_y
 _atom_site_fract_z
 _atom_site_occupancy
  Hf  Hf0  1  0.667274  0.333838  0.500370  1
  Hf  Hf1  1  0.735501  0.735255  0.745159  1
  Hf  Hf2  1  0.264885  0.000494  0.745181  1
  Hf  Hf3  1  0.999627  0.265171  0.745303  1
  Hf  Hf4  1  0.263449  0.262441  0.255305  1
  Hf  Hf5  1  0.737102  0.000152  0.255234  1
  Hf  Hf6  1  0.999357  0.735470  0.254717  1
  Zr  Zr7  1  0.332533  0.666604  0.499711  1
  Ti  Ti8  1  0.667840  0.334334  0.000013  1
  Ti  Ti9  1  0.332452  0.666577  0.999534  1
  Cu  Cu10  1  0.999963  0.000281  0.501973  1
  Cu  Cu11  1  0.000067  0.000741  0.997686  1
  Sn  Sn12  1  0.388113  0.387742  0.758940  1
  Sn  Sn13  1  0.612172  0.000206  0.758910  1
  Sb  Sb14  1  0.999778  0.612003  0.758534  1
  Sb  Sb15  1  0.610327  0.610651  0.241002  1
  Sb  Sb16  1  0.389819  0.000726  0.240936  1
  Sb  Sb17  1  0.999740  0.387318  0.241492  1
