# generated using pymatgen
data_Er2LuSc3ReBi2
_symmetry_space_group_name_H-M   'P 1'
_cell_length_a   7.93087100
_cell_length_b   7.93073759
_cell_length_c   4.25597800
_cell_angle_alpha   90.00000000
_cell_angle_beta   90.00000000
_cell_angle_gamma   120.00055229
_symmetry_Int_Tables_number   1
_chemical_formula_structural   Er2LuSc3ReBi2
_chemical_formula_sum   'Er2 Lu1 Sc3 Re1 Bi2'
_cell_volume   231.82595379
_cell_formula_units_Z   1
loop_
 _symmetry_equiv_pos_site_id
 _symmetry_equiv_pos_as_xyz
  1  'x, y, z'
loop_
 _atom_site_type_symbol
 _atom_site_label
 _atom_site_symmetry_multiplicity
 _atom_site_fract_x
 _atom_site_fract_y
 _atom_site_fract_z
 _atom_site_occupancy
  Er  Er0  1  0.000391  0.613662  0.000000  1
  Er  Er1  1  0.386731  0.386338  0.000000  1
  Lu  Lu2  1  0.616641  0.000000  0.000000  1
  Sc  Sc3  1  0.223602  0.000000  0.500000  1
  Sc  Sc4  1  0.999457  0.224922  0.500000  1
  Sc  Sc5  1  0.774535  0.775078  0.500000  1
  Re  Re6  1  0.997958  0.000000  0.000000  1
  Bi  Bi7  1  0.334436  0.668189  0.500000  1
  Bi  Bi8  1  0.666249  0.331811  0.500000  1
