# generated using pymatgen
data_Er2Tm11Th3(CdIr)4
_symmetry_space_group_name_H-M   'P 1'
_cell_length_a   9.62398307
_cell_length_b   9.63119695
_cell_length_c   9.63415400
_cell_angle_alpha   59.98984308
_cell_angle_beta   59.96503412
_cell_angle_gamma   59.92393337
_symmetry_Int_Tables_number   1
_chemical_formula_structural   Er2Tm11Th3(CdIr)4
_chemical_formula_sum   'Er2 Tm11 Th3 Cd4 Ir4'
_cell_volume   630.86343782
_cell_formula_units_Z   1
loop_
 _symmetry_equiv_pos_site_id
 _symmetry_equiv_pos_as_xyz
  1  'x, y, z'
loop_
 _atom_site_type_symbol
 _atom_site_label
 _atom_site_symmetry_multiplicity
 _atom_site_fract_x
 _atom_site_fract_y
 _atom_site_fract_z
 _atom_site_occupancy
  Er  Er0  1  0.816840  0.815830  0.183666  1
  Er  Er1  1  0.186151  0.186280  0.813785  1
  Tm  Tm2  1  0.197285  0.601407  0.600654  1
  Tm  Tm3  1  0.061598  0.438837  0.439213  1
  Tm  Tm4  1  0.436112  0.063049  0.063503  1
  Tm  Tm5  1  0.436112  0.063049  0.437336  1
  Tm  Tm6  1  0.061598  0.438837  0.060351  1
  Tm  Tm7  1  0.436618  0.437742  0.062820  1
  Tm  Tm8  1  0.061996  0.060548  0.438728  1
  Tm  Tm9  1  0.186510  0.813861  0.813662  1
  Tm  Tm10  1  0.816323  0.184764  0.183726  1
  Tm  Tm11  1  0.816323  0.184764  0.815188  1
  Tm  Tm12  1  0.186510  0.813861  0.185967  1
  Th  Th13  1  0.598683  0.600764  0.600023  1
  Th  Th14  1  0.598683  0.600764  0.200529  1
  Th  Th15  1  0.599181  0.199096  0.600861  1
  Cd  Cd16  1  0.835451  0.830970  0.831470  1
  Cd  Cd17  1  0.835451  0.830970  0.502107  1
  Cd  Cd18  1  0.835207  0.501491  0.831650  1
  Cd  Cd19  1  0.499166  0.832918  0.833957  1
  Ir  Ir20  1  0.391782  0.392279  0.392655  1
  Ir  Ir21  1  0.391782  0.392279  0.823283  1
  Ir  Ir22  1  0.391744  0.823673  0.392292  1
  Ir  Ir23  1  0.822894  0.391961  0.392572  1
