# generated using pymatgen
data_Zr6Ti6Ga10IrRh6
_symmetry_space_group_name_H-M   'P 1'
_cell_length_a   8.87963419
_cell_length_b   8.82824033
_cell_length_c   8.82824113
_cell_angle_alpha   59.63966699
_cell_angle_beta   59.80724049
_cell_angle_gamma   59.80724404
_symmetry_Int_Tables_number   1
_chemical_formula_structural   Zr6Ti6Ga10IrRh6
_chemical_formula_sum   'Zr6 Ti6 Ga10 Ir1 Rh6'
_cell_volume   486.59446250
_cell_formula_units_Z   1
loop_
 _symmetry_equiv_pos_site_id
 _symmetry_equiv_pos_as_xyz
  1  'x, y, z'
loop_
 _atom_site_type_symbol
 _atom_site_label
 _atom_site_symmetry_multiplicity
 _atom_site_fract_x
 _atom_site_fract_y
 _atom_site_fract_z
 _atom_site_occupancy
  Zr  Zr0  1  0.689083  0.695668  0.308928  1
  Zr  Zr1  1  0.306320  0.695668  0.308928  1
  Zr  Zr2  1  0.695976  0.304024  0.304024  1
  Zr  Zr3  1  0.306320  0.308928  0.695668  1
  Zr  Zr4  1  0.689083  0.308928  0.695668  1
  Zr  Zr5  1  0.308249  0.691751  0.691751  1
  Ti  Ti6  1  0.877065  0.882307  0.363562  1
  Ti  Ti7  1  0.877065  0.363562  0.882307  1
  Ti  Ti8  1  0.369259  0.879155  0.879155  1
  Ti  Ti9  1  0.872432  0.879155  0.879155  1
  Ti  Ti10  1  0.123237  0.125229  0.628295  1
  Ti  Ti11  1  0.123237  0.628295  0.125229  1
  Ga  Ga12  1  0.646284  0.118486  0.118486  1
  Ga  Ga13  1  0.116744  0.118486  0.118486  1
  Ga  Ga14  1  0.660254  0.657408  0.022083  1
  Ga  Ga15  1  0.660254  0.022083  0.657408  1
  Ga  Ga16  1  0.019772  0.659340  0.659340  1
  Ga  Ga17  1  0.661548  0.659340  0.659340  1
  Ga  Ga18  1  0.338614  0.338697  0.984075  1
  Ga  Ga19  1  0.338614  0.984075  0.338697  1
  Ga  Ga20  1  0.975238  0.341143  0.341143  1
  Ga  Ga21  1  0.342475  0.341143  0.341143  1
  Ir  Ir22  1  0.012059  0.987941  0.987941  1
  Rh  Rh23  1  0.998795  0.999312  0.505658  1
  Rh  Rh24  1  0.496234  0.999312  0.505658  1
  Rh  Rh25  1  0.999545  0.500455  0.500455  1
  Rh  Rh26  1  0.496234  0.505658  0.999312  1
  Rh  Rh27  1  0.998795  0.505658  0.999312  1
  Rh  Rh28  1  0.501211  0.998789  0.998789  1
