# generated using pymatgen
data_TbCe(Er5Co2)2
_symmetry_space_group_name_H-M   'P 1'
_cell_length_a   6.19426773
_cell_length_b   6.85444844
_cell_length_c   9.35896400
_cell_angle_alpha   90.00000000
_cell_angle_beta   90.00000000
_cell_angle_gamma   91.82887619
_symmetry_Int_Tables_number   1
_chemical_formula_structural   TbCe(Er5Co2)2
_chemical_formula_sum   'Tb1 Ce1 Er10 Co4'
_cell_volume   397.16317887
_cell_formula_units_Z   1
loop_
 _symmetry_equiv_pos_site_id
 _symmetry_equiv_pos_as_xyz
  1  'x, y, z'
loop_
 _atom_site_type_symbol
 _atom_site_label
 _atom_site_symmetry_multiplicity
 _atom_site_fract_x
 _atom_site_fract_y
 _atom_site_fract_z
 _atom_site_occupancy
  Tb  Tb0  1  0.361941  0.956954  0.750000  1
  Ce  Ce1  1  0.852948  0.563240  0.250000  1
  Er  Er2  1  0.326901  0.673480  0.064776  1
  Er  Er3  1  0.172849  0.175711  0.430595  1
  Er  Er4  1  0.678261  0.325209  0.566775  1
  Er  Er5  1  0.825136  0.826778  0.931811  1
  Er  Er6  1  0.678261  0.325209  0.933225  1
  Er  Er7  1  0.825136  0.826778  0.568189  1
  Er  Er8  1  0.326901  0.673480  0.435224  1
  Er  Er9  1  0.172849  0.175711  0.069405  1
  Er  Er10  1  0.635560  0.045658  0.250000  1
  Er  Er11  1  0.142288  0.454098  0.750000  1
  Co  Co12  1  0.030256  0.860415  0.250000  1
  Co  Co13  1  0.476971  0.396167  0.250000  1
  Co  Co14  1  0.948399  0.111552  0.750000  1
  Co  Co15  1  0.545347  0.609560  0.750000  1
