# generated using pymatgen
data_NaSr4Pb11
_symmetry_space_group_name_H-M   'P 1'
_cell_length_a   12.55346867
_cell_length_b   12.47677501
_cell_length_c   12.47677465
_cell_angle_alpha   33.34801720
_cell_angle_beta   32.93237786
_cell_angle_gamma   32.93237733
_symmetry_Int_Tables_number   1
_chemical_formula_structural   NaSr4Pb11
_chemical_formula_sum   'Na1 Sr4 Pb11'
_cell_volume   517.83325042
_cell_formula_units_Z   1
loop_
 _symmetry_equiv_pos_site_id
 _symmetry_equiv_pos_as_xyz
  1  'x, y, z'
loop_
 _atom_site_type_symbol
 _atom_site_label
 _atom_site_symmetry_multiplicity
 _atom_site_fract_x
 _atom_site_fract_y
 _atom_site_fract_z
 _atom_site_occupancy
  Na  Na0  1  0.709361  0.208386  0.208386  1
  Sr  Sr1  1  0.874552  0.871781  0.871781  1
  Sr  Sr2  1  0.136861  0.122612  0.122612  1
  Sr  Sr3  1  0.707771  0.709513  0.709513  1
  Sr  Sr4  1  0.285991  0.293271  0.293271  1
  Pb  Pb5  1  0.286815  0.795568  0.795568  1
  Pb  Pb6  1  0.791517  0.797838  0.286849  1
  Pb  Pb7  1  0.855170  0.387375  0.387375  1
  Pb  Pb8  1  0.386583  0.382630  0.856244  1
  Pb  Pb9  1  0.386583  0.856244  0.382630  1
  Pb  Pb10  1  0.616246  0.146399  0.609244  1
  Pb  Pb11  1  0.143612  0.613410  0.613410  1
  Pb  Pb12  1  0.616246  0.609244  0.146399  1
  Pb  Pb13  1  0.791517  0.286849  0.797838  1
  Pb  Pb14  1  0.205588  0.711789  0.207092  1
  Pb  Pb15  1  0.205588  0.207092  0.711789  1
