# generated using pymatgen
data_Zn22CuRh2
_symmetry_space_group_name_H-M   'P 1'
_cell_length_a   7.75829306
_cell_length_b   7.75829298
_cell_length_c   7.77181700
_cell_angle_alpha   72.39311084
_cell_angle_beta   72.39310935
_cell_angle_gamma   58.03695009
_symmetry_Int_Tables_number   1
_chemical_formula_structural   Zn22CuRh2
_chemical_formula_sum   'Zn22 Cu1 Rh2'
_cell_volume   372.37221786
_cell_formula_units_Z   1
loop_
 _symmetry_equiv_pos_site_id
 _symmetry_equiv_pos_as_xyz
  1  'x, y, z'
loop_
 _atom_site_type_symbol
 _atom_site_label
 _atom_site_symmetry_multiplicity
 _atom_site_fract_x
 _atom_site_fract_y
 _atom_site_fract_z
 _atom_site_occupancy
  Zn  Zn0  1  0.345853  0.735222  0.312026  1
  Zn  Zn1  1  0.655906  0.263825  0.685561  1
  Zn  Zn2  1  0.263825  0.655906  0.685561  1
  Zn  Zn3  1  0.735222  0.345853  0.312026  1
  Zn  Zn4  1  0.680428  0.320628  0.999842  1
  Zn  Zn5  1  0.320628  0.680428  0.999842  1
  Zn  Zn6  1  0.829502  0.829502  0.785010  1
  Zn  Zn7  1  0.169577  0.169577  0.217033  1
  Zn  Zn8  1  0.975228  0.975228  0.173622  1
  Zn  Zn9  1  0.024651  0.024651  0.826012  1
  Zn  Zn10  1  0.354766  0.354766  0.275343  1
  Zn  Zn11  1  0.646844  0.646844  0.726262  1
  Zn  Zn12  1  0.685661  0.685661  0.378175  1
  Zn  Zn13  1  0.313332  0.313332  0.621749  1
  Zn  Zn14  1  0.659791  0.023201  0.460025  1
  Zn  Zn15  1  0.342693  0.974556  0.539276  1
  Zn  Zn16  1  0.974556  0.342693  0.539276  1
  Zn  Zn17  1  0.023201  0.659791  0.460025  1
  Zn  Zn18  1  0.622080  0.995978  0.104001  1
  Zn  Zn19  1  0.382037  0.998684  0.896775  1
  Zn  Zn20  1  0.998684  0.382037  0.896775  1
  Zn  Zn21  1  0.995978  0.622080  0.104001  1
  Cu  Cu22  1  0.657513  0.657513  0.055625  1
  Rh  Rh23  1  0.341534  0.341534  0.945698  1
  Rh  Rh24  1  0.000510  0.000510  0.500458  1
