# generated using pymatgen
data_Tb20Si12Se
_symmetry_space_group_name_H-M   'P 1'
_cell_length_a   14.86891800
_cell_length_b   6.42629962
_cell_length_c   8.53124102
_cell_angle_alpha   89.98769789
_cell_angle_beta   90.00000000
_cell_angle_gamma   90.00000000
_symmetry_Int_Tables_number   1
_chemical_formula_structural   Tb20Si12Se
_chemical_formula_sum   'Tb20 Si12 Se1'
_cell_volume   815.17816546
_cell_formula_units_Z   1
loop_
 _symmetry_equiv_pos_site_id
 _symmetry_equiv_pos_as_xyz
  1  'x, y, z'
loop_
 _atom_site_type_symbol
 _atom_site_label
 _atom_site_symmetry_multiplicity
 _atom_site_fract_x
 _atom_site_fract_y
 _atom_site_fract_z
 _atom_site_occupancy
  Tb  Tb0  1  0.666652  0.500000  0.500000  1
  Tb  Tb1  1  0.168645  0.500000  0.000000  1
  Tb  Tb2  1  0.831355  0.500000  0.000000  1
  Tb  Tb3  1  0.333348  0.500000  0.500000  1
  Tb  Tb4  1  0.830004  0.000000  0.000000  1
  Tb  Tb5  1  0.337231  0.000000  0.500000  1
  Tb  Tb6  1  0.662769  0.000000  0.500000  1
  Tb  Tb7  1  0.169996  0.000000  0.000000  1
  Tb  Tb8  1  0.500000  0.253642  0.755949  1
  Tb  Tb9  1  0.000000  0.239408  0.242479  1
  Tb  Tb10  1  0.619729  0.250182  0.123099  1
  Tb  Tb11  1  0.128702  0.237379  0.629433  1
  Tb  Tb12  1  0.871298  0.237379  0.629433  1
  Tb  Tb13  1  0.380271  0.250182  0.123099  1
  Tb  Tb14  1  0.000000  0.760592  0.757521  1
  Tb  Tb15  1  0.500000  0.746358  0.244051  1
  Tb  Tb16  1  0.871298  0.762621  0.370567  1
  Tb  Tb17  1  0.380271  0.749818  0.876901  1
  Tb  Tb18  1  0.619729  0.749818  0.876901  1
  Tb  Tb19  1  0.128702  0.762621  0.370567  1
  Si  Si20  1  0.000000  0.245937  0.893063  1
  Si  Si21  1  0.500000  0.254657  0.394481  1
  Si  Si22  1  0.800943  0.245001  0.302114  1
  Si  Si23  1  0.304895  0.249151  0.804057  1
  Si  Si24  1  0.695105  0.249151  0.804057  1
  Si  Si25  1  0.199057  0.245001  0.302114  1
  Si  Si26  1  0.500000  0.745343  0.605519  1
  Si  Si27  1  0.000000  0.754063  0.106937  1
  Si  Si28  1  0.695105  0.750849  0.195943  1
  Si  Si29  1  0.199057  0.754999  0.697886  1
  Si  Si30  1  0.800943  0.754999  0.697886  1
  Si  Si31  1  0.304895  0.750849  0.195943  1
  Se  Se32  1  0.000000  0.500000  0.500000  1
