# generated using pymatgen
data_Hf16Fe4IrOs3
_symmetry_space_group_name_H-M   'P 1'
_cell_length_a   8.58786221
_cell_length_b   8.58786156
_cell_length_c   8.58786400
_cell_angle_alpha   59.90839591
_cell_angle_beta   59.90840614
_cell_angle_gamma   59.90839757
_symmetry_Int_Tables_number   1
_chemical_formula_structural   Hf16Fe4IrOs3
_chemical_formula_sum   'Hf16 Fe4 Ir1 Os3'
_cell_volume   446.92727665
_cell_formula_units_Z   1
loop_
 _symmetry_equiv_pos_site_id
 _symmetry_equiv_pos_as_xyz
  1  'x, y, z'
loop_
 _atom_site_type_symbol
 _atom_site_label
 _atom_site_symmetry_multiplicity
 _atom_site_fract_x
 _atom_site_fract_y
 _atom_site_fract_z
 _atom_site_occupancy
  Hf  Hf0  1  0.690659  0.102906  0.102906  1
  Hf  Hf1  1  0.102906  0.690659  0.102906  1
  Hf  Hf2  1  0.102906  0.102906  0.690659  1
  Hf  Hf3  1  0.102324  0.102324  0.102324  1
  Hf  Hf4  1  0.313130  0.313130  0.689052  1
  Hf  Hf5  1  0.686722  0.686722  0.313324  1
  Hf  Hf6  1  0.313130  0.689052  0.313130  1
  Hf  Hf7  1  0.686722  0.313324  0.686722  1
  Hf  Hf8  1  0.689052  0.313130  0.313130  1
  Hf  Hf9  1  0.313324  0.686722  0.686722  1
  Hf  Hf10  1  0.950922  0.950922  0.549321  1
  Hf  Hf11  1  0.549751  0.549751  0.949345  1
  Hf  Hf12  1  0.950922  0.549321  0.950922  1
  Hf  Hf13  1  0.549751  0.949345  0.549751  1
  Hf  Hf14  1  0.549321  0.950922  0.950922  1
  Hf  Hf15  1  0.949345  0.549751  0.549751  1
  Fe  Fe16  1  0.329449  0.889930  0.889930  1
  Fe  Fe17  1  0.889930  0.329449  0.889930  1
  Fe  Fe18  1  0.889930  0.889930  0.329449  1
  Fe  Fe19  1  0.890521  0.890521  0.890521  1
  Ir  Ir20  1  0.333325  0.333325  0.333325  1
  Os  Os21  1  0.001060  0.332447  0.332447  1
  Os  Os22  1  0.332447  0.001060  0.332447  1
  Os  Os23  1  0.332447  0.332447  0.001060  1
