# generated using pymatgen
data_LaEu2(Zn3Ni2)3
_symmetry_space_group_name_H-M   'P 1'
_cell_length_a   9.02978700
_cell_length_b   9.02978681
_cell_length_c   4.19375600
_cell_angle_alpha   90.00000000
_cell_angle_beta   90.00000000
_cell_angle_gamma   119.99999704
_symmetry_Int_Tables_number   1
_chemical_formula_structural   LaEu2(Zn3Ni2)3
_chemical_formula_sum   'La1 Eu2 Zn9 Ni6'
_cell_volume   296.13436378
_cell_formula_units_Z   1
loop_
 _symmetry_equiv_pos_site_id
 _symmetry_equiv_pos_as_xyz
  1  'x, y, z'
loop_
 _atom_site_type_symbol
 _atom_site_label
 _atom_site_symmetry_multiplicity
 _atom_site_fract_x
 _atom_site_fract_y
 _atom_site_fract_z
 _atom_site_occupancy
  La  La0  1  0.000000  0.000000  0.500000  1
  Eu  Eu1  1  0.333333  0.666667  0.000000  1
  Eu  Eu2  1  0.666667  0.333333  0.000000  1
  Zn  Zn3  1  0.500000  0.000000  0.500000  1
  Zn  Zn4  1  0.500000  0.500000  0.500000  1
  Zn  Zn5  1  0.000000  0.500000  0.500000  1
  Zn  Zn6  1  0.294551  0.000000  0.000000  1
  Zn  Zn7  1  0.294551  0.294551  0.000000  1
  Zn  Zn8  1  0.000000  0.705449  0.000000  1
  Zn  Zn9  1  0.000000  0.294551  0.000000  1
  Zn  Zn10  1  0.705449  0.705449  0.000000  1
  Zn  Zn11  1  0.705449  0.000000  0.000000  1
  Ni  Ni12  1  0.180967  0.361934  0.500000  1
  Ni  Ni13  1  0.819033  0.180967  0.500000  1
  Ni  Ni14  1  0.361934  0.180967  0.500000  1
  Ni  Ni15  1  0.638066  0.819033  0.500000  1
  Ni  Ni16  1  0.180967  0.819033  0.500000  1
  Ni  Ni17  1  0.819033  0.638066  0.500000  1
