# generated using pymatgen
data_Cs5ZrBi3
_symmetry_space_group_name_H-M   'P 1'
_cell_length_a   9.84936300
_cell_length_b   10.52990698
_cell_length_c   20.61012960
_cell_angle_alpha   60.30962308
_cell_angle_beta   90.00000000
_cell_angle_gamma   90.00000000
_symmetry_Int_Tables_number   1
_chemical_formula_structural   Cs5ZrBi3
_chemical_formula_sum   'Cs20 Zr4 Bi12'
_cell_volume   1856.90882376
_cell_formula_units_Z   4
loop_
 _symmetry_equiv_pos_site_id
 _symmetry_equiv_pos_as_xyz
  1  'x, y, z'
loop_
 _atom_site_type_symbol
 _atom_site_label
 _atom_site_symmetry_multiplicity
 _atom_site_fract_x
 _atom_site_fract_y
 _atom_site_fract_z
 _atom_site_occupancy
  Cs  Cs0  1  0.179575  0.156401  0.260131  1
  Cs  Cs1  1  0.679575  0.843599  0.239869  1
  Cs  Cs2  1  0.820425  0.843599  0.739869  1
  Cs  Cs3  1  0.320425  0.156401  0.760131  1
  Cs  Cs4  1  0.167942  0.838299  0.579874  1
  Cs  Cs5  1  0.667942  0.161701  0.920126  1
  Cs  Cs6  1  0.832058  0.161701  0.420126  1
  Cs  Cs7  1  0.332058  0.838299  0.079874  1
  Cs  Cs8  1  0.003741  0.908978  0.909205  1
  Cs  Cs9  1  0.503741  0.091022  0.590795  1
  Cs  Cs10  1  0.996259  0.091022  0.090795  1
  Cs  Cs11  1  0.496259  0.908978  0.409205  1
  Cs  Cs12  1  0.513428  0.729797  0.921301  1
  Cs  Cs13  1  0.013428  0.270203  0.578699  1
  Cs  Cs14  1  0.486572  0.270203  0.078699  1
  Cs  Cs15  1  0.986572  0.729797  0.421301  1
  Cs  Cs16  1  0.985335  0.455274  0.747640  1
  Cs  Cs17  1  0.485335  0.544726  0.752360  1
  Cs  Cs18  1  0.014665  0.544726  0.252360  1
  Cs  Cs19  1  0.514665  0.455274  0.247640  1
  Zr  Zr20  1  0.372866  0.505374  0.421643  1
  Zr  Zr21  1  0.872866  0.494626  0.078357  1
  Zr  Zr22  1  0.627134  0.494626  0.578357  1
  Zr  Zr23  1  0.127134  0.505374  0.921643  1
  Bi  Bi24  1  0.253527  0.252822  0.923731  1
  Bi  Bi25  1  0.753527  0.747178  0.576269  1
  Bi  Bi26  1  0.746473  0.747178  0.076269  1
  Bi  Bi27  1  0.246473  0.252822  0.423731  1
  Bi  Bi28  1  0.174444  0.511102  0.063078  1
  Bi  Bi29  1  0.674444  0.488898  0.436922  1
  Bi  Bi30  1  0.825556  0.488898  0.936922  1
  Bi  Bi31  1  0.325556  0.511102  0.563078  1
  Bi  Bi32  1  0.297687  0.772177  0.285410  1
  Bi  Bi33  1  0.797687  0.227823  0.214590  1
  Bi  Bi34  1  0.702313  0.227823  0.714590  1
  Bi  Bi35  1  0.202313  0.772177  0.785410  1
