# generated using pymatgen
data_Ca12Sc7Ti12CrO48
_symmetry_space_group_name_H-M   'P 1'
_cell_length_a   11.06041710
_cell_length_b   11.06041624
_cell_length_c   11.06041646
_cell_angle_alpha   109.48781604
_cell_angle_beta   109.48781519
_cell_angle_gamma   109.48780981
_symmetry_Int_Tables_number   1
_chemical_formula_structural   Ca12Sc7Ti12CrO48
_chemical_formula_sum   'Ca12 Sc7 Ti12 Cr1 O48'
_cell_volume   1040.93946200
_cell_formula_units_Z   1
loop_
 _symmetry_equiv_pos_site_id
 _symmetry_equiv_pos_as_xyz
  1  'x, y, z'
loop_
 _atom_site_type_symbol
 _atom_site_label
 _atom_site_symmetry_multiplicity
 _atom_site_fract_x
 _atom_site_fract_y
 _atom_site_fract_z
 _atom_site_occupancy
  Ca  Ca0  1  0.247448  0.372398  0.124199  1
  Ca  Ca1  1  0.752552  0.627602  0.875801  1
  Ca  Ca2  1  0.749083  0.124171  0.374401  1
  Ca  Ca3  1  0.124199  0.247448  0.372398  1
  Ca  Ca4  1  0.374401  0.749083  0.124171  1
  Ca  Ca5  1  0.250917  0.875829  0.625599  1
  Ca  Ca6  1  0.875801  0.752552  0.627602  1
  Ca  Ca7  1  0.625599  0.250917  0.875829  1
  Ca  Ca8  1  0.372398  0.124199  0.247448  1
  Ca  Ca9  1  0.627602  0.875801  0.752552  1
  Ca  Ca10  1  0.124171  0.374401  0.749083  1
  Ca  Ca11  1  0.875829  0.625599  0.250917  1
  Sc  Sc12  1  0.500000  0.000000  0.500000  1
  Sc  Sc13  1  0.000000  0.500000  0.500000  1
  Sc  Sc14  1  0.500000  0.000000  0.000000  1
  Sc  Sc15  1  0.500000  0.500000  0.000000  1
  Sc  Sc16  1  0.500000  0.500000  0.500000  1
  Sc  Sc17  1  0.000000  0.000000  0.500000  1
  Sc  Sc18  1  0.000000  0.500000  0.000000  1
  Ti  Ti19  1  0.249627  0.624969  0.374980  1
  Ti  Ti20  1  0.750373  0.375031  0.625020  1
  Ti  Ti21  1  0.753563  0.877537  0.124778  1
  Ti  Ti22  1  0.374980  0.249627  0.624969  1
  Ti  Ti23  1  0.625020  0.750373  0.375031  1
  Ti  Ti24  1  0.246437  0.122463  0.875222  1
  Ti  Ti25  1  0.124778  0.753563  0.877537  1
  Ti  Ti26  1  0.875222  0.246437  0.122463  1
  Ti  Ti27  1  0.624969  0.374980  0.249627  1
  Ti  Ti28  1  0.375031  0.625020  0.750373  1
  Ti  Ti29  1  0.877537  0.124778  0.753563  1
  Ti  Ti30  1  0.122463  0.875222  0.246437  1
  Cr  Cr31  1  0.000000  0.000000  0.000000  1
  O  O32  1  0.478663  0.378481  0.292183  1
  O  O33  1  0.521337  0.621519  0.707817  1
  O  O34  1  0.586274  0.186494  0.207064  1
  O  O35  1  0.914575  0.119269  0.602445  1
  O  O36  1  0.292183  0.478663  0.378481  1
  O  O37  1  0.312227  0.915512  0.293174  1
  O  O38  1  0.413726  0.813506  0.792936  1
  O  O39  1  0.085425  0.880731  0.397555  1
  O  O40  1  0.707817  0.521337  0.621519  1
  O  O41  1  0.687773  0.084488  0.706826  1
  O  O42  1  0.021770  0.314825  0.900331  1
  O  O43  1  0.207064  0.586274  0.186494  1
  O  O44  1  0.115834  0.018209  0.198703  1
  O  O45  1  0.978230  0.685175  0.099669  1
  O  O46  1  0.792936  0.413726  0.813506  1
  O  O47  1  0.884166  0.981791  0.801297  1
  O  O48  1  0.602445  0.914575  0.119269  1
  O  O49  1  0.186544  0.479985  0.600369  1
  O  O50  1  0.397555  0.085425  0.880731  1
  O  O51  1  0.813456  0.520015  0.399631  1
  O  O52  1  0.900331  0.021770  0.314825  1
  O  O53  1  0.377730  0.585096  0.899539  1
  O  O54  1  0.099669  0.978230  0.685175  1
  O  O55  1  0.622270  0.414904  0.100461  1
  O  O56  1  0.378481  0.292183  0.478663  1
  O  O57  1  0.585096  0.899539  0.377730  1
  O  O58  1  0.621519  0.707817  0.521337  1
  O  O59  1  0.414904  0.100461  0.622270  1
  O  O60  1  0.119269  0.602445  0.914575  1
  O  O61  1  0.018209  0.198703  0.115834  1
  O  O62  1  0.880731  0.397555  0.085425  1
  O  O63  1  0.981791  0.801297  0.884166  1
  O  O64  1  0.314825  0.900331  0.021770  1
  O  O65  1  0.915512  0.293174  0.312227  1
  O  O66  1  0.685175  0.099669  0.978230  1
  O  O67  1  0.084488  0.706826  0.687773  1
  O  O68  1  0.186494  0.207064  0.586274  1
  O  O69  1  0.479985  0.600369  0.186544  1
  O  O70  1  0.813506  0.792936  0.413726  1
  O  O71  1  0.520015  0.399631  0.813456  1
  O  O72  1  0.293174  0.312227  0.915512  1
  O  O73  1  0.706826  0.687773  0.084488  1
  O  O74  1  0.198703  0.115834  0.018209  1
  O  O75  1  0.801297  0.884166  0.981791  1
  O  O76  1  0.899539  0.377730  0.585096  1
  O  O77  1  0.100461  0.622270  0.414904  1
  O  O78  1  0.600369  0.186544  0.479985  1
  O  O79  1  0.399631  0.813456  0.520015  1
