# generated using pymatgen
data_Yb7P12Pd17
_symmetry_space_group_name_H-M   'P 1'
_cell_length_a   12.36211566
_cell_length_b   12.36211557
_cell_length_c   13.53720710
_cell_angle_alpha   68.56084458
_cell_angle_beta   68.56084415
_cell_angle_gamma   18.61069244
_symmetry_Int_Tables_number   1
_chemical_formula_structural   Yb7P12Pd17
_chemical_formula_sum   'Yb7 P12 Pd17'
_cell_volume   613.26638704
_cell_formula_units_Z   1
loop_
 _symmetry_equiv_pos_site_id
 _symmetry_equiv_pos_as_xyz
  1  'x, y, z'
loop_
 _atom_site_type_symbol
 _atom_site_label
 _atom_site_symmetry_multiplicity
 _atom_site_fract_x
 _atom_site_fract_y
 _atom_site_fract_z
 _atom_site_occupancy
  Yb  Yb0  1  0.500000  0.500000  0.500000  1
  Yb  Yb1  1  0.367150  0.367150  0.999063  1
  Yb  Yb2  1  0.632850  0.632850  0.000937  1
  Yb  Yb3  1  0.235083  0.235083  0.311043  1
  Yb  Yb4  1  0.764917  0.764917  0.688957  1
  Yb  Yb5  1  0.417968  0.417968  0.259527  1
  Yb  Yb6  1  0.582032  0.582032  0.740473  1
  P  P7  1  0.061965  0.061965  0.925581  1
  P  P8  1  0.938035  0.938035  0.074419  1
  P  P9  1  0.887201  0.887201  0.826671  1
  P  P10  1  0.112799  0.112799  0.173329  1
  P  P11  1  0.188882  0.188882  0.621809  1
  P  P12  1  0.811118  0.811118  0.378191  1
  P  P13  1  0.364437  0.364437  0.581888  1
  P  P14  1  0.635563  0.635563  0.418112  1
  P  P15  1  0.012376  0.012376  0.671980  1
  P  P16  1  0.987624  0.987624  0.328020  1
  P  P17  1  0.232491  0.232491  0.881119  1
  P  P18  1  0.767509  0.767509  0.118881  1
  Pd  Pd19  1  0.839642  0.839642  0.191722  1
  Pd  Pd20  1  0.160358  0.160358  0.808278  1
  Pd  Pd21  1  0.026503  0.026503  0.123243  1
  Pd  Pd22  1  0.973497  0.973497  0.876757  1
  Pd  Pd23  1  0.888247  0.888247  0.453550  1
  Pd  Pd24  1  0.111753  0.111753  0.546450  1
  Pd  Pd25  1  0.500000  0.500000  0.000000  1
  Pd  Pd26  1  0.546200  0.546200  0.256972  1
  Pd  Pd27  1  0.453800  0.453800  0.743028  1
  Pd  Pd28  1  0.294596  0.294596  0.493150  1
  Pd  Pd29  1  0.705404  0.705404  0.506850  1
  Pd  Pd30  1  0.667253  0.667253  0.223485  1
  Pd  Pd31  1  0.332747  0.332747  0.776515  1
  Pd  Pd32  1  0.907980  0.907980  0.640690  1
  Pd  Pd33  1  0.092020  0.092020  0.359310  1
  Pd  Pd34  1  0.217319  0.217319  0.068391  1
  Pd  Pd35  1  0.782681  0.782681  0.931609  1
