# generated using pymatgen
data_NaNd5SmFeBr12
_symmetry_space_group_name_H-M   'P 1'
_cell_length_a   9.48678571
_cell_length_b   9.49671324
_cell_length_c   9.49213681
_cell_angle_alpha   107.11990121
_cell_angle_beta   107.05848400
_cell_angle_gamma   106.93030243
_symmetry_Int_Tables_number   1
_chemical_formula_structural   NaNd5SmFeBr12
_chemical_formula_sum   'Na1 Nd5 Sm1 Fe1 Br12'
_cell_volume   711.49363054
_cell_formula_units_Z   1
loop_
 _symmetry_equiv_pos_site_id
 _symmetry_equiv_pos_as_xyz
  1  'x, y, z'
loop_
 _atom_site_type_symbol
 _atom_site_label
 _atom_site_symmetry_multiplicity
 _atom_site_fract_x
 _atom_site_fract_y
 _atom_site_fract_z
 _atom_site_occupancy
  Na  Na0  1  0.500099  0.499961  0.499896  1
  Nd  Nd1  1  0.029094  0.313248  0.108330  1
  Nd  Nd2  1  0.109022  0.029872  0.313607  1
  Nd  Nd3  1  0.892295  0.970497  0.686623  1
  Nd  Nd4  1  0.970945  0.686756  0.891583  1
  Nd  Nd5  1  0.686363  0.891926  0.970395  1
  Sm  Sm6  1  0.310856  0.107542  0.029612  1
  Fe  Fe7  1  0.999435  0.999909  0.000500  1
  Br  Br8  1  0.682154  0.218340  0.073196  1
  Br  Br9  1  0.371580  0.447713  0.150777  1
  Br  Br10  1  0.073938  0.684631  0.219389  1
  Br  Br11  1  0.781247  0.926668  0.315691  1
  Br  Br12  1  0.452273  0.152774  0.366937  1
  Br  Br13  1  0.153125  0.371752  0.453086  1
  Br  Br14  1  0.847032  0.628221  0.546982  1
  Br  Br15  1  0.547316  0.846813  0.628126  1
  Br  Br16  1  0.221572  0.074291  0.689333  1
  Br  Br17  1  0.926267  0.315409  0.780671  1
  Br  Br18  1  0.628707  0.547292  0.846986  1
  Br  Br19  1  0.316681  0.786386  0.928275  1
