# generated using pymatgen
data_Sc8Ti9Ga7(Si3Mo)3
_symmetry_space_group_name_H-M   'P 1'
_cell_length_a   6.71160347
_cell_length_b   6.77793488
_cell_length_c   13.36395281
_cell_angle_alpha   90.05799836
_cell_angle_beta   90.13980480
_cell_angle_gamma   89.95485459
_symmetry_Int_Tables_number   1
_chemical_formula_structural   Sc8Ti9Ga7(Si3Mo)3
_chemical_formula_sum   'Sc8 Ti9 Ga7 Si9 Mo3'
_cell_volume   607.93474617
_cell_formula_units_Z   1
loop_
 _symmetry_equiv_pos_site_id
 _symmetry_equiv_pos_as_xyz
  1  'x, y, z'
loop_
 _atom_site_type_symbol
 _atom_site_label
 _atom_site_symmetry_multiplicity
 _atom_site_fract_x
 _atom_site_fract_y
 _atom_site_fract_z
 _atom_site_occupancy
  Sc  Sc0  1  0.499023  0.326038  0.102596  1
  Sc  Sc1  1  0.001327  0.175132  0.400557  1
  Sc  Sc2  1  0.495055  0.667471  0.598259  1
  Sc  Sc3  1  0.003131  0.823666  0.898265  1
  Sc  Sc4  1  0.500076  0.671163  0.898869  1
  Sc  Sc5  1  0.003261  0.821895  0.599639  1
  Sc  Sc6  1  0.494840  0.326610  0.400136  1
  Sc  Sc7  1  0.998058  0.172732  0.102732  1
  Ti  Ti8  1  0.846755  0.333290  0.631909  1
  Ti  Ti9  1  0.341382  0.171191  0.866947  1
  Ti  Ti10  1  0.160490  0.669397  0.132688  1
  Ti  Ti11  1  0.660706  0.831722  0.369359  1
  Ti  Ti12  1  0.161063  0.666779  0.370805  1
  Ti  Ti13  1  0.658977  0.832143  0.132613  1
  Ti  Ti14  1  0.841990  0.335711  0.866340  1
  Ti  Ti15  1  0.333652  0.175655  0.629693  1
  Ti  Ti16  1  0.664373  0.007880  0.750267  1
  Ga  Ga17  1  0.672659  0.041734  0.539464  1
  Ga  Ga18  1  0.172716  0.457820  0.962127  1
  Ga  Ga19  1  0.327589  0.960194  0.037895  1
  Ga  Ga20  1  0.826739  0.538388  0.461566  1
  Ga  Ga21  1  0.329788  0.959634  0.461103  1
  Ga  Ga22  1  0.827517  0.539166  0.038795  1
  Ga  Ga23  1  0.674268  0.042490  0.962130  1
  Si  Si24  1  0.167356  0.460003  0.537751  1
  Si  Si25  1  0.540175  0.384949  0.748454  1
  Si  Si26  1  0.038749  0.112447  0.749609  1
  Si  Si27  1  0.461473  0.613214  0.251199  1
  Si  Si28  1  0.961532  0.886081  0.251896  1
  Si  Si29  1  0.795484  0.643664  0.748659  1
  Si  Si30  1  0.300142  0.860430  0.748514  1
  Si  Si31  1  0.202000  0.358521  0.250785  1
  Si  Si32  1  0.702337  0.141871  0.251668  1
  Mo  Mo33  1  0.162772  0.491649  0.745612  1
  Mo  Mo34  1  0.336267  0.990483  0.249952  1
  Mo  Mo35  1  0.836277  0.508787  0.251150  1
