# generated using pymatgen
data_Nd5DyZn4Pt13
_symmetry_space_group_name_H-M   'P 1'
_cell_length_a   8.37955890
_cell_length_b   8.37955911
_cell_length_c   8.37955898
_cell_angle_alpha   109.51061163
_cell_angle_beta   109.51061987
_cell_angle_gamma   109.39246543
_symmetry_Int_Tables_number   1
_chemical_formula_structural   Nd5DyZn4Pt13
_chemical_formula_sum   'Nd5 Dy1 Zn4 Pt13'
_cell_volume   452.94028439
_cell_formula_units_Z   1
loop_
 _symmetry_equiv_pos_site_id
 _symmetry_equiv_pos_as_xyz
  1  'x, y, z'
loop_
 _atom_site_type_symbol
 _atom_site_label
 _atom_site_symmetry_multiplicity
 _atom_site_fract_x
 _atom_site_fract_y
 _atom_site_fract_z
 _atom_site_occupancy
  Nd  Nd0  1  0.300592  0.999856  0.300736  1
  Nd  Nd1  1  0.999856  0.300592  0.300736  1
  Nd  Nd2  1  0.298966  0.298966  0.000000  1
  Nd  Nd3  1  0.699119  0.999856  0.699264  1
  Nd  Nd4  1  0.999856  0.699119  0.699264  1
  Dy  Dy5  1  0.694559  0.694559  0.000000  1
  Zn  Zn6  1  0.000940  0.000940  0.499213  1
  Zn  Zn7  1  0.000940  0.501727  0.000000  1
  Zn  Zn8  1  0.501727  0.000940  0.000000  1
  Zn  Zn9  1  0.501727  0.501727  0.500787  1
  Pt  Pt10  1  0.333580  0.333580  0.664898  1
  Pt  Pt11  1  0.672113  0.998731  0.326618  1
  Pt  Pt12  1  0.998731  0.672113  0.326618  1
  Pt  Pt13  1  0.668681  0.333580  0.000000  1
  Pt  Pt14  1  0.329287  0.659198  0.329912  1
  Pt  Pt15  1  0.999374  0.329287  0.670088  1
  Pt  Pt16  1  0.333580  0.668681  0.000000  1
  Pt  Pt17  1  0.329287  0.999374  0.670088  1
  Pt  Pt18  1  0.659198  0.329287  0.329912  1
  Pt  Pt19  1  0.668681  0.668681  0.335102  1
  Pt  Pt20  1  0.672113  0.345496  0.673382  1
  Pt  Pt21  1  0.345496  0.672113  0.673382  1
  Pt  Pt22  1  0.991601  0.991601  0.000000  1
