# generated using pymatgen
data_TaI2ClF
_symmetry_space_group_name_H-M   'P 1'
_cell_length_a   7.70433948
_cell_length_b   7.70434026
_cell_length_c   7.70434016
_cell_angle_alpha   121.45117111
_cell_angle_beta   112.83456191
_cell_angle_gamma   95.17262264
_symmetry_Int_Tables_number   1
_chemical_formula_structural   TaI2ClF
_chemical_formula_sum   'Ta2 I4 Cl2 F2'
_cell_volume   333.71254771
_cell_formula_units_Z   2
loop_
 _symmetry_equiv_pos_site_id
 _symmetry_equiv_pos_as_xyz
  1  'x, y, z'
loop_
 _atom_site_type_symbol
 _atom_site_label
 _atom_site_symmetry_multiplicity
 _atom_site_fract_x
 _atom_site_fract_y
 _atom_site_fract_z
 _atom_site_occupancy
  Ta  Ta0  1  0.000000  0.295196  0.295196  1
  Ta  Ta1  1  0.000000  0.709893  0.709893  1
  I  I2  1  0.817714  0.819312  0.001598  1
  I  I3  1  0.182286  0.183884  0.001598  1
  I  I4  1  0.778704  0.280423  0.501720  1
  I  I5  1  0.221296  0.723016  0.501720  1
  Cl  Cl6  1  0.726964  0.718192  0.445156  1
  Cl  Cl7  1  0.273036  0.718192  0.991227  1
  F  F8  1  0.777830  0.275946  0.053776  1
  F  F9  1  0.222170  0.275946  0.498117  1
