# generated using pymatgen
data_Hf3Zr2Fe19P12
_symmetry_space_group_name_H-M   'P 1'
_cell_length_a   11.76985700
_cell_length_b   11.76985848
_cell_length_c   3.61251800
_cell_angle_alpha   90.00000000
_cell_angle_beta   90.00000000
_cell_angle_gamma   120.00000428
_symmetry_Int_Tables_number   1
_chemical_formula_structural   Hf3Zr2Fe19P12
_chemical_formula_sum   'Hf3 Zr2 Fe19 P12'
_cell_volume   433.39416494
_cell_formula_units_Z   1
loop_
 _symmetry_equiv_pos_site_id
 _symmetry_equiv_pos_as_xyz
  1  'x, y, z'
loop_
 _atom_site_type_symbol
 _atom_site_label
 _atom_site_symmetry_multiplicity
 _atom_site_fract_x
 _atom_site_fract_y
 _atom_site_fract_z
 _atom_site_occupancy
  Hf  Hf0  1  0.814319  0.000000  0.000000  1
  Hf  Hf1  1  0.000000  0.814319  0.000000  1
  Hf  Hf2  1  0.185681  0.185681  0.000000  1
  Zr  Zr3  1  0.333333  0.666667  0.500000  1
  Zr  Zr4  1  0.666667  0.333333  0.500000  1
  Fe  Fe5  1  0.623577  0.803697  0.500000  1
  Fe  Fe6  1  0.196303  0.819881  0.500000  1
  Fe  Fe7  1  0.180119  0.376423  0.500000  1
  Fe  Fe8  1  0.376423  0.180119  0.500000  1
  Fe  Fe9  1  0.803697  0.623577  0.500000  1
  Fe  Fe10  1  0.819881  0.196303  0.500000  1
  Fe  Fe11  1  0.282535  0.000000  0.000000  1
  Fe  Fe12  1  0.000000  0.282535  0.000000  1
  Fe  Fe13  1  0.717465  0.717465  0.000000  1
  Fe  Fe14  1  0.443609  0.000000  0.500000  1
  Fe  Fe15  1  0.000000  0.443609  0.500000  1
  Fe  Fe16  1  0.556391  0.556391  0.500000  1
  Fe  Fe17  1  0.516347  0.876120  0.000000  1
  Fe  Fe18  1  0.123880  0.640228  0.000000  1
  Fe  Fe19  1  0.359772  0.483653  0.000000  1
  Fe  Fe20  1  0.483653  0.359772  0.000000  1
  Fe  Fe21  1  0.876120  0.516347  0.000000  1
  Fe  Fe22  1  0.640228  0.123880  0.000000  1
  Fe  Fe23  1  0.000000  0.000000  0.500000  1
  P  P24  1  0.179939  0.000000  0.500000  1
  P  P25  1  0.000000  0.179939  0.500000  1
  P  P26  1  0.820061  0.820061  0.500000  1
  P  P27  1  0.519299  0.685637  0.000000  1
  P  P28  1  0.314363  0.833662  0.000000  1
  P  P29  1  0.166338  0.480701  0.000000  1
  P  P30  1  0.480701  0.166338  0.000000  1
  P  P31  1  0.685637  0.519299  0.000000  1
  P  P32  1  0.833662  0.314363  0.000000  1
  P  P33  1  0.633063  0.000000  0.500000  1
  P  P34  1  0.000000  0.633063  0.500000  1
  P  P35  1  0.366937  0.366937  0.500000  1
