# generated using pymatgen
data_HgIr2Ru2Pb3O14
_symmetry_space_group_name_H-M   'P 1'
_cell_length_a   7.42143994
_cell_length_b   7.42143925
_cell_length_c   7.29088503
_cell_angle_alpha   59.57074259
_cell_angle_beta   59.57074685
_cell_angle_gamma   60.21972732
_symmetry_Int_Tables_number   1
_chemical_formula_structural   HgIr2Ru2Pb3O14
_chemical_formula_sum   'Hg1 Ir2 Ru2 Pb3 O14'
_cell_volume   282.55274419
_cell_formula_units_Z   1
loop_
 _symmetry_equiv_pos_site_id
 _symmetry_equiv_pos_as_xyz
  1  'x, y, z'
loop_
 _atom_site_type_symbol
 _atom_site_label
 _atom_site_symmetry_multiplicity
 _atom_site_fract_x
 _atom_site_fract_y
 _atom_site_fract_z
 _atom_site_occupancy
  Hg  Hg0  1  0.125000  0.125000  0.625000  1
  Ir  Ir1  1  0.625000  0.625000  0.125000  1
  Ir  Ir2  1  0.625000  0.625000  0.625000  1
  Ru  Ru3  1  0.125000  0.625000  0.625000  1
  Ru  Ru4  1  0.625000  0.125000  0.625000  1
  Pb  Pb5  1  0.625000  0.125000  0.125000  1
  Pb  Pb6  1  0.125000  0.625000  0.125000  1
  Pb  Pb7  1  0.125000  0.125000  0.125000  1
  O  O8  1  0.704815  0.704815  0.292914  1
  O  O9  1  0.308518  0.308518  0.699585  1
  O  O10  1  0.683043  0.306576  0.704098  1
  O  O11  1  0.301329  0.700349  0.296439  1
  O  O12  1  0.306576  0.683043  0.704098  1
  O  O13  1  0.700349  0.301329  0.296439  1
  O  O14  1  0.545185  0.545185  0.957086  1
  O  O15  1  0.941482  0.941482  0.550415  1
  O  O16  1  0.566957  0.943424  0.545902  1
  O  O17  1  0.948671  0.549651  0.953561  1
  O  O18  1  0.943424  0.566957  0.545902  1
  O  O19  1  0.549651  0.948671  0.953561  1
  O  O20  1  0.242842  0.242842  0.274478  1
  O  O21  1  0.007158  0.007158  0.975522  1
