# generated using pymatgen
data_Ta4MnCr5Ga2
_symmetry_space_group_name_H-M   'P 1'
_cell_length_a   4.85253800
_cell_length_b   4.86044073
_cell_length_c   8.24584300
_cell_angle_alpha   90.00000000
_cell_angle_beta   90.00000000
_cell_angle_gamma   119.94622925
_symmetry_Int_Tables_number   1
_chemical_formula_structural   Ta4MnCr5Ga2
_chemical_formula_sum   'Ta4 Mn1 Cr5 Ga2'
_cell_volume   168.51763245
_cell_formula_units_Z   1
loop_
 _symmetry_equiv_pos_site_id
 _symmetry_equiv_pos_as_xyz
  1  'x, y, z'
loop_
 _atom_site_type_symbol
 _atom_site_label
 _atom_site_symmetry_multiplicity
 _atom_site_fract_x
 _atom_site_fract_y
 _atom_site_fract_z
 _atom_site_occupancy
  Ta  Ta0  1  0.333402  0.666804  0.434333  1
  Ta  Ta1  1  0.666655  0.333308  0.932537  1
  Ta  Ta2  1  0.666655  0.333308  0.567463  1
  Ta  Ta3  1  0.333402  0.666804  0.065667  1
  Mn  Mn4  1  0.173600  0.347199  0.750000  1
  Cr  Cr5  1  0.174960  0.824781  0.750000  1
  Cr  Cr6  1  0.348100  0.173760  0.250000  1
  Cr  Cr7  1  0.826055  0.652111  0.250000  1
  Cr  Cr8  1  0.649822  0.824781  0.750000  1
  Cr  Cr9  1  0.825658  0.173760  0.250000  1
  Ga  Ga10  1  0.000846  0.001691  0.998756  1
  Ga  Ga11  1  0.000846  0.001691  0.501244  1
