# generated using pymatgen
data_Tb3DyHoSi3
_symmetry_space_group_name_H-M   'P 1'
_cell_length_a   8.47517900
_cell_length_b   8.47517848
_cell_length_c   6.37671200
_cell_angle_alpha   90.00000000
_cell_angle_beta   90.00000000
_cell_angle_gamma   119.99999814
_symmetry_Int_Tables_number   1
_chemical_formula_structural   Tb3DyHoSi3
_chemical_formula_sum   'Tb6 Dy2 Ho2 Si6'
_cell_volume   396.66618088
_cell_formula_units_Z   2
loop_
 _symmetry_equiv_pos_site_id
 _symmetry_equiv_pos_as_xyz
  1  'x, y, z'
loop_
 _atom_site_type_symbol
 _atom_site_label
 _atom_site_symmetry_multiplicity
 _atom_site_fract_x
 _atom_site_fract_y
 _atom_site_fract_z
 _atom_site_occupancy
  Tb  Tb0  1  0.000000  0.756500  0.750000  1
  Tb  Tb1  1  0.000000  0.243500  0.250000  1
  Tb  Tb2  1  0.756500  0.756500  0.250000  1
  Tb  Tb3  1  0.756500  0.000000  0.750000  1
  Tb  Tb4  1  0.243500  0.243500  0.750000  1
  Tb  Tb5  1  0.243500  0.000000  0.250000  1
  Dy  Dy6  1  0.333333  0.666667  0.500000  1
  Dy  Dy7  1  0.666667  0.333333  0.000000  1
  Ho  Ho8  1  0.666667  0.333333  0.500000  1
  Ho  Ho9  1  0.333333  0.666667  0.000000  1
  Si  Si10  1  0.394786  0.000000  0.750000  1
  Si  Si11  1  0.394786  0.394786  0.250000  1
  Si  Si12  1  0.000000  0.605214  0.250000  1
  Si  Si13  1  0.000000  0.394786  0.750000  1
  Si  Si14  1  0.605214  0.605214  0.750000  1
  Si  Si15  1  0.605214  0.000000  0.250000  1
