# generated using pymatgen
data_Er5Tm5Si5Ge
_symmetry_space_group_name_H-M   'P 1'
_cell_length_a   8.35450405
_cell_length_b   8.35620369
_cell_length_c   6.25782200
_cell_angle_alpha   90.00000000
_cell_angle_beta   90.00000000
_cell_angle_gamma   120.01742464
_symmetry_Int_Tables_number   1
_chemical_formula_structural   Er5Tm5Si5Ge
_chemical_formula_sum   'Er5 Tm5 Si5 Ge1'
_cell_volume   378.27465853
_cell_formula_units_Z   1
loop_
 _symmetry_equiv_pos_site_id
 _symmetry_equiv_pos_as_xyz
  1  'x, y, z'
loop_
 _atom_site_type_symbol
 _atom_site_label
 _atom_site_symmetry_multiplicity
 _atom_site_fract_x
 _atom_site_fract_y
 _atom_site_fract_z
 _atom_site_occupancy
  Er  Er0  1  0.758225  0.758268  0.250000  1
  Er  Er1  1  0.242392  0.998780  0.250000  1
  Er  Er2  1  0.242328  0.242398  0.750000  1
  Er  Er3  1  0.757253  0.999977  0.750000  1
  Er  Er4  1  0.999903  0.757133  0.750000  1
  Tm  Tm5  1  0.667537  0.333172  0.500680  1
  Tm  Tm6  1  0.333146  0.667460  0.500675  1
  Tm  Tm7  1  0.333146  0.667460  0.999325  1
  Tm  Tm8  1  0.667537  0.333172  0.999320  1
  Tm  Tm9  1  0.998774  0.242439  0.250000  1
  Si  Si10  1  0.606053  0.000040  0.250000  1
  Si  Si11  1  0.999951  0.605832  0.250000  1
  Si  Si12  1  0.606163  0.606166  0.750000  1
  Si  Si13  1  0.394017  0.000078  0.750000  1
  Si  Si14  1  0.000072  0.394029  0.750000  1
  Ge  Ge15  1  0.393500  0.393597  0.250000  1
