# generated using pymatgen
data_Tb4TmIn3Br
_symmetry_space_group_name_H-M   'P 1'
_cell_length_a   9.21794900
_cell_length_b   9.21794838
_cell_length_c   6.75402700
_cell_angle_alpha   90.00000000
_cell_angle_beta   90.00000000
_cell_angle_gamma   120.00000581
_symmetry_Int_Tables_number   1
_chemical_formula_structural   Tb4TmIn3Br
_chemical_formula_sum   'Tb8 Tm2 In6 Br2'
_cell_volume   497.00638881
_cell_formula_units_Z   2
loop_
 _symmetry_equiv_pos_site_id
 _symmetry_equiv_pos_as_xyz
  1  'x, y, z'
loop_
 _atom_site_type_symbol
 _atom_site_label
 _atom_site_symmetry_multiplicity
 _atom_site_fract_x
 _atom_site_fract_y
 _atom_site_fract_z
 _atom_site_occupancy
  Tb  Tb0  1  0.733936  0.733936  0.250500  1
  Tb  Tb1  1  0.000000  0.733936  0.749500  1
  Tb  Tb2  1  0.733936  0.000000  0.749500  1
  Tb  Tb3  1  0.266064  0.266064  0.749500  1
  Tb  Tb4  1  0.000000  0.266064  0.250500  1
  Tb  Tb5  1  0.266064  0.000000  0.250500  1
  Tb  Tb6  1  0.333333  0.666667  0.000000  1
  Tb  Tb7  1  0.666667  0.333333  0.000000  1
  Tm  Tm8  1  0.333333  0.666667  0.500000  1
  Tm  Tm9  1  0.666667  0.333333  0.500000  1
  In  In10  1  0.393322  0.000000  0.749396  1
  In  In11  1  0.000000  0.606678  0.250604  1
  In  In12  1  0.606678  0.000000  0.250604  1
  In  In13  1  0.000000  0.393322  0.749396  1
  In  In14  1  0.393322  0.393322  0.250604  1
  In  In15  1  0.606678  0.606678  0.749396  1
  Br  Br16  1  0.000000  0.000000  0.500000  1
  Br  Br17  1  0.000000  0.000000  0.000000  1
