# generated using pymatgen
data_Ho7U(Si3Pt)4
_symmetry_space_group_name_H-M   'P 1'
_cell_length_a   8.12350600
_cell_length_b   8.12350688
_cell_length_c   8.10820100
_cell_angle_alpha   90.00000000
_cell_angle_beta   90.00000000
_cell_angle_gamma   120.00000457
_symmetry_Int_Tables_number   1
_chemical_formula_structural   Ho7U(Si3Pt)4
_chemical_formula_sum   'Ho7 U1 Si12 Pt4'
_cell_volume   463.38521831
_cell_formula_units_Z   1
loop_
 _symmetry_equiv_pos_site_id
 _symmetry_equiv_pos_as_xyz
  1  'x, y, z'
loop_
 _atom_site_type_symbol
 _atom_site_label
 _atom_site_symmetry_multiplicity
 _atom_site_fract_x
 _atom_site_fract_y
 _atom_site_fract_z
 _atom_site_occupancy
  Ho  Ho0  1  0.000000  0.000000  0.750000  1
  Ho  Ho1  1  0.501968  0.498032  0.250000  1
  Ho  Ho2  1  0.501968  0.003935  0.250000  1
  Ho  Ho3  1  0.996065  0.498032  0.250000  1
  Ho  Ho4  1  0.498134  0.501866  0.750000  1
  Ho  Ho5  1  0.498134  0.996267  0.750000  1
  Ho  Ho6  1  0.003733  0.501866  0.750000  1
  U  U7  1  0.000000  0.000000  0.250000  1
  Si  Si8  1  0.164916  0.835084  0.496351  1
  Si  Si9  1  0.164916  0.329829  0.496351  1
  Si  Si10  1  0.670171  0.835084  0.496351  1
  Si  Si11  1  0.835033  0.164967  0.499710  1
  Si  Si12  1  0.835033  0.670068  0.499710  1
  Si  Si13  1  0.329932  0.164967  0.499710  1
  Si  Si14  1  0.835033  0.164967  0.000290  1
  Si  Si15  1  0.835033  0.670068  0.000290  1
  Si  Si16  1  0.329932  0.164967  0.000290  1
  Si  Si17  1  0.164916  0.835084  0.003649  1
  Si  Si18  1  0.164916  0.329829  0.003649  1
  Si  Si19  1  0.670171  0.835084  0.003649  1
  Pt  Pt20  1  0.333333  0.666667  0.497351  1
  Pt  Pt21  1  0.666667  0.333333  0.505737  1
  Pt  Pt22  1  0.666667  0.333333  0.994263  1
  Pt  Pt23  1  0.333333  0.666667  0.002649  1
