# generated using pymatgen
data_BaLaZr2(NiAs)4
_symmetry_space_group_name_H-M   'P 1'
_cell_length_a   4.07404500
_cell_length_b   4.07404398
_cell_length_c   16.13826000
_cell_angle_alpha   90.00000000
_cell_angle_beta   90.00000000
_cell_angle_gamma   120.00001640
_symmetry_Int_Tables_number   1
_chemical_formula_structural   BaLaZr2(NiAs)4
_chemical_formula_sum   'Ba1 La1 Zr2 Ni4 As4'
_cell_volume   231.97372834
_cell_formula_units_Z   1
loop_
 _symmetry_equiv_pos_site_id
 _symmetry_equiv_pos_as_xyz
  1  'x, y, z'
loop_
 _atom_site_type_symbol
 _atom_site_label
 _atom_site_symmetry_multiplicity
 _atom_site_fract_x
 _atom_site_fract_y
 _atom_site_fract_z
 _atom_site_occupancy
  Ba  Ba0  1  0.000000  0.000000  0.000000  1
  La  La1  1  0.000000  0.000000  0.500000  1
  Zr  Zr2  1  0.000000  0.000000  0.257326  1
  Zr  Zr3  1  0.000000  0.000000  0.742674  1
  Ni  Ni4  1  0.333333  0.666667  0.174935  1
  Ni  Ni5  1  0.666667  0.333333  0.825065  1
  Ni  Ni6  1  0.666667  0.333333  0.653447  1
  Ni  Ni7  1  0.333333  0.666667  0.346553  1
  As  As8  1  0.333333  0.666667  0.624042  1
  As  As9  1  0.666667  0.333333  0.375958  1
  As  As10  1  0.666667  0.333333  0.145931  1
  As  As11  1  0.333333  0.666667  0.854069  1
