# generated using pymatgen
data_ZrSc2Ru4W
_symmetry_space_group_name_H-M   'P 1'
_cell_length_a   6.38981900
_cell_length_b   4.52644400
_cell_length_c   9.06920700
_cell_angle_alpha   90.00000000
_cell_angle_beta   90.00000000
_cell_angle_gamma   90.00000000
_symmetry_Int_Tables_number   1
_chemical_formula_structural   ZrSc2Ru4W
_chemical_formula_sum   'Zr2 Sc4 Ru8 W2'
_cell_volume   262.31010585
_cell_formula_units_Z   2
loop_
 _symmetry_equiv_pos_site_id
 _symmetry_equiv_pos_as_xyz
  1  'x, y, z'
loop_
 _atom_site_type_symbol
 _atom_site_label
 _atom_site_symmetry_multiplicity
 _atom_site_fract_x
 _atom_site_fract_y
 _atom_site_fract_z
 _atom_site_occupancy
  Zr  Zr0  1  0.750055  0.250000  0.623508  1
  Zr  Zr1  1  0.250054  0.750000  0.876491  1
  Sc  Sc2  1  0.249942  0.250000  0.126814  1
  Sc  Sc3  1  0.749943  0.750000  0.373186  1
  Sc  Sc4  1  0.250060  0.250000  0.622679  1
  Sc  Sc5  1  0.750059  0.750000  0.877322  1
  Ru  Ru6  1  0.505633  0.750000  0.132350  1
  Ru  Ru7  1  0.994281  0.750000  0.132368  1
  Ru  Ru8  1  0.494280  0.250000  0.367633  1
  Ru  Ru9  1  0.005633  0.250000  0.367650  1
  Ru  Ru10  1  0.006119  0.750000  0.616564  1
  Ru  Ru11  1  0.493955  0.750000  0.616568  1
  Ru  Ru12  1  0.993955  0.250000  0.883433  1
  Ru  Ru13  1  0.506118  0.250000  0.883436  1
  W  W14  1  0.749956  0.250000  0.125663  1
  W  W15  1  0.249957  0.750000  0.374336  1
