# generated using pymatgen
data_MnNb2Fe2Ge
_symmetry_space_group_name_H-M   'P 1'
_cell_length_a   4.90000100
_cell_length_b   4.89286614
_cell_length_c   8.03334200
_cell_angle_alpha   90.00000000
_cell_angle_beta   90.00000000
_cell_angle_gamma   120.04824242
_symmetry_Int_Tables_number   1
_chemical_formula_structural   MnNb2Fe2Ge
_chemical_formula_sum   'Mn2 Nb4 Fe4 Ge2'
_cell_volume   166.71514910
_cell_formula_units_Z   2
loop_
 _symmetry_equiv_pos_site_id
 _symmetry_equiv_pos_as_xyz
  1  'x, y, z'
loop_
 _atom_site_type_symbol
 _atom_site_label
 _atom_site_symmetry_multiplicity
 _atom_site_fract_x
 _atom_site_fract_y
 _atom_site_fract_z
 _atom_site_occupancy
  Mn  Mn0  1  0.345709  0.173500  0.249999  1
  Mn  Mn1  1  0.827790  0.173500  0.249999  1
  Nb  Nb2  1  0.333313  0.666626  0.065353  1
  Nb  Nb3  1  0.333313  0.666626  0.434647  1
  Nb  Nb4  1  0.666020  0.332041  0.563332  1
  Nb  Nb5  1  0.666020  0.332041  0.936668  1
  Fe  Fe6  1  0.827637  0.655277  0.249999  1
  Fe  Fe7  1  0.174151  0.348300  0.750000  1
  Fe  Fe8  1  0.174028  0.827195  0.750000  1
  Fe  Fe9  1  0.653168  0.827195  0.750000  1
  Ge  Ge10  1  0.999425  0.998850  0.999608  1
  Ge  Ge11  1  0.999425  0.998850  0.500392  1
