# generated using pymatgen
data_Ac4Se3N2
_symmetry_space_group_name_H-M   'P 1'
_cell_length_a   8.78650636
_cell_length_b   8.78650553
_cell_length_c   6.86165941
_cell_angle_alpha   89.77701846
_cell_angle_beta   89.77701942
_cell_angle_gamma   75.43608171
_symmetry_Int_Tables_number   1
_chemical_formula_structural   Ac4Se3N2
_chemical_formula_sum   'Ac8 Se6 N4'
_cell_volume   512.71062843
_cell_formula_units_Z   2
loop_
 _symmetry_equiv_pos_site_id
 _symmetry_equiv_pos_as_xyz
  1  'x, y, z'
loop_
 _atom_site_type_symbol
 _atom_site_label
 _atom_site_symmetry_multiplicity
 _atom_site_fract_x
 _atom_site_fract_y
 _atom_site_fract_z
 _atom_site_occupancy
  Ac  Ac0  1  0.806788  0.444190  0.029377  1
  Ac  Ac1  1  0.555810  0.193212  0.470623  1
  Ac  Ac2  1  0.193212  0.555810  0.970623  1
  Ac  Ac3  1  0.444190  0.806788  0.529377  1
  Ac  Ac4  1  0.243044  0.085571  0.072497  1
  Ac  Ac5  1  0.914429  0.756956  0.427503  1
  Ac  Ac6  1  0.756956  0.914429  0.927503  1
  Ac  Ac7  1  0.085571  0.243044  0.572497  1
  Se  Se8  1  0.902554  0.097446  0.250000  1
  Se  Se9  1  0.097446  0.902554  0.750000  1
  Se  Se10  1  0.485293  0.746556  0.034397  1
  Se  Se11  1  0.253444  0.514707  0.465603  1
  Se  Se12  1  0.514707  0.253444  0.965603  1
  Se  Se13  1  0.746556  0.485293  0.534396  1
  N  N14  1  0.919395  0.669553  0.084965  1
  N  N15  1  0.330447  0.080605  0.415035  1
  N  N16  1  0.080605  0.330447  0.915035  1
  N  N17  1  0.669553  0.919395  0.584965  1
