# generated using pymatgen
data_Ho3ErTm4(ReB6)4
_symmetry_space_group_name_H-M   'P 1'
_cell_length_a   3.65243100
_cell_length_b   9.11923700
_cell_length_c   11.49698400
_cell_angle_alpha   89.99989990
_cell_angle_beta   90.00000000
_cell_angle_gamma   90.00000000
_symmetry_Int_Tables_number   1
_chemical_formula_structural   Ho3ErTm4(ReB6)4
_chemical_formula_sum   'Ho3 Er1 Tm4 Re4 B24'
_cell_volume   382.93445995
_cell_formula_units_Z   1
loop_
 _symmetry_equiv_pos_site_id
 _symmetry_equiv_pos_as_xyz
  1  'x, y, z'
loop_
 _atom_site_type_symbol
 _atom_site_label
 _atom_site_symmetry_multiplicity
 _atom_site_fract_x
 _atom_site_fract_y
 _atom_site_fract_z
 _atom_site_occupancy
  Ho  Ho0  1  0.000000  0.323435  0.413858  1
  Ho  Ho1  1  0.000000  0.676552  0.586153  1
  Ho  Ho2  1  0.000000  0.823456  0.086111  1
  Er  Er3  1  0.000000  0.176447  0.913886  1
  Tm  Tm4  1  0.000000  0.943491  0.370241  1
  Tm  Tm5  1  0.000000  0.056550  0.629788  1
  Tm  Tm6  1  0.000000  0.443434  0.129692  1
  Tm  Tm7  1  0.000000  0.556494  0.870282  1
  Re  Re8  1  0.000000  0.639164  0.320517  1
  Re  Re9  1  0.000000  0.360771  0.679576  1
  Re  Re10  1  0.000000  0.139164  0.179341  1
  Re  Re11  1  0.000000  0.860983  0.820584  1
  B  B12  1  0.500000  0.553495  0.433010  1
  B  B13  1  0.500000  0.446491  0.567019  1
  B  B14  1  0.500000  0.053541  0.066858  1
  B  B15  1  0.500000  0.946659  0.933025  1
  B  B16  1  0.500000  0.750240  0.418924  1
  B  B17  1  0.500000  0.249770  0.581103  1
  B  B18  1  0.500000  0.250204  0.080888  1
  B  B19  1  0.500000  0.749802  0.918907  1
  B  B20  1  0.500000  0.792980  0.265520  1
  B  B21  1  0.500000  0.206952  0.734616  1
  B  B22  1  0.500000  0.292967  0.234446  1
  B  B23  1  0.500000  0.707024  0.765534  1
  B  B24  1  0.500000  0.630824  0.185170  1
  B  B25  1  0.500000  0.369052  0.814926  1
  B  B26  1  0.500000  0.130832  0.314800  1
  B  B27  1  0.500000  0.869204  0.685208  1
  B  B28  1  0.500000  0.982079  0.212258  1
  B  B29  1  0.500000  0.018137  0.787817  1
  B  B30  1  0.500000  0.482027  0.287707  1
  B  B31  1  0.500000  0.517949  0.712289  1
  B  B32  1  0.500000  0.599316  0.027736  1
  B  B33  1  0.500000  0.400500  0.972205  1
  B  B34  1  0.500000  0.099310  0.472266  1
  B  B35  1  0.500000  0.900704  0.527739  1
