# generated using pymatgen
data_RuClF4
_symmetry_space_group_name_H-M   'P 1'
_cell_length_a   9.42075900
_cell_length_b   6.91744637
_cell_length_c   9.71808125
_cell_angle_alpha   46.49044569
_cell_angle_beta   90.00000106
_cell_angle_gamma   90.00023137
_symmetry_Int_Tables_number   1
_chemical_formula_structural   RuClF4
_chemical_formula_sum   'Ru4 Cl4 F16'
_cell_volume   459.30977825
_cell_formula_units_Z   4
loop_
 _symmetry_equiv_pos_site_id
 _symmetry_equiv_pos_as_xyz
  1  'x, y, z'
loop_
 _atom_site_type_symbol
 _atom_site_label
 _atom_site_symmetry_multiplicity
 _atom_site_fract_x
 _atom_site_fract_y
 _atom_site_fract_z
 _atom_site_occupancy
  Ru  Ru0  1  0.872918  0.802866  0.152961  1
  Ru  Ru1  1  0.627080  0.802867  0.652961  1
  Ru  Ru2  1  0.372920  0.197133  0.347039  1
  Ru  Ru3  1  0.127082  0.197134  0.847039  1
  Cl  Cl4  1  0.358404  0.175734  0.857121  1
  Cl  Cl5  1  0.858402  0.824278  0.642872  1
  Cl  Cl6  1  0.141598  0.175722  0.357128  1
  Cl  Cl7  1  0.641596  0.824266  0.142879  1
  F  F8  1  0.097490  0.843292  0.118046  1
  F  F9  1  0.115687  0.525366  0.597966  1
  F  F10  1  0.881772  0.633417  0.063654  1
  F  F11  1  0.615685  0.474637  0.902033  1
  F  F12  1  0.618224  0.633421  0.563652  1
  F  F13  1  0.884313  0.474634  0.402034  1
  F  F14  1  0.611028  0.985776  0.731306  1
  F  F15  1  0.402509  0.843290  0.618048  1
  F  F16  1  0.384315  0.525363  0.097967  1
  F  F17  1  0.902510  0.156708  0.881954  1
  F  F18  1  0.388972  0.014224  0.268694  1
  F  F19  1  0.597491  0.156710  0.381952  1
  F  F20  1  0.118228  0.366583  0.936346  1
  F  F21  1  0.381776  0.366579  0.436348  1
  F  F22  1  0.888972  0.985777  0.231305  1
  F  F23  1  0.111028  0.014223  0.768695  1
