# generated using pymatgen
data_LuPPd3Pt2
_symmetry_space_group_name_H-M   'P 1'
_cell_length_a   3.96503800
_cell_length_b   4.06690900
_cell_length_c   6.99585700
_cell_angle_alpha   90.00000000
_cell_angle_beta   90.00000000
_cell_angle_gamma   90.00000000
_symmetry_Int_Tables_number   1
_chemical_formula_structural   LuPPd3Pt2
_chemical_formula_sum   'Lu1 P1 Pd3 Pt2'
_cell_volume   112.81133336
_cell_formula_units_Z   1
loop_
 _symmetry_equiv_pos_site_id
 _symmetry_equiv_pos_as_xyz
  1  'x, y, z'
loop_
 _atom_site_type_symbol
 _atom_site_label
 _atom_site_symmetry_multiplicity
 _atom_site_fract_x
 _atom_site_fract_y
 _atom_site_fract_z
 _atom_site_occupancy
  Lu  Lu0  1  0.500000  0.500000  0.999427  1
  P  P1  1  0.000000  0.000000  0.501744  1
  Pd  Pd2  1  0.000000  0.500000  0.701110  1
  Pd  Pd3  1  0.500000  0.000000  0.296368  1
  Pd  Pd4  1  0.000000  0.500000  0.299415  1
  Pt  Pt5  1  0.000000  0.000000  0.999783  1
  Pt  Pt6  1  0.500000  0.000000  0.702152  1
