# generated using pymatgen
data_UTeBr9
_symmetry_space_group_name_H-M   'P 1'
_cell_length_a   12.79322100
_cell_length_b   7.49732244
_cell_length_c   10.82831859
_cell_angle_alpha   76.23860147
_cell_angle_beta   90.00000000
_cell_angle_gamma   90.00000000
_symmetry_Int_Tables_number   1
_chemical_formula_structural   UTeBr9
_chemical_formula_sum   'U2 Te2 Br18'
_cell_volume   1008.78395116
_cell_formula_units_Z   2
loop_
 _symmetry_equiv_pos_site_id
 _symmetry_equiv_pos_as_xyz
  1  'x, y, z'
loop_
 _atom_site_type_symbol
 _atom_site_label
 _atom_site_symmetry_multiplicity
 _atom_site_fract_x
 _atom_site_fract_y
 _atom_site_fract_z
 _atom_site_occupancy
  U  U0  1  0.250000  0.647920  0.847341  1
  U  U1  1  0.750000  0.351651  0.153676  1
  Te  Te2  1  0.250000  0.758897  0.464503  1
  Te  Te3  1  0.750000  0.241896  0.532707  1
  Br  Br4  1  0.603374  0.449283  0.314665  1
  Br  Br5  1  0.104052  0.551209  0.685584  1
  Br  Br6  1  0.395948  0.551209  0.685584  1
  Br  Br7  1  0.896626  0.449283  0.314665  1
  Br  Br8  1  0.750000  0.690357  0.010645  1
  Br  Br9  1  0.250000  0.311034  0.993972  1
  Br  Br10  1  0.750000  0.503637  0.643584  1
  Br  Br11  1  0.250000  0.498805  0.352128  1
  Br  Br12  1  0.750000  0.012670  0.326199  1
  Br  Br13  1  0.250000  0.985755  0.674103  1
  Br  Br14  1  0.901096  0.240466  0.022986  1
  Br  Br15  1  0.400064  0.757080  0.980602  1
  Br  Br16  1  0.099936  0.757080  0.980602  1
  Br  Br17  1  0.598904  0.240466  0.022986  1
  Br  Br18  1  0.898536  0.059348  0.657346  1
  Br  Br19  1  0.398380  0.941303  0.339388  1
  Br  Br20  1  0.101620  0.941303  0.339388  1
  Br  Br21  1  0.601464  0.059348  0.657346  1
