# generated using pymatgen
data_Tb2DyLu2Bi3
_symmetry_space_group_name_H-M   'P 1'
_cell_length_a   8.19106100
_cell_length_b   9.45677300
_cell_length_c   12.00566700
_cell_angle_alpha   90.00000000
_cell_angle_beta   90.00000000
_cell_angle_gamma   90.00000000
_symmetry_Int_Tables_number   1
_chemical_formula_structural   Tb2DyLu2Bi3
_chemical_formula_sum   'Tb8 Dy4 Lu8 Bi12'
_cell_volume   929.97102559
_cell_formula_units_Z   4
loop_
 _symmetry_equiv_pos_site_id
 _symmetry_equiv_pos_as_xyz
  1  'x, y, z'
loop_
 _atom_site_type_symbol
 _atom_site_label
 _atom_site_symmetry_multiplicity
 _atom_site_fract_x
 _atom_site_fract_y
 _atom_site_fract_z
 _atom_site_occupancy
  Tb  Tb0  1  0.186061  0.750135  0.718749  1
  Tb  Tb1  1  0.686061  0.749865  0.781251  1
  Tb  Tb2  1  0.813939  0.250135  0.281251  1
  Tb  Tb3  1  0.313939  0.249865  0.218749  1
  Tb  Tb4  1  0.353408  0.749791  0.216436  1
  Tb  Tb5  1  0.853408  0.750209  0.283564  1
  Tb  Tb6  1  0.646592  0.249791  0.783564  1
  Tb  Tb7  1  0.146592  0.250209  0.716436  1
  Dy  Dy8  1  0.307840  0.435986  0.940742  1
  Dy  Dy9  1  0.807840  0.064014  0.559258  1
  Dy  Dy10  1  0.692160  0.935986  0.059258  1
  Dy  Dy11  1  0.192160  0.564014  0.440742  1
  Lu  Lu12  1  0.023447  0.749934  0.989381  1
  Lu  Lu13  1  0.523447  0.750066  0.510619  1
  Lu  Lu14  1  0.976553  0.249934  0.010619  1
  Lu  Lu15  1  0.476553  0.250066  0.489381  1
  Lu  Lu16  1  0.692072  0.567104  0.058975  1
  Lu  Lu17  1  0.192072  0.932896  0.441025  1
  Lu  Lu18  1  0.307928  0.067104  0.941025  1
  Lu  Lu19  1  0.807928  0.432896  0.558975  1
  Bi  Bi20  1  0.433708  0.003995  0.671478  1
  Bi  Bi21  1  0.933708  0.496005  0.828522  1
  Bi  Bi22  1  0.566292  0.503995  0.328522  1
  Bi  Bi23  1  0.066292  0.996005  0.171478  1
  Bi  Bi24  1  0.565700  0.996309  0.328263  1
  Bi  Bi25  1  0.065700  0.503691  0.171737  1
  Bi  Bi26  1  0.434300  0.496309  0.671737  1
  Bi  Bi27  1  0.934300  0.003691  0.828263  1
  Bi  Bi28  1  0.404187  0.752519  0.957152  1
  Bi  Bi29  1  0.904187  0.747481  0.542848  1
  Bi  Bi30  1  0.595813  0.252519  0.042848  1
  Bi  Bi31  1  0.095813  0.247481  0.457152  1
