# generated using pymatgen
data_HoEr4Zr3(Co4P3)4
_symmetry_space_group_name_H-M   'P 1'
_cell_length_a   12.29269600
_cell_length_b   12.29269649
_cell_length_c   3.70890000
_cell_angle_alpha   90.00000000
_cell_angle_beta   90.00000000
_cell_angle_gamma   120.00000408
_symmetry_Int_Tables_number   1
_chemical_formula_structural   HoEr4Zr3(Co4P3)4
_chemical_formula_sum   'Ho1 Er4 Zr3 Co16 P12'
_cell_volume   485.36676837
_cell_formula_units_Z   1
loop_
 _symmetry_equiv_pos_site_id
 _symmetry_equiv_pos_as_xyz
  1  'x, y, z'
loop_
 _atom_site_type_symbol
 _atom_site_label
 _atom_site_symmetry_multiplicity
 _atom_site_fract_x
 _atom_site_fract_y
 _atom_site_fract_z
 _atom_site_occupancy
  Ho  Ho0  1  0.333333  0.666667  0.000000  1
  Er  Er1  1  0.666667  0.333333  0.000000  1
  Er  Er2  1  0.817937  0.817950  0.500000  1
  Er  Er3  1  0.182050  0.999987  0.500000  1
  Er  Er4  1  0.000013  0.182063  0.500000  1
  Zr  Zr5  1  0.441514  0.441423  0.000000  1
  Zr  Zr6  1  0.558577  0.000091  0.000000  1
  Zr  Zr7  1  0.999909  0.558486  0.000000  1
  Co  Co8  1  0.875100  0.354915  0.500000  1
  Co  Co9  1  0.645085  0.520185  0.500000  1
  Co  Co10  1  0.479815  0.124900  0.500000  1
  Co  Co11  1  0.354902  0.875390  0.500000  1
  Co  Co12  1  0.520489  0.645098  0.500000  1
  Co  Co13  1  0.124610  0.479511  0.500000  1
  Co  Co14  1  0.805837  0.178648  0.000000  1
  Co  Co15  1  0.821352  0.627188  0.000000  1
  Co  Co16  1  0.372812  0.194163  0.000000  1
  Co  Co17  1  0.178547  0.805878  0.000000  1
  Co  Co18  1  0.627330  0.821453  0.000000  1
  Co  Co19  1  0.194122  0.372670  0.000000  1
  Co  Co20  1  0.276858  0.276807  0.500000  1
  Co  Co21  1  0.723193  0.000050  0.500000  1
  Co  Co22  1  0.999950  0.723142  0.500000  1
  Co  Co23  1  0.000000  0.000000  0.000000  1
  P  P24  1  0.693464  0.172520  0.500000  1
  P  P25  1  0.827480  0.520945  0.500000  1
  P  P26  1  0.479055  0.306536  0.500000  1
  P  P27  1  0.172250  0.693572  0.500000  1
  P  P28  1  0.521323  0.827750  0.500000  1
  P  P29  1  0.306428  0.478677  0.500000  1
  P  P30  1  0.177674  0.177649  0.000000  1
  P  P31  1  0.822351  0.000025  0.000000  1
  P  P32  1  0.999975  0.822326  0.000000  1
  P  P33  1  0.649580  0.649610  0.000000  1
  P  P34  1  0.350390  0.999970  0.000000  1
  P  P35  1  0.000030  0.350420  0.000000  1
