# generated using pymatgen
data_Er8Re3RuC8
_symmetry_space_group_name_H-M   'P 1'
_cell_length_a   5.05827600
_cell_length_b   6.52146804
_cell_length_c   9.76899659
_cell_angle_alpha   89.88914001
_cell_angle_beta   90.00000000
_cell_angle_gamma   90.00000000
_symmetry_Int_Tables_number   1
_chemical_formula_structural   Er8Re3RuC8
_chemical_formula_sum   'Er8 Re3 Ru1 C8'
_cell_volume   322.25305099
_cell_formula_units_Z   1
loop_
 _symmetry_equiv_pos_site_id
 _symmetry_equiv_pos_as_xyz
  1  'x, y, z'
loop_
 _atom_site_type_symbol
 _atom_site_label
 _atom_site_symmetry_multiplicity
 _atom_site_fract_x
 _atom_site_fract_y
 _atom_site_fract_z
 _atom_site_occupancy
  Er  Er0  1  0.750000  0.532168  0.785070  1
  Er  Er1  1  0.250000  0.966941  0.282237  1
  Er  Er2  1  0.750000  0.677360  0.442950  1
  Er  Er3  1  0.250000  0.826916  0.944237  1
  Er  Er4  1  0.750000  0.177968  0.057386  1
  Er  Er5  1  0.250000  0.321916  0.557557  1
  Er  Er6  1  0.250000  0.466218  0.216337  1
  Er  Er7  1  0.750000  0.033981  0.716349  1
  Re  Re8  1  0.250000  0.782361  0.633086  1
  Re  Re9  1  0.750000  0.217870  0.368635  1
  Re  Re10  1  0.750000  0.719080  0.132035  1
  Ru  Ru11  1  0.250000  0.281834  0.866866  1
  C  C12  1  0.250000  0.674625  0.447783  1
  C  C13  1  0.250000  0.549435  0.756983  1
  C  C14  1  0.750000  0.451538  0.240958  1
  C  C15  1  0.750000  0.824486  0.946140  1
  C  C16  1  0.250000  0.047440  0.740131  1
  C  C17  1  0.250000  0.172167  0.051541  1
  C  C18  1  0.750000  0.324409  0.554022  1
  C  C19  1  0.750000  0.951285  0.259695  1
