# generated using pymatgen
data_Cs4Si3Ge(SbSe4)4
_symmetry_space_group_name_H-M   'P 1'
_cell_length_a   7.63601742
_cell_length_b   9.78553807
_cell_length_c   13.66572589
_cell_angle_alpha   72.86341885
_cell_angle_beta   89.83852908
_cell_angle_gamma   90.06395982
_symmetry_Int_Tables_number   1
_chemical_formula_structural   Cs4Si3Ge(SbSe4)4
_chemical_formula_sum   'Cs4 Si3 Ge1 Sb4 Se16'
_cell_volume   975.79851670
_cell_formula_units_Z   1
loop_
 _symmetry_equiv_pos_site_id
 _symmetry_equiv_pos_as_xyz
  1  'x, y, z'
loop_
 _atom_site_type_symbol
 _atom_site_label
 _atom_site_symmetry_multiplicity
 _atom_site_fract_x
 _atom_site_fract_y
 _atom_site_fract_z
 _atom_site_occupancy
  Cs  Cs0  1  0.256990  0.432765  0.383953  1
  Cs  Cs1  1  0.756920  0.568031  0.116000  1
  Cs  Cs2  1  0.742892  0.567297  0.617320  1
  Cs  Cs3  1  0.242985  0.432290  0.883783  1
  Si  Si4  1  0.278697  0.822856  0.154814  1
  Si  Si5  1  0.221201  0.823921  0.654553  1
  Si  Si6  1  0.721453  0.176488  0.845178  1
  Ge  Ge7  1  0.775543  0.179467  0.344808  1
  Sb  Sb8  1  0.134919  0.937777  0.373646  1
  Sb  Sb9  1  0.631478  0.061443  0.124847  1
  Sb  Sb10  1  0.867537  0.060600  0.627293  1
  Sb  Sb11  1  0.367109  0.938923  0.873900  1
  Se  Se12  1  0.979359  0.213532  0.754619  1
  Se  Se13  1  0.806092  0.927655  0.443581  1
  Se  Se14  1  0.491711  0.207523  0.736505  1
  Se  Se15  1  0.696991  0.934193  0.940913  1
  Se  Se16  1  0.780441  0.316569  0.461332  1
  Se  Se17  1  0.021270  0.786233  0.245749  1
  Se  Se18  1  0.278211  0.688237  0.044446  1
  Se  Se19  1  0.197635  0.066025  0.558963  1
  Se  Se20  1  0.721948  0.311557  0.955264  1
  Se  Se21  1  0.508580  0.792084  0.263314  1
  Se  Se22  1  0.991187  0.792062  0.764059  1
  Se  Se23  1  0.222306  0.688247  0.544778  1
  Se  Se24  1  0.509319  0.214314  0.249764  1
  Se  Se25  1  0.016929  0.207388  0.232961  1
  Se  Se26  1  0.478351  0.787031  0.745055  1
  Se  Se27  1  0.301947  0.065494  0.058600  1
