# generated using pymatgen
data_TbSmRh2O7
_symmetry_space_group_name_H-M   'P 1'
_cell_length_a   7.28750308
_cell_length_b   7.28750367
_cell_length_c   7.27178900
_cell_angle_alpha   60.07131162
_cell_angle_beta   60.07130892
_cell_angle_gamma   60.16161041
_symmetry_Int_Tables_number   1
_chemical_formula_structural   TbSmRh2O7
_chemical_formula_sum   'Tb2 Sm2 Rh4 O14'
_cell_volume   273.70318256
_cell_formula_units_Z   2
loop_
 _symmetry_equiv_pos_site_id
 _symmetry_equiv_pos_as_xyz
  1  'x, y, z'
loop_
 _atom_site_type_symbol
 _atom_site_label
 _atom_site_symmetry_multiplicity
 _atom_site_fract_x
 _atom_site_fract_y
 _atom_site_fract_z
 _atom_site_occupancy
  Tb  Tb0  1  0.125000  0.125000  0.125000  1
  Tb  Tb1  1  0.125000  0.125000  0.625000  1
  Sm  Sm2  1  0.125000  0.625000  0.125000  1
  Sm  Sm3  1  0.625000  0.125000  0.125000  1
  Rh  Rh4  1  0.625000  0.625000  0.625000  1
  Rh  Rh5  1  0.625000  0.625000  0.125000  1
  Rh  Rh6  1  0.125000  0.625000  0.625000  1
  Rh  Rh7  1  0.625000  0.125000  0.625000  1
  O  O8  1  0.246534  0.246534  0.253466  1
  O  O9  1  0.289815  0.713074  0.289698  1
  O  O10  1  0.959947  0.959947  0.540053  1
  O  O11  1  0.536926  0.960185  0.542587  1
  O  O12  1  0.709473  0.709473  0.290527  1
  O  O13  1  0.960185  0.536926  0.542587  1
  O  O14  1  0.713074  0.289815  0.707413  1
  O  O15  1  0.290053  0.290053  0.709947  1
  O  O16  1  0.713074  0.289815  0.289698  1
  O  O17  1  0.289815  0.713074  0.707413  1
  O  O18  1  0.960185  0.536926  0.960302  1
  O  O19  1  0.540527  0.540527  0.959473  1
  O  O20  1  0.003466  0.003466  0.996534  1
  O  O21  1  0.536926  0.960185  0.960302  1
