# generated using pymatgen
data_TbDy(Fe5P3)2
_symmetry_space_group_name_H-M   'P 1'
_cell_length_a   3.65711900
_cell_length_b   10.31566800
_cell_length_c   11.83250600
_cell_angle_alpha   90.00000000
_cell_angle_beta   90.00000000
_cell_angle_gamma   90.00000000
_symmetry_Int_Tables_number   1
_chemical_formula_structural   TbDy(Fe5P3)2
_chemical_formula_sum   'Tb2 Dy2 Fe20 P12'
_cell_volume   446.38868938
_cell_formula_units_Z   2
loop_
 _symmetry_equiv_pos_site_id
 _symmetry_equiv_pos_as_xyz
  1  'x, y, z'
loop_
 _atom_site_type_symbol
 _atom_site_label
 _atom_site_symmetry_multiplicity
 _atom_site_fract_x
 _atom_site_fract_y
 _atom_site_fract_z
 _atom_site_occupancy
  Tb  Tb0  1  0.250000  0.580790  0.704525  1
  Tb  Tb1  1  0.250000  0.919210  0.204525  1
  Dy  Dy2  1  0.750000  0.419536  0.295449  1
  Dy  Dy3  1  0.750000  0.080464  0.795449  1
  Fe  Fe4  1  0.250000  0.707996  0.989001  1
  Fe  Fe5  1  0.250000  0.792004  0.489001  1
  Fe  Fe6  1  0.750000  0.291976  0.011122  1
  Fe  Fe7  1  0.750000  0.208024  0.511122  1
  Fe  Fe8  1  0.250000  0.405227  0.490155  1
  Fe  Fe9  1  0.250000  0.094773  0.990155  1
  Fe  Fe10  1  0.750000  0.594990  0.509319  1
  Fe  Fe11  1  0.750000  0.905010  0.009319  1
  Fe  Fe12  1  0.250000  0.219383  0.176499  1
  Fe  Fe13  1  0.250000  0.280617  0.676499  1
  Fe  Fe14  1  0.750000  0.780918  0.823445  1
  Fe  Fe15  1  0.750000  0.719082  0.323445  1
  Fe  Fe16  1  0.250000  0.875940  0.701366  1
  Fe  Fe17  1  0.250000  0.624060  0.201366  1
  Fe  Fe18  1  0.750000  0.124627  0.298922  1
  Fe  Fe19  1  0.750000  0.375373  0.798922  1
  Fe  Fe20  1  0.250000  0.462984  0.932604  1
  Fe  Fe21  1  0.250000  0.037016  0.432604  1
  Fe  Fe22  1  0.750000  0.536328  0.067549  1
  Fe  Fe23  1  0.750000  0.963672  0.567549  1
  P  P24  1  0.250000  0.421983  0.112460  1
  P  P25  1  0.250000  0.078017  0.612460  1
  P  P26  1  0.750000  0.578186  0.888159  1
  P  P27  1  0.750000  0.921814  0.388159  1
  P  P28  1  0.250000  0.266348  0.871952  1
  P  P29  1  0.250000  0.233652  0.371952  1
  P  P30  1  0.750000  0.733223  0.127931  1
  P  P31  1  0.750000  0.766777  0.627931  1
  P  P32  1  0.250000  0.601252  0.396501  1
  P  P33  1  0.250000  0.898748  0.896501  1
  P  P34  1  0.750000  0.398583  0.603041  1
  P  P35  1  0.750000  0.101417  0.103041  1
