# generated using pymatgen
data_Yb2Cd4Cu17Ni
_symmetry_space_group_name_H-M   'P 1'
_cell_length_a   4.98672700
_cell_length_b   4.98685778
_cell_length_c   16.11750100
_cell_angle_alpha   90.00000000
_cell_angle_beta   90.00000000
_cell_angle_gamma   120.00228673
_symmetry_Int_Tables_number   1
_chemical_formula_structural   Yb2Cd4Cu17Ni
_chemical_formula_sum   'Yb2 Cd4 Cu17 Ni1'
_cell_volume   347.10502900
_cell_formula_units_Z   1
loop_
 _symmetry_equiv_pos_site_id
 _symmetry_equiv_pos_as_xyz
  1  'x, y, z'
loop_
 _atom_site_type_symbol
 _atom_site_label
 _atom_site_symmetry_multiplicity
 _atom_site_fract_x
 _atom_site_fract_y
 _atom_site_fract_z
 _atom_site_occupancy
  Yb  Yb0  1  0.666657  0.333327  0.250000  1
  Yb  Yb1  1  0.333346  0.666678  0.750000  1
  Cd  Cd2  1  0.666663  0.333332  0.465665  1
  Cd  Cd3  1  0.333345  0.666668  0.965889  1
  Cd  Cd4  1  0.666663  0.333332  0.034335  1
  Cd  Cd5  1  0.333345  0.666668  0.534111  1
  Cu  Cu6  1  0.666720  0.333378  0.750000  1
  Cu  Cu7  1  0.168257  0.831730  0.374154  1
  Cu  Cu8  1  0.168251  0.336525  0.374154  1
  Cu  Cu9  1  0.999995  0.999996  0.750000  1
  Cu  Cu10  1  0.000009  0.000005  0.250000  1
  Cu  Cu11  1  0.999998  0.999997  0.000416  1
  Cu  Cu12  1  0.999998  0.999997  0.499584  1
  Cu  Cu13  1  0.168251  0.336525  0.125846  1
  Cu  Cu14  1  0.831997  0.168013  0.624880  1
  Cu  Cu15  1  0.336034  0.168014  0.624882  1
  Cu  Cu16  1  0.663454  0.831731  0.125850  1
  Cu  Cu17  1  0.168257  0.831730  0.125846  1
  Cu  Cu18  1  0.832008  0.663982  0.875122  1
  Cu  Cu19  1  0.831997  0.168013  0.875120  1
  Cu  Cu20  1  0.832008  0.663982  0.624878  1
  Cu  Cu21  1  0.336034  0.168014  0.875118  1
  Cu  Cu22  1  0.663454  0.831731  0.374150  1
  Ni  Ni23  1  0.333261  0.666631  0.250000  1
