# generated using pymatgen
data_SrPrMg(Si3Pd10)2
_symmetry_space_group_name_H-M   'P 1'
_cell_length_a   8.73323666
_cell_length_b   8.73323570
_cell_length_c   8.73323700
_cell_angle_alpha   59.99999888
_cell_angle_beta   60.00000252
_cell_angle_gamma   60.00000023
_symmetry_Int_Tables_number   1
_chemical_formula_structural   SrPrMg(Si3Pd10)2
_chemical_formula_sum   'Sr1 Pr1 Mg1 Si6 Pd20'
_cell_volume   470.98889192
_cell_formula_units_Z   1
loop_
 _symmetry_equiv_pos_site_id
 _symmetry_equiv_pos_as_xyz
  1  'x, y, z'
loop_
 _atom_site_type_symbol
 _atom_site_label
 _atom_site_symmetry_multiplicity
 _atom_site_fract_x
 _atom_site_fract_y
 _atom_site_fract_z
 _atom_site_occupancy
  Sr  Sr0  1  0.250000  0.250000  0.250000  1
  Pr  Pr1  1  0.750000  0.750000  0.750000  1
  Mg  Mg2  1  0.000000  0.000000  0.000000  1
  Si  Si3  1  0.733323  0.266677  0.266677  1
  Si  Si4  1  0.266677  0.733323  0.733323  1
  Si  Si5  1  0.266677  0.733323  0.266677  1
  Si  Si6  1  0.733323  0.266677  0.733323  1
  Si  Si7  1  0.266677  0.266677  0.733323  1
  Si  Si8  1  0.733323  0.733323  0.266677  1
  Pd  Pd9  1  0.386791  0.386791  0.386791  1
  Pd  Pd10  1  0.614769  0.614769  0.614769  1
  Pd  Pd11  1  0.386791  0.386791  0.839628  1
  Pd  Pd12  1  0.386791  0.839628  0.386791  1
  Pd  Pd13  1  0.614769  0.614769  0.155693  1
  Pd  Pd14  1  0.614769  0.155693  0.614769  1
  Pd  Pd15  1  0.839628  0.386791  0.386791  1
  Pd  Pd16  1  0.155693  0.614769  0.614769  1
  Pd  Pd17  1  0.344124  0.998643  0.998643  1
  Pd  Pd18  1  0.658590  0.998643  0.998643  1
  Pd  Pd19  1  0.998643  0.344124  0.658590  1
  Pd  Pd20  1  0.998643  0.658590  0.344124  1
  Pd  Pd21  1  0.998643  0.344124  0.998643  1
  Pd  Pd22  1  0.658590  0.998643  0.344124  1
  Pd  Pd23  1  0.998643  0.658590  0.998643  1
  Pd  Pd24  1  0.344124  0.998643  0.658590  1
  Pd  Pd25  1  0.998643  0.998643  0.344124  1
  Pd  Pd26  1  0.998643  0.998643  0.658590  1
  Pd  Pd27  1  0.658590  0.344124  0.998643  1
  Pd  Pd28  1  0.344124  0.658590  0.998643  1
