# generated using pymatgen
data_Ca20Cd2Ag9Pb
_symmetry_space_group_name_H-M   'P 1'
_cell_length_a   8.14818100
_cell_length_b   8.14818100
_cell_length_c   14.87374900
_cell_angle_alpha   90.00000000
_cell_angle_beta   90.00000000
_cell_angle_gamma   90.00000000
_symmetry_Int_Tables_number   1
_chemical_formula_structural   Ca20Cd2Ag9Pb
_chemical_formula_sum   'Ca20 Cd2 Ag9 Pb1'
_cell_volume   987.51063997
_cell_formula_units_Z   1
loop_
 _symmetry_equiv_pos_site_id
 _symmetry_equiv_pos_as_xyz
  1  'x, y, z'
loop_
 _atom_site_type_symbol
 _atom_site_label
 _atom_site_symmetry_multiplicity
 _atom_site_fract_x
 _atom_site_fract_y
 _atom_site_fract_z
 _atom_site_occupancy
  Ca  Ca0  1  0.671185  0.163163  0.105608  1
  Ca  Ca1  1  0.168136  0.667657  0.608154  1
  Ca  Ca2  1  0.328815  0.836837  0.105608  1
  Ca  Ca3  1  0.831864  0.332343  0.608154  1
  Ca  Ca4  1  0.836837  0.671185  0.105608  1
  Ca  Ca5  1  0.332343  0.168136  0.608154  1
  Ca  Ca6  1  0.163163  0.328815  0.105608  1
  Ca  Ca7  1  0.667657  0.831864  0.608154  1
  Ca  Ca8  1  0.836837  0.328815  0.894392  1
  Ca  Ca9  1  0.332343  0.831864  0.391846  1
  Ca  Ca10  1  0.163163  0.671185  0.894392  1
  Ca  Ca11  1  0.667657  0.168136  0.391846  1
  Ca  Ca12  1  0.671185  0.836837  0.894392  1
  Ca  Ca13  1  0.168136  0.332343  0.391846  1
  Ca  Ca14  1  0.328815  0.163163  0.894392  1
  Ca  Ca15  1  0.831864  0.667657  0.391846  1
  Ca  Ca16  1  0.500000  0.500000  0.754163  1
  Ca  Ca17  1  0.000000  0.000000  0.251338  1
  Ca  Ca18  1  0.000000  0.000000  0.748662  1
  Ca  Ca19  1  0.500000  0.500000  0.245837  1
  Cd  Cd20  1  0.500000  0.500000  0.500000  1
  Cd  Cd21  1  0.500000  0.500000  0.000000  1
  Ag  Ag22  1  0.625828  0.126864  0.751556  1
  Ag  Ag23  1  0.126864  0.625828  0.248444  1
  Ag  Ag24  1  0.873136  0.374172  0.248444  1
  Ag  Ag25  1  0.374172  0.873136  0.751556  1
  Ag  Ag26  1  0.873136  0.625828  0.751556  1
  Ag  Ag27  1  0.374172  0.126864  0.248444  1
  Ag  Ag28  1  0.126864  0.374172  0.751556  1
  Ag  Ag29  1  0.625828  0.873136  0.248444  1
  Ag  Ag30  1  0.000000  0.000000  0.000000  1
  Pb  Pb31  1  0.000000  0.000000  0.500000  1
