# generated using pymatgen
data_Dy8Er2Ir5Au
_symmetry_space_group_name_H-M   'P 1'
_cell_length_a   11.01234631
_cell_length_b   10.96218400
_cell_length_c   6.31927810
_cell_angle_alpha   90.00000000
_cell_angle_beta   89.85385831
_cell_angle_gamma   90.00000000
_symmetry_Int_Tables_number   1
_chemical_formula_structural   Dy8Er2Ir5Au
_chemical_formula_sum   'Dy16 Er4 Ir10 Au2'
_cell_volume   762.85676794
_cell_formula_units_Z   2
loop_
 _symmetry_equiv_pos_site_id
 _symmetry_equiv_pos_as_xyz
  1  'x, y, z'
loop_
 _atom_site_type_symbol
 _atom_site_label
 _atom_site_symmetry_multiplicity
 _atom_site_fract_x
 _atom_site_fract_y
 _atom_site_fract_z
 _atom_site_occupancy
  Dy  Dy0  1  0.291864  0.088151  0.372789  1
  Dy  Dy1  1  0.291864  0.911849  0.872789  1
  Dy  Dy2  1  0.699136  0.091593  0.866303  1
  Dy  Dy3  1  0.699136  0.908407  0.366303  1
  Dy  Dy4  1  0.578655  0.789108  0.877563  1
  Dy  Dy5  1  0.578655  0.210892  0.377563  1
  Dy  Dy6  1  0.409304  0.790417  0.377020  1
  Dy  Dy7  1  0.409304  0.209583  0.877020  1
  Dy  Dy8  1  0.209824  0.411525  0.621519  1
  Dy  Dy9  1  0.209824  0.588475  0.121519  1
  Dy  Dy10  1  0.788981  0.419334  0.122600  1
  Dy  Dy11  1  0.788981  0.580666  0.622600  1
  Dy  Dy12  1  0.916785  0.705344  0.137627  1
  Dy  Dy13  1  0.916785  0.294656  0.637627  1
  Dy  Dy14  1  0.095387  0.703998  0.623791  1
  Dy  Dy15  1  0.095387  0.296002  0.123791  1
  Er  Er16  1  0.009001  0.998497  0.499921  1
  Er  Er17  1  0.009001  0.001503  0.999921  1
  Er  Er18  1  0.499782  0.499086  0.000610  1
  Er  Er19  1  0.499782  0.500914  0.500610  1
  Ir  Ir20  1  0.152712  0.152936  0.750301  1
  Ir  Ir21  1  0.152712  0.847064  0.250301  1
  Ir  Ir22  1  0.654719  0.346556  0.748694  1
  Ir  Ir23  1  0.654719  0.653444  0.248694  1
  Ir  Ir24  1  0.347838  0.346848  0.251417  1
  Ir  Ir25  1  0.347838  0.653152  0.751417  1
  Ir  Ir26  1  0.500316  0.999678  0.121606  1
  Ir  Ir27  1  0.500316  0.000322  0.621606  1
  Ir  Ir28  1  0.999659  0.500825  0.878254  1
  Ir  Ir29  1  0.999659  0.499175  0.378254  1
  Au  Au30  1  0.846036  0.153942  0.249988  1
  Au  Au31  1  0.846036  0.846058  0.749988  1
