# generated using pymatgen
data_Er12Fe2Co3Sn
_symmetry_space_group_name_H-M   'P 1'
_cell_length_a   8.20724980
_cell_length_b   8.20724988
_cell_length_c   8.20725058
_cell_angle_alpha   111.27228786
_cell_angle_beta   111.28242386
_cell_angle_gamma   105.91637765
_symmetry_Int_Tables_number   1
_chemical_formula_structural   Er12Fe2Co3Sn
_chemical_formula_sum   'Er12 Fe2 Co3 Sn1'
_cell_volume   424.35124025
_cell_formula_units_Z   1
loop_
 _symmetry_equiv_pos_site_id
 _symmetry_equiv_pos_as_xyz
  1  'x, y, z'
loop_
 _atom_site_type_symbol
 _atom_site_label
 _atom_site_symmetry_multiplicity
 _atom_site_fract_x
 _atom_site_fract_y
 _atom_site_fract_z
 _atom_site_occupancy
  Er  Er0  1  0.287280  0.186782  0.474062  1
  Er  Er1  1  0.712720  0.813218  0.525938  1
  Er  Er2  1  0.287280  0.813218  0.100499  1
  Er  Er3  1  0.712720  0.186782  0.899501  1
  Er  Er4  1  0.617074  0.312157  0.304916  1
  Er  Er5  1  0.382926  0.687843  0.695084  1
  Er  Er6  1  0.007243  0.312157  0.695084  1
  Er  Er7  1  0.992757  0.687843  0.304916  1
  Er  Er8  1  0.211475  0.405421  0.193946  1
  Er  Er9  1  0.788525  0.594579  0.806054  1
  Er  Er10  1  0.211475  0.017527  0.806054  1
  Er  Er11  1  0.788525  0.982473  0.193946  1
  Fe  Fe12  1  0.000000  0.381547  0.381547  1
  Fe  Fe13  1  0.000000  0.618453  0.618453  1
  Co  Co14  1  0.388664  0.888664  0.500000  1
  Co  Co15  1  0.611336  0.111336  0.500000  1
  Co  Co16  1  0.000000  0.000000  0.000000  1
  Sn  Sn17  1  0.500000  0.500000  0.000000  1
