# generated using pymatgen
data_TbDy4Zr2P12Ir17
_symmetry_space_group_name_H-M   'P 1'
_cell_length_a   12.66697400
_cell_length_b   12.90011010
_cell_length_c   3.99088500
_cell_angle_alpha   90.00000000
_cell_angle_beta   90.00000000
_cell_angle_gamma   119.40685818
_symmetry_Int_Tables_number   1
_chemical_formula_structural   TbDy4Zr2P12Ir17
_chemical_formula_sum   'Tb1 Dy4 Zr2 P12 Ir17'
_cell_volume   568.10807917
_cell_formula_units_Z   1
loop_
 _symmetry_equiv_pos_site_id
 _symmetry_equiv_pos_as_xyz
  1  'x, y, z'
loop_
 _atom_site_type_symbol
 _atom_site_label
 _atom_site_symmetry_multiplicity
 _atom_site_fract_x
 _atom_site_fract_y
 _atom_site_fract_z
 _atom_site_occupancy
  Tb  Tb0  1  0.000601  0.815566  0.000000  1
  Dy  Dy1  1  0.330149  0.661484  0.500000  1
  Dy  Dy2  1  0.668670  0.338521  0.500000  1
  Dy  Dy3  1  0.184978  0.184509  0.000000  1
  Dy  Dy4  1  0.812790  0.000004  0.000000  1
  Zr  Zr5  1  0.997688  0.446907  0.500000  1
  Zr  Zr6  1  0.550729  0.553050  0.500000  1
  P  P7  1  0.005913  0.650740  0.500000  1
  P  P8  1  0.354973  0.349064  0.500000  1
  P  P9  1  0.644801  0.000001  0.500000  1
  P  P10  1  0.514841  0.686393  0.000000  1
  P  P11  1  0.309628  0.825206  0.000000  1
  P  P12  1  0.164604  0.480905  0.000000  1
  P  P13  1  0.484451  0.174793  0.000000  1
  P  P14  1  0.683714  0.519113  0.000000  1
  P  P15  1  0.828456  0.313594  0.000000  1
  P  P16  1  0.999315  0.174176  0.500000  1
  P  P17  1  0.825060  0.825868  0.500000  1
  P  P18  1  0.181823  0.000107  0.500000  1
  Ir  Ir19  1  0.504874  0.864782  0.000000  1
  Ir  Ir20  1  0.127865  0.644107  0.000000  1
  Ir  Ir21  1  0.354915  0.495602  0.000000  1
  Ir  Ir22  1  0.483725  0.355858  0.000000  1
  Ir  Ir23  1  0.859326  0.504409  0.000000  1
  Ir  Ir24  1  0.640105  0.135219  0.000000  1
  Ir  Ir25  1  0.464648  0.999997  0.500000  1
  Ir  Ir26  1  0.996743  0.277553  0.000000  1
  Ir  Ir27  1  0.719054  0.722390  0.000000  1
  Ir  Ir28  1  0.290482  0.000078  0.000000  1
  Ir  Ir29  1  0.624001  0.808464  0.500000  1
  Ir  Ir30  1  0.204259  0.825859  0.500000  1
  Ir  Ir31  1  0.177762  0.365746  0.500000  1
  Ir  Ir32  1  0.378201  0.174166  0.500000  1
  Ir  Ir33  1  0.811716  0.633984  0.500000  1
  Ir  Ir34  1  0.815547  0.191547  0.500000  1
  Ir  Ir35  1  0.003596  0.000237  0.500000  1
