# generated using pymatgen
data_Ac3IO8
_symmetry_space_group_name_H-M   'P 1'
_cell_length_a   5.65642194
_cell_length_b   5.65672039
_cell_length_c   5.65640200
_cell_angle_alpha   85.38901419
_cell_angle_beta   85.44481285
_cell_angle_gamma   85.43603488
_symmetry_Int_Tables_number   1
_chemical_formula_structural   Ac3IO8
_chemical_formula_sum   'Ac3 I1 O8'
_cell_volume   179.34265146
_cell_formula_units_Z   1
loop_
 _symmetry_equiv_pos_site_id
 _symmetry_equiv_pos_as_xyz
  1  'x, y, z'
loop_
 _atom_site_type_symbol
 _atom_site_label
 _atom_site_symmetry_multiplicity
 _atom_site_fract_x
 _atom_site_fract_y
 _atom_site_fract_z
 _atom_site_occupancy
  Ac  Ac0  1  0.514415  0.261204  0.264536  1
  Ac  Ac1  1  0.514440  0.764506  0.761205  1
  Ac  Ac2  1  0.011171  0.764582  0.264573  1
  I  I3  1  0.014236  0.264185  0.764190  1
  O  O4  1  0.151744  0.044568  0.544403  1
  O  O5  1  0.854811  0.479200  0.979383  1
  O  O6  1  0.229373  0.479508  0.604891  1
  O  O7  1  0.794483  0.044091  0.901410  1
  O  O8  1  0.229505  0.104855  0.979459  1
  O  O9  1  0.794352  0.401506  0.544187  1
  O  O10  1  0.307800  0.558137  0.058114  1
  O  O11  1  0.583672  0.833659  0.333649  1
