# generated using pymatgen
data_Tb12Ni6Bi
_symmetry_space_group_name_H-M   'P 1'
_cell_length_a   8.47054555
_cell_length_b   8.47054535
_cell_length_c   8.47054500
_cell_angle_alpha   109.47121980
_cell_angle_beta   109.47121931
_cell_angle_gamma   109.47122583
_symmetry_Int_Tables_number   1
_chemical_formula_structural   Tb12Ni6Bi
_chemical_formula_sum   'Tb12 Ni6 Bi1'
_cell_volume   467.85599760
_cell_formula_units_Z   1
loop_
 _symmetry_equiv_pos_site_id
 _symmetry_equiv_pos_as_xyz
  1  'x, y, z'
loop_
 _atom_site_type_symbol
 _atom_site_label
 _atom_site_symmetry_multiplicity
 _atom_site_fract_x
 _atom_site_fract_y
 _atom_site_fract_z
 _atom_site_occupancy
  Tb  Tb0  1  0.811732  0.693119  0.504851  1
  Tb  Tb1  1  0.188268  0.306881  0.495149  1
  Tb  Tb2  1  0.188268  0.693119  0.881387  1
  Tb  Tb3  1  0.811732  0.306881  0.118613  1
  Tb  Tb4  1  0.693119  0.504851  0.811732  1
  Tb  Tb5  1  0.306881  0.495149  0.188268  1
  Tb  Tb6  1  0.693119  0.881387  0.188268  1
  Tb  Tb7  1  0.306881  0.118613  0.811732  1
  Tb  Tb8  1  0.504851  0.811732  0.693119  1
  Tb  Tb9  1  0.495149  0.188268  0.306881  1
  Tb  Tb10  1  0.118613  0.811732  0.306881  1
  Tb  Tb11  1  0.881387  0.188268  0.693119  1
  Ni  Ni12  1  0.875391  0.375391  0.500000  1
  Ni  Ni13  1  0.124609  0.624609  0.500000  1
  Ni  Ni14  1  0.375391  0.500000  0.875391  1
  Ni  Ni15  1  0.624609  0.500000  0.124609  1
  Ni  Ni16  1  0.500000  0.875391  0.375391  1
  Ni  Ni17  1  0.500000  0.124609  0.624609  1
  Bi  Bi18  1  0.000000  0.000000  0.000000  1
