# generated using pymatgen
data_Ce2Pr6In2Rh
_symmetry_space_group_name_H-M   'P 1'
_cell_length_a   8.01653500
_cell_length_b   7.99842000
_cell_length_c   19.58730100
_cell_angle_alpha   90.00000000
_cell_angle_beta   90.00000000
_cell_angle_gamma   90.00000000
_symmetry_Int_Tables_number   1
_chemical_formula_structural   Ce2Pr6In2Rh
_chemical_formula_sum   'Ce2 Pr6 In2 Rh1'
_cell_volume   1255.93017697
_cell_formula_units_Z   1
loop_
 _symmetry_equiv_pos_site_id
 _symmetry_equiv_pos_as_xyz
  1  'x, y, z'
loop_
 _atom_site_type_symbol
 _atom_site_label
 _atom_site_symmetry_multiplicity
 _atom_site_fract_x
 _atom_site_fract_y
 _atom_site_fract_z
 _atom_site_occupancy
  Ce  Ce0  1  0.000000  0.000000  0.310728  1
  Ce  Ce1  1  0.000000  0.000000  0.686031  1
  Pr  Pr2  1  0.000000  0.500000  0.121091  1
  Pr  Pr3  1  0.000000  0.500000  0.874479  1
  Pr  Pr4  1  0.500000  0.000000  0.121261  1
  Pr  Pr5  1  0.500000  0.000000  0.874878  1
  Pr  Pr6  1  0.500000  0.500000  0.312036  1
  Pr  Pr7  1  0.000000  0.500000  0.505956  1
  In  In8  1  0.500000  0.500000  0.692128  1
  In  In9  1  0.500000  0.000000  0.501756  1
  Rh  Rh10  1  0.000000  0.000000  0.999658  1
