# generated using pymatgen
data_Y3Pa3Rh10
_symmetry_space_group_name_H-M   'P 1'
_cell_length_a   5.82596410
_cell_length_b   5.82596347
_cell_length_c   9.24144459
_cell_angle_alpha   88.14815094
_cell_angle_beta   88.14815576
_cell_angle_gamma   105.26664121
_symmetry_Int_Tables_number   1
_chemical_formula_structural   Y3Pa3Rh10
_chemical_formula_sum   'Y3 Pa3 Rh10'
_cell_volume   302.17331538
_cell_formula_units_Z   1
loop_
 _symmetry_equiv_pos_site_id
 _symmetry_equiv_pos_as_xyz
  1  'x, y, z'
loop_
 _atom_site_type_symbol
 _atom_site_label
 _atom_site_symmetry_multiplicity
 _atom_site_fract_x
 _atom_site_fract_y
 _atom_site_fract_z
 _atom_site_occupancy
  Y  Y0  1  0.799658  0.200342  0.500000  1
  Y  Y1  1  0.218937  0.781063  0.000000  1
  Y  Y2  1  0.191009  0.808991  0.500000  1
  Pa  Pa3  1  0.604110  0.613643  0.730917  1
  Pa  Pa4  1  0.386357  0.395890  0.269083  1
  Pa  Pa5  1  0.799009  0.200991  0.000000  1
  Rh  Rh6  1  0.706785  0.693091  0.016025  1
  Rh  Rh7  1  0.674528  0.687321  0.426435  1
  Rh  Rh8  1  0.306909  0.293215  0.983975  1
  Rh  Rh9  1  0.312679  0.325472  0.573565  1
  Rh  Rh10  1  0.511488  0.044380  0.760985  1
  Rh  Rh11  1  0.516618  0.988387  0.232530  1
  Rh  Rh12  1  0.006946  0.002265  0.234085  1
  Rh  Rh13  1  0.997735  0.993054  0.765915  1
  Rh  Rh14  1  0.011613  0.483382  0.767470  1
  Rh  Rh15  1  0.955620  0.488512  0.239015  1
