# generated using pymatgen
data_DyHoFe6(P3Ir2)2
_symmetry_space_group_name_H-M   'P 1'
_cell_length_a   3.79902600
_cell_length_b   10.25572000
_cell_length_c   12.19501400
_cell_angle_alpha   90.00000000
_cell_angle_beta   90.00000000
_cell_angle_gamma   90.00000000
_symmetry_Int_Tables_number   1
_chemical_formula_structural   DyHoFe6(P3Ir2)2
_chemical_formula_sum   'Dy2 Ho2 Fe12 P12 Ir8'
_cell_volume   475.13904926
_cell_formula_units_Z   2
loop_
 _symmetry_equiv_pos_site_id
 _symmetry_equiv_pos_as_xyz
  1  'x, y, z'
loop_
 _atom_site_type_symbol
 _atom_site_label
 _atom_site_symmetry_multiplicity
 _atom_site_fract_x
 _atom_site_fract_y
 _atom_site_fract_z
 _atom_site_occupancy
  Dy  Dy0  1  0.750000  0.418955  0.286976  1
  Dy  Dy1  1  0.750000  0.081045  0.786976  1
  Ho  Ho2  1  0.250000  0.580996  0.712984  1
  Ho  Ho3  1  0.250000  0.919004  0.212984  1
  Fe  Fe4  1  0.250000  0.223002  0.170445  1
  Fe  Fe5  1  0.250000  0.276998  0.670445  1
  Fe  Fe6  1  0.750000  0.776803  0.829536  1
  Fe  Fe7  1  0.750000  0.723197  0.329536  1
  Fe  Fe8  1  0.250000  0.877262  0.695554  1
  Fe  Fe9  1  0.250000  0.622738  0.195554  1
  Fe  Fe10  1  0.750000  0.122504  0.304379  1
  Fe  Fe11  1  0.750000  0.377496  0.804379  1
  Fe  Fe12  1  0.250000  0.457955  0.937142  1
  Fe  Fe13  1  0.250000  0.042045  0.437142  1
  Fe  Fe14  1  0.750000  0.542103  0.062734  1
  Fe  Fe15  1  0.750000  0.957897  0.562734  1
  P  P16  1  0.250000  0.428568  0.113224  1
  P  P17  1  0.250000  0.071432  0.613224  1
  P  P18  1  0.750000  0.571464  0.886570  1
  P  P19  1  0.750000  0.928536  0.386570  1
  P  P20  1  0.250000  0.273262  0.852070  1
  P  P21  1  0.250000  0.226738  0.352070  1
  P  P22  1  0.750000  0.726936  0.148013  1
  P  P23  1  0.750000  0.773064  0.648013  1
  P  P24  1  0.250000  0.604281  0.375327  1
  P  P25  1  0.250000  0.895719  0.875327  1
  P  P26  1  0.750000  0.395892  0.624740  1
  P  P27  1  0.750000  0.104108  0.124740  1
  Ir  Ir28  1  0.250000  0.709185  0.983850  1
  Ir  Ir29  1  0.250000  0.790815  0.483850  1
  Ir  Ir30  1  0.750000  0.290809  0.016167  1
  Ir  Ir31  1  0.750000  0.209191  0.516167  1
  Ir  Ir32  1  0.250000  0.405392  0.476252  1
  Ir  Ir33  1  0.250000  0.094608  0.976252  1
  Ir  Ir34  1  0.750000  0.594584  0.524034  1
  Ir  Ir35  1  0.750000  0.905416  0.024034  1
