# generated using pymatgen
data_Y4TiAl3Ir4
_symmetry_space_group_name_H-M   'P 1'
_cell_length_a   4.32555600
_cell_length_b   6.90318070
_cell_length_c   7.89679772
_cell_angle_alpha   89.58889486
_cell_angle_beta   90.00000000
_cell_angle_gamma   90.00000000
_symmetry_Int_Tables_number   1
_chemical_formula_structural   Y4TiAl3Ir4
_chemical_formula_sum   'Y4 Ti1 Al3 Ir4'
_cell_volume   235.79305799
_cell_formula_units_Z   1
loop_
 _symmetry_equiv_pos_site_id
 _symmetry_equiv_pos_as_xyz
  1  'x, y, z'
loop_
 _atom_site_type_symbol
 _atom_site_label
 _atom_site_symmetry_multiplicity
 _atom_site_fract_x
 _atom_site_fract_y
 _atom_site_fract_z
 _atom_site_occupancy
  Y  Y0  1  0.250000  0.967219  0.316873  1
  Y  Y1  1  0.250000  0.475499  0.176718  1
  Y  Y2  1  0.750000  0.021785  0.684164  1
  Y  Y3  1  0.750000  0.531178  0.825268  1
  Ti  Ti4  1  0.250000  0.368977  0.566286  1
  Al  Al5  1  0.250000  0.856750  0.934365  1
  Al  Al6  1  0.750000  0.641204  0.436991  1
  Al  Al7  1  0.750000  0.143353  0.061997  1
  Ir  Ir8  1  0.250000  0.229331  0.877089  1
  Ir  Ir9  1  0.250000  0.724488  0.616288  1
  Ir  Ir10  1  0.750000  0.773655  0.117104  1
  Ir  Ir11  1  0.750000  0.266562  0.386857  1
