# generated using pymatgen
data_Cs3YNb2O8
_symmetry_space_group_name_H-M   'P 1'
_cell_length_a   6.37545300
_cell_length_b   6.37545303
_cell_length_c   8.44575100
_cell_angle_alpha   90.00000000
_cell_angle_beta   90.00000000
_cell_angle_gamma   120.00000505
_symmetry_Int_Tables_number   1
_chemical_formula_structural   Cs3YNb2O8
_chemical_formula_sum   'Cs3 Y1 Nb2 O8'
_cell_volume   297.29731131
_cell_formula_units_Z   1
loop_
 _symmetry_equiv_pos_site_id
 _symmetry_equiv_pos_as_xyz
  1  'x, y, z'
loop_
 _atom_site_type_symbol
 _atom_site_label
 _atom_site_symmetry_multiplicity
 _atom_site_fract_x
 _atom_site_fract_y
 _atom_site_fract_z
 _atom_site_occupancy
  Cs  Cs0  1  0.333333  0.666667  0.711026  1
  Cs  Cs1  1  0.666667  0.333333  0.288974  1
  Cs  Cs2  1  0.000000  0.000000  0.000000  1
  Y  Y3  1  0.000000  0.000000  0.500000  1
  Nb  Nb4  1  0.333333  0.666667  0.268498  1
  Nb  Nb5  1  0.666667  0.333333  0.731502  1
  O  O6  1  0.333333  0.666667  0.052812  1
  O  O7  1  0.666667  0.333333  0.947188  1
  O  O8  1  0.170251  0.829749  0.341688  1
  O  O9  1  0.659498  0.829749  0.341688  1
  O  O10  1  0.170251  0.340502  0.341688  1
  O  O11  1  0.829749  0.170251  0.658312  1
  O  O12  1  0.340502  0.170251  0.658312  1
  O  O13  1  0.829749  0.659498  0.658312  1
