# generated using pymatgen
data_YHo2Ga2Ag3Ge
_symmetry_space_group_name_H-M   'P 1'
_cell_length_a   7.33167188
_cell_length_b   7.33463022
_cell_length_c   4.07493600
_cell_angle_alpha   90.00000000
_cell_angle_beta   90.00000000
_cell_angle_gamma   120.04261448
_symmetry_Int_Tables_number   1
_chemical_formula_structural   YHo2Ga2Ag3Ge
_chemical_formula_sum   'Y1 Ho2 Ga2 Ag3 Ge1'
_cell_volume   189.69068992
_cell_formula_units_Z   1
loop_
 _symmetry_equiv_pos_site_id
 _symmetry_equiv_pos_as_xyz
  1  'x, y, z'
loop_
 _atom_site_type_symbol
 _atom_site_label
 _atom_site_symmetry_multiplicity
 _atom_site_fract_x
 _atom_site_fract_y
 _atom_site_fract_z
 _atom_site_occupancy
  Y  Y0  1  0.420755  0.415665  0.000000  1
  Ho  Ho1  1  0.584506  0.005320  0.000000  1
  Ho  Ho2  1  0.994974  0.579379  0.000000  1
  Ga  Ga3  1  0.333111  0.667393  0.500000  1
  Ga  Ga4  1  0.999140  0.999168  0.000000  1
  Ag  Ag5  1  0.246911  0.993887  0.500000  1
  Ag  Ag6  1  0.004923  0.252490  0.500000  1
  Ag  Ag7  1  0.748095  0.753679  0.500000  1
  Ge  Ge8  1  0.667585  0.333019  0.500000  1
