# generated using pymatgen
data_EuZnAsH
_symmetry_space_group_name_H-M   'P 1'
_cell_length_a   4.14858200
_cell_length_b   4.14799700
_cell_length_c   16.02869700
_cell_angle_alpha   90.00000000
_cell_angle_beta   90.00000000
_cell_angle_gamma   90.00000000
_symmetry_Int_Tables_number   1
_chemical_formula_structural   EuZnAsH
_chemical_formula_sum   'Eu4 Zn4 As4 H4'
_cell_volume   275.82671779
_cell_formula_units_Z   4
loop_
 _symmetry_equiv_pos_site_id
 _symmetry_equiv_pos_as_xyz
  1  'x, y, z'
loop_
 _atom_site_type_symbol
 _atom_site_label
 _atom_site_symmetry_multiplicity
 _atom_site_fract_x
 _atom_site_fract_y
 _atom_site_fract_z
 _atom_site_occupancy
  Eu  Eu0  1  0.250000  0.751759  0.574069  1
  Eu  Eu1  1  0.750000  0.248241  0.425931  1
  Eu  Eu2  1  0.750000  0.251759  0.925931  1
  Eu  Eu3  1  0.250000  0.748241  0.074069  1
  Zn  Zn4  1  0.250000  0.258943  0.750010  1
  Zn  Zn5  1  0.750000  0.741057  0.249990  1
  Zn  Zn6  1  0.750000  0.758943  0.749990  1
  Zn  Zn7  1  0.250000  0.241057  0.250010  1
  As  As8  1  0.250000  0.743964  0.347449  1
  As  As9  1  0.750000  0.256036  0.652551  1
  As  As10  1  0.750000  0.243964  0.152551  1
  As  As11  1  0.250000  0.756036  0.847449  1
  H  H12  1  0.250000  0.249050  0.999999  1
  H  H13  1  0.750000  0.750950  0.000001  1
  H  H14  1  0.750000  0.749050  0.500001  1
  H  H15  1  0.250000  0.250950  0.499999  1
