# generated using pymatgen
data_PrNd4(PtO6)2
_symmetry_space_group_name_H-M   'P 1'
_cell_length_a   7.15292131
_cell_length_b   7.15292144
_cell_length_c   7.55438775
_cell_angle_alpha   74.62188103
_cell_angle_beta   74.62188484
_cell_angle_gamma   50.89816047
_symmetry_Int_Tables_number   1
_chemical_formula_structural   PrNd4(PtO6)2
_chemical_formula_sum   'Pr1 Nd4 Pt2 O12'
_cell_volume   286.71871613
_cell_formula_units_Z   1
loop_
 _symmetry_equiv_pos_site_id
 _symmetry_equiv_pos_as_xyz
  1  'x, y, z'
loop_
 _atom_site_type_symbol
 _atom_site_label
 _atom_site_symmetry_multiplicity
 _atom_site_fract_x
 _atom_site_fract_y
 _atom_site_fract_z
 _atom_site_occupancy
  Pr  Pr0  1  0.000000  0.000000  0.500000  1
  Nd  Nd1  1  0.301730  0.301730  0.358686  1
  Nd  Nd2  1  0.698270  0.698270  0.641314  1
  Nd  Nd3  1  0.696270  0.696270  0.163348  1
  Nd  Nd4  1  0.303730  0.303730  0.836652  1
  Pt  Pt5  1  0.752515  0.247485  0.000000  1
  Pt  Pt6  1  0.247485  0.752515  0.000000  1
  O  O7  1  0.095659  0.597012  0.576156  1
  O  O8  1  0.999432  0.999432  0.173781  1
  O  O9  1  0.402988  0.904341  0.423844  1
  O  O10  1  0.500178  0.500178  0.176925  1
  O  O11  1  0.099691  0.573634  0.081264  1
  O  O12  1  0.904341  0.402988  0.423844  1
  O  O13  1  0.000568  0.000568  0.826219  1
  O  O14  1  0.597012  0.095658  0.576156  1
  O  O15  1  0.499822  0.499822  0.823075  1
  O  O16  1  0.573634  0.099691  0.081264  1
  O  O17  1  0.426366  0.900309  0.918736  1
  O  O18  1  0.900309  0.426366  0.918736  1
