# generated using pymatgen
data_LiY8ScPd23
_symmetry_space_group_name_H-M   'P 1'
_cell_length_a   8.30611600
_cell_length_b   8.38398700
_cell_length_c   8.41888900
_cell_angle_alpha   90.00000000
_cell_angle_beta   90.00000000
_cell_angle_gamma   90.00000000
_symmetry_Int_Tables_number   1
_chemical_formula_structural   LiY8ScPd23
_chemical_formula_sum   'Li1 Y8 Sc1 Pd23'
_cell_volume   586.27769509
_cell_formula_units_Z   1
loop_
 _symmetry_equiv_pos_site_id
 _symmetry_equiv_pos_as_xyz
  1  'x, y, z'
loop_
 _atom_site_type_symbol
 _atom_site_label
 _atom_site_symmetry_multiplicity
 _atom_site_fract_x
 _atom_site_fract_y
 _atom_site_fract_z
 _atom_site_occupancy
  Li  Li0  1  0.275152  0.500000  0.000000  1
  Y  Y1  1  0.251658  0.246945  0.258501  1
  Y  Y2  1  0.747938  0.747555  0.750293  1
  Y  Y3  1  0.747938  0.747555  0.249707  1
  Y  Y4  1  0.747938  0.252445  0.750293  1
  Y  Y5  1  0.251658  0.246945  0.741499  1
  Y  Y6  1  0.251658  0.753055  0.258501  1
  Y  Y7  1  0.251658  0.753055  0.741499  1
  Y  Y8  1  0.747938  0.252445  0.249707  1
  Sc  Sc9  1  0.993453  0.000000  0.000000  1
  Pd  Pd10  1  0.738181  0.500000  0.000000  1
  Pd  Pd11  1  0.997548  0.264477  0.500000  1
  Pd  Pd12  1  0.492125  0.269338  0.000000  1
  Pd  Pd13  1  0.997548  0.735523  0.500000  1
  Pd  Pd14  1  0.492125  0.730662  0.000000  1
  Pd  Pd15  1  0.499991  0.000000  0.264435  1
  Pd  Pd16  1  0.264668  0.000000  0.500000  1
  Pd  Pd17  1  0.499991  0.000000  0.735565  1
  Pd  Pd18  1  0.734102  0.000000  0.500000  1
  Pd  Pd19  1  0.002242  0.500000  0.266851  1
  Pd  Pd20  1  0.002242  0.500000  0.733149  1
  Pd  Pd21  1  0.254576  0.500000  0.500000  1
  Pd  Pd22  1  0.745420  0.500000  0.500000  1
  Pd  Pd23  1  0.501708  0.255398  0.500000  1
  Pd  Pd24  1  0.501708  0.744602  0.500000  1
  Pd  Pd25  1  0.496633  0.500000  0.253776  1
  Pd  Pd26  1  0.496633  0.500000  0.746224  1
  Pd  Pd27  1  0.301273  0.000000  0.000000  1
  Pd  Pd28  1  0.687058  0.000000  0.000000  1
  Pd  Pd29  1  0.015451  0.312065  0.000000  1
  Pd  Pd30  1  0.015451  0.687935  0.000000  1
  Pd  Pd31  1  0.998168  0.000000  0.305030  1
  Pd  Pd32  1  0.998168  0.000000  0.694970  1
