# generated using pymatgen
data_La3Y2(Sn5Rh2)2
_symmetry_space_group_name_H-M   'P 1'
_cell_length_a   14.25924600
_cell_length_b   14.25924600
_cell_length_c   4.60864400
_cell_angle_alpha   90.00000000
_cell_angle_beta   90.00000000
_cell_angle_gamma   90.00000000
_symmetry_Int_Tables_number   1
_chemical_formula_structural   La3Y2(Sn5Rh2)2
_chemical_formula_sum   'La6 Y4 Sn20 Rh8'
_cell_volume   937.05759463
_cell_formula_units_Z   2
loop_
 _symmetry_equiv_pos_site_id
 _symmetry_equiv_pos_as_xyz
  1  'x, y, z'
loop_
 _atom_site_type_symbol
 _atom_site_label
 _atom_site_symmetry_multiplicity
 _atom_site_fract_x
 _atom_site_fract_y
 _atom_site_fract_z
 _atom_site_occupancy
  La  La0  1  0.500000  0.500000  0.000000  1
  La  La1  1  0.000000  0.000000  0.000000  1
  La  La2  1  0.888152  0.388152  0.500000  1
  La  La3  1  0.111848  0.611848  0.500000  1
  La  La4  1  0.388152  0.111848  0.500000  1
  La  La5  1  0.611848  0.888152  0.500000  1
  Y  Y6  1  0.676944  0.176944  0.500000  1
  Y  Y7  1  0.323056  0.823056  0.500000  1
  Y  Y8  1  0.176944  0.323056  0.500000  1
  Y  Y9  1  0.823056  0.676944  0.500000  1
  Sn  Sn10  1  0.570301  0.070301  0.000000  1
  Sn  Sn11  1  0.429699  0.929699  0.000000  1
  Sn  Sn12  1  0.070301  0.429699  0.000000  1
  Sn  Sn13  1  0.929699  0.570301  0.000000  1
  Sn  Sn14  1  0.654599  0.697779  0.000000  1
  Sn  Sn15  1  0.345401  0.302221  0.000000  1
  Sn  Sn16  1  0.154599  0.802221  0.000000  1
  Sn  Sn17  1  0.845401  0.197779  0.000000  1
  Sn  Sn18  1  0.302221  0.654599  0.000000  1
  Sn  Sn19  1  0.697779  0.345401  0.000000  1
  Sn  Sn20  1  0.197779  0.154599  0.000000  1
  Sn  Sn21  1  0.802221  0.845401  0.000000  1
  Sn  Sn22  1  0.664117  0.505965  0.500000  1
  Sn  Sn23  1  0.335883  0.494035  0.500000  1
  Sn  Sn24  1  0.164117  0.994035  0.500000  1
  Sn  Sn25  1  0.835883  0.005965  0.500000  1
  Sn  Sn26  1  0.494035  0.664117  0.500000  1
  Sn  Sn27  1  0.505965  0.335883  0.500000  1
  Sn  Sn28  1  0.005965  0.164117  0.500000  1
  Sn  Sn29  1  0.994035  0.835883  0.500000  1
  Rh  Rh30  1  0.747194  0.529178  0.000000  1
  Rh  Rh31  1  0.252806  0.470822  0.000000  1
  Rh  Rh32  1  0.247194  0.970822  0.000000  1
  Rh  Rh33  1  0.752806  0.029178  0.000000  1
  Rh  Rh34  1  0.470822  0.747194  0.000000  1
  Rh  Rh35  1  0.529178  0.252806  0.000000  1
  Rh  Rh36  1  0.029178  0.247194  0.000000  1
  Rh  Rh37  1  0.970822  0.752806  0.000000  1
