# generated using pymatgen
data_La4Ga10Cu5Pd
_symmetry_space_group_name_H-M   'P 1'
_cell_length_a   8.59518447
_cell_length_b   8.59518584
_cell_length_c   8.59518600
_cell_angle_alpha   137.95811706
_cell_angle_beta   105.52374168
_cell_angle_gamma   89.41023678
_symmetry_Int_Tables_number   1
_chemical_formula_structural   La4Ga10Cu5Pd
_chemical_formula_sum   'La4 Ga10 Cu5 Pd1'
_cell_volume   391.85455770
_cell_formula_units_Z   1
loop_
 _symmetry_equiv_pos_site_id
 _symmetry_equiv_pos_as_xyz
  1  'x, y, z'
loop_
 _atom_site_type_symbol
 _atom_site_label
 _atom_site_symmetry_multiplicity
 _atom_site_fract_x
 _atom_site_fract_y
 _atom_site_fract_z
 _atom_site_occupancy
  La  La0  1  0.631325  0.872222  0.763096  1
  La  La1  1  0.368675  0.131770  0.240897  1
  La  La2  1  0.109127  0.368230  0.736904  1
  La  La3  1  0.890873  0.627778  0.259103  1
  Ga  Ga4  1  0.264774  0.014774  0.750000  1
  Ga  Ga5  1  0.738310  0.988310  0.250000  1
  Ga  Ga6  1  0.735226  0.485226  0.750000  1
  Ga  Ga7  1  0.261690  0.511690  0.250000  1
  Ga  Ga8  1  0.463784  0.619187  0.860171  1
  Ga  Ga9  1  0.536216  0.396385  0.155403  1
  Ga  Ga10  1  0.759018  0.103615  0.639829  1
  Ga  Ga11  1  0.240982  0.880813  0.344597  1
  Ga  Ga12  1  0.000000  0.750000  0.750000  1
  Ga  Ga13  1  0.000000  0.250000  0.250000  1
  Cu  Cu14  1  0.246391  0.632912  0.616190  1
  Cu  Cu15  1  0.753609  0.369798  0.386521  1
  Cu  Cu16  1  0.016722  0.130202  0.883810  1
  Cu  Cu17  1  0.983278  0.867088  0.113479  1
  Cu  Cu18  1  0.500000  0.750000  0.250000  1
  Pd  Pd19  1  0.500000  0.250000  0.750000  1
