# generated using pymatgen
data_Er2Tc3Ir
_symmetry_space_group_name_H-M   'P 1'
_cell_length_a   5.22337000
_cell_length_b   5.22336990
_cell_length_c   9.22217500
_cell_angle_alpha   90.00000000
_cell_angle_beta   90.00000000
_cell_angle_gamma   120.00000062
_symmetry_Int_Tables_number   1
_chemical_formula_structural   Er2Tc3Ir
_chemical_formula_sum   'Er4 Tc6 Ir2'
_cell_volume   217.90417972
_cell_formula_units_Z   2
loop_
 _symmetry_equiv_pos_site_id
 _symmetry_equiv_pos_as_xyz
  1  'x, y, z'
loop_
 _atom_site_type_symbol
 _atom_site_label
 _atom_site_symmetry_multiplicity
 _atom_site_fract_x
 _atom_site_fract_y
 _atom_site_fract_z
 _atom_site_occupancy
  Er  Er0  1  0.333333  0.666667  0.435040  1
  Er  Er1  1  0.666667  0.333333  0.564960  1
  Er  Er2  1  0.666667  0.333333  0.935040  1
  Er  Er3  1  0.333333  0.666667  0.064960  1
  Tc  Tc4  1  0.829216  0.170784  0.250000  1
  Tc  Tc5  1  0.829216  0.658434  0.250000  1
  Tc  Tc6  1  0.341566  0.170784  0.250000  1
  Tc  Tc7  1  0.170784  0.829216  0.750000  1
  Tc  Tc8  1  0.170784  0.341566  0.750000  1
  Tc  Tc9  1  0.658434  0.829216  0.750000  1
  Ir  Ir10  1  0.000000  0.000000  0.500000  1
  Ir  Ir11  1  0.000000  0.000000  0.000000  1
