# generated using pymatgen
data_Y3TmIr3RhO14
_symmetry_space_group_name_H-M   'P 1'
_cell_length_a   7.22746741
_cell_length_b   7.22746799
_cell_length_c   7.22746720
_cell_angle_alpha   60.05327736
_cell_angle_beta   60.05327577
_cell_angle_gamma   60.05327104
_symmetry_Int_Tables_number   1
_chemical_formula_structural   Y3TmIr3RhO14
_chemical_formula_sum   'Y3 Tm1 Ir3 Rh1 O14'
_cell_volume   267.28065673
_cell_formula_units_Z   1
loop_
 _symmetry_equiv_pos_site_id
 _symmetry_equiv_pos_as_xyz
  1  'x, y, z'
loop_
 _atom_site_type_symbol
 _atom_site_label
 _atom_site_symmetry_multiplicity
 _atom_site_fract_x
 _atom_site_fract_y
 _atom_site_fract_z
 _atom_site_occupancy
  Y  Y0  1  0.625000  0.125000  0.125000  1
  Y  Y1  1  0.125000  0.625000  0.125000  1
  Y  Y2  1  0.125000  0.125000  0.625000  1
  Tm  Tm3  1  0.125000  0.125000  0.125000  1
  Ir  Ir4  1  0.125000  0.625000  0.625000  1
  Ir  Ir5  1  0.625000  0.125000  0.625000  1
  Ir  Ir6  1  0.625000  0.625000  0.125000  1
  Rh  Rh7  1  0.625000  0.625000  0.625000  1
  O  O8  1  0.714036  0.714036  0.283197  1
  O  O9  1  0.289238  0.289238  0.717359  1
  O  O10  1  0.714036  0.283197  0.714036  1
  O  O11  1  0.289238  0.717359  0.289238  1
  O  O12  1  0.283197  0.714036  0.714036  1
  O  O13  1  0.717359  0.289238  0.289238  1
  O  O14  1  0.535964  0.535964  0.966803  1
  O  O15  1  0.960762  0.960762  0.532641  1
  O  O16  1  0.535964  0.966803  0.535964  1
  O  O17  1  0.960762  0.532641  0.960762  1
  O  O18  1  0.966803  0.535964  0.535964  1
  O  O19  1  0.532641  0.960762  0.960762  1
  O  O20  1  0.247873  0.247873  0.247873  1
  O  O21  1  0.002127  0.002127  0.002127  1
