# generated using pymatgen
data_Li6Sm2PuN6
_symmetry_space_group_name_H-M   'P 1'
_cell_length_a   6.08809100
_cell_length_b   6.08809135
_cell_length_c   5.51759800
_cell_angle_alpha   90.00000000
_cell_angle_beta   90.00000000
_cell_angle_gamma   120.00000501
_symmetry_Int_Tables_number   1
_chemical_formula_structural   Li6Sm2PuN6
_chemical_formula_sum   'Li6 Sm2 Pu1 N6'
_cell_volume   177.10995007
_cell_formula_units_Z   1
loop_
 _symmetry_equiv_pos_site_id
 _symmetry_equiv_pos_as_xyz
  1  'x, y, z'
loop_
 _atom_site_type_symbol
 _atom_site_label
 _atom_site_symmetry_multiplicity
 _atom_site_fract_x
 _atom_site_fract_y
 _atom_site_fract_z
 _atom_site_occupancy
  Li  Li0  1  0.969194  0.638293  0.605168  1
  Li  Li1  1  0.361707  0.330901  0.605168  1
  Li  Li2  1  0.669099  0.030806  0.605168  1
  Li  Li3  1  0.998170  0.336245  0.391409  1
  Li  Li4  1  0.663755  0.661926  0.391409  1
  Li  Li5  1  0.338074  0.001830  0.391409  1
  Sm  Sm6  1  0.000000  0.000000  0.997280  1
  Sm  Sm7  1  0.333333  0.666667  0.993391  1
  Pu  Pu8  1  0.666667  0.333333  0.005947  1
  N  N9  1  0.966476  0.633479  0.228459  1
  N  N10  1  0.366521  0.332997  0.228459  1
  N  N11  1  0.667003  0.033524  0.228459  1
  N  N12  1  0.963342  0.333867  0.776092  1
  N  N13  1  0.666133  0.629475  0.776092  1
  N  N14  1  0.370525  0.036658  0.776092  1
