# generated using pymatgen
data_Na4AlGa11Se20
_symmetry_space_group_name_H-M   'P 1'
_cell_length_a   9.83920813
_cell_length_b   9.84984792
_cell_length_c   9.84643832
_cell_angle_alpha   90.56056259
_cell_angle_beta   90.68413917
_cell_angle_gamma   90.60953210
_symmetry_Int_Tables_number   1
_chemical_formula_structural   Na4AlGa11Se20
_chemical_formula_sum   'Na4 Al1 Ga11 Se20'
_cell_volume   954.09576166
_cell_formula_units_Z   1
loop_
 _symmetry_equiv_pos_site_id
 _symmetry_equiv_pos_as_xyz
  1  'x, y, z'
loop_
 _atom_site_type_symbol
 _atom_site_label
 _atom_site_symmetry_multiplicity
 _atom_site_fract_x
 _atom_site_fract_y
 _atom_site_fract_z
 _atom_site_occupancy
  Na  Na0  1  0.256862  0.000035  0.743097  1
  Na  Na1  1  0.743243  0.256826  0.000051  1
  Na  Na2  1  0.000020  0.743138  0.256904  1
  Na  Na3  1  0.500137  0.500032  0.499976  1
  Al  Al4  1  0.653090  0.837786  0.254634  1
  Ga  Ga5  1  0.838068  0.879617  0.571534  1
  Ga  Ga6  1  0.572247  0.838642  0.879919  1
  Ga  Ga7  1  0.879649  0.572025  0.838273  1
  Ga  Ga8  1  0.161731  0.427831  0.120216  1
  Ga  Ga9  1  0.120281  0.161573  0.427881  1
  Ga  Ga10  1  0.428150  0.120461  0.161502  1
  Ga  Ga11  1  0.744883  0.161920  0.345508  1
  Ga  Ga12  1  0.346091  0.745187  0.162765  1
  Ga  Ga13  1  0.162501  0.345464  0.745249  1
  Ga  Ga14  1  0.254795  0.654412  0.837615  1
  Ga  Ga15  1  0.837446  0.254835  0.654510  1
  Se  Se16  1  0.179846  0.820596  0.000129  1
  Se  Se17  1  0.818056  0.998150  0.179979  1
  Se  Se18  1  0.179209  0.178962  0.179087  1
  Se  Se19  1  0.821017  0.820855  0.820661  1
  Se  Se20  1  0.000082  0.179342  0.820676  1
  Se  Se21  1  0.926991  0.500019  0.073023  1
  Se  Se22  1  0.072972  0.926904  0.499998  1
  Se  Se23  1  0.499841  0.073128  0.926794  1
  Se  Se24  1  0.745552  0.697049  0.427230  1
  Se  Se25  1  0.429483  0.746883  0.695856  1
  Se  Se26  1  0.695451  0.429220  0.746898  1
  Se  Se27  1  0.253299  0.570649  0.304404  1
  Se  Se28  1  0.304479  0.253254  0.570701  1
  Se  Se29  1  0.570714  0.304558  0.253041  1
  Se  Se30  1  0.679201  0.072333  0.572429  1
  Se  Se31  1  0.573864  0.680435  0.073847  1
  Se  Se32  1  0.072131  0.572190  0.679311  1
  Se  Se33  1  0.320735  0.427828  0.927878  1
  Se  Se34  1  0.927699  0.320378  0.427648  1
  Se  Se35  1  0.430184  0.927483  0.320778  1
