# generated using pymatgen
data_MnIn2(SeO3)4
_symmetry_space_group_name_H-M   'P 1'
_cell_length_a   4.90089800
_cell_length_b   8.73726717
_cell_length_c   15.86680580
_cell_angle_alpha   69.59690063
_cell_angle_beta   90.00000000
_cell_angle_gamma   90.00000000
_symmetry_Int_Tables_number   1
_chemical_formula_structural   MnIn2(SeO3)4
_chemical_formula_sum   'Mn2 In4 Se8 O24'
_cell_volume   636.79892300
_cell_formula_units_Z   2
loop_
 _symmetry_equiv_pos_site_id
 _symmetry_equiv_pos_as_xyz
  1  'x, y, z'
loop_
 _atom_site_type_symbol
 _atom_site_label
 _atom_site_symmetry_multiplicity
 _atom_site_fract_x
 _atom_site_fract_y
 _atom_site_fract_z
 _atom_site_occupancy
  Mn  Mn0  1  0.000000  0.000000  0.000000  1
  Mn  Mn1  1  0.500000  0.000000  0.500000  1
  In  In2  1  0.533898  0.154264  0.787145  1
  In  In3  1  0.966102  0.154264  0.287145  1
  In  In4  1  0.466102  0.845736  0.212855  1
  In  In5  1  0.033898  0.845736  0.712855  1
  Se  Se6  1  0.569859  0.779546  0.886866  1
  Se  Se7  1  0.930141  0.779546  0.386866  1
  Se  Se8  1  0.430141  0.220454  0.113134  1
  Se  Se9  1  0.069859  0.220454  0.613134  1
  Se  Se10  1  0.005303  0.348010  0.869768  1
  Se  Se11  1  0.494697  0.348010  0.369768  1
  Se  Se12  1  0.994697  0.651990  0.130232  1
  Se  Se13  1  0.505303  0.651990  0.630232  1
  O  O14  1  0.768487  0.358995  0.786714  1
  O  O15  1  0.731513  0.358995  0.286714  1
  O  O16  1  0.231513  0.641005  0.213286  1
  O  O17  1  0.268487  0.641005  0.713286  1
  O  O18  1  0.825940  0.710930  0.835857  1
  O  O19  1  0.674060  0.710930  0.335857  1
  O  O20  1  0.174060  0.289070  0.164143  1
  O  O21  1  0.325940  0.289070  0.664143  1
  O  O22  1  0.206749  0.175116  0.874958  1
  O  O23  1  0.293251  0.175116  0.374958  1
  O  O24  1  0.793251  0.824884  0.125042  1
  O  O25  1  0.706749  0.824884  0.625042  1
  O  O26  1  0.705769  0.951564  0.903962  1
  O  O27  1  0.794231  0.951564  0.403962  1
  O  O28  1  0.294231  0.048436  0.096038  1
  O  O29  1  0.205769  0.048436  0.596038  1
  O  O30  1  0.368673  0.905037  0.796852  1
  O  O31  1  0.131327  0.905037  0.296852  1
  O  O32  1  0.631327  0.094963  0.203148  1
  O  O33  1  0.868673  0.094963  0.703148  1
  O  O34  1  0.840163  0.245238  0.968034  1
  O  O35  1  0.659837  0.245238  0.468034  1
  O  O36  1  0.159837  0.754762  0.031966  1
  O  O37  1  0.340163  0.754762  0.531966  1
