# generated using pymatgen
data_Tb4Al4PdRuPt2
_symmetry_space_group_name_H-M   'P 1'
_cell_length_a   4.37063700
_cell_length_b   6.90831631
_cell_length_c   7.87069835
_cell_angle_alpha   89.67265049
_cell_angle_beta   90.00000000
_cell_angle_gamma   90.00000000
_symmetry_Int_Tables_number   1
_chemical_formula_structural   Tb4Al4PdRuPt2
_chemical_formula_sum   'Tb4 Al4 Pd1 Ru1 Pt2'
_cell_volume   237.64196371
_cell_formula_units_Z   1
loop_
 _symmetry_equiv_pos_site_id
 _symmetry_equiv_pos_as_xyz
  1  'x, y, z'
loop_
 _atom_site_type_symbol
 _atom_site_label
 _atom_site_symmetry_multiplicity
 _atom_site_fract_x
 _atom_site_fract_y
 _atom_site_fract_z
 _atom_site_occupancy
  Tb  Tb0  1  0.250000  0.036105  0.679020  1
  Tb  Tb1  1  0.250000  0.528366  0.819580  1
  Tb  Tb2  1  0.750000  0.978191  0.318358  1
  Tb  Tb3  1  0.750000  0.468055  0.185680  1
  Al  Al4  1  0.250000  0.145538  0.064028  1
  Al  Al5  1  0.250000  0.638276  0.434354  1
  Al  Al6  1  0.750000  0.857792  0.938266  1
  Al  Al7  1  0.750000  0.352427  0.561577  1
  Pd  Pd8  1  0.750000  0.727187  0.617691  1
  Ru  Ru9  1  0.250000  0.265781  0.383911  1
  Pt  Pt10  1  0.250000  0.773572  0.115900  1
  Pt  Pt11  1  0.750000  0.228712  0.881636  1
