# generated using pymatgen
data_Tc4GeAs5
_symmetry_space_group_name_H-M   'P 1'
_cell_length_a   6.37353388
_cell_length_b   6.78270691
_cell_length_c   8.18146630
_cell_angle_alpha   95.35080826
_cell_angle_beta   101.26228330
_cell_angle_gamma   103.55694439
_symmetry_Int_Tables_number   1
_chemical_formula_structural   Tc4GeAs5
_chemical_formula_sum   'Tc8 Ge2 As10'
_cell_volume   333.60303711
_cell_formula_units_Z   2
loop_
 _symmetry_equiv_pos_site_id
 _symmetry_equiv_pos_as_xyz
  1  'x, y, z'
loop_
 _atom_site_type_symbol
 _atom_site_label
 _atom_site_symmetry_multiplicity
 _atom_site_fract_x
 _atom_site_fract_y
 _atom_site_fract_z
 _atom_site_occupancy
  Tc  Tc0  1  0.892357  0.423022  0.133449  1
  Tc  Tc1  1  0.107643  0.576978  0.866551  1
  Tc  Tc2  1  0.385903  0.423453  0.132723  1
  Tc  Tc3  1  0.614097  0.576547  0.867277  1
  Tc  Tc4  1  0.558761  0.873563  0.368095  1
  Tc  Tc5  1  0.441239  0.126437  0.631905  1
  Tc  Tc6  1  0.062222  0.874652  0.369356  1
  Tc  Tc7  1  0.937778  0.125348  0.630644  1
  Ge  Ge8  1  0.735591  0.574534  0.367629  1
  Ge  Ge9  1  0.264409  0.425466  0.632371  1
  As  As10  1  0.235356  0.575990  0.367819  1
  As  As11  1  0.764644  0.424010  0.632181  1
  As  As12  1  0.867493  0.151839  0.321053  1
  As  As13  1  0.132507  0.848161  0.678947  1
  As  As14  1  0.369231  0.154005  0.322355  1
  As  As15  1  0.630769  0.845995  0.677645  1
  As  As16  1  0.537362  0.197335  0.952135  1
  As  As17  1  0.462638  0.802665  0.047865  1
  As  As18  1  0.036538  0.195110  0.950351  1
  As  As19  1  0.963462  0.804890  0.049649  1
