# generated using pymatgen
data_Li12La9Dy3(WO6)8
_symmetry_space_group_name_H-M   'P 1'
_cell_length_a   11.01142108
_cell_length_b   10.95509267
_cell_length_c   10.95439580
_cell_angle_alpha   109.36933664
_cell_angle_beta   109.57793351
_cell_angle_gamma   109.57296471
_symmetry_Int_Tables_number   1
_chemical_formula_structural   Li12La9Dy3(WO6)8
_chemical_formula_sum   'Li12 La9 Dy3 W8 O48'
_cell_volume   1015.90251424
_cell_formula_units_Z   1
loop_
 _symmetry_equiv_pos_site_id
 _symmetry_equiv_pos_as_xyz
  1  'x, y, z'
loop_
 _atom_site_type_symbol
 _atom_site_label
 _atom_site_symmetry_multiplicity
 _atom_site_fract_x
 _atom_site_fract_y
 _atom_site_fract_z
 _atom_site_occupancy
  Li  Li0  1  0.748953  0.374077  0.125282  1
  Li  Li1  1  0.876329  0.751205  0.125282  1
  Li  Li2  1  0.124259  0.373150  0.249805  1
  Li  Li3  1  0.625546  0.876655  0.249805  1
  Li  Li4  1  0.623053  0.248830  0.372102  1
  Li  Li5  1  0.249049  0.123272  0.372102  1
  Li  Li6  1  0.374698  0.750018  0.624826  1
  Li  Li7  1  0.750129  0.874808  0.624826  1
  Li  Li8  1  0.375173  0.125160  0.751123  1
  Li  Li9  1  0.875950  0.625963  0.751123  1
  Li  Li10  1  0.126678  0.249929  0.876832  1
  Li  Li11  1  0.250154  0.626903  0.876833  1
  La  La12  1  0.373657  0.623657  0.247314  1
  La  La13  1  0.125683  0.751249  0.373620  1
  La  La14  1  0.747937  0.622371  0.373620  1
  La  La15  1  0.874407  0.248682  0.622315  1
  La  La16  1  0.247908  0.373633  0.622315  1
  La  La17  1  0.624850  0.374850  0.749700  1
  La  La18  1  0.126854  0.876854  0.753708  1
  La  La19  1  0.625852  0.751324  0.877639  1
  La  La20  1  0.751789  0.126317  0.877640  1
  Dy  Dy21  1  0.251710  0.877412  0.126362  1
  Dy  Dy22  1  0.374652  0.248949  0.126363  1
  Dy  Dy23  1  0.875771  0.125771  0.251543  1
  W  W24  1  0.004637  0.002157  0.006709  1
  W  W25  1  0.502073  0.004552  0.006709  1
  W  W26  1  0.498684  0.496574  0.000102  1
  W  W27  1  0.001418  0.503529  0.000102  1
  W  W28  1  0.498866  0.999606  0.496400  1
  W  W29  1  0.997878  0.497186  0.496879  1
  W  W30  1  0.999000  0.999692  0.496880  1
  W  W31  1  0.497535  0.496795  0.496401  1
  O  O32  1  0.329742  0.402416  0.025529  1
  O  O33  1  0.195787  0.623113  0.025529  1
  O  O34  1  0.887148  0.912330  0.085956  1
  O  O35  1  0.698808  0.173627  0.085957  1
  O  O36  1  0.622306  0.928743  0.098957  1
  O  O37  1  0.976652  0.170214  0.098957  1
  O  O38  1  0.026644  0.700021  0.114298  1
  O  O39  1  0.587655  0.414278  0.114299  1
  O  O40  1  0.202164  0.078211  0.172316  1
  O  O41  1  0.470151  0.094104  0.172316  1
  O  O42  1  0.113750  0.522405  0.193444  1
  O  O43  1  0.579693  0.671039  0.193444  1
  O  O44  1  0.326208  0.413665  0.299607  1
  O  O45  1  0.473399  0.885942  0.299607  1
  O  O46  1  0.919176  0.804905  0.326927  1
  O  O47  1  0.907752  0.522023  0.326928  1
  O  O48  1  0.572389  0.402072  0.376552  1
  O  O49  1  0.304163  0.974482  0.376552  1
  O  O50  1  0.829862  0.025541  0.402191  1
  O  O51  1  0.072328  0.376649  0.402191  1
  O  O52  1  0.087754  0.114313  0.414253  1
  O  O53  1  0.826500  0.299940  0.414254  1
  O  O54  1  0.590912  0.670673  0.477208  1
  O  O55  1  0.386296  0.806535  0.477208  1
  O  O56  1  0.614213  0.194932  0.521656  1
  O  O57  1  0.407445  0.326724  0.521656  1
  O  O58  1  0.171440  0.691118  0.578954  1
  O  O59  1  0.907514  0.887835  0.578954  1
  O  O60  1  0.171823  0.979551  0.590922  1
  O  O61  1  0.919100  0.611372  0.590922  1
  O  O62  1  0.419147  0.590846  0.611276  1
  O  O63  1  0.692129  0.020431  0.611277  1
  O  O64  1  0.079657  0.193336  0.670939  1
  O  O65  1  0.091284  0.477604  0.670940  1
  O  O66  1  0.671282  0.578606  0.690883  1
  O  O67  1  0.519600  0.112278  0.690883  1
  O  O68  1  0.885744  0.477914  0.804986  1
  O  O69  1  0.419243  0.327073  0.804987  1
  O  O70  1  0.518370  0.908685  0.830680  1
  O  O71  1  0.812309  0.921996  0.830681  1
  O  O72  1  0.980581  0.308931  0.887853  1
  O  O73  1  0.407272  0.578922  0.887854  1
  O  O74  1  0.387878  0.085288  0.913919  1
  O  O75  1  0.026041  0.828632  0.913919  1
  O  O76  1  0.121845  0.098139  0.930049  1
  O  O77  1  0.308203  0.831910  0.930049  1
  O  O78  1  0.807862  0.388316  0.979508  1
  O  O79  1  0.671646  0.591191  0.979508  1
