# generated using pymatgen
data_La3Yb2Pr5Ir6
_symmetry_space_group_name_H-M   'P 1'
_cell_length_a   11.31440745
_cell_length_b   11.33690500
_cell_length_c   6.49799726
_cell_angle_alpha   90.00000000
_cell_angle_beta   90.03237965
_cell_angle_gamma   90.00000000
_symmetry_Int_Tables_number   1
_chemical_formula_structural   La3Yb2Pr5Ir6
_chemical_formula_sum   'La6 Yb4 Pr10 Ir12'
_cell_volume   833.50033031
_cell_formula_units_Z   2
loop_
 _symmetry_equiv_pos_site_id
 _symmetry_equiv_pos_as_xyz
  1  'x, y, z'
loop_
 _atom_site_type_symbol
 _atom_site_label
 _atom_site_symmetry_multiplicity
 _atom_site_fract_x
 _atom_site_fract_y
 _atom_site_fract_z
 _atom_site_occupancy
  La  La0  1  0.287397  0.089743  0.386951  1
  La  La1  1  0.287397  0.910257  0.886951  1
  La  La2  1  0.712785  0.089990  0.886827  1
  La  La3  1  0.712785  0.910010  0.386827  1
  La  La4  1  0.588886  0.786892  0.886853  1
  La  La5  1  0.588886  0.213108  0.386853  1
  Yb  Yb6  1  0.000052  0.999948  0.499652  1
  Yb  Yb7  1  0.000052  0.000052  0.999652  1
  Yb  Yb8  1  0.499745  0.499628  0.999821  1
  Yb  Yb9  1  0.499745  0.500372  0.499821  1
  Pr  Pr10  1  0.410775  0.786818  0.384838  1
  Pr  Pr11  1  0.410775  0.213182  0.884838  1
  Pr  Pr12  1  0.211695  0.411865  0.615886  1
  Pr  Pr13  1  0.211695  0.588135  0.115886  1
  Pr  Pr14  1  0.788699  0.412167  0.114875  1
  Pr  Pr15  1  0.788699  0.587833  0.614875  1
  Pr  Pr16  1  0.911821  0.711180  0.115019  1
  Pr  Pr17  1  0.911821  0.288820  0.615019  1
  Pr  Pr18  1  0.088435  0.711381  0.614900  1
  Pr  Pr19  1  0.088435  0.288619  0.114900  1
  Ir  Ir20  1  0.844441  0.154306  0.248010  1
  Ir  Ir21  1  0.844441  0.845694  0.748010  1
  Ir  Ir22  1  0.155475  0.154049  0.747648  1
  Ir  Ir23  1  0.155475  0.845951  0.247648  1
  Ir  Ir24  1  0.654185  0.344197  0.748075  1
  Ir  Ir25  1  0.654185  0.655803  0.248075  1
  Ir  Ir26  1  0.345223  0.345298  0.250112  1
  Ir  Ir27  1  0.345223  0.654702  0.750112  1
  Ir  Ir28  1  0.500345  0.000580  0.113714  1
  Ir  Ir29  1  0.500345  0.999420  0.613714  1
  Ir  Ir30  1  0.000041  0.499946  0.886820  1
  Ir  Ir31  1  0.000041  0.500054  0.386820  1
