# generated using pymatgen
data_Nd8Y(CdAu4)5
_symmetry_space_group_name_H-M   'P 1'
_cell_length_a   8.74447376
_cell_length_b   8.74447532
_cell_length_c   10.40889400
_cell_angle_alpha   89.93422874
_cell_angle_beta   89.93422218
_cell_angle_gamma   108.18939707
_symmetry_Int_Tables_number   1
_chemical_formula_structural   Nd8Y(CdAu4)5
_chemical_formula_sum   'Nd8 Y1 Cd5 Au20'
_cell_volume   756.15082998
_cell_formula_units_Z   1
loop_
 _symmetry_equiv_pos_site_id
 _symmetry_equiv_pos_as_xyz
  1  'x, y, z'
loop_
 _atom_site_type_symbol
 _atom_site_label
 _atom_site_symmetry_multiplicity
 _atom_site_fract_x
 _atom_site_fract_y
 _atom_site_fract_z
 _atom_site_occupancy
  Nd  Nd0  1  0.701346  0.298654  0.000000  1
  Nd  Nd1  1  0.200395  0.799605  0.500000  1
  Nd  Nd2  1  0.807258  0.807258  0.290611  1
  Nd  Nd3  1  0.298241  0.298241  0.198894  1
  Nd  Nd4  1  0.799605  0.200395  0.500000  1
  Nd  Nd5  1  0.298654  0.701346  0.000000  1
  Nd  Nd6  1  0.701759  0.701759  0.801106  1
  Nd  Nd7  1  0.192742  0.192742  0.709389  1
  Y  Y8  1  0.500000  0.500000  0.500000  1
  Cd  Cd9  1  0.520902  0.019951  0.249581  1
  Cd  Cd10  1  0.980049  0.479098  0.750419  1
  Cd  Cd11  1  0.000000  0.000000  0.000000  1
  Cd  Cd12  1  0.019951  0.520902  0.249581  1
  Cd  Cd13  1  0.479098  0.980049  0.750419  1
  Au  Au14  1  0.150842  0.431797  0.482429  1
  Au  Au15  1  0.901248  0.901248  0.592911  1
  Au  Au16  1  0.568203  0.849158  0.517571  1
  Au  Au17  1  0.888691  0.169510  0.209280  1
  Au  Au18  1  0.383276  0.665912  0.289583  1
  Au  Au19  1  0.665912  0.383276  0.289583  1
  Au  Au20  1  0.403425  0.403425  0.904336  1
  Au  Au21  1  0.931005  0.654173  0.019583  1
  Au  Au22  1  0.334088  0.616724  0.710417  1
  Au  Au23  1  0.345827  0.068995  0.980417  1
  Au  Au24  1  0.596575  0.596575  0.095664  1
  Au  Au25  1  0.654173  0.931005  0.019583  1
  Au  Au26  1  0.098752  0.098752  0.407089  1
  Au  Au27  1  0.616724  0.334088  0.710417  1
  Au  Au28  1  0.111309  0.830490  0.790720  1
  Au  Au29  1  0.068995  0.345827  0.980417  1
  Au  Au30  1  0.849158  0.568203  0.517571  1
  Au  Au31  1  0.169510  0.888691  0.209280  1
  Au  Au32  1  0.431797  0.150842  0.482429  1
  Au  Au33  1  0.830490  0.111309  0.790720  1
