# generated using pymatgen
data_Hf6Zr3ScSn6
_symmetry_space_group_name_H-M   'P 1'
_cell_length_a   8.48482634
_cell_length_b   8.48482723
_cell_length_c   5.76711100
_cell_angle_alpha   90.00000000
_cell_angle_beta   90.00000000
_cell_angle_gamma   119.99918570
_symmetry_Int_Tables_number   1
_chemical_formula_structural   Hf6Zr3ScSn6
_chemical_formula_sum   'Hf6 Zr3 Sc1 Sn6'
_cell_volume   359.56587419
_cell_formula_units_Z   1
loop_
 _symmetry_equiv_pos_site_id
 _symmetry_equiv_pos_as_xyz
  1  'x, y, z'
loop_
 _atom_site_type_symbol
 _atom_site_label
 _atom_site_symmetry_multiplicity
 _atom_site_fract_x
 _atom_site_fract_y
 _atom_site_fract_z
 _atom_site_occupancy
  Hf  Hf0  1  0.246168  0.001503  0.750000  1
  Hf  Hf1  1  0.001503  0.246168  0.750000  1
  Hf  Hf2  1  0.665861  0.331391  0.999962  1
  Hf  Hf3  1  0.331391  0.665861  0.999962  1
  Hf  Hf4  1  0.331391  0.665861  0.500038  1
  Hf  Hf5  1  0.665861  0.331391  0.500038  1
  Zr  Zr6  1  0.242057  0.242057  0.250000  1
  Zr  Zr7  1  0.756356  0.001260  0.250000  1
  Zr  Zr8  1  0.001260  0.756356  0.250000  1
  Sc  Sc9  1  0.757473  0.757473  0.750000  1
  Sn  Sn10  1  0.394145  0.394145  0.750000  1
  Sn  Sn11  1  0.607447  0.998275  0.750000  1
  Sn  Sn12  1  0.998275  0.607447  0.750000  1
  Sn  Sn13  1  0.607320  0.607320  0.250000  1
  Sn  Sn14  1  0.393560  0.999932  0.250000  1
  Sn  Sn15  1  0.999932  0.393560  0.250000  1
