# generated using pymatgen
data_Mn24Re5
_symmetry_space_group_name_H-M   'P 1'
_cell_length_a   7.56850095
_cell_length_b   7.56850115
_cell_length_c   7.56850100
_cell_angle_alpha   109.47122291
_cell_angle_beta   109.47122345
_cell_angle_gamma   109.47122105
_symmetry_Int_Tables_number   1
_chemical_formula_structural   Mn24Re5
_chemical_formula_sum   'Mn24 Re5'
_cell_volume   333.73957095
_cell_formula_units_Z   1
loop_
 _symmetry_equiv_pos_site_id
 _symmetry_equiv_pos_as_xyz
  1  'x, y, z'
loop_
 _atom_site_type_symbol
 _atom_site_label
 _atom_site_symmetry_multiplicity
 _atom_site_fract_x
 _atom_site_fract_y
 _atom_site_fract_z
 _atom_site_occupancy
  Mn  Mn0  1  0.388027  0.675954  0.000000  1
  Mn  Mn1  1  0.712073  0.324046  0.324046  1
  Mn  Mn2  1  0.388027  0.000000  0.675954  1
  Mn  Mn3  1  0.675954  0.388027  0.000000  1
  Mn  Mn4  1  0.000000  0.388027  0.675954  1
  Mn  Mn5  1  0.324046  0.712073  0.324046  1
  Mn  Mn6  1  0.324046  0.324046  0.712073  1
  Mn  Mn7  1  0.000000  0.675954  0.388027  1
  Mn  Mn8  1  0.675954  0.000000  0.388027  1
  Mn  Mn9  1  0.611973  0.611973  0.287927  1
  Mn  Mn10  1  0.287927  0.611973  0.611973  1
  Mn  Mn11  1  0.611973  0.287927  0.611973  1
  Mn  Mn12  1  0.373682  0.194037  0.000000  1
  Mn  Mn13  1  0.179645  0.805963  0.805963  1
  Mn  Mn14  1  0.373682  0.000000  0.194037  1
  Mn  Mn15  1  0.194037  0.373682  0.000000  1
  Mn  Mn16  1  0.000000  0.373682  0.194037  1
  Mn  Mn17  1  0.805963  0.179645  0.805963  1
  Mn  Mn18  1  0.805963  0.805963  0.179645  1
  Mn  Mn19  1  0.000000  0.194037  0.373682  1
  Mn  Mn20  1  0.194037  0.000000  0.373682  1
  Mn  Mn21  1  0.626318  0.626318  0.820355  1
  Mn  Mn22  1  0.820355  0.626318  0.626318  1
  Mn  Mn23  1  0.626318  0.820355  0.626318  1
  Re  Re24  1  0.000000  0.000000  0.000000  1
  Re  Re25  1  0.632504  0.000000  0.000000  1
  Re  Re26  1  0.000000  0.632504  0.000000  1
  Re  Re27  1  0.000000  0.000000  0.632504  1
  Re  Re28  1  0.367496  0.367496  0.367496  1
