# generated using pymatgen
data_Nd3ErAl18(NiRh2)2
_symmetry_space_group_name_H-M   'P 1'
_cell_length_a   7.57611955
_cell_length_b   7.58375942
_cell_length_c   9.52866800
_cell_angle_alpha   90.00000000
_cell_angle_beta   90.00000000
_cell_angle_gamma   119.69515419
_symmetry_Int_Tables_number   1
_chemical_formula_structural   Nd3ErAl18(NiRh2)2
_chemical_formula_sum   'Nd3 Er1 Al18 Ni2 Rh4'
_cell_volume   475.57617813
_cell_formula_units_Z   1
loop_
 _symmetry_equiv_pos_site_id
 _symmetry_equiv_pos_as_xyz
  1  'x, y, z'
loop_
 _atom_site_type_symbol
 _atom_site_label
 _atom_site_symmetry_multiplicity
 _atom_site_fract_x
 _atom_site_fract_y
 _atom_site_fract_z
 _atom_site_occupancy
  Nd  Nd0  1  0.994221  0.668927  0.750000  1
  Nd  Nd1  1  0.005752  0.331092  0.250000  1
  Nd  Nd2  1  0.668617  0.993864  0.750000  1
  Er  Er3  1  0.331133  0.005840  0.250000  1
  Al  Al4  1  0.126968  0.125740  0.750000  1
  Al  Al5  1  0.877981  0.876056  0.250000  1
  Al  Al6  1  0.001766  0.332161  0.572262  1
  Al  Al7  1  0.000940  0.670272  0.424327  1
  Al  Al8  1  0.000940  0.670272  0.075673  1
  Al  Al9  1  0.332083  0.001238  0.930528  1
  Al  Al10  1  0.001766  0.332161  0.927738  1
  Al  Al11  1  0.665325  0.998789  0.075757  1
  Al  Al12  1  0.665325  0.998789  0.424243  1
  Al  Al13  1  0.332083  0.001238  0.569472  1
  Al  Al14  1  0.332207  0.330634  0.049308  1
  Al  Al15  1  0.667431  0.667304  0.956434  1
  Al  Al16  1  0.667431  0.667304  0.543566  1
  Al  Al17  1  0.332207  0.330634  0.450692  1
  Al  Al18  1  0.338293  0.544526  0.750000  1
  Al  Al19  1  0.658298  0.451722  0.250000  1
  Al  Al20  1  0.544263  0.337197  0.750000  1
  Al  Al21  1  0.454429  0.663881  0.250000  1
  Ni  Ni22  1  0.001049  0.000574  0.498717  1
  Ni  Ni23  1  0.001049  0.000574  0.001283  1
  Rh  Rh24  1  0.670703  0.327960  0.498698  1
  Rh  Rh25  1  0.328519  0.671647  0.498913  1
  Rh  Rh26  1  0.328519  0.671647  0.001087  1
  Rh  Rh27  1  0.670703  0.327960  0.001302  1
