# generated using pymatgen
data_Er5Be3P9Ir19
_symmetry_space_group_name_H-M   'P 1'
_cell_length_a   12.62246400
_cell_length_b   12.62246381
_cell_length_c   3.94460200
_cell_angle_alpha   90.00000000
_cell_angle_beta   90.00000000
_cell_angle_gamma   120.00000292
_symmetry_Int_Tables_number   1
_chemical_formula_structural   Er5Be3P9Ir19
_chemical_formula_sum   'Er5 Be3 P9 Ir19'
_cell_volume   544.27963464
_cell_formula_units_Z   1
loop_
 _symmetry_equiv_pos_site_id
 _symmetry_equiv_pos_as_xyz
  1  'x, y, z'
loop_
 _atom_site_type_symbol
 _atom_site_label
 _atom_site_symmetry_multiplicity
 _atom_site_fract_x
 _atom_site_fract_y
 _atom_site_fract_z
 _atom_site_occupancy
  Er  Er0  1  0.666667  0.333333  0.000000  1
  Er  Er1  1  0.333333  0.666667  0.000000  1
  Er  Er2  1  0.815738  0.809233  0.500000  1
  Er  Er3  1  0.190767  0.006505  0.500000  1
  Er  Er4  1  0.993495  0.184262  0.500000  1
  Be  Be5  1  0.683135  0.162563  0.500000  1
  Be  Be6  1  0.837437  0.520572  0.500000  1
  Be  Be7  1  0.479428  0.316865  0.500000  1
  P  P8  1  0.178066  0.696347  0.500000  1
  P  P9  1  0.518281  0.821934  0.500000  1
  P  P10  1  0.303653  0.481719  0.500000  1
  P  P11  1  0.639908  0.627069  0.000000  1
  P  P12  1  0.372931  0.012838  0.000000  1
  P  P13  1  0.987162  0.360092  0.000000  1
  P  P14  1  0.178466  0.181124  0.000000  1
  P  P15  1  0.818876  0.997343  0.000000  1
  P  P16  1  0.002657  0.821534  0.000000  1
  Ir  Ir17  1  0.801967  0.175493  0.000000  1
  Ir  Ir18  1  0.824507  0.626474  0.000000  1
  Ir  Ir19  1  0.373526  0.198033  0.000000  1
  Ir  Ir20  1  0.190319  0.813232  0.000000  1
  Ir  Ir21  1  0.622913  0.809681  0.000000  1
  Ir  Ir22  1  0.186768  0.377087  0.000000  1
  Ir  Ir23  1  0.455276  0.446575  0.000000  1
  Ir  Ir24  1  0.553425  0.008701  0.000000  1
  Ir  Ir25  1  0.991299  0.544724  0.000000  1
  Ir  Ir26  1  0.280288  0.287604  0.500000  1
  Ir  Ir27  1  0.712396  0.992684  0.500000  1
  Ir  Ir28  1  0.007316  0.719712  0.500000  1
  Ir  Ir29  1  0.870532  0.354394  0.500000  1
  Ir  Ir30  1  0.645606  0.516139  0.500000  1
  Ir  Ir31  1  0.483861  0.129468  0.500000  1
  Ir  Ir32  1  0.369293  0.870341  0.500000  1
  Ir  Ir33  1  0.501050  0.630707  0.500000  1
  Ir  Ir34  1  0.129659  0.498950  0.500000  1
  Ir  Ir35  1  0.000000  0.000000  0.000000  1
