# generated using pymatgen
data_Y2TmLu13(In3Co)2
_symmetry_space_group_name_H-M   'P 1'
_cell_length_a   10.15534909
_cell_length_b   10.15535086
_cell_length_c   6.94629301
_cell_angle_alpha   90.00572759
_cell_angle_beta   89.99427410
_cell_angle_gamma   120.01438983
_symmetry_Int_Tables_number   1
_chemical_formula_structural   Y2TmLu13(In3Co)2
_chemical_formula_sum   'Y2 Tm1 Lu13 In6 Co2'
_cell_volume   620.31249000
_cell_formula_units_Z   1
loop_
 _symmetry_equiv_pos_site_id
 _symmetry_equiv_pos_as_xyz
  1  'x, y, z'
loop_
 _atom_site_type_symbol
 _atom_site_label
 _atom_site_symmetry_multiplicity
 _atom_site_fract_x
 _atom_site_fract_y
 _atom_site_fract_z
 _atom_site_occupancy
  Y  Y0  1  0.999974  0.000026  0.494990  1
  Y  Y1  1  0.999956  0.000044  0.994856  1
  Tm  Tm2  1  0.465466  0.534534  0.482105  1
  Lu  Lu3  1  0.069666  0.534893  0.481732  1
  Lu  Lu4  1  0.465107  0.930334  0.481732  1
  Lu  Lu5  1  0.535094  0.464906  0.981917  1
  Lu  Lu6  1  0.930056  0.465022  0.981850  1
  Lu  Lu7  1  0.534978  0.069944  0.981850  1
  Lu  Lu8  1  0.819813  0.180187  0.276736  1
  Lu  Lu9  1  0.360175  0.179689  0.276429  1
  Lu  Lu10  1  0.820311  0.639825  0.276429  1
  Lu  Lu11  1  0.180173  0.819827  0.776798  1
  Lu  Lu12  1  0.640052  0.820397  0.777312  1
  Lu  Lu13  1  0.179603  0.359948  0.777312  1
  Lu  Lu14  1  0.333119  0.666881  0.091292  1
  Lu  Lu15  1  0.666863  0.333137  0.591509  1
  In  In16  1  0.163245  0.836755  0.234680  1
  In  In17  1  0.673778  0.837048  0.234479  1
  In  In18  1  0.162952  0.326222  0.234479  1
  In  In19  1  0.836768  0.163232  0.734536  1
  In  In20  1  0.326489  0.163279  0.734690  1
  In  In21  1  0.836721  0.673511  0.734690  1
  Co  Co22  1  0.332981  0.667019  0.706165  1
  Co  Co23  1  0.666659  0.333341  0.205981  1
