# generated using pymatgen
data_Pr8Y12Si15Ir
_symmetry_space_group_name_H-M   'P 1'
_cell_length_a   7.51470899
_cell_length_b   7.83658131
_cell_length_c   14.95553200
_cell_angle_alpha   90.00000000
_cell_angle_beta   90.00000000
_cell_angle_gamma   90.45166592
_symmetry_Int_Tables_number   1
_chemical_formula_structural   Pr8Y12Si15Ir
_chemical_formula_sum   'Pr8 Y12 Si15 Ir1'
_cell_volume   880.69835121
_cell_formula_units_Z   1
loop_
 _symmetry_equiv_pos_site_id
 _symmetry_equiv_pos_as_xyz
  1  'x, y, z'
loop_
 _atom_site_type_symbol
 _atom_site_label
 _atom_site_symmetry_multiplicity
 _atom_site_fract_x
 _atom_site_fract_y
 _atom_site_fract_z
 _atom_site_occupancy
  Pr  Pr0  1  0.021514  0.179900  0.401943  1
  Pr  Pr1  1  0.520924  0.322585  0.402230  1
  Pr  Pr2  1  0.475050  0.681387  0.903577  1
  Pr  Pr3  1  0.475050  0.681387  0.596423  1
  Pr  Pr4  1  0.980383  0.821671  0.596571  1
  Pr  Pr5  1  0.980383  0.821671  0.903429  1
  Pr  Pr6  1  0.520924  0.322585  0.097770  1
  Pr  Pr7  1  0.021514  0.179900  0.098057  1
  Y  Y8  1  0.318950  0.176806  0.623714  1
  Y  Y9  1  0.678333  0.819847  0.377232  1
  Y  Y10  1  0.639959  0.978770  0.750000  1
  Y  Y11  1  0.177429  0.679988  0.376401  1
  Y  Y12  1  0.825376  0.320064  0.876709  1
  Y  Y13  1  0.825376  0.320064  0.623291  1
  Y  Y14  1  0.844844  0.488744  0.250000  1
  Y  Y15  1  0.345658  0.013974  0.250000  1
  Y  Y16  1  0.318950  0.176806  0.876286  1
  Y  Y17  1  0.177429  0.679988  0.123599  1
  Y  Y18  1  0.678333  0.819847  0.122768  1
  Y  Y19  1  0.162630  0.523958  0.750000  1
  Si  Si20  1  0.469869  0.611634  0.250000  1
  Si  Si21  1  0.026811  0.102382  0.750000  1
  Si  Si22  1  0.534058  0.387609  0.750000  1
  Si  Si23  1  0.147461  0.468490  0.537646  1
  Si  Si24  1  0.970370  0.890024  0.250000  1
  Si  Si25  1  0.728084  0.120137  0.250000  1
  Si  Si26  1  0.855316  0.528554  0.040139  1
  Si  Si27  1  0.355519  0.971153  0.040167  1
  Si  Si28  1  0.147461  0.468490  0.962354  1
  Si  Si29  1  0.647027  0.034292  0.537469  1
  Si  Si30  1  0.355519  0.971153  0.459833  1
  Si  Si31  1  0.855316  0.528554  0.459861  1
  Si  Si32  1  0.770806  0.613979  0.750000  1
  Si  Si33  1  0.228815  0.381699  0.250000  1
  Si  Si34  1  0.647027  0.034292  0.962531  1
  Ir  Ir35  1  0.271530  0.877619  0.750000  1
