# generated using pymatgen
data_LuPu3(NiGe)4
_symmetry_space_group_name_H-M   'P 1'
_cell_length_a   4.27691400
_cell_length_b   6.93836193
_cell_length_c   7.13402639
_cell_angle_alpha   90.23760742
_cell_angle_beta   90.00000000
_cell_angle_gamma   90.00000000
_symmetry_Int_Tables_number   1
_chemical_formula_structural   LuPu3(NiGe)4
_chemical_formula_sum   'Lu1 Pu3 Ni4 Ge4'
_cell_volume   211.69882364
_cell_formula_units_Z   1
loop_
 _symmetry_equiv_pos_site_id
 _symmetry_equiv_pos_as_xyz
  1  'x, y, z'
loop_
 _atom_site_type_symbol
 _atom_site_label
 _atom_site_symmetry_multiplicity
 _atom_site_fract_x
 _atom_site_fract_y
 _atom_site_fract_z
 _atom_site_occupancy
  Lu  Lu0  1  0.750000  0.986752  0.201731  1
  Pu  Pu1  1  0.250000  0.513959  0.697138  1
  Pu  Pu2  1  0.750000  0.486290  0.300324  1
  Pu  Pu3  1  0.250000  0.012852  0.801938  1
  Ni  Ni4  1  0.250000  0.817130  0.414093  1
  Ni  Ni5  1  0.750000  0.698178  0.920562  1
  Ni  Ni6  1  0.250000  0.298855  0.086929  1
  Ni  Ni7  1  0.750000  0.186459  0.580098  1
  Ge  Ge8  1  0.250000  0.187333  0.409887  1
  Ge  Ge9  1  0.750000  0.308864  0.910920  1
  Ge  Ge10  1  0.250000  0.693296  0.091179  1
  Ge  Ge11  1  0.750000  0.810032  0.585201  1
