# generated using pymatgen
data_Tm3Hg5Au
_symmetry_space_group_name_H-M   'P 1'
_cell_length_a   3.68535400
_cell_length_b   8.10069331
_cell_length_c   8.10069300
_cell_angle_alpha   120.00000280
_cell_angle_beta   90.00000000
_cell_angle_gamma   90.00000000
_symmetry_Int_Tables_number   1
_chemical_formula_structural   Tm3Hg5Au
_chemical_formula_sum   'Tm3 Hg5 Au1'
_cell_volume   209.43737896
_cell_formula_units_Z   1
loop_
 _symmetry_equiv_pos_site_id
 _symmetry_equiv_pos_as_xyz
  1  'x, y, z'
loop_
 _atom_site_type_symbol
 _atom_site_label
 _atom_site_symmetry_multiplicity
 _atom_site_fract_x
 _atom_site_fract_y
 _atom_site_fract_z
 _atom_site_occupancy
  Tm  Tm0  1  0.000000  0.385414  0.401944  1
  Tm  Tm1  1  0.000000  0.016531  0.614586  1
  Tm  Tm2  1  0.000000  0.598056  0.983469  1
  Hg  Hg3  1  0.500000  0.715963  0.715140  1
  Hg  Hg4  1  0.500000  0.999178  0.284037  1
  Hg  Hg5  1  0.500000  0.284860  0.000822  1
  Hg  Hg6  1  0.500000  0.666667  0.333333  1
  Hg  Hg7  1  0.000000  0.000000  0.000000  1
  Au  Au8  1  0.500000  0.333333  0.666667  1
