# generated using pymatgen
data_Tb2ErAlAu5
_symmetry_space_group_name_H-M   'P 1'
_cell_length_a   8.48060840
_cell_length_b   8.48060873
_cell_length_c   13.51678800
_cell_angle_alpha   90.00000000
_cell_angle_beta   90.00000000
_cell_angle_gamma   128.41145225
_symmetry_Int_Tables_number   1
_chemical_formula_structural   Tb2ErAlAu5
_chemical_formula_sum   'Tb8 Er4 Al4 Au20'
_cell_volume   761.73681142
_cell_formula_units_Z   4
loop_
 _symmetry_equiv_pos_site_id
 _symmetry_equiv_pos_as_xyz
  1  'x, y, z'
loop_
 _atom_site_type_symbol
 _atom_site_label
 _atom_site_symmetry_multiplicity
 _atom_site_fract_x
 _atom_site_fract_y
 _atom_site_fract_z
 _atom_site_occupancy
  Tb  Tb0  1  0.927707  0.072293  0.250000  1
  Tb  Tb1  1  0.072293  0.927707  0.750000  1
  Tb  Tb2  1  0.320617  0.679383  0.250000  1
  Tb  Tb3  1  0.679383  0.320617  0.750000  1
  Tb  Tb4  1  0.881416  0.118584  0.951226  1
  Tb  Tb5  1  0.118584  0.881416  0.048774  1
  Tb  Tb6  1  0.881416  0.118584  0.548774  1
  Tb  Tb7  1  0.118584  0.881416  0.451226  1
  Er  Er8  1  0.630626  0.369374  0.464976  1
  Er  Er9  1  0.369374  0.630626  0.535024  1
  Er  Er10  1  0.630626  0.369374  0.035024  1
  Er  Er11  1  0.369374  0.630626  0.964976  1
  Al  Al12  1  0.720078  0.279922  0.250000  1
  Al  Al13  1  0.279922  0.720078  0.750000  1
  Al  Al14  1  0.532830  0.467170  0.250000  1
  Al  Al15  1  0.467170  0.532830  0.750000  1
  Au  Au16  1  0.322987  0.069301  0.250000  1
  Au  Au17  1  0.069301  0.322987  0.750000  1
  Au  Au18  1  0.677013  0.930699  0.750000  1
  Au  Au19  1  0.930699  0.677013  0.250000  1
  Au  Au20  1  0.570523  0.004816  0.397109  1
  Au  Au21  1  0.004816  0.570523  0.602891  1
  Au  Au22  1  0.570523  0.004816  0.102891  1
  Au  Au23  1  0.004816  0.570523  0.897109  1
  Au  Au24  1  0.429477  0.995184  0.602891  1
  Au  Au25  1  0.995184  0.429477  0.397109  1
  Au  Au26  1  0.429477  0.995184  0.897109  1
  Au  Au27  1  0.995184  0.429477  0.102891  1
  Au  Au28  1  0.684453  0.739530  0.395374  1
  Au  Au29  1  0.739530  0.684453  0.604626  1
  Au  Au30  1  0.684453  0.739530  0.104626  1
  Au  Au31  1  0.739530  0.684453  0.895374  1
  Au  Au32  1  0.315547  0.260470  0.604626  1
  Au  Au33  1  0.260470  0.315547  0.395374  1
  Au  Au34  1  0.315547  0.260470  0.895374  1
  Au  Au35  1  0.260470  0.315547  0.104626  1
