# generated using pymatgen
data_K2NbCuTe4
_symmetry_space_group_name_H-M   'P 1'
_cell_length_a   14.98682426
_cell_length_b   13.43110533
_cell_length_c   7.91551423
_cell_angle_alpha   85.02345678
_cell_angle_beta   63.22924599
_cell_angle_gamma   31.74729719
_symmetry_Int_Tables_number   1
_chemical_formula_structural   K2NbCuTe4
_chemical_formula_sum   'K4 Nb2 Cu2 Te8'
_cell_volume   580.86535133
_cell_formula_units_Z   2
loop_
 _symmetry_equiv_pos_site_id
 _symmetry_equiv_pos_as_xyz
  1  'x, y, z'
loop_
 _atom_site_type_symbol
 _atom_site_label
 _atom_site_symmetry_multiplicity
 _atom_site_fract_x
 _atom_site_fract_y
 _atom_site_fract_z
 _atom_site_occupancy
  K  K0  1  0.820027  0.820027  0.179973  1
  K  K1  1  0.179973  0.179973  0.820027  1
  K  K2  1  0.429973  0.429973  0.070027  1
  K  K3  1  0.070027  0.070027  0.429973  1
  Nb  Nb4  1  0.000000  0.000000  0.000000  1
  Nb  Nb5  1  0.250000  0.250000  0.250000  1
  Cu  Cu6  1  0.750000  0.750000  0.750000  1
  Cu  Cu7  1  0.500000  0.500000  0.500000  1
  Te  Te8  1  0.161689  0.454278  0.547039  1
  Te  Te9  1  0.454278  0.161689  0.836995  1
  Te  Te10  1  0.088311  0.795722  0.702961  1
  Te  Te11  1  0.413005  0.702961  0.795722  1
  Te  Te12  1  0.702961  0.413005  0.088311  1
  Te  Te13  1  0.795722  0.088311  0.413005  1
  Te  Te14  1  0.547039  0.836995  0.161689  1
  Te  Te15  1  0.836995  0.547039  0.454278  1
