# generated using pymatgen
data_Os2Ru3RhO12
_symmetry_space_group_name_H-M   'P 1'
_cell_length_a   4.55169910
_cell_length_b   4.55170905
_cell_length_c   9.47074400
_cell_angle_alpha   90.00001862
_cell_angle_beta   89.99997532
_cell_angle_gamma   89.80536790
_symmetry_Int_Tables_number   1
_chemical_formula_structural   Os2Ru3RhO12
_chemical_formula_sum   'Os2 Ru3 Rh1 O12'
_cell_volume   196.21383660
_cell_formula_units_Z   1
loop_
 _symmetry_equiv_pos_site_id
 _symmetry_equiv_pos_as_xyz
  1  'x, y, z'
loop_
 _atom_site_type_symbol
 _atom_site_label
 _atom_site_symmetry_multiplicity
 _atom_site_fract_x
 _atom_site_fract_y
 _atom_site_fract_z
 _atom_site_occupancy
  Os  Os0  1  0.000001  0.000000  0.000872  1
  Os  Os1  1  0.500000  0.500000  0.499288  1
  Ru  Ru2  1  0.000002  0.999999  0.334123  1
  Ru  Ru3  1  0.000002  0.999999  0.666803  1
  Ru  Ru4  1  0.500000  0.499999  0.832775  1
  Rh  Rh5  1  0.499990  0.500007  0.166314  1
  O  O6  1  0.699828  0.300173  0.996917  1
  O  O7  1  0.300174  0.699826  0.996917  1
  O  O8  1  0.186593  0.186635  0.165231  1
  O  O9  1  0.813409  0.813365  0.165231  1
  O  O10  1  0.694030  0.305937  0.337524  1
  O  O11  1  0.305971  0.694063  0.337524  1
  O  O12  1  0.801515  0.801512  0.500069  1
  O  O13  1  0.198486  0.198488  0.500069  1
  O  O14  1  0.690601  0.309431  0.663992  1
  O  O15  1  0.309402  0.690567  0.663993  1
  O  O16  1  0.191480  0.191446  0.836179  1
  O  O17  1  0.808522  0.808553  0.836179  1
