# generated using pymatgen
data_Nd3CrCo7NiP6
_symmetry_space_group_name_H-M   'P 1'
_cell_length_a   3.77053300
_cell_length_b   10.65294700
_cell_length_c   12.41199100
_cell_angle_alpha   90.00000000
_cell_angle_beta   90.00000000
_cell_angle_gamma   90.00000000
_symmetry_Int_Tables_number   1
_chemical_formula_structural   Nd3CrCo7NiP6
_chemical_formula_sum   'Nd6 Cr2 Co14 Ni2 P12'
_cell_volume   498.55601977
_cell_formula_units_Z   2
loop_
 _symmetry_equiv_pos_site_id
 _symmetry_equiv_pos_as_xyz
  1  'x, y, z'
loop_
 _atom_site_type_symbol
 _atom_site_label
 _atom_site_symmetry_multiplicity
 _atom_site_fract_x
 _atom_site_fract_y
 _atom_site_fract_z
 _atom_site_occupancy
  Nd  Nd0  1  0.000000  0.500000  0.519444  1
  Nd  Nd1  1  0.500000  0.000000  0.480556  1
  Nd  Nd2  1  0.500000  0.816086  0.204183  1
  Nd  Nd3  1  0.500000  0.183914  0.204183  1
  Nd  Nd4  1  0.000000  0.683914  0.795817  1
  Nd  Nd5  1  0.000000  0.316086  0.795817  1
  Cr  Cr6  1  0.500000  0.500000  0.154272  1
  Cr  Cr7  1  0.000000  0.000000  0.845728  1
  Co  Co8  1  0.000000  0.500000  0.987683  1
  Co  Co9  1  0.500000  0.000000  0.012317  1
  Co  Co10  1  0.500000  0.332849  0.994077  1
  Co  Co11  1  0.500000  0.667151  0.994077  1
  Co  Co12  1  0.000000  0.167151  0.005923  1
  Co  Co13  1  0.000000  0.832849  0.005923  1
  Co  Co14  1  0.500000  0.296269  0.430795  1
  Co  Co15  1  0.500000  0.703731  0.430795  1
  Co  Co16  1  0.000000  0.203731  0.569205  1
  Co  Co17  1  0.000000  0.796269  0.569205  1
  Co  Co18  1  0.500000  0.881666  0.711168  1
  Co  Co19  1  0.500000  0.118334  0.711168  1
  Co  Co20  1  0.000000  0.618334  0.288832  1
  Co  Co21  1  0.000000  0.381666  0.288832  1
  Ni  Ni22  1  0.500000  0.500000  0.703729  1
  Ni  Ni23  1  0.000000  0.000000  0.296271  1
  P  P24  1  0.500000  0.500000  0.887602  1
  P  P25  1  0.000000  0.000000  0.112398  1
  P  P26  1  0.500000  0.500000  0.339870  1
  P  P27  1  0.000000  0.000000  0.660130  1
  P  P28  1  0.500000  0.305703  0.613919  1
  P  P29  1  0.500000  0.694297  0.613919  1
  P  P30  1  0.000000  0.194297  0.386081  1
  P  P31  1  0.000000  0.805703  0.386081  1
  P  P32  1  0.500000  0.848877  0.895134  1
  P  P33  1  0.500000  0.151123  0.895134  1
  P  P34  1  0.000000  0.651123  0.104866  1
  P  P35  1  0.000000  0.348877  0.104866  1
