# generated using pymatgen
data_La3Be2GaIr6
_symmetry_space_group_name_H-M   'P 1'
_cell_length_a   5.63169200
_cell_length_b   5.63169257
_cell_length_c   15.42159500
_cell_angle_alpha   90.00000000
_cell_angle_beta   90.00000000
_cell_angle_gamma   119.99999663
_symmetry_Int_Tables_number   1
_chemical_formula_structural   La3Be2GaIr6
_chemical_formula_sum   'La6 Be4 Ga2 Ir12'
_cell_volume   423.58227073
_cell_formula_units_Z   2
loop_
 _symmetry_equiv_pos_site_id
 _symmetry_equiv_pos_as_xyz
  1  'x, y, z'
loop_
 _atom_site_type_symbol
 _atom_site_label
 _atom_site_symmetry_multiplicity
 _atom_site_fract_x
 _atom_site_fract_y
 _atom_site_fract_z
 _atom_site_occupancy
  La  La0  1  0.333333  0.666667  0.538833  1
  La  La1  1  0.666667  0.333333  0.461167  1
  La  La2  1  0.666667  0.333333  0.038833  1
  La  La3  1  0.333333  0.666667  0.961167  1
  La  La4  1  0.333333  0.666667  0.750000  1
  La  La5  1  0.666667  0.333333  0.250000  1
  Be  Be6  1  0.000000  0.000000  0.250000  1
  Be  Be7  1  0.000000  0.000000  0.750000  1
  Be  Be8  1  0.333333  0.666667  0.250000  1
  Be  Be9  1  0.666667  0.333333  0.750000  1
  Ga  Ga10  1  0.000000  0.000000  0.000000  1
  Ga  Ga11  1  0.000000  0.000000  0.500000  1
  Ir  Ir12  1  0.166945  0.333891  0.137835  1
  Ir  Ir13  1  0.833055  0.666109  0.862165  1
  Ir  Ir14  1  0.666109  0.833055  0.137835  1
  Ir  Ir15  1  0.833055  0.666109  0.637835  1
  Ir  Ir16  1  0.333891  0.166945  0.862165  1
  Ir  Ir17  1  0.166945  0.333891  0.362165  1
  Ir  Ir18  1  0.166945  0.833055  0.137835  1
  Ir  Ir19  1  0.333891  0.166945  0.637835  1
  Ir  Ir20  1  0.833055  0.166945  0.862165  1
  Ir  Ir21  1  0.666109  0.833055  0.362165  1
  Ir  Ir22  1  0.833055  0.166945  0.637835  1
  Ir  Ir23  1  0.166945  0.833055  0.362165  1
