# generated using pymatgen
data_La7Sc3Zn2(Si2O)3
_symmetry_space_group_name_H-M   'P 1'
_cell_length_a   10.78032326
_cell_length_b   10.78445302
_cell_length_c   4.37733400
_cell_angle_alpha   90.00000000
_cell_angle_beta   90.00000000
_cell_angle_gamma   120.01267360
_symmetry_Int_Tables_number   1
_chemical_formula_structural   La7Sc3Zn2(Si2O)3
_chemical_formula_sum   'La7 Sc3 Zn2 Si6 O3'
_cell_volume   440.67128022
_cell_formula_units_Z   1
loop_
 _symmetry_equiv_pos_site_id
 _symmetry_equiv_pos_as_xyz
  1  'x, y, z'
loop_
 _atom_site_type_symbol
 _atom_site_label
 _atom_site_symmetry_multiplicity
 _atom_site_fract_x
 _atom_site_fract_y
 _atom_site_fract_z
 _atom_site_occupancy
  La  La0  1  0.216487  0.786664  0.000000  1
  La  La1  1  0.570863  0.785431  0.000000  1
  La  La2  1  0.783513  0.570178  0.000000  1
  La  La3  1  0.000000  0.000000  0.000000  1
  La  La4  1  0.216487  0.429822  0.000000  1
  La  La5  1  0.429137  0.214569  0.000000  1
  La  La6  1  0.783513  0.213336  0.000000  1
  Sc  Sc7  1  0.000000  0.500000  0.500000  1
  Sc  Sc8  1  0.500000  0.500000  0.500000  1
  Sc  Sc9  1  0.500000  0.000000  0.500000  1
  Zn  Zn10  1  0.000000  0.776101  0.500000  1
  Zn  Zn11  1  0.000000  0.223899  0.500000  1
  Si  Si12  1  0.228242  0.225273  0.500000  1
  Si  Si13  1  0.771758  0.997030  0.500000  1
  Si  Si14  1  0.331674  0.665838  0.500000  1
  Si  Si15  1  0.228242  0.002970  0.500000  1
  Si  Si16  1  0.668326  0.334162  0.500000  1
  Si  Si17  1  0.771758  0.774727  0.500000  1
  O  O18  1  0.000000  0.500000  0.000000  1
  O  O19  1  0.500000  0.500000  0.000000  1
  O  O20  1  0.500000  0.000000  0.000000  1
