# generated using pymatgen
data_Be2Nb4B4(IrRu)5
_symmetry_space_group_name_H-M   'P 1'
_cell_length_a   9.31645403
_cell_length_b   9.21997902
_cell_length_c   2.93332100
_cell_angle_alpha   90.00000000
_cell_angle_beta   90.00000000
_cell_angle_gamma   89.92025834
_symmetry_Int_Tables_number   1
_chemical_formula_structural   Be2Nb4B4(IrRu)5
_chemical_formula_sum   'Be2 Nb4 B4 Ir5 Ru5'
_cell_volume   251.96472791
_cell_formula_units_Z   1
loop_
 _symmetry_equiv_pos_site_id
 _symmetry_equiv_pos_as_xyz
  1  'x, y, z'
loop_
 _atom_site_type_symbol
 _atom_site_label
 _atom_site_symmetry_multiplicity
 _atom_site_fract_x
 _atom_site_fract_y
 _atom_site_fract_z
 _atom_site_occupancy
  Be  Be0  1  0.503757  0.499369  0.000000  1
  Be  Be1  1  0.999510  0.001003  0.000000  1
  Nb  Nb2  1  0.821107  0.675554  0.000000  1
  Nb  Nb3  1  0.176032  0.319682  0.000000  1
  Nb  Nb4  1  0.322183  0.827686  0.000000  1
  Nb  Nb5  1  0.678414  0.176268  0.000000  1
  B  B6  1  0.629982  0.877177  0.000000  1
  B  B7  1  0.370123  0.123240  0.000000  1
  B  B8  1  0.125631  0.625134  0.000000  1
  B  B9  1  0.870358  0.375635  0.000000  1
  Ir  Ir10  1  0.564605  0.709645  0.500000  1
  Ir  Ir11  1  0.433604  0.291324  0.500000  1
  Ir  Ir12  1  0.066136  0.791045  0.500000  1
  Ir  Ir13  1  0.934174  0.208816  0.500000  1
  Ir  Ir14  1  0.292080  0.566163  0.500000  1
  Ru  Ru15  1  0.710837  0.433304  0.500000  1
  Ru  Ru16  1  0.209515  0.066174  0.500000  1
  Ru  Ru17  1  0.790137  0.932275  0.500000  1
  Ru  Ru18  1  0.500397  0.001295  0.500000  1
  Ru  Ru19  1  0.001419  0.499212  0.500000  1
