# generated using pymatgen
data_Dy3Cd3GaSnHg
_symmetry_space_group_name_H-M   'P 1'
_cell_length_a   7.39195500
_cell_length_b   7.39195491
_cell_length_c   4.57766200
_cell_angle_alpha   90.00000000
_cell_angle_beta   90.00000000
_cell_angle_gamma   119.99999592
_symmetry_Int_Tables_number   1
_chemical_formula_structural   Dy3Cd3GaSnHg
_chemical_formula_sum   'Dy3 Cd3 Ga1 Sn1 Hg1'
_cell_volume   216.61722885
_cell_formula_units_Z   1
loop_
 _symmetry_equiv_pos_site_id
 _symmetry_equiv_pos_as_xyz
  1  'x, y, z'
loop_
 _atom_site_type_symbol
 _atom_site_label
 _atom_site_symmetry_multiplicity
 _atom_site_fract_x
 _atom_site_fract_y
 _atom_site_fract_z
 _atom_site_occupancy
  Dy  Dy0  1  0.416895  0.428565  0.500000  1
  Dy  Dy1  1  0.571435  0.988330  0.500000  1
  Dy  Dy2  1  0.011670  0.583105  0.500000  1
  Cd  Cd3  1  0.742048  0.758187  0.000000  1
  Cd  Cd4  1  0.241813  0.983861  0.000000  1
  Cd  Cd5  1  0.016139  0.257952  0.000000  1
  Ga  Ga6  1  0.333333  0.666667  0.000000  1
  Sn  Sn7  1  0.666667  0.333333  0.000000  1
  Hg  Hg8  1  0.000000  0.000000  0.500000  1
