# generated using pymatgen
data_AgHgIr2O7
_symmetry_space_group_name_H-M   'P 1'
_cell_length_a   7.27176141
_cell_length_b   7.28793160
_cell_length_c   7.27176276
_cell_angle_alpha   59.92642277
_cell_angle_beta   59.78346186
_cell_angle_gamma   59.92641751
_symmetry_Int_Tables_number   1
_chemical_formula_structural   AgHgIr2O7
_chemical_formula_sum   'Ag2 Hg2 Ir4 O14'
_cell_volume   271.75061148
_cell_formula_units_Z   2
loop_
 _symmetry_equiv_pos_site_id
 _symmetry_equiv_pos_as_xyz
  1  'x, y, z'
loop_
 _atom_site_type_symbol
 _atom_site_label
 _atom_site_symmetry_multiplicity
 _atom_site_fract_x
 _atom_site_fract_y
 _atom_site_fract_z
 _atom_site_occupancy
  Ag  Ag0  1  0.125000  0.125000  0.125000  1
  Ag  Ag1  1  0.125000  0.625000  0.125000  1
  Hg  Hg2  1  0.125000  0.125000  0.625000  1
  Hg  Hg3  1  0.625000  0.125000  0.125000  1
  Ir  Ir4  1  0.625000  0.625000  0.625000  1
  Ir  Ir5  1  0.125000  0.625000  0.625000  1
  Ir  Ir6  1  0.625000  0.125000  0.625000  1
  Ir  Ir7  1  0.625000  0.625000  0.125000  1
  O  O8  1  0.948014  0.554637  0.549874  1
  O  O9  1  0.301986  0.302525  0.700126  1
  O  O10  1  0.944445  0.555555  0.944445  1
  O  O11  1  0.700126  0.302525  0.301986  1
  O  O12  1  0.549874  0.554637  0.948014  1
  O  O13  1  0.551656  0.948344  0.551656  1
  O  O14  1  0.549874  0.947475  0.948014  1
  O  O15  1  0.241110  0.258890  0.241110  1
  O  O16  1  0.301986  0.695363  0.700126  1
  O  O17  1  0.698344  0.301656  0.698344  1
  O  O18  1  0.008890  0.991110  0.008890  1
  O  O19  1  0.948014  0.947475  0.549874  1
  O  O20  1  0.305555  0.694445  0.305555  1
  O  O21  1  0.700126  0.695363  0.301986  1
