# generated using pymatgen
data_LiInGaCu3
_symmetry_space_group_name_H-M   'P 1'
_cell_length_a   4.95606615
_cell_length_b   4.95606515
_cell_length_c   4.95606600
_cell_angle_alpha   60.92570204
_cell_angle_beta   60.92570848
_cell_angle_gamma   60.92571638
_symmetry_Int_Tables_number   1
_chemical_formula_structural   LiInGaCu3
_chemical_formula_sum   'Li1 In1 Ga1 Cu3'
_cell_volume   87.87456654
_cell_formula_units_Z   1
loop_
 _symmetry_equiv_pos_site_id
 _symmetry_equiv_pos_as_xyz
  1  'x, y, z'
loop_
 _atom_site_type_symbol
 _atom_site_label
 _atom_site_symmetry_multiplicity
 _atom_site_fract_x
 _atom_site_fract_y
 _atom_site_fract_z
 _atom_site_occupancy
  Li  Li0  1  0.373577  0.373577  0.373577  1
  In  In1  1  0.622487  0.622487  0.622487  1
  Ga  Ga2  1  0.002597  0.002597  0.002597  1
  Cu  Cu3  1  0.000182  0.500974  0.000182  1
  Cu  Cu4  1  0.500974  0.000182  0.000182  1
  Cu  Cu5  1  0.000182  0.000182  0.500974  1
