# generated using pymatgen
data_Ba2Hf3ZrH14
_symmetry_space_group_name_H-M   'P 1'
_cell_length_a   6.83930536
_cell_length_b   6.86781724
_cell_length_c   6.83930500
_cell_angle_alpha   60.13723334
_cell_angle_beta   59.99999690
_cell_angle_gamma   60.13723715
_symmetry_Int_Tables_number   1
_chemical_formula_structural   Ba2Hf3ZrH14
_chemical_formula_sum   'Ba2 Hf3 Zr1 H14'
_cell_volume   227.62787363
_cell_formula_units_Z   1
loop_
 _symmetry_equiv_pos_site_id
 _symmetry_equiv_pos_as_xyz
  1  'x, y, z'
loop_
 _atom_site_type_symbol
 _atom_site_label
 _atom_site_symmetry_multiplicity
 _atom_site_fract_x
 _atom_site_fract_y
 _atom_site_fract_z
 _atom_site_occupancy
  Ba  Ba0  1  0.250322  0.249034  0.250322  1
  Ba  Ba1  1  0.999678  0.000966  0.999678  1
  Hf  Hf2  1  0.625000  0.625000  0.125000  1
  Hf  Hf3  1  0.125000  0.625000  0.625000  1
  Hf  Hf4  1  0.625000  0.625000  0.625000  1
  Zr  Zr5  1  0.625000  0.125000  0.625000  1
  H  H6  1  0.734314  0.269650  0.734314  1
  H  H7  1  0.982521  0.518345  0.982521  1
  H  H8  1  0.733386  0.731655  0.267479  1
  H  H9  1  0.267479  0.731655  0.733386  1
  H  H10  1  0.734314  0.269650  0.261722  1
  H  H11  1  0.261722  0.269650  0.734314  1
  H  H12  1  0.499075  0.502774  0.499075  1
  H  H13  1  0.750925  0.747226  0.750925  1
  H  H14  1  0.267479  0.731655  0.267479  1
  H  H15  1  0.515686  0.980350  0.988278  1
  H  H16  1  0.982521  0.518345  0.516614  1
  H  H17  1  0.515686  0.980350  0.515686  1
  H  H18  1  0.988278  0.980350  0.515686  1
  H  H19  1  0.516614  0.518345  0.982521  1
