# generated using pymatgen
data_TmFe5Tc7
_symmetry_space_group_name_H-M   'P 1'
_cell_length_a   6.63553035
_cell_length_b   6.63553111
_cell_length_c   6.63553073
_cell_angle_alpha   138.07886936
_cell_angle_beta   96.02075009
_cell_angle_gamma   98.68755314
_symmetry_Int_Tables_number   1
_chemical_formula_structural   TmFe5Tc7
_chemical_formula_sum   'Tm1 Fe5 Tc7'
_cell_volume   182.21631543
_cell_formula_units_Z   1
loop_
 _symmetry_equiv_pos_site_id
 _symmetry_equiv_pos_as_xyz
  1  'x, y, z'
loop_
 _atom_site_type_symbol
 _atom_site_label
 _atom_site_symmetry_multiplicity
 _atom_site_fract_x
 _atom_site_fract_y
 _atom_site_fract_z
 _atom_site_occupancy
  Tm  Tm0  1  0.993188  0.000000  0.993188  1
  Fe  Fe1  1  0.508910  0.007754  0.003876  1
  Fe  Fe2  1  0.508910  0.505034  0.501157  1
  Fe  Fe3  1  0.996122  0.494966  0.003876  1
  Fe  Fe4  1  0.996122  0.992246  0.501157  1
  Fe  Fe5  1  0.772650  0.500000  0.272650  1
  Tc  Tc6  1  0.359224  0.000000  0.359224  1
  Tc  Tc7  1  0.637701  0.000000  0.637701  1
  Tc  Tc8  1  0.649607  0.645522  0.004085  1
  Tc  Tc9  1  0.358563  0.354478  0.004085  1
  Tc  Tc10  1  0.219827  0.500000  0.719827  1
  Tc  Tc11  1  0.202328  0.702740  0.499588  1
  Tc  Tc12  1  0.796848  0.297260  0.499588  1
