# generated using pymatgen
data_NdSm4P12Pd3Ru16
_symmetry_space_group_name_H-M   'P 1'
_cell_length_a   12.67260901
_cell_length_b   12.67260860
_cell_length_c   4.00522100
_cell_angle_alpha   90.00000000
_cell_angle_beta   90.00000000
_cell_angle_gamma   120.00527600
_symmetry_Int_Tables_number   1
_chemical_formula_structural   NdSm4P12Pd3Ru16
_chemical_formula_sum   'Nd1 Sm4 P12 Pd3 Ru16'
_cell_volume   557.01396340
_cell_formula_units_Z   1
loop_
 _symmetry_equiv_pos_site_id
 _symmetry_equiv_pos_as_xyz
  1  'x, y, z'
loop_
 _atom_site_type_symbol
 _atom_site_label
 _atom_site_symmetry_multiplicity
 _atom_site_fract_x
 _atom_site_fract_y
 _atom_site_fract_z
 _atom_site_occupancy
  Nd  Nd0  1  0.181805  0.181805  0.500000  1
  Sm  Sm1  1  0.818039  0.999851  0.500000  1
  Sm  Sm2  1  0.999851  0.818039  0.500000  1
  Sm  Sm3  1  0.333499  0.666843  0.000000  1
  Sm  Sm4  1  0.666843  0.333499  0.000000  1
  P  P5  1  0.812399  0.812399  0.000000  1
  P  P6  1  0.187391  0.999038  0.000000  1
  P  P7  1  0.999038  0.187391  0.000000  1
  P  P8  1  0.179022  0.478970  0.500000  1
  P  P9  1  0.521198  0.700209  0.500000  1
  P  P10  1  0.299965  0.820809  0.500000  1
  P  P11  1  0.700209  0.521198  0.500000  1
  P  P12  1  0.820809  0.299965  0.500000  1
  P  P13  1  0.478970  0.179022  0.500000  1
  P  P14  1  0.368916  0.368916  0.000000  1
  P  P15  1  0.631976  0.000011  0.000000  1
  P  P16  1  0.000011  0.631976  0.000000  1
  Pd  Pd17  1  0.553933  0.553933  0.000000  1
  Pd  Pd18  1  0.446496  0.999907  0.000000  1
  Pd  Pd19  1  0.999907  0.446496  0.000000  1
  Ru  Ru20  1  0.711490  0.711490  0.500000  1
  Ru  Ru21  1  0.288664  0.999455  0.500000  1
  Ru  Ru22  1  0.999455  0.288664  0.500000  1
  Ru  Ru23  1  0.185647  0.380228  0.000000  1
  Ru  Ru24  1  0.620724  0.806462  0.000000  1
  Ru  Ru25  1  0.193461  0.813999  0.000000  1
  Ru  Ru26  1  0.806462  0.620724  0.000000  1
  Ru  Ru27  1  0.813999  0.193461  0.000000  1
  Ru  Ru28  1  0.380228  0.185647  0.000000  1
  Ru  Ru29  1  0.369608  0.492793  0.500000  1
  Ru  Ru30  1  0.507595  0.876805  0.500000  1
  Ru  Ru31  1  0.123186  0.630678  0.500000  1
  Ru  Ru32  1  0.876805  0.507595  0.500000  1
  Ru  Ru33  1  0.630678  0.123186  0.500000  1
  Ru  Ru34  1  0.492793  0.369608  0.500000  1
  Ru  Ru35  1  0.998928  0.998928  0.000000  1
