# generated using pymatgen
data_LiPuBe26
_symmetry_space_group_name_H-M   'P 1'
_cell_length_a   7.17712300
_cell_length_b   7.17712326
_cell_length_c   7.17712300
_cell_angle_alpha   120.00000342
_cell_angle_beta   90.00000000
_cell_angle_gamma   120.00000342
_symmetry_Int_Tables_number   1
_chemical_formula_structural   LiPuBe26
_chemical_formula_sum   'Li1 Pu1 Be26'
_cell_volume   261.41839279
_cell_formula_units_Z   1
loop_
 _symmetry_equiv_pos_site_id
 _symmetry_equiv_pos_as_xyz
  1  'x, y, z'
loop_
 _atom_site_type_symbol
 _atom_site_label
 _atom_site_symmetry_multiplicity
 _atom_site_fract_x
 _atom_site_fract_y
 _atom_site_fract_z
 _atom_site_occupancy
  Li  Li0  1  0.750000  0.500000  0.250000  1
  Pu  Pu1  1  0.250000  0.500000  0.750000  1
  Be  Be2  1  0.000000  0.000000  0.000000  1
  Be  Be3  1  0.289073  0.996566  0.062992  1
  Be  Be4  1  0.066426  0.355500  0.062992  1
  Be  Be5  1  0.707492  0.773919  0.062992  1
  Be  Be6  1  0.562992  0.996566  0.207492  1
  Be  Be7  1  0.433574  0.644500  0.207492  1
  Be  Be8  1  0.210927  0.773919  0.207492  1
  Be  Be9  1  0.066426  0.003434  0.292508  1
  Be  Be10  1  0.937007  0.226080  0.292508  1
  Be  Be11  1  0.289073  0.355500  0.292508  1
  Be  Be12  1  0.792507  0.003434  0.437008  1
  Be  Be13  1  0.433574  0.226080  0.437008  1
  Be  Be14  1  0.210927  0.644500  0.437008  1
  Be  Be15  1  0.500000  0.000000  0.500000  1
  Be  Be16  1  0.210927  0.003434  0.566426  1
  Be  Be17  1  0.792507  0.355500  0.566426  1
  Be  Be18  1  0.562992  0.773919  0.566426  1
  Be  Be19  1  0.707492  0.644500  0.710927  1
  Be  Be20  1  0.066426  0.773919  0.710927  1
  Be  Be21  1  0.937008  0.003434  0.710928  1
  Be  Be22  1  0.433574  0.996566  0.789072  1
  Be  Be23  1  0.792507  0.226080  0.789072  1
  Be  Be24  1  0.562992  0.355500  0.789072  1
  Be  Be25  1  0.289073  0.226080  0.933573  1
  Be  Be26  1  0.937007  0.644500  0.933573  1
  Be  Be27  1  0.707493  0.996566  0.933574  1
