# generated using pymatgen
data_Li4Nd3PaRh4
_symmetry_space_group_name_H-M   'P 1'
_cell_length_a   3.94349200
_cell_length_b   7.14362074
_cell_length_c   8.62719795
_cell_angle_alpha   91.67554870
_cell_angle_beta   90.00000000
_cell_angle_gamma   90.00000000
_symmetry_Int_Tables_number   1
_chemical_formula_structural   Li4Nd3PaRh4
_chemical_formula_sum   'Li4 Nd3 Pa1 Rh4'
_cell_volume   242.93125034
_cell_formula_units_Z   1
loop_
 _symmetry_equiv_pos_site_id
 _symmetry_equiv_pos_as_xyz
  1  'x, y, z'
loop_
 _atom_site_type_symbol
 _atom_site_label
 _atom_site_symmetry_multiplicity
 _atom_site_fract_x
 _atom_site_fract_y
 _atom_site_fract_z
 _atom_site_occupancy
  Li  Li0  1  0.250000  0.607242  0.545736  1
  Li  Li1  1  0.750000  0.371447  0.448937  1
  Li  Li2  1  0.750000  0.892799  0.056968  1
  Li  Li3  1  0.250000  0.134443  0.951054  1
  Nd  Nd4  1  0.750000  0.446922  0.816424  1
  Nd  Nd5  1  0.750000  0.938933  0.680009  1
  Nd  Nd6  1  0.250000  0.050550  0.319533  1
  Pa  Pa7  1  0.250000  0.566953  0.168891  1
  Rh  Rh8  1  0.250000  0.735722  0.901287  1
  Rh  Rh9  1  0.750000  0.308010  0.136990  1
  Rh  Rh10  1  0.750000  0.726631  0.345809  1
  Rh  Rh11  1  0.250000  0.220347  0.628365  1
