# generated using pymatgen
data_Tm20Bi11Os
_symmetry_space_group_name_H-M   'P 1'
_cell_length_a   11.87981026
_cell_length_b   9.41920700
_cell_length_c   8.15690012
_cell_angle_alpha   90.00000000
_cell_angle_beta   89.72107191
_cell_angle_gamma   90.00000000
_symmetry_Int_Tables_number   1
_chemical_formula_structural   Tm20Bi11Os
_chemical_formula_sum   'Tm20 Bi11 Os1'
_cell_volume   912.73319086
_cell_formula_units_Z   1
loop_
 _symmetry_equiv_pos_site_id
 _symmetry_equiv_pos_as_xyz
  1  'x, y, z'
loop_
 _atom_site_type_symbol
 _atom_site_label
 _atom_site_symmetry_multiplicity
 _atom_site_fract_x
 _atom_site_fract_y
 _atom_site_fract_z
 _atom_site_occupancy
  Tm  Tm0  1  0.065825  0.063928  0.192110  1
  Tm  Tm1  1  0.440316  0.971379  0.684736  1
  Tm  Tm2  1  0.557414  0.424717  0.331416  1
  Tm  Tm3  1  0.934900  0.563747  0.810782  1
  Tm  Tm4  1  0.934900  0.936252  0.810782  1
  Tm  Tm5  1  0.557414  0.075282  0.331416  1
  Tm  Tm6  1  0.440316  0.528620  0.684736  1
  Tm  Tm7  1  0.065825  0.436071  0.192110  1
  Tm  Tm8  1  0.244516  0.250000  0.799513  1
  Tm  Tm9  1  0.269351  0.750000  0.314593  1
  Tm  Tm10  1  0.701453  0.250000  0.658926  1
  Tm  Tm11  1  0.773073  0.750000  0.175959  1
  Tm  Tm12  1  0.002546  0.250000  0.523141  1
  Tm  Tm13  1  0.493720  0.750000  0.011923  1
  Tm  Tm14  1  0.505773  0.250000  0.956819  1
  Tm  Tm15  1  0.991919  0.750000  0.480482  1
  Tm  Tm16  1  0.297412  0.250000  0.369850  1
  Tm  Tm17  1  0.213357  0.750000  0.834619  1
  Tm  Tm18  1  0.791807  0.250000  0.164318  1
  Tm  Tm19  1  0.711839  0.750000  0.660527  1
  Bi  Bi20  1  0.323872  0.010620  0.066961  1
  Bi  Bi21  1  0.171355  0.986589  0.562055  1
  Bi  Bi22  1  0.824721  0.493454  0.436254  1
  Bi  Bi23  1  0.678675  0.507706  0.943391  1
  Bi  Bi24  1  0.678675  0.992295  0.943391  1
  Bi  Bi25  1  0.824721  0.006547  0.436254  1
  Bi  Bi26  1  0.171355  0.513412  0.562055  1
  Bi  Bi27  1  0.323872  0.489381  0.066961  1
  Bi  Bi28  1  0.031150  0.750000  0.101279  1
  Bi  Bi29  1  0.979159  0.250000  0.899756  1
  Bi  Bi30  1  0.525314  0.750000  0.396506  1
  Os  Os31  1  0.473454  0.250000  0.596379  1
