# generated using pymatgen
data_Tb10Sn5BiCl2
_symmetry_space_group_name_H-M   'P 1'
_cell_length_a   9.18944933
_cell_length_b   9.18944971
_cell_length_c   6.57575100
_cell_angle_alpha   90.00000000
_cell_angle_beta   90.00000000
_cell_angle_gamma   120.19651034
_symmetry_Int_Tables_number   1
_chemical_formula_structural   Tb10Sn5BiCl2
_chemical_formula_sum   'Tb10 Sn5 Bi1 Cl2'
_cell_volume   479.94513956
_cell_formula_units_Z   1
loop_
 _symmetry_equiv_pos_site_id
 _symmetry_equiv_pos_as_xyz
  1  'x, y, z'
loop_
 _atom_site_type_symbol
 _atom_site_label
 _atom_site_symmetry_multiplicity
 _atom_site_fract_x
 _atom_site_fract_y
 _atom_site_fract_z
 _atom_site_occupancy
  Tb  Tb0  1  0.667743  0.330660  0.001431  1
  Tb  Tb1  1  0.330660  0.667743  0.498569  1
  Tb  Tb2  1  0.667743  0.330660  0.498569  1
  Tb  Tb3  1  0.330660  0.667743  0.001431  1
  Tb  Tb4  1  0.739025  0.004901  0.750000  1
  Tb  Tb5  1  0.738938  0.738938  0.250000  1
  Tb  Tb6  1  0.000357  0.262954  0.250000  1
  Tb  Tb7  1  0.004901  0.739025  0.750000  1
  Tb  Tb8  1  0.258519  0.258519  0.750000  1
  Tb  Tb9  1  0.262954  0.000357  0.250000  1
  Sn  Sn10  1  0.999408  0.610963  0.250000  1
  Sn  Sn11  1  0.610963  0.999408  0.250000  1
  Sn  Sn12  1  0.389978  0.000526  0.750000  1
  Sn  Sn13  1  0.000526  0.389978  0.750000  1
  Sn  Sn14  1  0.388552  0.388552  0.250000  1
  Bi  Bi15  1  0.611823  0.611823  0.750000  1
  Cl  Cl16  1  0.998622  0.998622  0.500660  1
  Cl  Cl17  1  0.998622  0.998622  0.999340  1
