# generated using pymatgen
data_Tb4Ga10(PdRh)3
_symmetry_space_group_name_H-M   'P 1'
_cell_length_a   8.66650472
_cell_length_b   8.66252195
_cell_length_c   5.67049932
_cell_angle_alpha   70.89482200
_cell_angle_beta   70.86429497
_cell_angle_gamma   96.23492744
_symmetry_Int_Tables_number   1
_chemical_formula_structural   Tb4Ga10(PdRh)3
_chemical_formula_sum   'Tb4 Ga10 Pd3 Rh3'
_cell_volume   368.74954466
_cell_formula_units_Z   1
loop_
 _symmetry_equiv_pos_site_id
 _symmetry_equiv_pos_as_xyz
  1  'x, y, z'
loop_
 _atom_site_type_symbol
 _atom_site_label
 _atom_site_symmetry_multiplicity
 _atom_site_fract_x
 _atom_site_fract_y
 _atom_site_fract_z
 _atom_site_occupancy
  Tb  Tb0  1  0.867964  0.581536  0.774356  1
  Tb  Tb1  1  0.416963  0.134838  0.724953  1
  Tb  Tb2  1  0.134802  0.417253  0.223191  1
  Tb  Tb3  1  0.581378  0.867966  0.275401  1
  Ga  Ga4  1  0.088765  0.267638  0.816854  1
  Ga  Ga5  1  0.737234  0.913685  0.678779  1
  Ga  Ga6  1  0.913703  0.737260  0.170938  1
  Ga  Ga7  1  0.267660  0.088868  0.326168  1
  Ga  Ga8  1  0.496240  0.495466  0.754248  1
  Ga  Ga9  1  0.495565  0.496274  0.253884  1
  Ga  Ga10  1  0.795231  0.200771  0.753301  1
  Ga  Ga11  1  0.794336  0.202096  0.250614  1
  Ga  Ga12  1  0.200240  0.796055  0.750581  1
  Ga  Ga13  1  0.202583  0.793337  0.253228  1
  Pd  Pd14  1  0.001534  0.001432  0.248709  1
  Pd  Pd15  1  0.441682  0.739440  0.906750  1
  Pd  Pd16  1  0.739524  0.441740  0.409375  1
  Rh  Rh17  1  0.560084  0.262820  0.088233  1
  Rh  Rh18  1  0.001331  0.001422  0.748629  1
  Rh  Rh19  1  0.263180  0.560105  0.591807  1
