# generated using pymatgen
data_Ho2LuMg3Ga2Hg
_symmetry_space_group_name_H-M   'P 1'
_cell_length_a   7.37183900
_cell_length_b   7.32962833
_cell_length_c   4.36920900
_cell_angle_alpha   90.00000000
_cell_angle_beta   90.00000000
_cell_angle_gamma   120.19069128
_symmetry_Int_Tables_number   1
_chemical_formula_structural   Ho2LuMg3Ga2Hg
_chemical_formula_sum   'Ho2 Lu1 Mg3 Ga2 Hg1'
_cell_volume   204.05795226
_cell_formula_units_Z   1
loop_
 _symmetry_equiv_pos_site_id
 _symmetry_equiv_pos_as_xyz
  1  'x, y, z'
loop_
 _atom_site_type_symbol
 _atom_site_label
 _atom_site_symmetry_multiplicity
 _atom_site_fract_x
 _atom_site_fract_y
 _atom_site_fract_z
 _atom_site_occupancy
  Ho  Ho0  1  0.000818  0.572962  0.000000  1
  Ho  Ho1  1  0.427856  0.427038  0.000000  1
  Lu  Lu2  1  0.573127  0.000000  0.000000  1
  Mg  Mg3  1  0.250214  0.000000  0.500000  1
  Mg  Mg4  1  0.999659  0.249986  0.500000  1
  Mg  Mg5  1  0.749673  0.750014  0.500000  1
  Ga  Ga6  1  0.335298  0.668778  0.500000  1
  Ga  Ga7  1  0.666521  0.331222  0.500000  1
  Hg  Hg8  1  0.996834  0.000000  0.000000  1
