# generated using pymatgen
data_Zn5FeB5Ir11
_symmetry_space_group_name_H-M   'P 1'
_cell_length_a   2.87421000
_cell_length_b   8.47870605
_cell_length_c   11.45627819
_cell_angle_alpha   89.75994875
_cell_angle_beta   90.00000000
_cell_angle_gamma   90.00000000
_symmetry_Int_Tables_number   1
_chemical_formula_structural   Zn5FeB5Ir11
_chemical_formula_sum   'Zn5 Fe1 B5 Ir11'
_cell_volume   279.18225710
_cell_formula_units_Z   1
loop_
 _symmetry_equiv_pos_site_id
 _symmetry_equiv_pos_as_xyz
  1  'x, y, z'
loop_
 _atom_site_type_symbol
 _atom_site_label
 _atom_site_symmetry_multiplicity
 _atom_site_fract_x
 _atom_site_fract_y
 _atom_site_fract_z
 _atom_site_occupancy
  Zn  Zn0  1  0.500000  0.346611  0.500778  1
  Zn  Zn1  1  0.500000  0.645950  0.498194  1
  Zn  Zn2  1  0.500000  0.999512  0.501995  1
  Zn  Zn3  1  0.500000  0.512686  0.003867  1
  Zn  Zn4  1  0.500000  0.988366  0.798006  1
  Fe  Fe5  1  0.500000  0.995072  0.195142  1
  B  B6  1  0.500000  0.316966  0.267834  1
  B  B7  1  0.500000  0.687994  0.255635  1
  B  B8  1  0.500000  0.682090  0.744291  1
  B  B9  1  0.500000  0.316782  0.735747  1
  B  B10  1  0.500000  0.178669  0.997871  1
  Ir  Ir11  1  0.000000  0.501559  0.315565  1
  Ir  Ir12  1  0.000000  0.499254  0.682994  1
  Ir  Ir13  1  0.000000  0.166281  0.352207  1
  Ir  Ir14  1  0.000000  0.830734  0.353456  1
  Ir  Ir15  1  0.000000  0.822448  0.643408  1
  Ir  Ir16  1  0.000000  0.168266  0.650776  1
  Ir  Ir17  1  0.000000  0.283951  0.123647  1
  Ir  Ir18  1  0.000000  0.730664  0.119864  1
  Ir  Ir19  1  0.000000  0.723483  0.881096  1
  Ir  Ir20  1  0.000000  0.298226  0.881303  1
  Ir  Ir21  1  0.000000  0.996436  0.996323  1
