# generated using pymatgen
data_Eu5W3O14
_symmetry_space_group_name_H-M   'P 1'
_cell_length_a   7.66148779
_cell_length_b   7.57069734
_cell_length_c   7.66148900
_cell_angle_alpha   59.60249607
_cell_angle_beta   59.99999911
_cell_angle_gamma   59.60249638
_symmetry_Int_Tables_number   1
_chemical_formula_structural   Eu5W3O14
_chemical_formula_sum   'Eu5 W3 O14'
_cell_volume   312.32843429
_cell_formula_units_Z   1
loop_
 _symmetry_equiv_pos_site_id
 _symmetry_equiv_pos_as_xyz
  1  'x, y, z'
loop_
 _atom_site_type_symbol
 _atom_site_label
 _atom_site_symmetry_multiplicity
 _atom_site_fract_x
 _atom_site_fract_y
 _atom_site_fract_z
 _atom_site_occupancy
  Eu  Eu0  1  0.125000  0.625000  0.125000  1
  Eu  Eu1  1  0.125000  0.125000  0.625000  1
  Eu  Eu2  1  0.625000  0.125000  0.125000  1
  Eu  Eu3  1  0.125000  0.125000  0.125000  1
  Eu  Eu4  1  0.625000  0.125000  0.625000  1
  W  W5  1  0.625000  0.625000  0.625000  1
  W  W6  1  0.125000  0.625000  0.625000  1
  W  W7  1  0.625000  0.625000  0.125000  1
  O  O8  1  0.310604  0.663234  0.715558  1
  O  O9  1  0.529199  0.943382  0.998219  1
  O  O10  1  0.715558  0.663234  0.310604  1
  O  O11  1  0.251781  0.306618  0.720801  1
  O  O12  1  0.001883  0.994353  0.001883  1
  O  O13  1  0.310604  0.663234  0.310604  1
  O  O14  1  0.720801  0.306618  0.720801  1
  O  O15  1  0.939396  0.586766  0.939396  1
  O  O16  1  0.534442  0.586766  0.939396  1
  O  O17  1  0.998219  0.943382  0.529199  1
  O  O18  1  0.248117  0.255647  0.248117  1
  O  O19  1  0.529199  0.943382  0.529199  1
  O  O20  1  0.720801  0.306618  0.251781  1
  O  O21  1  0.939396  0.586766  0.534442  1
