# generated using pymatgen
data_Sc3Ga2AgC
_symmetry_space_group_name_H-M   'P 1'
_cell_length_a   8.73374438
_cell_length_b   8.73379697
_cell_length_c   8.73392600
_cell_angle_alpha   59.99929917
_cell_angle_beta   59.99866821
_cell_angle_gamma   59.99854316
_symmetry_Int_Tables_number   1
_chemical_formula_structural   Sc3Ga2AgC
_chemical_formula_sum   'Sc12 Ga8 Ag4 C4'
_cell_volume   471.07127804
_cell_formula_units_Z   4
loop_
 _symmetry_equiv_pos_site_id
 _symmetry_equiv_pos_as_xyz
  1  'x, y, z'
loop_
 _atom_site_type_symbol
 _atom_site_label
 _atom_site_symmetry_multiplicity
 _atom_site_fract_x
 _atom_site_fract_y
 _atom_site_fract_z
 _atom_site_occupancy
  Sc  Sc0  1  0.809833  0.809808  0.190186  1
  Sc  Sc1  1  0.190188  0.190185  0.809818  1
  Sc  Sc2  1  0.809830  0.190181  0.809808  1
  Sc  Sc3  1  0.190192  0.809797  0.190174  1
  Sc  Sc4  1  0.190174  0.809789  0.809853  1
  Sc  Sc5  1  0.809806  0.190174  0.190193  1
  Sc  Sc6  1  0.440167  0.440192  0.059814  1
  Sc  Sc7  1  0.059812  0.059815  0.440182  1
  Sc  Sc8  1  0.440170  0.059819  0.440192  1
  Sc  Sc9  1  0.059808  0.440203  0.059826  1
  Sc  Sc10  1  0.059826  0.440211  0.440147  1
  Sc  Sc11  1  0.440194  0.059826  0.059807  1
  Ga  Ga12  1  0.752514  0.415830  0.415827  1
  Ga  Ga13  1  0.415827  0.752515  0.415829  1
  Ga  Ga14  1  0.415827  0.415830  0.752517  1
  Ga  Ga15  1  0.415827  0.415826  0.415828  1
  Ga  Ga16  1  0.497486  0.834170  0.834173  1
  Ga  Ga17  1  0.834173  0.497485  0.834171  1
  Ga  Ga18  1  0.834173  0.834170  0.497483  1
  Ga  Ga19  1  0.834173  0.834174  0.834172  1
  Ag  Ag20  1  0.125000  0.625000  0.625000  1
  Ag  Ag21  1  0.625000  0.125000  0.625000  1
  Ag  Ag22  1  0.625000  0.625000  0.125000  1
  Ag  Ag23  1  0.625000  0.625000  0.625000  1
  C  C24  1  0.625000  0.125000  0.125000  1
  C  C25  1  0.125000  0.625000  0.125000  1
  C  C26  1  0.125000  0.125000  0.625000  1
  C  C27  1  0.125000  0.125000  0.125000  1
