# generated using pymatgen
data_Ho2Tm3Lu5Bi6
_symmetry_space_group_name_H-M   'P 1'
_cell_length_a   8.16729400
_cell_length_b   9.40096500
_cell_length_c   11.87581200
_cell_angle_alpha   89.99741977
_cell_angle_beta   90.00000000
_cell_angle_gamma   90.00000000
_symmetry_Int_Tables_number   1
_chemical_formula_structural   Ho2Tm3Lu5Bi6
_chemical_formula_sum   'Ho4 Tm6 Lu10 Bi12'
_cell_volume   911.83013009
_cell_formula_units_Z   2
loop_
 _symmetry_equiv_pos_site_id
 _symmetry_equiv_pos_as_xyz
  1  'x, y, z'
loop_
 _atom_site_type_symbol
 _atom_site_label
 _atom_site_symmetry_multiplicity
 _atom_site_fract_x
 _atom_site_fract_y
 _atom_site_fract_z
 _atom_site_occupancy
  Ho  Ho0  1  0.313870  0.249988  0.217596  1
  Ho  Ho1  1  0.813870  0.250012  0.282404  1
  Ho  Ho2  1  0.686207  0.750028  0.782369  1
  Ho  Ho3  1  0.186207  0.749972  0.717631  1
  Tm  Tm4  1  0.353299  0.749987  0.217898  1
  Tm  Tm5  1  0.853299  0.750013  0.282102  1
  Tm  Tm6  1  0.646822  0.250062  0.782114  1
  Tm  Tm7  1  0.146822  0.249938  0.717886  1
  Tm  Tm8  1  0.692341  0.566614  0.059797  1
  Tm  Tm9  1  0.192341  0.933386  0.440203  1
  Lu  Lu10  1  0.307619  0.066974  0.940237  1
  Lu  Lu11  1  0.807619  0.433026  0.559763  1
  Lu  Lu12  1  0.307647  0.432990  0.940238  1
  Lu  Lu13  1  0.807647  0.067010  0.559762  1
  Lu  Lu14  1  0.692317  0.933157  0.059811  1
  Lu  Lu15  1  0.192317  0.566843  0.440189  1
  Lu  Lu16  1  0.477289  0.250066  0.489453  1
  Lu  Lu17  1  0.977289  0.249934  0.010547  1
  Lu  Lu18  1  0.522941  0.749906  0.510604  1
  Lu  Lu19  1  0.022941  0.750094  0.989396  1
  Bi  Bi20  1  0.403203  0.750146  0.958500  1
  Bi  Bi21  1  0.903203  0.749854  0.541500  1
  Bi  Bi22  1  0.596549  0.249589  0.041390  1
  Bi  Bi23  1  0.096549  0.250411  0.458610  1
  Bi  Bi24  1  0.566168  0.995404  0.326009  1
  Bi  Bi25  1  0.066168  0.504596  0.173991  1
  Bi  Bi26  1  0.433820  0.495390  0.673951  1
  Bi  Bi27  1  0.933820  0.004610  0.826049  1
  Bi  Bi28  1  0.433772  0.004585  0.673995  1
  Bi  Bi29  1  0.933772  0.495415  0.826005  1
  Bi  Bi30  1  0.566137  0.504566  0.326035  1
  Bi  Bi31  1  0.066137  0.995434  0.173965  1
