# generated using pymatgen
data_Zr5P12Ir4Ru15
_symmetry_space_group_name_H-M   'P 1'
_cell_length_a   12.46328700
_cell_length_b   12.46328798
_cell_length_c   3.91544000
_cell_angle_alpha   90.00000000
_cell_angle_beta   90.00000000
_cell_angle_gamma   120.00000005
_symmetry_Int_Tables_number   1
_chemical_formula_structural   Zr5P12Ir4Ru15
_chemical_formula_sum   'Zr5 P12 Ir4 Ru15'
_cell_volume   526.71590251
_cell_formula_units_Z   1
loop_
 _symmetry_equiv_pos_site_id
 _symmetry_equiv_pos_as_xyz
  1  'x, y, z'
loop_
 _atom_site_type_symbol
 _atom_site_label
 _atom_site_symmetry_multiplicity
 _atom_site_fract_x
 _atom_site_fract_y
 _atom_site_fract_z
 _atom_site_occupancy
  Zr  Zr0  1  0.333333  0.666667  0.000000  1
  Zr  Zr1  1  0.666667  0.333333  0.000000  1
  Zr  Zr2  1  0.808327  0.998506  0.500000  1
  Zr  Zr3  1  0.001494  0.809820  0.500000  1
  Zr  Zr4  1  0.190180  0.191673  0.500000  1
  P  P5  1  0.178215  0.996574  0.000000  1
  P  P6  1  0.003426  0.181641  0.000000  1
  P  P7  1  0.818359  0.821785  0.000000  1
  P  P8  1  0.173725  0.481313  0.500000  1
  P  P9  1  0.518687  0.692412  0.500000  1
  P  P10  1  0.307588  0.826275  0.500000  1
  P  P11  1  0.687336  0.517072  0.500000  1
  P  P12  1  0.829735  0.312664  0.500000  1
  P  P13  1  0.482928  0.170265  0.500000  1
  P  P14  1  0.628848  0.995322  0.000000  1
  P  P15  1  0.004678  0.633525  0.000000  1
  P  P16  1  0.366475  0.371152  0.000000  1
  Ir  Ir17  1  0.814342  0.630303  0.000000  1
  Ir  Ir18  1  0.815961  0.185658  0.000000  1
  Ir  Ir19  1  0.369697  0.184039  0.000000  1
  Ir  Ir20  1  0.000000  0.000000  0.000000  1
  Ru  Ru21  1  0.450042  0.006075  0.000000  1
  Ru  Ru22  1  0.993925  0.443966  0.000000  1
  Ru  Ru23  1  0.556034  0.549958  0.000000  1
  Ru  Ru24  1  0.365645  0.492544  0.500000  1
  Ru  Ru25  1  0.507456  0.873101  0.500000  1
  Ru  Ru26  1  0.126899  0.634355  0.500000  1
  Ru  Ru27  1  0.867844  0.508042  0.500000  1
  Ru  Ru28  1  0.640197  0.132156  0.500000  1
  Ru  Ru29  1  0.491958  0.359803  0.500000  1
  Ru  Ru30  1  0.181650  0.376332  0.000000  1
  Ru  Ru31  1  0.623668  0.805319  0.000000  1
  Ru  Ru32  1  0.194681  0.818350  0.000000  1
  Ru  Ru33  1  0.283118  0.001742  0.500000  1
  Ru  Ru34  1  0.998258  0.281376  0.500000  1
  Ru  Ru35  1  0.718624  0.716882  0.500000  1
