# generated using pymatgen
data_Zr4Si4IrRhAu2
_symmetry_space_group_name_H-M   'P 1'
_cell_length_a   3.96417900
_cell_length_b   6.70495595
_cell_length_c   7.67242773
_cell_angle_alpha   88.68322877
_cell_angle_beta   90.00000000
_cell_angle_gamma   90.00000000
_symmetry_Int_Tables_number   1
_chemical_formula_structural   Zr4Si4IrRhAu2
_chemical_formula_sum   'Zr4 Si4 Ir1 Rh1 Au2'
_cell_volume   203.87655702
_cell_formula_units_Z   1
loop_
 _symmetry_equiv_pos_site_id
 _symmetry_equiv_pos_as_xyz
  1  'x, y, z'
loop_
 _atom_site_type_symbol
 _atom_site_label
 _atom_site_symmetry_multiplicity
 _atom_site_fract_x
 _atom_site_fract_y
 _atom_site_fract_z
 _atom_site_occupancy
  Zr  Zr0  1  0.250000  0.522233  0.685871  1
  Zr  Zr1  1  0.750000  0.478140  0.314528  1
  Zr  Zr2  1  0.250000  0.023499  0.827767  1
  Zr  Zr3  1  0.750000  0.976581  0.171952  1
  Si  Si4  1  0.250000  0.272725  0.105646  1
  Si  Si5  1  0.750000  0.726499  0.894084  1
  Si  Si6  1  0.250000  0.752811  0.362792  1
  Si  Si7  1  0.750000  0.246943  0.636831  1
  Ir  Ir8  1  0.750000  0.359191  0.940035  1
  Rh  Rh9  1  0.250000  0.640678  0.060302  1
  Au  Au10  1  0.750000  0.847191  0.566097  1
  Au  Au11  1  0.250000  0.153509  0.434096  1
