# generated using pymatgen
data_Dy6Er14Cd6CoRu
_symmetry_space_group_name_H-M   'P 1'
_cell_length_a   9.51309700
_cell_length_b   9.51309754
_cell_length_c   9.76978400
_cell_angle_alpha   90.00000000
_cell_angle_beta   90.00000000
_cell_angle_gamma   120.00000162
_symmetry_Int_Tables_number   1
_chemical_formula_structural   Dy6Er14Cd6CoRu
_chemical_formula_sum   'Dy6 Er14 Cd6 Co1 Ru1'
_cell_volume   765.70143526
_cell_formula_units_Z   1
loop_
 _symmetry_equiv_pos_site_id
 _symmetry_equiv_pos_as_xyz
  1  'x, y, z'
loop_
 _atom_site_type_symbol
 _atom_site_label
 _atom_site_symmetry_multiplicity
 _atom_site_fract_x
 _atom_site_fract_y
 _atom_site_fract_z
 _atom_site_occupancy
  Dy  Dy0  1  0.541382  0.458618  0.250000  1
  Dy  Dy1  1  0.541382  0.082763  0.250000  1
  Dy  Dy2  1  0.917237  0.458618  0.250000  1
  Dy  Dy3  1  0.458640  0.541360  0.750000  1
  Dy  Dy4  1  0.458640  0.917280  0.750000  1
  Dy  Dy5  1  0.082720  0.541360  0.750000  1
  Er  Er6  1  0.000000  0.000000  0.499869  1
  Er  Er7  1  0.000000  0.000000  0.000131  1
  Er  Er8  1  0.212281  0.787719  0.435942  1
  Er  Er9  1  0.212281  0.424562  0.435942  1
  Er  Er10  1  0.575438  0.787719  0.435942  1
  Er  Er11  1  0.790591  0.209409  0.559748  1
  Er  Er12  1  0.790591  0.581184  0.559748  1
  Er  Er13  1  0.418816  0.209409  0.559748  1
  Er  Er14  1  0.790591  0.209409  0.940252  1
  Er  Er15  1  0.790591  0.581184  0.940252  1
  Er  Er16  1  0.418816  0.209409  0.940252  1
  Er  Er17  1  0.212281  0.787719  0.064058  1
  Er  Er18  1  0.212281  0.424562  0.064058  1
  Er  Er19  1  0.575438  0.787719  0.064058  1
  Cd  Cd20  1  0.885866  0.114134  0.250000  1
  Cd  Cd21  1  0.885866  0.771734  0.250000  1
  Cd  Cd22  1  0.228266  0.114134  0.250000  1
  Cd  Cd23  1  0.113941  0.886059  0.750000  1
  Cd  Cd24  1  0.113941  0.227881  0.750000  1
  Cd  Cd25  1  0.772119  0.886059  0.750000  1
  Co  Co26  1  0.333333  0.666667  0.250000  1
  Ru  Ru27  1  0.666667  0.333333  0.750000  1
