# generated using pymatgen
data_Rb2LuP2S7
_symmetry_space_group_name_H-M   'P 1'
_cell_length_a   9.34511910
_cell_length_b   9.34511928
_cell_length_c   9.11860538
_cell_angle_alpha   73.33617620
_cell_angle_beta   73.33617634
_cell_angle_gamma   71.74800257
_symmetry_Int_Tables_number   1
_chemical_formula_structural   Rb2LuP2S7
_chemical_formula_sum   'Rb4 Lu2 P4 S14'
_cell_volume   707.33469480
_cell_formula_units_Z   2
loop_
 _symmetry_equiv_pos_site_id
 _symmetry_equiv_pos_as_xyz
  1  'x, y, z'
loop_
 _atom_site_type_symbol
 _atom_site_label
 _atom_site_symmetry_multiplicity
 _atom_site_fract_x
 _atom_site_fract_y
 _atom_site_fract_z
 _atom_site_occupancy
  Rb  Rb0  1  0.609814  0.051033  0.162166  1
  Rb  Rb1  1  0.948967  0.390186  0.837834  1
  Rb  Rb2  1  0.390186  0.948967  0.837834  1
  Rb  Rb3  1  0.051033  0.609814  0.162166  1
  Lu  Lu4  1  0.683234  0.316766  0.500000  1
  Lu  Lu5  1  0.316766  0.683234  0.500000  1
  P  P6  1  0.943064  0.943064  0.441482  1
  P  P7  1  0.056936  0.056936  0.558518  1
  P  P8  1  0.391858  0.391858  0.816107  1
  P  P9  1  0.608142  0.608142  0.183893  1
  S  S10  1  0.686565  0.374410  0.195858  1
  S  S11  1  0.625590  0.313435  0.804142  1
  S  S12  1  0.313435  0.625590  0.804142  1
  S  S13  1  0.374410  0.686565  0.195858  1
  S  S14  1  0.997080  0.997080  0.208639  1
  S  S15  1  0.002920  0.002920  0.791361  1
  S  S16  1  0.709346  0.018060  0.531216  1
  S  S17  1  0.981940  0.290654  0.468784  1
  S  S18  1  0.290654  0.981940  0.468784  1
  S  S19  1  0.018060  0.709346  0.531216  1
  S  S20  1  0.271300  0.271300  0.001422  1
  S  S21  1  0.728700  0.728700  0.998578  1
  S  S22  1  0.366405  0.366405  0.600637  1
  S  S23  1  0.633595  0.633595  0.399363  1
