# generated using pymatgen
data_Tb3Tm5Pt4
_symmetry_space_group_name_H-M   'P 1'
_cell_length_a   4.75522900
_cell_length_b   7.11874024
_cell_length_c   8.73282530
_cell_angle_alpha   89.97008463
_cell_angle_beta   90.00000000
_cell_angle_gamma   90.00000000
_symmetry_Int_Tables_number   1
_chemical_formula_structural   Tb3Tm5Pt4
_chemical_formula_sum   'Tb3 Tm5 Pt4'
_cell_volume   295.61692513
_cell_formula_units_Z   1
loop_
 _symmetry_equiv_pos_site_id
 _symmetry_equiv_pos_as_xyz
  1  'x, y, z'
loop_
 _atom_site_type_symbol
 _atom_site_label
 _atom_site_symmetry_multiplicity
 _atom_site_fract_x
 _atom_site_fract_y
 _atom_site_fract_z
 _atom_site_occupancy
  Tb  Tb0  1  0.250000  0.491380  0.168924  1
  Tb  Tb1  1  0.750000  0.008229  0.670871  1
  Tb  Tb2  1  0.250000  0.991593  0.329520  1
  Tm  Tm3  1  0.750000  0.642354  0.421258  1
  Tm  Tm4  1  0.250000  0.358073  0.581410  1
  Tm  Tm5  1  0.750000  0.143364  0.078442  1
  Tm  Tm6  1  0.250000  0.855844  0.920154  1
  Tm  Tm7  1  0.750000  0.508557  0.832477  1
  Pt  Pt8  1  0.750000  0.243254  0.407649  1
  Pt  Pt9  1  0.250000  0.756270  0.591902  1
  Pt  Pt10  1  0.750000  0.743064  0.090342  1
  Pt  Pt11  1  0.250000  0.258021  0.907051  1
