# generated using pymatgen
data_Pr10ZnSn6I
_symmetry_space_group_name_H-M   'P 1'
_cell_length_a   9.69163100
_cell_length_b   9.69168757
_cell_length_c   6.78280600
_cell_angle_alpha   90.00051936
_cell_angle_beta   89.99973987
_cell_angle_gamma   120.00020269
_symmetry_Int_Tables_number   1
_chemical_formula_structural   Pr10ZnSn6I
_chemical_formula_sum   'Pr10 Zn1 Sn6 I1'
_cell_volume   551.74120154
_cell_formula_units_Z   1
loop_
 _symmetry_equiv_pos_site_id
 _symmetry_equiv_pos_as_xyz
  1  'x, y, z'
loop_
 _atom_site_type_symbol
 _atom_site_label
 _atom_site_symmetry_multiplicity
 _atom_site_fract_x
 _atom_site_fract_y
 _atom_site_fract_z
 _atom_site_occupancy
  Pr  Pr0  1  0.728679  0.728672  0.241123  1
  Pr  Pr1  1  0.333319  0.666660  0.500000  1
  Pr  Pr2  1  0.271321  0.271328  0.758877  1
  Pr  Pr3  1  0.000000  0.271328  0.241125  1
  Pr  Pr4  1  0.666681  0.333340  0.500000  1
  Pr  Pr5  1  0.271321  0.999994  0.241123  1
  Pr  Pr6  1  0.728679  0.000006  0.758877  1
  Pr  Pr7  1  0.333315  0.666658  0.000000  1
  Pr  Pr8  1  0.666685  0.333342  0.000000  1
  Pr  Pr9  1  0.000000  0.728672  0.758875  1
  Zn  Zn10  1  0.000000  0.000000  0.000000  1
  Sn  Sn11  1  0.381044  0.381043  0.249730  1
  Sn  Sn12  1  0.618956  0.618957  0.750270  1
  Sn  Sn13  1  0.381044  0.000001  0.750270  1
  Sn  Sn14  1  0.000000  0.618957  0.249730  1
  Sn  Sn15  1  0.618956  0.999999  0.249730  1
  Sn  Sn16  1  0.000000  0.381043  0.750270  1
  I  I17  1  0.000000  0.000000  0.500000  1
