# generated using pymatgen
data_ErLu11GaCo5
_symmetry_space_group_name_H-M   'P 1'
_cell_length_a   8.04328345
_cell_length_b   8.03961162
_cell_length_c   8.04328332
_cell_angle_alpha   110.94987765
_cell_angle_beta   110.99311856
_cell_angle_gamma   106.52813120
_symmetry_Int_Tables_number   1
_chemical_formula_structural   ErLu11GaCo5
_chemical_formula_sum   'Er1 Lu11 Ga1 Co5'
_cell_volume   399.50855146
_cell_formula_units_Z   1
loop_
 _symmetry_equiv_pos_site_id
 _symmetry_equiv_pos_as_xyz
  1  'x, y, z'
loop_
 _atom_site_type_symbol
 _atom_site_label
 _atom_site_symmetry_multiplicity
 _atom_site_fract_x
 _atom_site_fract_y
 _atom_site_fract_z
 _atom_site_occupancy
  Er  Er0  1  0.782243  0.973727  0.191485  1
  Lu  Lu1  1  0.288163  0.186741  0.474285  1
  Lu  Lu2  1  0.713524  0.814140  0.528431  1
  Lu  Lu3  1  0.285709  0.814140  0.100616  1
  Lu  Lu4  1  0.712456  0.186741  0.898578  1
  Lu  Lu5  1  0.617910  0.316263  0.302569  1
  Lu  Lu6  1  0.381022  0.683315  0.696441  1
  Lu  Lu7  1  0.013695  0.316263  0.698352  1
  Lu  Lu8  1  0.986872  0.683315  0.302293  1
  Lu  Lu9  1  0.218079  0.409419  0.191342  1
  Lu  Lu10  1  0.781479  0.588782  0.807303  1
  Lu  Lu11  1  0.218436  0.026334  0.807898  1
  Ga  Ga12  1  0.499479  0.499189  0.999710  1
  Co  Co13  1  0.000452  0.375378  0.374925  1
  Co  Co14  1  0.999609  0.626151  0.626541  1
  Co  Co15  1  0.385651  0.885643  0.499992  1
  Co  Co16  1  0.614125  0.115476  0.501351  1
  Co  Co17  1  0.001095  0.998983  0.997888  1
