# generated using pymatgen
data_Li2Co(BRh)2
_symmetry_space_group_name_H-M   'P 1'
_cell_length_a   2.79814700
_cell_length_b   5.81501800
_cell_length_c   8.97244800
_cell_angle_alpha   90.00000000
_cell_angle_beta   90.00000000
_cell_angle_gamma   90.00000000
_symmetry_Int_Tables_number   1
_chemical_formula_structural   Li2Co(BRh)2
_chemical_formula_sum   'Li4 Co2 B4 Rh4'
_cell_volume   145.99317037
_cell_formula_units_Z   2
loop_
 _symmetry_equiv_pos_site_id
 _symmetry_equiv_pos_as_xyz
  1  'x, y, z'
loop_
 _atom_site_type_symbol
 _atom_site_label
 _atom_site_symmetry_multiplicity
 _atom_site_fract_x
 _atom_site_fract_y
 _atom_site_fract_z
 _atom_site_occupancy
  Li  Li0  1  0.500000  0.330993  0.066466  1
  Li  Li1  1  0.500000  0.669007  0.933534  1
  Li  Li2  1  0.500000  0.169007  0.566466  1
  Li  Li3  1  0.500000  0.830993  0.433534  1
  Co  Co4  1  0.000000  0.500000  0.500000  1
  Co  Co5  1  0.000000  0.000000  0.000000  1
  B  B6  1  0.500000  0.061378  0.838010  1
  B  B7  1  0.500000  0.561378  0.661990  1
  B  B8  1  0.500000  0.438622  0.338010  1
  B  B9  1  0.500000  0.938622  0.161990  1
  Rh  Rh10  1  0.000000  0.333542  0.782782  1
  Rh  Rh11  1  0.000000  0.166458  0.282782  1
  Rh  Rh12  1  0.000000  0.666458  0.217218  1
  Rh  Rh13  1  0.000000  0.833542  0.717218  1
