# generated using pymatgen
data_Rb2Pa4S7
_symmetry_space_group_name_H-M   'P 1'
_cell_length_a   3.97619400
_cell_length_b   12.65644809
_cell_length_c   14.33369079
_cell_angle_alpha   84.95367900
_cell_angle_beta   90.00000000
_cell_angle_gamma   90.00000000
_symmetry_Int_Tables_number   1
_chemical_formula_structural   Rb2Pa4S7
_chemical_formula_sum   'Rb4 Pa8 S14'
_cell_volume   718.53975961
_cell_formula_units_Z   2
loop_
 _symmetry_equiv_pos_site_id
 _symmetry_equiv_pos_as_xyz
  1  'x, y, z'
loop_
 _atom_site_type_symbol
 _atom_site_label
 _atom_site_symmetry_multiplicity
 _atom_site_fract_x
 _atom_site_fract_y
 _atom_site_fract_z
 _atom_site_occupancy
  Rb  Rb0  1  0.250000  0.567225  0.828810  1
  Rb  Rb1  1  0.750000  0.432775  0.171190  1
  Rb  Rb2  1  0.750000  0.833283  0.626477  1
  Rb  Rb3  1  0.250000  0.166717  0.373523  1
  Pa  Pa4  1  0.250000  0.836792  0.270198  1
  Pa  Pa5  1  0.750000  0.163208  0.729802  1
  Pa  Pa6  1  0.750000  0.607122  0.425552  1
  Pa  Pa7  1  0.250000  0.392878  0.574448  1
  Pa  Pa8  1  0.750000  0.753669  0.060932  1
  Pa  Pa9  1  0.250000  0.246331  0.939068  1
  Pa  Pa10  1  0.250000  0.959669  0.896294  1
  Pa  Pa11  1  0.750000  0.040331  0.103706  1
  S  S12  1  0.250000  0.614260  0.047232  1
  S  S13  1  0.750000  0.385740  0.952768  1
  S  S14  1  0.750000  0.983264  0.296673  1
  S  S15  1  0.250000  0.016736  0.703327  1
  S  S16  1  0.750000  0.687954  0.244873  1
  S  S17  1  0.250000  0.312046  0.755127  1
  S  S18  1  0.750000  0.809935  0.868648  1
  S  S19  1  0.250000  0.190065  0.131352  1
  S  S20  1  0.250000  0.897169  0.083836  1
  S  S21  1  0.750000  0.102831  0.916164  1
  S  S22  1  0.250000  0.754286  0.455958  1
  S  S23  1  0.750000  0.245714  0.544042  1
  S  S24  1  0.250000  0.462641  0.385481  1
  S  S25  1  0.750000  0.537359  0.614519  1
