# generated using pymatgen
data_HfZrCl8
_symmetry_space_group_name_H-M   'P 1'
_cell_length_a   7.98566200
_cell_length_b   6.35362490
_cell_length_c   6.94368400
_cell_angle_alpha   72.08818581
_cell_angle_beta   90.00000000
_cell_angle_gamma   90.00000000
_symmetry_Int_Tables_number   1
_chemical_formula_structural   HfZrCl8
_chemical_formula_sum   'Hf1 Zr1 Cl8'
_cell_volume   335.23193987
_cell_formula_units_Z   1
loop_
 _symmetry_equiv_pos_site_id
 _symmetry_equiv_pos_as_xyz
  1  'x, y, z'
loop_
 _atom_site_type_symbol
 _atom_site_label
 _atom_site_symmetry_multiplicity
 _atom_site_fract_x
 _atom_site_fract_y
 _atom_site_fract_z
 _atom_site_occupancy
  Hf  Hf0  1  0.652208  0.750000  0.500000  1
  Zr  Zr1  1  0.346186  0.250000  0.500000  1
  Cl  Cl2  1  0.601661  0.497235  0.294731  1
  Cl  Cl3  1  0.601661  0.002765  0.705269  1
  Cl  Cl4  1  0.839664  0.963348  0.265406  1
  Cl  Cl5  1  0.839664  0.536652  0.734594  1
  Cl  Cl6  1  0.158255  0.034407  0.737935  1
  Cl  Cl7  1  0.158255  0.465593  0.262065  1
  Cl  Cl8  1  0.401223  0.992396  0.293722  1
  Cl  Cl9  1  0.401223  0.507604  0.706278  1
