# generated using pymatgen
data_Nd2Be23Au3
_symmetry_space_group_name_H-M   'P 1'
_cell_length_a   7.49462600
_cell_length_b   7.49462609
_cell_length_c   7.63077497
_cell_angle_alpha   119.41151759
_cell_angle_beta   90.00000000
_cell_angle_gamma   119.99999959
_symmetry_Int_Tables_number   1
_chemical_formula_structural   Nd2Be23Au3
_chemical_formula_sum   'Nd2 Be23 Au3'
_cell_volume   305.74535232
_cell_formula_units_Z   1
loop_
 _symmetry_equiv_pos_site_id
 _symmetry_equiv_pos_as_xyz
  1  'x, y, z'
loop_
 _atom_site_type_symbol
 _atom_site_label
 _atom_site_symmetry_multiplicity
 _atom_site_fract_x
 _atom_site_fract_y
 _atom_site_fract_z
 _atom_site_occupancy
  Nd  Nd0  1  0.757225  0.514453  0.271679  1
  Nd  Nd1  1  0.245833  0.491666  0.737498  1
  Be  Be2  1  0.997126  0.994251  0.991377  1
  Be  Be3  1  0.436701  0.011059  0.235163  1
  Be  Be4  1  0.224104  0.660805  0.235163  1
  Be  Be5  1  0.574358  0.798463  0.235164  1
  Be  Be6  1  0.290557  0.229819  0.304491  1
  Be  Be7  1  0.074672  0.365231  0.304491  1
  Be  Be8  1  0.939260  0.013933  0.304491  1
  Be  Be9  1  0.216564  0.002188  0.441869  1
  Be  Be10  1  0.439681  0.656245  0.441869  1
  Be  Be11  1  0.785623  0.225305  0.441869  1
  Be  Be12  1  0.501306  0.002611  0.503917  1
  Be  Be13  1  0.787505  0.002715  0.565903  1
  Be  Be14  1  0.563189  0.350694  0.565904  1
  Be  Be15  1  0.215210  0.778399  0.565904  1
  Be  Be16  1  0.932968  0.641468  0.698059  1
  Be  Be17  1  0.056591  0.989559  0.698060  1
  Be  Be18  1  0.708501  0.765092  0.698060  1
  Be  Be19  1  0.561778  0.993444  0.768638  1
  Be  Be20  1  0.431666  0.206860  0.768638  1
  Be  Be21  1  0.775194  0.336973  0.768638  1
  Be  Be22  1  0.302598  0.989078  0.927989  1
  Be  Be23  1  0.686479  0.625390  0.927989  1
  Be  Be24  1  0.938911  0.241509  0.927990  1
  Au  Au25  1  0.310233  0.359724  0.056394  1
  Au  Au26  1  0.696670  0.006904  0.056395  1
  Au  Au27  1  0.049491  0.746161  0.056395  1
