# generated using pymatgen
data_RbZrFeF7
_symmetry_space_group_name_H-M   'P 1'
_cell_length_a   6.50160783
_cell_length_b   6.50160847
_cell_length_c   8.36815100
_cell_angle_alpha   90.00000000
_cell_angle_beta   90.00000000
_cell_angle_gamma   118.21864831
_symmetry_Int_Tables_number   1
_chemical_formula_structural   RbZrFeF7
_chemical_formula_sum   'Rb2 Zr2 Fe2 F14'
_cell_volume   311.68847205
_cell_formula_units_Z   2
loop_
 _symmetry_equiv_pos_site_id
 _symmetry_equiv_pos_as_xyz
  1  'x, y, z'
loop_
 _atom_site_type_symbol
 _atom_site_label
 _atom_site_symmetry_multiplicity
 _atom_site_fract_x
 _atom_site_fract_y
 _atom_site_fract_z
 _atom_site_occupancy
  Rb  Rb0  1  0.500000  0.500000  0.500000  1
  Rb  Rb1  1  0.500000  0.500000  0.000000  1
  Zr  Zr2  1  0.809172  0.190828  0.250000  1
  Zr  Zr3  1  0.190828  0.809172  0.750000  1
  Fe  Fe4  1  0.190658  0.809342  0.250000  1
  Fe  Fe5  1  0.809342  0.190658  0.750000  1
  F  F6  1  0.839254  0.551846  0.750000  1
  F  F7  1  0.160746  0.448154  0.250000  1
  F  F8  1  0.160357  0.463465  0.750000  1
  F  F9  1  0.800213  0.199787  0.495341  1
  F  F10  1  0.448154  0.160746  0.750000  1
  F  F11  1  0.800213  0.199787  0.004659  1
  F  F12  1  0.199787  0.800213  0.995341  1
  F  F13  1  0.839643  0.536535  0.250000  1
  F  F14  1  0.551846  0.839254  0.250000  1
  F  F15  1  0.994104  0.005896  0.250000  1
  F  F16  1  0.005896  0.994104  0.750000  1
  F  F17  1  0.199787  0.800213  0.504659  1
  F  F18  1  0.536535  0.839643  0.750000  1
  F  F19  1  0.463465  0.160357  0.250000  1
