# generated using pymatgen
data_Lu20Cd5InIr2
_symmetry_space_group_name_H-M   'P 1'
_cell_length_a   9.49674900
_cell_length_b   9.49674185
_cell_length_c   9.58308400
_cell_angle_alpha   90.00000000
_cell_angle_beta   90.00000000
_cell_angle_gamma   120.14463400
_symmetry_Int_Tables_number   1
_chemical_formula_structural   Lu20Cd5InIr2
_chemical_formula_sum   'Lu20 Cd5 In1 Ir2'
_cell_volume   747.39591387
_cell_formula_units_Z   1
loop_
 _symmetry_equiv_pos_site_id
 _symmetry_equiv_pos_as_xyz
  1  'x, y, z'
loop_
 _atom_site_type_symbol
 _atom_site_label
 _atom_site_symmetry_multiplicity
 _atom_site_fract_x
 _atom_site_fract_y
 _atom_site_fract_z
 _atom_site_occupancy
  Lu  Lu0  1  0.001855  0.998145  0.502370  1
  Lu  Lu1  1  0.001855  0.998145  0.997630  1
  Lu  Lu2  1  0.539356  0.460644  0.250000  1
  Lu  Lu3  1  0.537177  0.082435  0.250000  1
  Lu  Lu4  1  0.917565  0.462823  0.250000  1
  Lu  Lu5  1  0.458096  0.541904  0.750000  1
  Lu  Lu6  1  0.459709  0.918684  0.750000  1
  Lu  Lu7  1  0.081315  0.540291  0.750000  1
  Lu  Lu8  1  0.209436  0.790564  0.440209  1
  Lu  Lu9  1  0.207889  0.417206  0.439319  1
  Lu  Lu10  1  0.582794  0.792111  0.439319  1
  Lu  Lu11  1  0.791263  0.208737  0.558872  1
  Lu  Lu12  1  0.789987  0.581390  0.560325  1
  Lu  Lu13  1  0.418610  0.210013  0.560325  1
  Lu  Lu14  1  0.791263  0.208737  0.941128  1
  Lu  Lu15  1  0.789987  0.581390  0.939675  1
  Lu  Lu16  1  0.418610  0.210013  0.939675  1
  Lu  Lu17  1  0.209436  0.790564  0.059791  1
  Lu  Lu18  1  0.207889  0.417206  0.060681  1
  Lu  Lu19  1  0.582794  0.792111  0.060681  1
  Cd  Cd20  1  0.886079  0.770204  0.250000  1
  Cd  Cd21  1  0.229796  0.113921  0.250000  1
  Cd  Cd22  1  0.115653  0.884348  0.750000  1
  Cd  Cd23  1  0.114681  0.230076  0.750000  1
  Cd  Cd24  1  0.769924  0.885319  0.750000  1
  In  In25  1  0.885068  0.114931  0.250000  1
  Ir  Ir26  1  0.333767  0.666233  0.250000  1
  Ir  Ir27  1  0.668144  0.331856  0.750000  1
