# generated using pymatgen
data_Tb2Tm4Al24ZnOs7
_symmetry_space_group_name_H-M   'P 1'
_cell_length_a   8.85501339
_cell_length_b   8.84510954
_cell_length_c   9.52949884
_cell_angle_alpha   89.92943725
_cell_angle_beta   89.95302105
_cell_angle_gamma   120.09919833
_symmetry_Int_Tables_number   1
_chemical_formula_structural   Tb2Tm4Al24ZnOs7
_chemical_formula_sum   'Tb2 Tm4 Al24 Zn1 Os7'
_cell_volume   645.73929966
_cell_formula_units_Z   1
loop_
 _symmetry_equiv_pos_site_id
 _symmetry_equiv_pos_as_xyz
  1  'x, y, z'
loop_
 _atom_site_type_symbol
 _atom_site_label
 _atom_site_symmetry_multiplicity
 _atom_site_fract_x
 _atom_site_fract_y
 _atom_site_fract_z
 _atom_site_occupancy
  Tb  Tb0  1  0.191565  0.385584  0.247804  1
  Tb  Tb1  1  0.808435  0.614416  0.752196  1
  Tm  Tm2  1  0.611906  0.808283  0.248995  1
  Tm  Tm3  1  0.388094  0.191717  0.751005  1
  Tm  Tm4  1  0.195690  0.804318  0.253648  1
  Tm  Tm5  1  0.804310  0.195682  0.746352  1
  Al  Al6  1  0.329977  0.670802  0.022562  1
  Al  Al7  1  0.670023  0.329198  0.977438  1
  Al  Al8  1  0.665673  0.333712  0.518227  1
  Al  Al9  1  0.334327  0.666288  0.481773  1
  Al  Al10  1  0.162655  0.325880  0.574529  1
  Al  Al11  1  0.837345  0.674120  0.425471  1
  Al  Al12  1  0.674012  0.837590  0.573951  1
  Al  Al13  1  0.848840  0.677329  0.081899  1
  Al  Al14  1  0.325988  0.162410  0.426049  1
  Al  Al15  1  0.151160  0.322671  0.918101  1
  Al  Al16  1  0.163171  0.837388  0.575254  1
  Al  Al17  1  0.322568  0.150516  0.081182  1
  Al  Al18  1  0.836829  0.162612  0.424746  1
  Al  Al19  1  0.677432  0.849484  0.918818  1
  Al  Al20  1  0.835895  0.162756  0.076180  1
  Al  Al21  1  0.164105  0.837244  0.923820  1
  Al  Al22  1  0.561304  0.120830  0.249230  1
  Al  Al23  1  0.438696  0.879170  0.750770  1
  Al  Al24  1  0.878095  0.438878  0.249397  1
  Al  Al25  1  0.121905  0.561122  0.750603  1
  Al  Al26  1  0.564267  0.437217  0.254358  1
  Al  Al27  1  0.435733  0.562783  0.745642  1
  Al  Al28  1  0.998391  0.999217  0.250525  1
  Al  Al29  1  0.001609  0.000783  0.749475  1
  Zn  Zn30  1  0.500000  0.500000  0.000000  1
  Os  Os31  1  0.500000  0.000000  0.000000  1
  Os  Os32  1  0.000000  0.500000  0.000000  1
  Os  Os33  1  0.500000  0.000000  0.500000  1
  Os  Os34  1  0.000000  0.500000  0.500000  1
  Os  Os35  1  0.500000  0.500000  0.500000  1
  Os  Os36  1  0.000000  0.000000  0.000000  1
  Os  Os37  1  0.000000  0.000000  0.500000  1
