# generated using pymatgen
data_HoPa3(GaOs)4
_symmetry_space_group_name_H-M   'P 1'
_cell_length_a   4.23048200
_cell_length_b   6.77189702
_cell_length_c   8.01356284
_cell_angle_alpha   89.85091501
_cell_angle_beta   90.00000000
_cell_angle_gamma   90.00000000
_symmetry_Int_Tables_number   1
_chemical_formula_structural   HoPa3(GaOs)4
_chemical_formula_sum   'Ho1 Pa3 Ga4 Os4'
_cell_volume   229.57488369
_cell_formula_units_Z   1
loop_
 _symmetry_equiv_pos_site_id
 _symmetry_equiv_pos_as_xyz
  1  'x, y, z'
loop_
 _atom_site_type_symbol
 _atom_site_label
 _atom_site_symmetry_multiplicity
 _atom_site_fract_x
 _atom_site_fract_y
 _atom_site_fract_z
 _atom_site_occupancy
  Ho  Ho0  1  0.750000  0.469024  0.310516  1
  Pa  Pa1  1  0.250000  0.029229  0.809035  1
  Pa  Pa2  1  0.250000  0.531818  0.684527  1
  Pa  Pa3  1  0.750000  0.965016  0.189326  1
  Ga  Ga4  1  0.250000  0.158945  0.434050  1
  Ga  Ga5  1  0.250000  0.637952  0.068052  1
  Ga  Ga6  1  0.750000  0.853181  0.560050  1
  Ga  Ga7  1  0.750000  0.353809  0.943451  1
  Os  Os8  1  0.250000  0.766978  0.381257  1
  Os  Os9  1  0.250000  0.235717  0.110605  1
  Os  Os10  1  0.750000  0.250284  0.630929  1
  Os  Os11  1  0.750000  0.748048  0.878200  1
