# generated using pymatgen
data_NdTh3(Sc3Ge4)2
_symmetry_space_group_name_H-M   'P 1'
_cell_length_a   7.46008422
_cell_length_b   7.58618313
_cell_length_c   14.24566682
_cell_angle_alpha   90.02914129
_cell_angle_beta   89.89162185
_cell_angle_gamma   89.94473660
_symmetry_Int_Tables_number   1
_chemical_formula_structural   NdTh3(Sc3Ge4)2
_chemical_formula_sum   'Nd2 Th6 Sc12 Ge16'
_cell_volume   806.21114859
_cell_formula_units_Z   2
loop_
 _symmetry_equiv_pos_site_id
 _symmetry_equiv_pos_as_xyz
  1  'x, y, z'
loop_
 _atom_site_type_symbol
 _atom_site_label
 _atom_site_symmetry_multiplicity
 _atom_site_fract_x
 _atom_site_fract_y
 _atom_site_fract_z
 _atom_site_occupancy
  Nd  Nd0  1  0.995132  0.175293  0.096569  1
  Nd  Nd1  1  0.004868  0.824707  0.903431  1
  Th  Th2  1  0.504893  0.674781  0.903950  1
  Th  Th3  1  0.005855  0.824730  0.596069  1
  Th  Th4  1  0.495107  0.325219  0.096050  1
  Th  Th5  1  0.994145  0.175270  0.403931  1
  Th  Th6  1  0.494107  0.324483  0.403743  1
  Th  Th7  1  0.505893  0.675517  0.596257  1
  Sc  Sc8  1  0.173756  0.498207  0.749861  1
  Sc  Sc9  1  0.826244  0.501793  0.250139  1
  Sc  Sc10  1  0.326348  0.998740  0.250046  1
  Sc  Sc11  1  0.673652  0.001260  0.749954  1
  Sc  Sc12  1  0.342242  0.165042  0.625416  1
  Sc  Sc13  1  0.657758  0.834958  0.374584  1
  Sc  Sc14  1  0.157057  0.665401  0.374721  1
  Sc  Sc15  1  0.656984  0.834464  0.125522  1
  Sc  Sc16  1  0.842943  0.334599  0.625279  1
  Sc  Sc17  1  0.343016  0.165536  0.874478  1
  Sc  Sc18  1  0.842409  0.334596  0.874598  1
  Sc  Sc19  1  0.157591  0.665404  0.125402  1
  Ge  Ge20  1  0.183479  0.456897  0.543327  1
  Ge  Ge21  1  0.816521  0.543103  0.456673  1
  Ge  Ge22  1  0.317050  0.956875  0.456810  1
  Ge  Ge23  1  0.817126  0.543094  0.043275  1
  Ge  Ge24  1  0.682950  0.043125  0.543190  1
  Ge  Ge25  1  0.182874  0.456906  0.956725  1
  Ge  Ge26  1  0.680539  0.042710  0.956171  1
  Ge  Ge27  1  0.319461  0.957290  0.043829  1
  Ge  Ge28  1  0.038910  0.132120  0.749565  1
  Ge  Ge29  1  0.961090  0.867880  0.250435  1
  Ge  Ge30  1  0.460978  0.631232  0.250071  1
  Ge  Ge31  1  0.539022  0.368768  0.749929  1
  Ge  Ge32  1  0.311098  0.865850  0.750104  1
  Ge  Ge33  1  0.688902  0.134150  0.249896  1
  Ge  Ge34  1  0.188515  0.365431  0.249916  1
  Ge  Ge35  1  0.811485  0.634569  0.750084  1
