# generated using pymatgen
data_Ho5Tm5(InBi)3
_symmetry_space_group_name_H-M   'P 1'
_cell_length_a   6.50294100
_cell_length_b   8.98345317
_cell_length_c   8.99210200
_cell_angle_alpha   120.02481566
_cell_angle_beta   89.99979571
_cell_angle_gamma   90.00011418
_symmetry_Int_Tables_number   1
_chemical_formula_structural   Ho5Tm5(InBi)3
_chemical_formula_sum   'Ho5 Tm5 In3 Bi3'
_cell_volume   454.81661838
_cell_formula_units_Z   1
loop_
 _symmetry_equiv_pos_site_id
 _symmetry_equiv_pos_as_xyz
  1  'x, y, z'
loop_
 _atom_site_type_symbol
 _atom_site_label
 _atom_site_symmetry_multiplicity
 _atom_site_fract_x
 _atom_site_fract_y
 _atom_site_fract_z
 _atom_site_occupancy
  Ho  Ho0  1  0.749998  0.236172  0.999882  1
  Ho  Ho1  1  0.749995  0.763604  0.763578  1
  Ho  Ho2  1  0.749998  0.999912  0.236602  1
  Ho  Ho3  1  0.250002  0.762086  0.999896  1
  Ho  Ho4  1  0.249998  0.238122  0.237932  1
  Tm  Tm5  1  0.492344  0.333251  0.666678  1
  Tm  Tm6  1  0.492340  0.666754  0.333440  1
  Tm  Tm7  1  0.007656  0.666756  0.333447  1
  Tm  Tm8  1  0.007662  0.333249  0.666679  1
  Tm  Tm9  1  0.249997  0.000089  0.761772  1
  In  In10  1  0.249999  0.393684  0.999751  1
  In  In11  1  0.250002  0.606464  0.606196  1
  In  In12  1  0.250001  0.000019  0.394221  1
  Bi  Bi13  1  0.750006  0.603153  0.999969  1
  Bi  Bi14  1  0.750000  0.396710  0.396696  1
  Bi  Bi15  1  0.750000  0.999977  0.603263  1
