# generated using pymatgen
data_Ti3Mn(Co3Si)2
_symmetry_space_group_name_H-M   'P 1'
_cell_length_a   4.07535300
_cell_length_b   5.79957000
_cell_length_c   12.24646300
_cell_angle_alpha   90.00000000
_cell_angle_beta   90.00036065
_cell_angle_gamma   90.00000000
_symmetry_Int_Tables_number   1
_chemical_formula_structural   Ti3Mn(Co3Si)2
_chemical_formula_sum   'Ti6 Mn2 Co12 Si4'
_cell_volume   289.44876569
_cell_formula_units_Z   2
loop_
 _symmetry_equiv_pos_site_id
 _symmetry_equiv_pos_as_xyz
  1  'x, y, z'
loop_
 _atom_site_type_symbol
 _atom_site_label
 _atom_site_symmetry_multiplicity
 _atom_site_fract_x
 _atom_site_fract_y
 _atom_site_fract_z
 _atom_site_occupancy
  Ti  Ti0  1  0.000003  0.499999  0.001261  1
  Ti  Ti1  1  0.500067  0.000000  0.167832  1
  Ti  Ti2  1  0.000067  0.499999  0.332247  1
  Ti  Ti3  1  0.500008  0.000000  0.498668  1
  Ti  Ti4  1  0.999935  0.499999  0.666804  1
  Ti  Ti5  1  0.499931  0.000000  0.833179  1
  Mn  Mn6  1  0.999925  0.000000  0.666215  1
  Mn  Mn7  1  0.499950  0.499999  0.833801  1
  Co  Co8  1  0.500001  0.246750  0.003772  1
  Co  Co9  1  0.500001  0.753249  0.003772  1
  Co  Co10  1  0.000069  0.248674  0.167789  1
  Co  Co11  1  0.000069  0.751325  0.167789  1
  Co  Co12  1  0.500069  0.251351  0.332254  1
  Co  Co13  1  0.500069  0.748650  0.332254  1
  Co  Co14  1  0.000004  0.253255  0.496223  1
  Co  Co15  1  0.000004  0.746745  0.496223  1
  Co  Co16  1  0.499931  0.253079  0.663466  1
  Co  Co17  1  0.499931  0.746922  0.663466  1
  Co  Co18  1  0.999923  0.246950  0.836480  1
  Co  Co19  1  0.999923  0.753049  0.836480  1
  Si  Si20  1  0.000001  0.000000  0.001844  1
  Si  Si21  1  0.500057  0.499999  0.167033  1
  Si  Si22  1  0.000061  0.000000  0.332984  1
  Si  Si23  1  0.500004  0.499999  0.498162  1
