# generated using pymatgen
data_Tb6Zn4Pd13
_symmetry_space_group_name_H-M   'P 1'
_cell_length_a   8.27534702
_cell_length_b   8.27534786
_cell_length_c   8.27534800
_cell_angle_alpha   109.47121853
_cell_angle_beta   109.47122057
_cell_angle_gamma   109.47122557
_symmetry_Int_Tables_number   1
_chemical_formula_structural   Tb6Zn4Pd13
_chemical_formula_sum   'Tb6 Zn4 Pd13'
_cell_volume   436.25140032
_cell_formula_units_Z   1
loop_
 _symmetry_equiv_pos_site_id
 _symmetry_equiv_pos_as_xyz
  1  'x, y, z'
loop_
 _atom_site_type_symbol
 _atom_site_label
 _atom_site_symmetry_multiplicity
 _atom_site_fract_x
 _atom_site_fract_y
 _atom_site_fract_z
 _atom_site_occupancy
  Tb  Tb0  1  0.697586  0.697586  0.000000  1
  Tb  Tb1  1  0.302414  0.000000  0.302414  1
  Tb  Tb2  1  0.000000  0.302414  0.302414  1
  Tb  Tb3  1  0.302414  0.302414  0.000000  1
  Tb  Tb4  1  0.697586  0.000000  0.697586  1
  Tb  Tb5  1  0.000000  0.697586  0.697586  1
  Zn  Zn6  1  0.000000  0.000000  0.500000  1
  Zn  Zn7  1  0.000000  0.500000  0.000000  1
  Zn  Zn8  1  0.500000  0.000000  0.000000  1
  Zn  Zn9  1  0.500000  0.500000  0.500000  1
  Pd  Pd10  1  0.333031  0.333031  0.666064  1
  Pd  Pd11  1  0.666969  0.000000  0.333031  1
  Pd  Pd12  1  0.000000  0.666969  0.333031  1
  Pd  Pd13  1  0.666969  0.333031  0.000000  1
  Pd  Pd14  1  0.333031  0.666064  0.333031  1
  Pd  Pd15  1  0.000000  0.333031  0.666969  1
  Pd  Pd16  1  0.333031  0.666969  0.000000  1
  Pd  Pd17  1  0.333031  0.000000  0.666969  1
  Pd  Pd18  1  0.666064  0.333031  0.333031  1
  Pd  Pd19  1  0.666969  0.666969  0.333936  1
  Pd  Pd20  1  0.666969  0.333936  0.666969  1
  Pd  Pd21  1  0.333936  0.666969  0.666969  1
  Pd  Pd22  1  0.000000  0.000000  0.000000  1
