# generated using pymatgen
data_PaVO4
_symmetry_space_group_name_H-M   'P 1'
_cell_length_a   5.16985800
_cell_length_b   4.99273651
_cell_length_c   12.16433782
_cell_angle_alpha   89.81073951
_cell_angle_beta   90.00000000
_cell_angle_gamma   90.00000000
_symmetry_Int_Tables_number   1
_chemical_formula_structural   PaVO4
_chemical_formula_sum   'Pa4 V4 O16'
_cell_volume   313.98099767
_cell_formula_units_Z   4
loop_
 _symmetry_equiv_pos_site_id
 _symmetry_equiv_pos_as_xyz
  1  'x, y, z'
loop_
 _atom_site_type_symbol
 _atom_site_label
 _atom_site_symmetry_multiplicity
 _atom_site_fract_x
 _atom_site_fract_y
 _atom_site_fract_z
 _atom_site_occupancy
  Pa  Pa0  1  0.252291  0.499989  0.666943  1
  Pa  Pa1  1  0.247709  0.999989  0.166943  1
  Pa  Pa2  1  0.752291  0.000011  0.833057  1
  Pa  Pa3  1  0.747709  0.500011  0.333057  1
  V  V4  1  0.250568  0.499822  0.935255  1
  V  V5  1  0.249432  0.999822  0.435255  1
  V  V6  1  0.750568  0.000178  0.564745  1
  V  V7  1  0.749432  0.500178  0.064745  1
  O  O8  1  0.091424  0.718630  0.809353  1
  O  O9  1  0.569565  0.729596  0.946567  1
  O  O10  1  0.408576  0.218630  0.309353  1
  O  O11  1  0.412792  0.280860  0.809282  1
  O  O12  1  0.930435  0.229596  0.446567  1
  O  O13  1  0.932068  0.270202  0.947045  1
  O  O14  1  0.432068  0.229798  0.552955  1
  O  O15  1  0.912792  0.219140  0.690718  1
  O  O16  1  0.087208  0.780860  0.309282  1
  O  O17  1  0.567932  0.770202  0.447045  1
  O  O18  1  0.067932  0.729798  0.052955  1
  O  O19  1  0.069565  0.770404  0.553433  1
  O  O20  1  0.587208  0.719140  0.190718  1
  O  O21  1  0.591424  0.781370  0.690647  1
  O  O22  1  0.430435  0.270404  0.053433  1
  O  O23  1  0.908576  0.281370  0.190647  1
