# generated using pymatgen
data_Rb2Ir(S2O7)3
_symmetry_space_group_name_H-M   'P 1'
_cell_length_a   9.92077400
_cell_length_b   9.92077410
_cell_length_c   11.42496800
_cell_angle_alpha   90.00000000
_cell_angle_beta   90.00000000
_cell_angle_gamma   119.99999300
_symmetry_Int_Tables_number   1
_chemical_formula_structural   Rb2Ir(S2O7)3
_chemical_formula_sum   'Rb4 Ir2 S12 O42'
_cell_volume   973.81569897
_cell_formula_units_Z   2
loop_
 _symmetry_equiv_pos_site_id
 _symmetry_equiv_pos_as_xyz
  1  'x, y, z'
loop_
 _atom_site_type_symbol
 _atom_site_label
 _atom_site_symmetry_multiplicity
 _atom_site_fract_x
 _atom_site_fract_y
 _atom_site_fract_z
 _atom_site_occupancy
  Rb  Rb0  1  0.666667  0.333333  0.561161  1
  Rb  Rb1  1  0.333333  0.666667  0.438839  1
  Rb  Rb2  1  0.333333  0.666667  0.878093  1
  Rb  Rb3  1  0.666667  0.333333  0.121907  1
  Ir  Ir4  1  0.000000  0.000000  0.756408  1
  Ir  Ir5  1  0.000000  0.000000  0.243592  1
  S  S6  1  0.081962  0.340470  0.660275  1
  S  S7  1  0.258509  0.918038  0.660275  1
  S  S8  1  0.659530  0.741491  0.660275  1
  S  S9  1  0.918038  0.659530  0.339725  1
  S  S10  1  0.741491  0.081962  0.339725  1
  S  S11  1  0.340470  0.258509  0.339725  1
  S  S12  1  0.802030  0.652246  0.845655  1
  S  S13  1  0.850216  0.197970  0.845655  1
  S  S14  1  0.347754  0.149784  0.845655  1
  S  S15  1  0.197970  0.347754  0.154345  1
  S  S16  1  0.149784  0.802030  0.154345  1
  S  S17  1  0.652246  0.850216  0.154345  1
  O  O18  1  0.659732  0.680222  0.795871  1
  O  O19  1  0.020489  0.340268  0.795871  1
  O  O20  1  0.319778  0.979511  0.795871  1
  O  O21  1  0.340268  0.319778  0.204129  1
  O  O22  1  0.979511  0.659732  0.204129  1
  O  O23  1  0.680222  0.020489  0.204129  1
  O  O24  1  0.933184  0.819351  0.867861  1
  O  O25  1  0.886168  0.066816  0.867861  1
  O  O26  1  0.180649  0.113832  0.867861  1
  O  O27  1  0.066816  0.180649  0.132139  1
  O  O28  1  0.113832  0.933184  0.132139  1
  O  O29  1  0.819351  0.886168  0.132139  1
  O  O30  1  0.061578  0.178783  0.644714  1
  O  O31  1  0.117204  0.938422  0.644714  1
  O  O32  1  0.821217  0.882796  0.644714  1
  O  O33  1  0.938422  0.821217  0.355286  1
  O  O34  1  0.882796  0.061578  0.355286  1
  O  O35  1  0.178783  0.117204  0.355286  1
  O  O36  1  0.838462  0.573763  0.756399  1
  O  O37  1  0.735301  0.161538  0.756399  1
  O  O38  1  0.426237  0.264699  0.756399  1
  O  O39  1  0.161538  0.426237  0.243601  1
  O  O40  1  0.264699  0.838462  0.243601  1
  O  O41  1  0.573763  0.735301  0.243601  1
  O  O42  1  0.742567  0.578684  0.956395  1
  O  O43  1  0.836116  0.257433  0.956395  1
  O  O44  1  0.421316  0.163884  0.956395  1
  O  O45  1  0.257433  0.421316  0.043605  1
  O  O46  1  0.163884  0.742567  0.043605  1
  O  O47  1  0.578684  0.836116  0.043605  1
  O  O48  1  0.242989  0.458948  0.668083  1
  O  O49  1  0.215958  0.757011  0.668083  1
  O  O50  1  0.541052  0.784042  0.668083  1
  O  O51  1  0.757011  0.541052  0.331917  1
  O  O52  1  0.784042  0.242989  0.331917  1
  O  O53  1  0.458948  0.215958  0.331917  1
  O  O54  1  0.984160  0.361743  0.578834  1
  O  O55  1  0.377583  0.015840  0.578834  1
  O  O56  1  0.638257  0.622417  0.578834  1
  O  O57  1  0.015840  0.638257  0.421166  1
  O  O58  1  0.622417  0.984160  0.421166  1
  O  O59  1  0.361743  0.377583  0.421166  1
