# generated using pymatgen
data_Ba6YHo2(WO6)3
_symmetry_space_group_name_H-M   'P 1'
_cell_length_a   10.39063692
_cell_length_b   10.39063729
_cell_length_c   6.02426044
_cell_angle_alpha   73.66488879
_cell_angle_beta   73.66488906
_cell_angle_gamma   48.63270280
_symmetry_Int_Tables_number   1
_chemical_formula_structural   Ba6YHo2(WO6)3
_chemical_formula_sum   'Ba6 Y1 Ho2 W3 O18'
_cell_volume   464.29608250
_cell_formula_units_Z   1
loop_
 _symmetry_equiv_pos_site_id
 _symmetry_equiv_pos_as_xyz
  1  'x, y, z'
loop_
 _atom_site_type_symbol
 _atom_site_label
 _atom_site_symmetry_multiplicity
 _atom_site_fract_x
 _atom_site_fract_y
 _atom_site_fract_z
 _atom_site_occupancy
  Ba  Ba0  1  0.921429  0.415552  0.334365  1
  Ba  Ba1  1  0.246189  0.753811  0.000000  1
  Ba  Ba2  1  0.584448  0.078571  0.665635  1
  Ba  Ba3  1  0.753811  0.246189  0.000000  1
  Ba  Ba4  1  0.078571  0.584448  0.665635  1
  Ba  Ba5  1  0.415552  0.921429  0.334365  1
  Y  Y6  1  0.500000  0.500000  0.500000  1
  Ho  Ho7  1  0.166175  0.166175  0.834200  1
  Ho  Ho8  1  0.833825  0.833825  0.165800  1
  W  W9  1  0.000000  0.000000  0.500000  1
  W  W10  1  0.333842  0.333842  0.165067  1
  W  W11  1  0.666158  0.666158  0.834933  1
  O  O12  1  0.906078  0.427490  0.835524  1
  O  O13  1  0.231333  0.768667  0.500000  1
  O  O14  1  0.572510  0.093922  0.164476  1
  O  O15  1  0.768667  0.231333  0.500000  1
  O  O16  1  0.093922  0.572510  0.164476  1
  O  O17  1  0.427490  0.906078  0.835524  1
  O  O18  1  0.753046  0.753046  0.531074  1
  O  O19  1  0.422014  0.422014  0.864034  1
  O  O20  1  0.089509  0.089509  0.202308  1
  O  O21  1  0.910491  0.910491  0.797692  1
  O  O22  1  0.577986  0.577986  0.135966  1
  O  O23  1  0.246954  0.246954  0.468926  1
  O  O24  1  0.070804  0.070804  0.695929  1
  O  O25  1  0.734463  0.734463  0.023553  1
  O  O26  1  0.402444  0.402444  0.355821  1
  O  O27  1  0.929196  0.929196  0.304071  1
  O  O28  1  0.597556  0.597556  0.644179  1
  O  O29  1  0.265537  0.265537  0.976447  1
