# generated using pymatgen
data_Ho4Sc4Mn3B24Ir
_symmetry_space_group_name_H-M   'P 1'
_cell_length_a   3.47371400
_cell_length_b   8.93005107
_cell_length_c   11.30764209
_cell_angle_alpha   90.01405723
_cell_angle_beta   90.00000000
_cell_angle_gamma   90.00000000
_symmetry_Int_Tables_number   1
_chemical_formula_structural   Ho4Sc4Mn3B24Ir
_chemical_formula_sum   'Ho4 Sc4 Mn3 B24 Ir1'
_cell_volume   350.76806088
_cell_formula_units_Z   1
loop_
 _symmetry_equiv_pos_site_id
 _symmetry_equiv_pos_as_xyz
  1  'x, y, z'
loop_
 _atom_site_type_symbol
 _atom_site_label
 _atom_site_symmetry_multiplicity
 _atom_site_fract_x
 _atom_site_fract_y
 _atom_site_fract_z
 _atom_site_occupancy
  Ho  Ho0  1  0.500000  0.317757  0.416539  1
  Ho  Ho1  1  0.500000  0.678195  0.591123  1
  Ho  Ho2  1  0.500000  0.176994  0.912923  1
  Ho  Ho3  1  0.500000  0.826294  0.080993  1
  Sc  Sc4  1  0.500000  0.438686  0.126784  1
  Sc  Sc5  1  0.500000  0.556214  0.869463  1
  Sc  Sc6  1  0.500000  0.056029  0.631061  1
  Sc  Sc7  1  0.500000  0.949259  0.369962  1
  Mn  Mn8  1  0.500000  0.140886  0.182761  1
  Mn  Mn9  1  0.500000  0.859143  0.818145  1
  Mn  Mn10  1  0.500000  0.359650  0.681212  1
  B  B11  1  0.000000  0.098194  0.473854  1
  B  B12  1  0.000000  0.902068  0.526927  1
  B  B13  1  0.000000  0.401383  0.973048  1
  B  B14  1  0.000000  0.598085  0.026178  1
  B  B15  1  0.000000  0.130310  0.315780  1
  B  B16  1  0.000000  0.870243  0.685045  1
  B  B17  1  0.000000  0.370138  0.815211  1
  B  B18  1  0.000000  0.629873  0.181163  1
  B  B19  1  0.000000  0.055384  0.068116  1
  B  B20  1  0.000000  0.945021  0.930872  1
  B  B21  1  0.000000  0.444193  0.569321  1
  B  B22  1  0.000000  0.553953  0.434455  1
  B  B23  1  0.000000  0.480510  0.285696  1
  B  B24  1  0.000000  0.516024  0.713834  1
  B  B25  1  0.000000  0.016150  0.786375  1
  B  B26  1  0.000000  0.985018  0.212949  1
  B  B27  1  0.000000  0.250568  0.082576  1
  B  B28  1  0.000000  0.748815  0.916679  1
  B  B29  1  0.000000  0.248101  0.583636  1
  B  B30  1  0.000000  0.754203  0.419894  1
  B  B31  1  0.000000  0.292303  0.234503  1
  B  B32  1  0.000000  0.706859  0.765894  1
  B  B33  1  0.000000  0.206875  0.734650  1
  B  B34  1  0.000000  0.795966  0.263846  1
  Ir  Ir35  1  0.500000  0.640658  0.318534  1
