# generated using pymatgen
data_ErLu3(ZnIr)4
_symmetry_space_group_name_H-M   'P 1'
_cell_length_a   4.00121600
_cell_length_b   6.92894840
_cell_length_c   8.04331143
_cell_angle_alpha   89.84766021
_cell_angle_beta   90.00000000
_cell_angle_gamma   90.00000000
_symmetry_Int_Tables_number   1
_chemical_formula_structural   ErLu3(ZnIr)4
_chemical_formula_sum   'Er1 Lu3 Zn4 Ir4'
_cell_volume   222.99374105
_cell_formula_units_Z   1
loop_
 _symmetry_equiv_pos_site_id
 _symmetry_equiv_pos_as_xyz
  1  'x, y, z'
loop_
 _atom_site_type_symbol
 _atom_site_label
 _atom_site_symmetry_multiplicity
 _atom_site_fract_x
 _atom_site_fract_y
 _atom_site_fract_z
 _atom_site_occupancy
  Er  Er0  1  0.250000  0.536373  0.182217  1
  Lu  Lu1  1  0.750000  0.463147  0.817413  1
  Lu  Lu2  1  0.750000  0.963738  0.681607  1
  Lu  Lu3  1  0.250000  0.037148  0.319266  1
  Zn  Zn4  1  0.250000  0.638944  0.566349  1
  Zn  Zn5  1  0.750000  0.360585  0.434314  1
  Zn  Zn6  1  0.750000  0.861353  0.065425  1
  Zn  Zn7  1  0.250000  0.138016  0.933643  1
  Ir  Ir8  1  0.250000  0.756105  0.875334  1
  Ir  Ir9  1  0.750000  0.242015  0.122803  1
  Ir  Ir10  1  0.750000  0.746607  0.378268  1
  Ir  Ir11  1  0.250000  0.255970  0.623364  1
