# generated using pymatgen
data_Er6Tm10In3HgRh4
_symmetry_space_group_name_H-M   'P 1'
_cell_length_a   9.52809131
_cell_length_b   9.52611065
_cell_length_c   9.52640158
_cell_angle_alpha   60.01502855
_cell_angle_beta   60.00285636
_cell_angle_gamma   59.99887831
_symmetry_Int_Tables_number   1
_chemical_formula_structural   Er6Tm10In3HgRh4
_chemical_formula_sum   'Er6 Tm10 In3 Hg1 Rh4'
_cell_volume   611.49148666
_cell_formula_units_Z   1
loop_
 _symmetry_equiv_pos_site_id
 _symmetry_equiv_pos_as_xyz
  1  'x, y, z'
loop_
 _atom_site_type_symbol
 _atom_site_label
 _atom_site_symmetry_multiplicity
 _atom_site_fract_x
 _atom_site_fract_y
 _atom_site_fract_z
 _atom_site_occupancy
  Er  Er0  1  0.061771  0.061773  0.438233  1
  Er  Er1  1  0.436843  0.065319  0.436745  1
  Er  Er2  1  0.061641  0.438352  0.061737  1
  Er  Er3  1  0.052759  0.647882  0.647952  1
  Er  Er4  1  0.436959  0.436796  0.065264  1
  Er  Er5  1  0.647762  0.052824  0.648022  1
  Tm  Tm6  1  0.188811  0.813147  0.188681  1
  Tm  Tm7  1  0.188662  0.188647  0.813261  1
  Tm  Tm8  1  0.810391  0.810324  0.190583  1
  Tm  Tm9  1  0.438496  0.061447  0.061538  1
  Tm  Tm10  1  0.813290  0.188714  0.188606  1
  Tm  Tm11  1  0.065134  0.437063  0.437019  1
  Tm  Tm12  1  0.810489  0.190526  0.810457  1
  Tm  Tm13  1  0.190554  0.810489  0.810498  1
  Tm  Tm14  1  0.647920  0.648092  0.052485  1
  Tm  Tm15  1  0.651427  0.651365  0.651413  1
  In  In16  1  0.748410  0.417563  0.417301  1
  In  In17  1  0.417557  0.748483  0.417116  1
  In  In18  1  0.417516  0.417265  0.748429  1
  Hg  Hg19  1  0.413572  0.413827  0.413624  1
  Rh  Rh20  1  0.858238  0.858070  0.426975  1
  Rh  Rh21  1  0.856557  0.856762  0.857282  1
  Rh  Rh22  1  0.427230  0.858010  0.858511  1
  Rh  Rh23  1  0.858008  0.427258  0.858269  1
