# generated using pymatgen
data_Sr6Zn2CoIrO12
_symmetry_space_group_name_H-M   'P 1'
_cell_length_a   6.71637860
_cell_length_b   6.71637846
_cell_length_c   6.71637909
_cell_angle_alpha   92.14606196
_cell_angle_beta   92.14605842
_cell_angle_gamma   92.14604519
_symmetry_Int_Tables_number   1
_chemical_formula_structural   Sr6Zn2CoIrO12
_chemical_formula_sum   'Sr6 Zn2 Co1 Ir1 O12'
_cell_volume   302.32022292
_cell_formula_units_Z   1
loop_
 _symmetry_equiv_pos_site_id
 _symmetry_equiv_pos_as_xyz
  1  'x, y, z'
loop_
 _atom_site_type_symbol
 _atom_site_label
 _atom_site_symmetry_multiplicity
 _atom_site_fract_x
 _atom_site_fract_y
 _atom_site_fract_z
 _atom_site_occupancy
  Sr  Sr0  1  0.260614  0.609117  0.882322  1
  Sr  Sr1  1  0.882322  0.260614  0.609117  1
  Sr  Sr2  1  0.609117  0.882322  0.260614  1
  Sr  Sr3  1  0.739386  0.390883  0.117678  1
  Sr  Sr4  1  0.117678  0.739386  0.390883  1
  Sr  Sr5  1  0.390883  0.117678  0.739386  1
  Zn  Zn6  1  0.736952  0.736952  0.736952  1
  Zn  Zn7  1  0.263048  0.263048  0.263048  1
  Co  Co8  1  0.500000  0.500000  0.500000  1
  Ir  Ir9  1  0.000000  0.000000  0.000000  1
  O  O10  1  0.089338  0.281896  0.958986  1
  O  O11  1  0.958986  0.089338  0.281896  1
  O  O12  1  0.281896  0.958986  0.089338  1
  O  O13  1  0.409430  0.543614  0.221397  1
  O  O14  1  0.221397  0.409430  0.543614  1
  O  O15  1  0.543614  0.221397  0.409430  1
  O  O16  1  0.910662  0.718104  0.041014  1
  O  O17  1  0.041014  0.910662  0.718104  1
  O  O18  1  0.718104  0.041014  0.910662  1
  O  O19  1  0.590570  0.456386  0.778603  1
  O  O20  1  0.456386  0.778603  0.590570  1
  O  O21  1  0.778603  0.590570  0.456386  1
