# generated using pymatgen
data_Ho4Co5Si10Ru
_symmetry_space_group_name_H-M   'P 1'
_cell_length_a   7.92960410
_cell_length_b   7.92960441
_cell_length_c   7.92960378
_cell_angle_alpha   139.02875536
_cell_angle_beta   106.17309936
_cell_angle_gamma   88.07570550
_symmetry_Int_Tables_number   1
_chemical_formula_structural   Ho4Co5Si10Ru
_chemical_formula_sum   'Ho4 Co5 Si10 Ru1'
_cell_volume   301.36728514
_cell_formula_units_Z   1
loop_
 _symmetry_equiv_pos_site_id
 _symmetry_equiv_pos_as_xyz
  1  'x, y, z'
loop_
 _atom_site_type_symbol
 _atom_site_label
 _atom_site_symmetry_multiplicity
 _atom_site_fract_x
 _atom_site_fract_y
 _atom_site_fract_z
 _atom_site_occupancy
  Ho  Ho0  1  0.598433  0.871388  0.738826  1
  Ho  Ho1  1  0.132563  0.359607  0.761174  1
  Ho  Ho2  1  0.867437  0.628612  0.227045  1
  Ho  Ho3  1  0.401567  0.140393  0.272955  1
  Co  Co4  1  0.000000  0.750000  0.750000  1
  Co  Co5  1  0.255797  0.856835  0.389250  1
  Co  Co6  1  0.532415  0.643165  0.898963  1
  Co  Co7  1  0.467585  0.366548  0.110750  1
  Co  Co8  1  0.744203  0.133452  0.601037  1
  Si  Si9  1  0.774381  0.024381  0.250000  1
  Si  Si10  1  0.227024  0.977024  0.750000  1
  Si  Si11  1  0.772976  0.522976  0.750000  1
  Si  Si12  1  0.939504  0.091940  0.827313  1
  Si  Si13  1  0.060496  0.887809  0.152436  1
  Si  Si14  1  0.500000  0.250000  0.750000  1
  Si  Si15  1  0.500000  0.750000  0.250000  1
  Si  Si16  1  0.735373  0.408060  0.347564  1
  Si  Si17  1  0.264627  0.612191  0.672687  1
  Si  Si18  1  0.225619  0.475619  0.250000  1
  Ru  Ru19  1  0.000000  0.250000  0.250000  1
