# generated using pymatgen
data_Ca6YbLuBi6
_symmetry_space_group_name_H-M   'P 1'
_cell_length_a   8.27939920
_cell_length_b   8.35905373
_cell_length_c   8.36608804
_cell_angle_alpha   109.63642918
_cell_angle_beta   109.28419213
_cell_angle_gamma   109.28350428
_symmetry_Int_Tables_number   1
_chemical_formula_structural   Ca6YbLuBi6
_chemical_formula_sum   'Ca6 Yb1 Lu1 Bi6'
_cell_volume   446.85885381
_cell_formula_units_Z   1
loop_
 _symmetry_equiv_pos_site_id
 _symmetry_equiv_pos_as_xyz
  1  'x, y, z'
loop_
 _atom_site_type_symbol
 _atom_site_label
 _atom_site_symmetry_multiplicity
 _atom_site_fract_x
 _atom_site_fract_y
 _atom_site_fract_z
 _atom_site_occupancy
  Ca  Ca0  1  0.649411  0.499963  0.999943  1
  Ca  Ca1  1  0.499438  0.001161  0.651148  1
  Ca  Ca2  1  0.354717  0.351936  0.355465  1
  Ca  Ca3  1  0.502977  0.003481  0.148166  1
  Ca  Ca4  1  0.998232  0.650021  0.498936  1
  Ca  Ca5  1  0.848205  0.848837  0.849999  1
  Yb  Yb6  1  0.999340  0.144567  0.496555  1
  Lu  Lu7  1  0.148227  0.499810  0.999913  1
  Bi  Bi8  1  0.369532  0.623495  0.755881  1
  Bi  Bi9  1  0.884081  0.257024  0.125059  1
  Bi  Bi10  1  0.614052  0.744378  0.367890  1
  Bi  Bi11  1  0.126709  0.867962  0.243124  1
  Bi  Bi12  1  0.245906  0.132346  0.875974  1
  Bi  Bi13  1  0.759176  0.375018  0.631947  1
