# generated using pymatgen
data_Sc5Pa5Ru6
_symmetry_space_group_name_H-M   'P 1'
_cell_length_a   6.11425600
_cell_length_b   7.84995040
_cell_length_c   7.97372759
_cell_angle_alpha   119.48782686
_cell_angle_beta   90.00000000
_cell_angle_gamma   90.00000000
_symmetry_Int_Tables_number   1
_chemical_formula_structural   Sc5Pa5Ru6
_chemical_formula_sum   'Sc5 Pa5 Ru6'
_cell_volume   333.13548282
_cell_formula_units_Z   1
loop_
 _symmetry_equiv_pos_site_id
 _symmetry_equiv_pos_as_xyz
  1  'x, y, z'
loop_
 _atom_site_type_symbol
 _atom_site_label
 _atom_site_symmetry_multiplicity
 _atom_site_fract_x
 _atom_site_fract_y
 _atom_site_fract_z
 _atom_site_occupancy
  Sc  Sc0  1  0.002133  0.669397  0.328799  1
  Sc  Sc1  1  0.002133  0.340597  0.671201  1
  Sc  Sc2  1  0.497867  0.340597  0.671201  1
  Sc  Sc3  1  0.497867  0.669397  0.328799  1
  Sc  Sc4  1  0.250000  0.739578  0.000000  1
  Pa  Pa5  1  0.750000  0.750426  0.753402  1
  Pa  Pa6  1  0.250000  0.243515  0.253369  1
  Pa  Pa7  1  0.750000  0.997023  0.246598  1
  Pa  Pa8  1  0.250000  0.990146  0.746631  1
  Pa  Pa9  1  0.750000  0.248416  0.000000  1
  Ru  Ru10  1  0.750000  0.370868  0.367470  1
  Ru  Ru11  1  0.250000  0.629067  0.607196  1
  Ru  Ru12  1  0.750000  0.003398  0.632530  1
  Ru  Ru13  1  0.250000  0.021871  0.392804  1
  Ru  Ru14  1  0.750000  0.624899  0.000000  1
  Ru  Ru15  1  0.250000  0.360804  0.000000  1
