# generated using pymatgen
data_NdGaSiRh3
_symmetry_space_group_name_H-M   'P 1'
_cell_length_a   6.75839041
_cell_length_b   6.77565904
_cell_length_c   6.75838964
_cell_angle_alpha   130.57345877
_cell_angle_beta   113.22756380
_cell_angle_gamma   87.34338866
_symmetry_Int_Tables_number   1
_chemical_formula_structural   NdGaSiRh3
_chemical_formula_sum   'Nd2 Ga2 Si2 Rh6'
_cell_volume   205.99695579
_cell_formula_units_Z   2
loop_
 _symmetry_equiv_pos_site_id
 _symmetry_equiv_pos_as_xyz
  1  'x, y, z'
loop_
 _atom_site_type_symbol
 _atom_site_label
 _atom_site_symmetry_multiplicity
 _atom_site_fract_x
 _atom_site_fract_y
 _atom_site_fract_z
 _atom_site_occupancy
  Nd  Nd0  1  0.750833  0.034424  0.283591  1
  Nd  Nd1  1  0.249167  0.965576  0.716409  1
  Ga  Ga2  1  0.574086  0.363185  0.789099  1
  Ga  Ga3  1  0.425914  0.636815  0.210901  1
  Si  Si4  1  0.090003  0.305499  0.215497  1
  Si  Si5  1  0.909997  0.694501  0.784503  1
  Rh  Rh6  1  0.208827  0.500000  0.708827  1
  Rh  Rh7  1  0.749178  0.000000  0.749178  1
  Rh  Rh8  1  0.791173  0.500000  0.291173  1
  Rh  Rh9  1  0.250822  0.000000  0.250822  1
  Rh  Rh10  1  0.500000  0.500000  0.500000  1
  Rh  Rh11  1  0.000000  0.500000  0.000000  1
