# generated using pymatgen
data_Dy5HoAl24(CuRu3)2
_symmetry_space_group_name_H-M   'P 1'
_cell_length_a   8.81793221
_cell_length_b   8.81793202
_cell_length_c   9.48969400
_cell_angle_alpha   90.00000000
_cell_angle_beta   90.00000000
_cell_angle_gamma   119.43587654
_symmetry_Int_Tables_number   1
_chemical_formula_structural   Dy5HoAl24(CuRu3)2
_chemical_formula_sum   'Dy5 Ho1 Al24 Cu2 Ru6'
_cell_volume   642.62426476
_cell_formula_units_Z   1
loop_
 _symmetry_equiv_pos_site_id
 _symmetry_equiv_pos_as_xyz
  1  'x, y, z'
loop_
 _atom_site_type_symbol
 _atom_site_label
 _atom_site_symmetry_multiplicity
 _atom_site_fract_x
 _atom_site_fract_y
 _atom_site_fract_z
 _atom_site_occupancy
  Dy  Dy0  1  0.188457  0.383747  0.250000  1
  Dy  Dy1  1  0.616253  0.811543  0.250000  1
  Dy  Dy2  1  0.806321  0.193679  0.750000  1
  Dy  Dy3  1  0.811643  0.616392  0.750000  1
  Dy  Dy4  1  0.383608  0.188357  0.750000  1
  Ho  Ho5  1  0.193939  0.806061  0.250000  1
  Al  Al6  1  0.560663  0.439337  0.250000  1
  Al  Al7  1  0.559721  0.121485  0.250000  1
  Al  Al8  1  0.878515  0.440279  0.250000  1
  Al  Al9  1  0.439326  0.560674  0.750000  1
  Al  Al10  1  0.439927  0.878123  0.750000  1
  Al  Al11  1  0.121877  0.560073  0.750000  1
  Al  Al12  1  0.323929  0.157006  0.421846  1
  Al  Al13  1  0.836334  0.163666  0.422954  1
  Al  Al14  1  0.842994  0.676071  0.421846  1
  Al  Al15  1  0.675923  0.842744  0.577873  1
  Al  Al16  1  0.163713  0.836287  0.576603  1
  Al  Al17  1  0.157256  0.324077  0.577873  1
  Al  Al18  1  0.675923  0.842744  0.922127  1
  Al  Al19  1  0.163713  0.836287  0.923397  1
  Al  Al20  1  0.157256  0.324077  0.922127  1
  Al  Al21  1  0.323929  0.157006  0.078154  1
  Al  Al22  1  0.836334  0.163666  0.077046  1
  Al  Al23  1  0.842994  0.676071  0.078154  1
  Al  Al24  1  0.668029  0.331971  0.520108  1
  Al  Al25  1  0.331818  0.668182  0.479634  1
  Al  Al26  1  0.331818  0.668182  0.020366  1
  Al  Al27  1  0.668029  0.331971  0.979892  1
  Al  Al28  1  0.998121  0.001879  0.250000  1
  Al  Al29  1  0.002041  0.997959  0.750000  1
  Cu  Cu30  1  0.499965  0.500035  0.500018  1
  Cu  Cu31  1  0.499965  0.500035  0.999982  1
  Ru  Ru32  1  0.000023  0.999977  0.499995  1
  Ru  Ru33  1  0.000023  0.999977  0.000005  1
  Ru  Ru34  1  0.499786  0.999977  0.499898  1
  Ru  Ru35  1  0.000023  0.500214  0.499898  1
  Ru  Ru36  1  0.499786  0.999977  0.000102  1
  Ru  Ru37  1  0.000023  0.500214  0.000102  1
