# generated using pymatgen
data_Rb3MoS4
_symmetry_space_group_name_H-M   'P 1'
_cell_length_a   9.64839500
_cell_length_b   9.73373200
_cell_length_c   11.20059000
_cell_angle_alpha   90.00000000
_cell_angle_beta   90.00000000
_cell_angle_gamma   90.00000000
_symmetry_Int_Tables_number   1
_chemical_formula_structural   Rb3MoS4
_chemical_formula_sum   'Rb12 Mo4 S16'
_cell_volume   1051.90219078
_cell_formula_units_Z   4
loop_
 _symmetry_equiv_pos_site_id
 _symmetry_equiv_pos_as_xyz
  1  'x, y, z'
loop_
 _atom_site_type_symbol
 _atom_site_label
 _atom_site_symmetry_multiplicity
 _atom_site_fract_x
 _atom_site_fract_y
 _atom_site_fract_z
 _atom_site_occupancy
  Rb  Rb0  1  0.144164  0.082083  0.750000  1
  Rb  Rb1  1  0.355836  0.582083  0.250000  1
  Rb  Rb2  1  0.644164  0.417917  0.750000  1
  Rb  Rb3  1  0.855836  0.917917  0.250000  1
  Rb  Rb4  1  0.948909  0.708251  0.956281  1
  Rb  Rb5  1  0.551091  0.208251  0.043719  1
  Rb  Rb6  1  0.448909  0.791749  0.543719  1
  Rb  Rb7  1  0.051091  0.291749  0.456281  1
  Rb  Rb8  1  0.051091  0.291749  0.043719  1
  Rb  Rb9  1  0.448909  0.791749  0.956281  1
  Rb  Rb10  1  0.551091  0.208251  0.456281  1
  Rb  Rb11  1  0.948909  0.708251  0.543719  1
  Mo  Mo12  1  0.223216  0.514892  0.750000  1
  Mo  Mo13  1  0.276784  0.014892  0.250000  1
  Mo  Mo14  1  0.723216  0.985108  0.750000  1
  Mo  Mo15  1  0.776784  0.485108  0.250000  1
  S  S16  1  0.203806  0.745217  0.750000  1
  S  S17  1  0.296194  0.245217  0.250000  1
  S  S18  1  0.703806  0.754783  0.750000  1
  S  S19  1  0.796194  0.254783  0.250000  1
  S  S20  1  0.663553  0.548127  0.416561  1
  S  S21  1  0.836447  0.048127  0.583439  1
  S  S22  1  0.163553  0.951873  0.083439  1
  S  S23  1  0.336447  0.451873  0.916561  1
  S  S24  1  0.991354  0.577637  0.250000  1
  S  S25  1  0.508646  0.077637  0.750000  1
  S  S26  1  0.491354  0.922363  0.250000  1
  S  S27  1  0.008646  0.422363  0.750000  1
  S  S28  1  0.663553  0.548127  0.083439  1
  S  S29  1  0.836447  0.048127  0.916561  1
  S  S30  1  0.163553  0.951873  0.416561  1
  S  S31  1  0.336447  0.451873  0.583439  1
