# generated using pymatgen
data_Ho19Tm(Ir5Au)2
_symmetry_space_group_name_H-M   'P 1'
_cell_length_a   10.98047995
_cell_length_b   10.93464900
_cell_length_c   6.31729614
_cell_angle_alpha   90.00160894
_cell_angle_beta   89.85656572
_cell_angle_gamma   90.00041491
_symmetry_Int_Tables_number   1
_chemical_formula_structural   Ho19Tm(Ir5Au)2
_chemical_formula_sum   'Ho19 Tm1 Ir10 Au2'
_cell_volume   758.50080311
_cell_formula_units_Z   1
loop_
 _symmetry_equiv_pos_site_id
 _symmetry_equiv_pos_as_xyz
  1  'x, y, z'
loop_
 _atom_site_type_symbol
 _atom_site_label
 _atom_site_symmetry_multiplicity
 _atom_site_fract_x
 _atom_site_fract_y
 _atom_site_fract_z
 _atom_site_occupancy
  Ho  Ho0  1  0.292050  0.088007  0.372193  1
  Ho  Ho1  1  0.292039  0.911999  0.872249  1
  Ho  Ho2  1  0.698228  0.091850  0.866469  1
  Ho  Ho3  1  0.698217  0.908125  0.366393  1
  Ho  Ho4  1  0.577823  0.789391  0.877060  1
  Ho  Ho5  1  0.577788  0.210762  0.377154  1
  Ho  Ho6  1  0.409055  0.790455  0.376556  1
  Ho  Ho7  1  0.408990  0.209423  0.876472  1
  Ho  Ho8  1  0.209762  0.411727  0.621866  1
  Ho  Ho9  1  0.209636  0.588327  0.121904  1
  Ho  Ho10  1  0.789780  0.419828  0.123137  1
  Ho  Ho11  1  0.789656  0.580127  0.623093  1
  Ho  Ho12  1  0.917354  0.705238  0.138083  1
  Ho  Ho13  1  0.917319  0.294769  0.638144  1
  Ho  Ho14  1  0.095705  0.703301  0.623624  1
  Ho  Ho15  1  0.095681  0.296704  0.123525  1
  Ho  Ho16  1  0.009038  0.998188  0.500156  1
  Ho  Ho17  1  0.009080  0.001807  0.000159  1
  Ho  Ho18  1  0.499856  0.498766  0.000573  1
  Tm  Tm19  1  0.499799  0.501236  0.500553  1
  Ir  Ir20  1  0.154114  0.154241  0.750138  1
  Ir  Ir21  1  0.154097  0.845734  0.250113  1
  Ir  Ir22  1  0.655538  0.346473  0.747627  1
  Ir  Ir23  1  0.655519  0.653523  0.248592  1
  Ir  Ir24  1  0.347690  0.346355  0.252255  1
  Ir  Ir25  1  0.347725  0.653645  0.751332  1
  Ir  Ir26  1  0.499511  0.999867  0.121049  1
  Ir  Ir27  1  0.499517  0.000120  0.621017  1
  Ir  Ir28  1  0.000133  0.500916  0.878787  1
  Ir  Ir29  1  0.000127  0.499084  0.378825  1
  Au  Au30  1  0.844597  0.155064  0.250469  1
  Au  Au31  1  0.844576  0.844949  0.750432  1
