# generated using pymatgen
data_Ac2SnS3O2
_symmetry_space_group_name_H-M   'P 1'
_cell_length_a   5.99882200
_cell_length_b   6.01919100
_cell_length_c   19.59557800
_cell_angle_alpha   90.00000000
_cell_angle_beta   90.00000000
_cell_angle_gamma   90.00000000
_symmetry_Int_Tables_number   1
_chemical_formula_structural   Ac2SnS3O2
_chemical_formula_sum   'Ac8 Sn4 S12 O8'
_cell_volume   707.55821588
_cell_formula_units_Z   4
loop_
 _symmetry_equiv_pos_site_id
 _symmetry_equiv_pos_as_xyz
  1  'x, y, z'
loop_
 _atom_site_type_symbol
 _atom_site_label
 _atom_site_symmetry_multiplicity
 _atom_site_fract_x
 _atom_site_fract_y
 _atom_site_fract_z
 _atom_site_occupancy
  Ac  Ac0  1  0.001994  0.251880  0.065968  1
  Ac  Ac1  1  0.498007  0.751880  0.065968  1
  Ac  Ac2  1  0.001994  0.251880  0.434032  1
  Ac  Ac3  1  0.498007  0.751880  0.434032  1
  Ac  Ac4  1  0.501993  0.248120  0.565968  1
  Ac  Ac5  1  0.998006  0.748120  0.565968  1
  Ac  Ac6  1  0.501993  0.248120  0.934032  1
  Ac  Ac7  1  0.998006  0.748120  0.934032  1
  Sn  Sn8  1  0.426545  0.150430  0.250000  1
  Sn  Sn9  1  0.073456  0.650430  0.250000  1
  Sn  Sn10  1  0.926544  0.349570  0.750000  1
  Sn  Sn11  1  0.573455  0.849570  0.750000  1
  S  S12  1  0.510993  0.254556  0.136058  1
  S  S13  1  0.989009  0.754556  0.136058  1
  S  S14  1  0.021651  0.243709  0.250000  1
  S  S15  1  0.478350  0.743709  0.250000  1
  S  S16  1  0.510993  0.254556  0.363942  1
  S  S17  1  0.989009  0.754556  0.363942  1
  S  S18  1  0.010992  0.245444  0.636058  1
  S  S19  1  0.489008  0.745443  0.636058  1
  S  S20  1  0.521650  0.256291  0.750000  1
  S  S21  1  0.978349  0.756291  0.750000  1
  S  S22  1  0.010992  0.245444  0.863942  1
  S  S23  1  0.489008  0.745443  0.863942  1
  O  O24  1  0.748750  0.499364  0.000621  1
  O  O25  1  0.751251  0.999364  0.000621  1
  O  O26  1  0.748750  0.499364  0.499380  1
  O  O27  1  0.751251  0.999364  0.499380  1
  O  O28  1  0.248749  0.000636  0.500621  1
  O  O29  1  0.251250  0.500636  0.500621  1
  O  O30  1  0.248749  0.000636  0.999379  1
  O  O31  1  0.251250  0.500636  0.999379  1
