# generated using pymatgen
data_Li12SnOsN8
_symmetry_space_group_name_H-M   'P 1'
_cell_length_a   6.86636900
_cell_length_b   6.86636900
_cell_length_c   4.88702700
_cell_angle_alpha   90.00000000
_cell_angle_beta   90.00000000
_cell_angle_gamma   90.00000000
_symmetry_Int_Tables_number   1
_chemical_formula_structural   Li12SnOsN8
_chemical_formula_sum   'Li12 Sn1 Os1 N8'
_cell_volume   230.40877556
_cell_formula_units_Z   1
loop_
 _symmetry_equiv_pos_site_id
 _symmetry_equiv_pos_as_xyz
  1  'x, y, z'
loop_
 _atom_site_type_symbol
 _atom_site_label
 _atom_site_symmetry_multiplicity
 _atom_site_fract_x
 _atom_site_fract_y
 _atom_site_fract_z
 _atom_site_occupancy
  Li  Li0  1  0.500000  0.000000  0.551758  1
  Li  Li1  1  0.000000  0.500000  0.912818  1
  Li  Li2  1  0.000000  0.500000  0.448242  1
  Li  Li3  1  0.500000  0.000000  0.087182  1
  Li  Li4  1  0.223488  0.223488  0.500000  1
  Li  Li5  1  0.776512  0.776512  0.500000  1
  Li  Li6  1  0.705076  0.705076  0.000000  1
  Li  Li7  1  0.294924  0.294924  0.000000  1
  Li  Li8  1  0.223488  0.776512  0.500000  1
  Li  Li9  1  0.776512  0.223488  0.500000  1
  Li  Li10  1  0.705076  0.294924  0.000000  1
  Li  Li11  1  0.294924  0.705076  0.000000  1
  Sn  Sn12  1  0.500000  0.500000  0.500000  1
  Os  Os13  1  0.000000  0.000000  0.000000  1
  N  N14  1  0.500000  0.233885  0.293067  1
  N  N15  1  0.500000  0.766115  0.293067  1
  N  N16  1  0.000000  0.777120  0.201369  1
  N  N17  1  0.000000  0.222880  0.201369  1
  N  N18  1  0.233885  0.500000  0.706933  1
  N  N19  1  0.766115  0.500000  0.706933  1
  N  N20  1  0.777120  0.000000  0.798631  1
  N  N21  1  0.222880  0.000000  0.798631  1
