# generated using pymatgen
data_La7Nd3(Sn3N)2
_symmetry_space_group_name_H-M   'P 1'
_cell_length_a   9.52676734
_cell_length_b   9.52676673
_cell_length_c   9.52243300
_cell_angle_alpha   126.34476916
_cell_angle_beta   126.34475897
_cell_angle_gamma   79.24581626
_symmetry_Int_Tables_number   1
_chemical_formula_structural   La7Nd3(Sn3N)2
_chemical_formula_sum   'La7 Nd3 Sn6 N2'
_cell_volume   542.35046665
_cell_formula_units_Z   1
loop_
 _symmetry_equiv_pos_site_id
 _symmetry_equiv_pos_as_xyz
  1  'x, y, z'
loop_
 _atom_site_type_symbol
 _atom_site_label
 _atom_site_symmetry_multiplicity
 _atom_site_fract_x
 _atom_site_fract_y
 _atom_site_fract_z
 _atom_site_occupancy
  La  La0  1  0.500115  0.304717  0.498232  1
  La  La1  1  0.804717  0.000115  0.498232  1
  La  La2  1  0.000642  0.500642  0.194874  1
  La  La3  1  0.306212  0.806212  0.805684  1
  La  La4  1  0.501896  0.696480  0.500429  1
  La  La5  1  0.196480  0.001896  0.500429  1
  La  La6  1  0.000469  0.500469  0.803255  1
  Nd  Nd7  1  0.699989  0.199989  0.197643  1
  Nd  Nd8  1  0.502850  0.502451  0.000169  1
  Nd  Nd9  1  0.002451  0.002850  0.000169  1
  Sn  Sn10  1  0.141174  0.358154  0.498561  1
  Sn  Sn11  1  0.858154  0.641174  0.498561  1
  Sn  Sn12  1  0.643876  0.143876  0.787829  1
  Sn  Sn13  1  0.358161  0.858161  0.214992  1
  Sn  Sn14  1  0.750426  0.754304  0.000936  1
  Sn  Sn15  1  0.254304  0.250426  0.000936  1
  N  N16  1  0.750760  0.250760  0.500389  1
  N  N17  1  0.250167  0.750167  0.498679  1
