# generated using pymatgen
data_Pr4Tm2Ga3Si
_symmetry_space_group_name_H-M   'P 1'
_cell_length_a   7.70189976
_cell_length_b   7.70189976
_cell_length_c   4.55132700
_cell_angle_alpha   90.00000000
_cell_angle_beta   90.00000000
_cell_angle_gamma   89.58398555
_symmetry_Int_Tables_number   1
_chemical_formula_structural   Pr4Tm2Ga3Si
_chemical_formula_sum   'Pr4 Tm2 Ga3 Si1'
_cell_volume   269.97423230
_cell_formula_units_Z   1
loop_
 _symmetry_equiv_pos_site_id
 _symmetry_equiv_pos_as_xyz
  1  'x, y, z'
loop_
 _atom_site_type_symbol
 _atom_site_label
 _atom_site_symmetry_multiplicity
 _atom_site_fract_x
 _atom_site_fract_y
 _atom_site_fract_z
 _atom_site_occupancy
  Pr  Pr0  1  0.673878  0.176501  0.500000  1
  Pr  Pr1  1  0.323499  0.826122  0.500000  1
  Pr  Pr2  1  0.180819  0.319181  0.500000  1
  Pr  Pr3  1  0.822683  0.677317  0.500000  1
  Tm  Tm4  1  0.499788  0.496495  0.000000  1
  Tm  Tm5  1  0.003505  0.000212  0.000000  1
  Ga  Ga6  1  0.118823  0.619337  0.000000  1
  Ga  Ga7  1  0.880663  0.381177  0.000000  1
  Ga  Ga8  1  0.615970  0.884030  0.000000  1
  Si  Si9  1  0.380371  0.119629  0.000000  1
