# generated using pymatgen
data_YNb8CdSe16
_symmetry_space_group_name_H-M   'P 1'
_cell_length_a   7.04210000
_cell_length_b   7.04210044
_cell_length_c   14.36322500
_cell_angle_alpha   90.00000000
_cell_angle_beta   90.00000000
_cell_angle_gamma   119.99999795
_symmetry_Int_Tables_number   1
_chemical_formula_structural   YNb8CdSe16
_chemical_formula_sum   'Y1 Nb8 Cd1 Se16'
_cell_volume   616.86056473
_cell_formula_units_Z   1
loop_
 _symmetry_equiv_pos_site_id
 _symmetry_equiv_pos_as_xyz
  1  'x, y, z'
loop_
 _atom_site_type_symbol
 _atom_site_label
 _atom_site_symmetry_multiplicity
 _atom_site_fract_x
 _atom_site_fract_y
 _atom_site_fract_z
 _atom_site_occupancy
  Y  Y0  1  0.000000  0.000000  0.500000  1
  Nb  Nb1  1  0.000000  0.000000  0.249671  1
  Nb  Nb2  1  0.000000  0.000000  0.750329  1
  Nb  Nb3  1  0.507461  0.014923  0.246723  1
  Nb  Nb4  1  0.985077  0.492539  0.246723  1
  Nb  Nb5  1  0.507461  0.492539  0.246723  1
  Nb  Nb6  1  0.492539  0.985077  0.753277  1
  Nb  Nb7  1  0.014923  0.507461  0.753277  1
  Nb  Nb8  1  0.492539  0.507461  0.753277  1
  Cd  Cd9  1  0.000000  0.000000  0.000000  1
  Se  Se10  1  0.333333  0.666667  0.873148  1
  Se  Se11  1  0.666667  0.333333  0.126852  1
  Se  Se12  1  0.666667  0.333333  0.367284  1
  Se  Se13  1  0.333333  0.666667  0.632716  1
  Se  Se14  1  0.169938  0.830062  0.363048  1
  Se  Se15  1  0.169938  0.339875  0.363048  1
  Se  Se16  1  0.660125  0.830062  0.363048  1
  Se  Se17  1  0.830062  0.169938  0.636952  1
  Se  Se18  1  0.830062  0.660125  0.636952  1
  Se  Se19  1  0.339875  0.169938  0.636952  1
  Se  Se20  1  0.831538  0.168462  0.866581  1
  Se  Se21  1  0.831538  0.663077  0.866581  1
  Se  Se22  1  0.336923  0.168462  0.866581  1
  Se  Se23  1  0.168462  0.831538  0.133419  1
  Se  Se24  1  0.168462  0.336923  0.133419  1
  Se  Se25  1  0.663077  0.831538  0.133419  1
