# generated using pymatgen
data_Yb6Al19Si5Ir8
_symmetry_space_group_name_H-M   'P 1'
_cell_length_a   8.69696937
_cell_length_b   8.69696844
_cell_length_c   9.56334200
_cell_angle_alpha   90.00000000
_cell_angle_beta   90.00000000
_cell_angle_gamma   119.86704875
_symmetry_Int_Tables_number   1
_chemical_formula_structural   Yb6Al19Si5Ir8
_chemical_formula_sum   'Yb6 Al19 Si5 Ir8'
_cell_volume   627.27275158
_cell_formula_units_Z   1
loop_
 _symmetry_equiv_pos_site_id
 _symmetry_equiv_pos_as_xyz
  1  'x, y, z'
loop_
 _atom_site_type_symbol
 _atom_site_label
 _atom_site_symmetry_multiplicity
 _atom_site_fract_x
 _atom_site_fract_y
 _atom_site_fract_z
 _atom_site_occupancy
  Yb  Yb0  1  0.805507  0.194493  0.750000  1
  Yb  Yb1  1  0.193873  0.806127  0.250000  1
  Yb  Yb2  1  0.390797  0.198146  0.750000  1
  Yb  Yb3  1  0.611020  0.805588  0.250000  1
  Yb  Yb4  1  0.801854  0.609203  0.750000  1
  Yb  Yb5  1  0.194412  0.388980  0.250000  1
  Al  Al6  1  0.835606  0.164394  0.420304  1
  Al  Al7  1  0.164847  0.835153  0.579880  1
  Al  Al8  1  0.329215  0.164666  0.421402  1
  Al  Al9  1  0.164847  0.835153  0.920120  1
  Al  Al10  1  0.671611  0.836404  0.579849  1
  Al  Al11  1  0.835606  0.164394  0.079696  1
  Al  Al12  1  0.835334  0.670785  0.421402  1
  Al  Al13  1  0.671611  0.836404  0.920151  1
  Al  Al14  1  0.163596  0.328389  0.579849  1
  Al  Al15  1  0.329215  0.164666  0.078598  1
  Al  Al16  1  0.163596  0.328389  0.920151  1
  Al  Al17  1  0.835334  0.670785  0.078598  1
  Al  Al18  1  0.563136  0.436864  0.250000  1
  Al  Al19  1  0.127304  0.561133  0.750000  1
  Al  Al20  1  0.872271  0.436475  0.250000  1
  Al  Al21  1  0.438867  0.872696  0.750000  1
  Al  Al22  1  0.563525  0.127729  0.250000  1
  Al  Al23  1  0.999872  0.000128  0.750000  1
  Al  Al24  1  0.999768  0.000232  0.250000  1
  Si  Si25  1  0.667565  0.332435  0.962895  1
  Si  Si26  1  0.332559  0.667441  0.039367  1
  Si  Si27  1  0.332559  0.667441  0.460633  1
  Si  Si28  1  0.667565  0.332435  0.537105  1
  Si  Si29  1  0.435296  0.564704  0.750000  1
  Ir  Ir30  1  0.499152  0.500848  0.994795  1
  Ir  Ir31  1  0.001403  0.500045  0.999470  1
  Ir  Ir32  1  0.499152  0.500848  0.505205  1
  Ir  Ir33  1  0.499955  0.998597  0.999470  1
  Ir  Ir34  1  0.001403  0.500045  0.500530  1
  Ir  Ir35  1  0.499955  0.998597  0.500530  1
  Ir  Ir36  1  0.000406  0.999594  0.000212  1
  Ir  Ir37  1  0.000406  0.999594  0.499788  1
