# generated using pymatgen
data_Ho7Lu(Ga3Ag)4
_symmetry_space_group_name_H-M   'P 1'
_cell_length_a   8.84956900
_cell_length_b   8.86925730
_cell_length_c   7.01362200
_cell_angle_alpha   90.00000000
_cell_angle_beta   90.00000000
_cell_angle_gamma   120.07058635
_symmetry_Int_Tables_number   1
_chemical_formula_structural   Ho7Lu(Ga3Ag)4
_chemical_formula_sum   'Ho7 Lu1 Ga12 Ag4'
_cell_volume   476.40138878
_cell_formula_units_Z   1
loop_
 _symmetry_equiv_pos_site_id
 _symmetry_equiv_pos_as_xyz
  1  'x, y, z'
loop_
 _atom_site_type_symbol
 _atom_site_label
 _atom_site_symmetry_multiplicity
 _atom_site_fract_x
 _atom_site_fract_y
 _atom_site_fract_z
 _atom_site_occupancy
  Ho  Ho0  1  0.000368  0.000122  0.250000  1
  Ho  Ho1  1  0.999998  0.000057  0.750000  1
  Ho  Ho2  1  0.513611  0.028294  0.250000  1
  Ho  Ho3  1  0.513616  0.485352  0.250000  1
  Ho  Ho4  1  0.971769  0.485907  0.250000  1
  Ho  Ho5  1  0.485582  0.971610  0.750000  1
  Ho  Ho6  1  0.485552  0.513932  0.750000  1
  Lu  Lu7  1  0.029101  0.514542  0.750000  1
  Ga  Ga8  1  0.164434  0.329103  0.035267  1
  Ga  Ga9  1  0.164481  0.835292  0.464813  1
  Ga  Ga10  1  0.669753  0.834895  0.463898  1
  Ga  Ga11  1  0.669753  0.834895  0.036102  1
  Ga  Ga12  1  0.164481  0.835292  0.035187  1
  Ga  Ga13  1  0.835739  0.670589  0.962271  1
  Ga  Ga14  1  0.835640  0.165160  0.962384  1
  Ga  Ga15  1  0.330262  0.165109  0.964127  1
  Ga  Ga16  1  0.164434  0.329103  0.464733  1
  Ga  Ga17  1  0.330262  0.165109  0.535873  1
  Ga  Ga18  1  0.835739  0.670589  0.537729  1
  Ga  Ga19  1  0.835640  0.165160  0.537616  1
  Ag  Ag20  1  0.331940  0.665915  0.034932  1
  Ag  Ag21  1  0.331940  0.665915  0.465068  1
  Ag  Ag22  1  0.667954  0.334029  0.962628  1
  Ag  Ag23  1  0.667954  0.334029  0.537372  1
