# generated using pymatgen
data_LaEu(TmSe2)4
_symmetry_space_group_name_H-M   'P 1'
_cell_length_a   4.05215100
_cell_length_b   13.44952200
_cell_length_c   13.73501400
_cell_angle_alpha   90.00000000
_cell_angle_beta   90.00000000
_cell_angle_gamma   90.00000000
_symmetry_Int_Tables_number   1
_chemical_formula_structural   LaEu(TmSe2)4
_chemical_formula_sum   'La2 Eu2 Tm8 Se16'
_cell_volume   748.55131338
_cell_formula_units_Z   2
loop_
 _symmetry_equiv_pos_site_id
 _symmetry_equiv_pos_as_xyz
  1  'x, y, z'
loop_
 _atom_site_type_symbol
 _atom_site_label
 _atom_site_symmetry_multiplicity
 _atom_site_fract_x
 _atom_site_fract_y
 _atom_site_fract_z
 _atom_site_occupancy
  La  La0  1  0.250000  0.369200  0.584981  1
  La  La1  1  0.250000  0.869200  0.915019  1
  Eu  Eu2  1  0.750000  0.632455  0.413115  1
  Eu  Eu3  1  0.750000  0.132455  0.086885  1
  Tm  Tm4  1  0.250000  0.106145  0.418825  1
  Tm  Tm5  1  0.250000  0.606145  0.081175  1
  Tm  Tm6  1  0.750000  0.894041  0.579201  1
  Tm  Tm7  1  0.750000  0.394041  0.920799  1
  Tm  Tm8  1  0.250000  0.148556  0.798886  1
  Tm  Tm9  1  0.250000  0.648556  0.701114  1
  Tm  Tm10  1  0.750000  0.850237  0.202766  1
  Tm  Tm11  1  0.750000  0.350237  0.297234  1
  Se  Se12  1  0.250000  0.214828  0.239487  1
  Se  Se13  1  0.250000  0.714828  0.260513  1
  Se  Se14  1  0.750000  0.785627  0.761833  1
  Se  Se15  1  0.750000  0.285627  0.738167  1
  Se  Se16  1  0.250000  0.258894  0.973214  1
  Se  Se17  1  0.250000  0.758894  0.526786  1
  Se  Se18  1  0.750000  0.741004  0.026307  1
  Se  Se19  1  0.750000  0.241004  0.473693  1
  Se  Se20  1  0.250000  0.466313  0.381788  1
  Se  Se21  1  0.250000  0.966313  0.118212  1
  Se  Se22  1  0.750000  0.533057  0.619126  1
  Se  Se23  1  0.750000  0.033057  0.880874  1
  Se  Se24  1  0.250000  0.035549  0.619139  1
  Se  Se25  1  0.250000  0.535549  0.880861  1
  Se  Se26  1  0.750000  0.964093  0.380374  1
  Se  Se27  1  0.750000  0.464093  0.119626  1
