# generated using pymatgen
data_PrDy3(AuCl6)4
_symmetry_space_group_name_H-M   'P 1'
_cell_length_a   7.66415706
_cell_length_b   9.99283776
_cell_length_c   14.17606447
_cell_angle_alpha   103.54828324
_cell_angle_beta   96.85826465
_cell_angle_gamma   112.10740080
_symmetry_Int_Tables_number   1
_chemical_formula_structural   PrDy3(AuCl6)4
_chemical_formula_sum   'Pr1 Dy3 Au4 Cl24'
_cell_volume   951.56287649
_cell_formula_units_Z   1
loop_
 _symmetry_equiv_pos_site_id
 _symmetry_equiv_pos_as_xyz
  1  'x, y, z'
loop_
 _atom_site_type_symbol
 _atom_site_label
 _atom_site_symmetry_multiplicity
 _atom_site_fract_x
 _atom_site_fract_y
 _atom_site_fract_z
 _atom_site_occupancy
  Pr  Pr0  1  0.973187  0.313011  0.871826  1
  Dy  Dy1  1  0.578351  0.924578  0.619986  1
  Dy  Dy2  1  0.028713  0.688430  0.129904  1
  Dy  Dy3  1  0.419509  0.073366  0.378267  1
  Au  Au4  1  0.295140  0.634458  0.762947  1
  Au  Au5  1  0.499605  0.499455  0.499674  1
  Au  Au6  1  0.706297  0.367245  0.236157  1
  Au  Au7  1  0.000209  0.998723  0.001401  1
  Cl  Cl8  1  0.772070  0.094505  0.971826  1
  Cl  Cl9  1  0.720174  0.151056  0.263344  1
  Cl  Cl10  1  0.280538  0.850327  0.736653  1
  Cl  Cl11  1  0.769787  0.790614  0.029150  1
  Cl  Cl12  1  0.606606  0.185045  0.740036  1
  Cl  Cl13  1  0.314342  0.415696  0.784084  1
  Cl  Cl14  1  0.694417  0.587887  0.214656  1
  Cl  Cl15  1  0.302922  0.629300  0.501041  1
  Cl  Cl16  1  0.235368  0.205625  0.973636  1
  Cl  Cl17  1  0.758216  0.730643  0.524362  1
  Cl  Cl18  1  0.222249  0.898462  0.031393  1
  Cl  Cl19  1  0.722732  0.047835  0.483740  1
  Cl  Cl20  1  0.611858  0.732257  0.745445  1
  Cl  Cl21  1  0.945265  0.050697  0.725778  1
  Cl  Cl22  1  0.240862  0.267955  0.474812  1
  Cl  Cl23  1  0.383642  0.811780  0.256993  1
  Cl  Cl24  1  0.975049  0.542782  0.776917  1
  Cl  Cl25  1  0.761729  0.442499  0.982143  1
  Cl  Cl26  1  0.242372  0.571845  0.026818  1
  Cl  Cl27  1  0.024894  0.463449  0.220262  1
  Cl  Cl28  1  0.389610  0.268836  0.254672  1
  Cl  Cl29  1  0.275266  0.951057  0.514680  1
  Cl  Cl30  1  0.696409  0.370034  0.498584  1
  Cl  Cl31  1  0.052611  0.940549  0.268813  1
