# generated using pymatgen
data_Hf4Zr2BI12
_symmetry_space_group_name_H-M   'P 1'
_cell_length_a   9.27869987
_cell_length_b   9.32516681
_cell_length_c   9.37303424
_cell_angle_alpha   106.92387164
_cell_angle_beta   106.57868575
_cell_angle_gamma   106.76713007
_symmetry_Int_Tables_number   1
_chemical_formula_structural   Hf4Zr2BI12
_chemical_formula_sum   'Hf4 Zr2 B1 I12'
_cell_volume   679.84391245
_cell_formula_units_Z   1
loop_
 _symmetry_equiv_pos_site_id
 _symmetry_equiv_pos_as_xyz
  1  'x, y, z'
loop_
 _atom_site_type_symbol
 _atom_site_label
 _atom_site_symmetry_multiplicity
 _atom_site_fract_x
 _atom_site_fract_y
 _atom_site_fract_z
 _atom_site_occupancy
  Hf  Hf0  1  0.973445  0.734273  0.913497  1
  Hf  Hf1  1  0.268744  0.088151  0.026720  1
  Hf  Hf2  1  0.084627  0.026407  0.262849  1
  Hf  Hf3  1  0.913774  0.975263  0.735550  1
  Zr  Zr4  1  0.730655  0.913347  0.974177  1
  Zr  Zr5  1  0.023917  0.268328  0.086666  1
  B  B6  1  0.001987  0.999771  0.998696  1
  I  I7  1  0.922333  0.301377  0.774301  1
  I  I8  1  0.689240  0.223024  0.078044  1
  I  I9  1  0.433395  0.136997  0.359653  1
  I  I10  1  0.864046  0.640286  0.568247  1
  I  I11  1  0.223848  0.076676  0.700389  1
  I  I12  1  0.639268  0.561350  0.860290  1
  I  I13  1  0.365307  0.435120  0.138291  1
  I  I14  1  0.781209  0.922889  0.307343  1
  I  I15  1  0.138859  0.359726  0.436550  1
  I  I16  1  0.565261  0.861639  0.635593  1
  I  I17  1  0.302856  0.777153  0.922806  1
  I  I18  1  0.077229  0.698223  0.220339  1
