# generated using pymatgen
data_KNi9As5
_symmetry_space_group_name_H-M   'P 1'
_cell_length_a   6.73575500
_cell_length_b   6.73575616
_cell_length_c   11.30518300
_cell_angle_alpha   90.00000000
_cell_angle_beta   90.00000000
_cell_angle_gamma   119.99999919
_symmetry_Int_Tables_number   1
_chemical_formula_structural   KNi9As5
_chemical_formula_sum   'K2 Ni18 As10'
_cell_volume   444.20237009
_cell_formula_units_Z   2
loop_
 _symmetry_equiv_pos_site_id
 _symmetry_equiv_pos_as_xyz
  1  'x, y, z'
loop_
 _atom_site_type_symbol
 _atom_site_label
 _atom_site_symmetry_multiplicity
 _atom_site_fract_x
 _atom_site_fract_y
 _atom_site_fract_z
 _atom_site_occupancy
  K  K0  1  0.000000  0.000000  0.500000  1
  K  K1  1  0.000000  0.000000  0.000000  1
  Ni  Ni2  1  0.464176  0.928352  0.892909  1
  Ni  Ni3  1  0.928352  0.464176  0.107091  1
  Ni  Ni4  1  0.535824  0.071648  0.107091  1
  Ni  Ni5  1  0.071648  0.535824  0.607091  1
  Ni  Ni6  1  0.209506  0.419011  0.250000  1
  Ni  Ni7  1  0.790494  0.209506  0.750000  1
  Ni  Ni8  1  0.419011  0.209506  0.750000  1
  Ni  Ni9  1  0.580989  0.790494  0.250000  1
  Ni  Ni10  1  0.209506  0.790494  0.250000  1
  Ni  Ni11  1  0.790494  0.580989  0.750000  1
  Ni  Ni12  1  0.464176  0.928352  0.607091  1
  Ni  Ni13  1  0.535824  0.464176  0.392909  1
  Ni  Ni14  1  0.928352  0.464176  0.392909  1
  Ni  Ni15  1  0.071648  0.535824  0.892909  1
  Ni  Ni16  1  0.464176  0.535824  0.892909  1
  Ni  Ni17  1  0.535824  0.071648  0.392909  1
  Ni  Ni18  1  0.535824  0.464176  0.107091  1
  Ni  Ni19  1  0.464176  0.535824  0.607091  1
  As  As20  1  0.171853  0.343705  0.750000  1
  As  As21  1  0.828147  0.171853  0.250000  1
  As  As22  1  0.171853  0.828147  0.750000  1
  As  As23  1  0.828147  0.656295  0.250000  1
  As  As24  1  0.333333  0.666667  0.439547  1
  As  As25  1  0.666667  0.333333  0.939547  1
  As  As26  1  0.666667  0.333333  0.560453  1
  As  As27  1  0.333333  0.666667  0.060453  1
  As  As28  1  0.343705  0.171853  0.250000  1
  As  As29  1  0.656295  0.828147  0.750000  1
