# generated using pymatgen
data_TbDy3ReB12Os
_symmetry_space_group_name_H-M   'P 1'
_cell_length_a   3.67484000
_cell_length_b   9.17125447
_cell_length_c   11.56318101
_cell_angle_alpha   90.13228725
_cell_angle_beta   90.00000000
_cell_angle_gamma   90.00000000
_symmetry_Int_Tables_number   1
_chemical_formula_structural   TbDy3ReB12Os
_chemical_formula_sum   'Tb2 Dy6 Re2 B24 Os2'
_cell_volume   389.71161127
_cell_formula_units_Z   2
loop_
 _symmetry_equiv_pos_site_id
 _symmetry_equiv_pos_as_xyz
  1  'x, y, z'
loop_
 _atom_site_type_symbol
 _atom_site_label
 _atom_site_symmetry_multiplicity
 _atom_site_fract_x
 _atom_site_fract_y
 _atom_site_fract_z
 _atom_site_occupancy
  Tb  Tb0  1  0.000000  0.321143  0.412421  1
  Tb  Tb1  1  0.000000  0.678857  0.587579  1
  Dy  Dy2  1  0.000000  0.824911  0.084778  1
  Dy  Dy3  1  0.000000  0.175089  0.915222  1
  Dy  Dy4  1  0.000000  0.943310  0.370544  1
  Dy  Dy5  1  0.000000  0.056690  0.629456  1
  Dy  Dy6  1  0.000000  0.442361  0.128837  1
  Dy  Dy7  1  0.000000  0.557639  0.871163  1
  Re  Re8  1  0.000000  0.138301  0.179377  1
  Re  Re9  1  0.000000  0.861699  0.820623  1
  B  B10  1  0.500000  0.553916  0.432618  1
  B  B11  1  0.500000  0.446084  0.567382  1
  B  B12  1  0.500000  0.053067  0.066958  1
  B  B13  1  0.500000  0.946933  0.933042  1
  B  B14  1  0.500000  0.748281  0.418433  1
  B  B15  1  0.500000  0.251719  0.581567  1
  B  B16  1  0.500000  0.248307  0.081125  1
  B  B17  1  0.500000  0.751693  0.918875  1
  B  B18  1  0.500000  0.790365  0.266130  1
  B  B19  1  0.500000  0.209635  0.733870  1
  B  B20  1  0.500000  0.291152  0.234160  1
  B  B21  1  0.500000  0.708848  0.765840  1
  B  B22  1  0.500000  0.631148  0.186386  1
  B  B23  1  0.500000  0.368852  0.813614  1
  B  B24  1  0.500000  0.131479  0.314304  1
  B  B25  1  0.500000  0.868521  0.685696  1
  B  B26  1  0.500000  0.983118  0.212418  1
  B  B27  1  0.500000  0.016882  0.787582  1
  B  B28  1  0.500000  0.483636  0.287880  1
  B  B29  1  0.500000  0.516364  0.712120  1
  B  B30  1  0.500000  0.603907  0.029006  1
  B  B31  1  0.500000  0.396093  0.970994  1
  B  B32  1  0.500000  0.104169  0.471234  1
  B  B33  1  0.500000  0.895831  0.528766  1
  Os  Os34  1  0.000000  0.637610  0.321747  1
  Os  Os35  1  0.000000  0.362390  0.678253  1
