# generated using pymatgen
data_Rb2Ga(TeO4)3
_symmetry_space_group_name_H-M   'P 1'
_cell_length_a   7.15533809
_cell_length_b   7.33378632
_cell_length_c   7.15805261
_cell_angle_alpha   89.99575376
_cell_angle_beta   61.64498222
_cell_angle_gamma   120.81433205
_symmetry_Int_Tables_number   1
_chemical_formula_structural   Rb2Ga(TeO4)3
_chemical_formula_sum   'Rb2 Ga1 Te3 O12'
_cell_volume   268.77310500
_cell_formula_units_Z   1
loop_
 _symmetry_equiv_pos_site_id
 _symmetry_equiv_pos_as_xyz
  1  'x, y, z'
loop_
 _atom_site_type_symbol
 _atom_site_label
 _atom_site_symmetry_multiplicity
 _atom_site_fract_x
 _atom_site_fract_y
 _atom_site_fract_z
 _atom_site_occupancy
  Rb  Rb0  1  0.261780  0.128335  0.630957  1
  Rb  Rb1  1  0.738227  0.866556  0.369038  1
  Ga  Ga2  1  0.999984  0.497085  0.000019  1
  Te  Te3  1  0.499921  0.497232  0.000036  1
  Te  Te4  1  0.500066  0.997300  0.999953  1
  Te  Te5  1  0.000011  0.497205  0.500009  1
  O  O6  1  0.648178  0.821487  0.928501  1
  O  O7  1  0.851869  0.423293  0.327811  1
  O  O8  1  0.253707  0.423426  0.926176  1
  O  O9  1  0.252477  0.821436  0.323928  1
  O  O10  1  0.253488  0.824900  0.926082  1
  O  O11  1  0.252456  0.425713  0.324060  1
  O  O12  1  0.351814  0.173293  0.071504  1
  O  O13  1  0.148150  0.571426  0.672139  1
  O  O14  1  0.746494  0.571377  0.073906  1
  O  O15  1  0.747540  0.173248  0.675961  1
  O  O16  1  0.746326  0.169740  0.073844  1
  O  O17  1  0.747511  0.568951  0.676074  1
