# generated using pymatgen
data_Tb3Er(Tm2Co)4
_symmetry_space_group_name_H-M   'P 1'
_cell_length_a   6.18788587
_cell_length_b   6.88941909
_cell_length_c   9.26729500
_cell_angle_alpha   90.00000000
_cell_angle_beta   90.00000000
_cell_angle_gamma   90.06250215
_symmetry_Int_Tables_number   1
_chemical_formula_structural   Tb3Er(Tm2Co)4
_chemical_formula_sum   'Tb3 Er1 Tm8 Co4'
_cell_volume   395.07325351
_cell_formula_units_Z   1
loop_
 _symmetry_equiv_pos_site_id
 _symmetry_equiv_pos_as_xyz
  1  'x, y, z'
loop_
 _atom_site_type_symbol
 _atom_site_label
 _atom_site_symmetry_multiplicity
 _atom_site_fract_x
 _atom_site_fract_y
 _atom_site_fract_z
 _atom_site_occupancy
  Tb  Tb0  1  0.639504  0.041274  0.250000  1
  Tb  Tb1  1  0.138962  0.458449  0.750000  1
  Tb  Tb2  1  0.361617  0.958720  0.750000  1
  Er  Er3  1  0.860046  0.541876  0.250000  1
  Tm  Tm4  1  0.323730  0.674829  0.067985  1
  Tm  Tm5  1  0.175652  0.175071  0.432250  1
  Tm  Tm6  1  0.675845  0.325437  0.567424  1
  Tm  Tm7  1  0.824367  0.824765  0.932532  1
  Tm  Tm8  1  0.675845  0.325437  0.932576  1
  Tm  Tm9  1  0.824367  0.824765  0.567468  1
  Tm  Tm10  1  0.323730  0.674829  0.432015  1
  Tm  Tm11  1  0.175652  0.175071  0.067750  1
  Co  Co12  1  0.049627  0.886096  0.250000  1
  Co  Co13  1  0.450452  0.386642  0.250000  1
  Co  Co14  1  0.949197  0.113215  0.750000  1
  Co  Co15  1  0.551408  0.613521  0.750000  1
