# generated using pymatgen
data_Cs3In(SiP)12
_symmetry_space_group_name_H-M   'P 1'
_cell_length_a   3.56589600
_cell_length_b   9.91173395
_cell_length_c   20.39845374
_cell_angle_alpha   92.30894588
_cell_angle_beta   90.00000000
_cell_angle_gamma   90.00000000
_symmetry_Int_Tables_number   1
_chemical_formula_structural   Cs3In(SiP)12
_chemical_formula_sum   'Cs3 In1 Si12 P12'
_cell_volume   720.38194172
_cell_formula_units_Z   1
loop_
 _symmetry_equiv_pos_site_id
 _symmetry_equiv_pos_as_xyz
  1  'x, y, z'
loop_
 _atom_site_type_symbol
 _atom_site_label
 _atom_site_symmetry_multiplicity
 _atom_site_fract_x
 _atom_site_fract_y
 _atom_site_fract_z
 _atom_site_occupancy
  Cs  Cs0  1  0.000000  0.709915  0.688326  1
  Cs  Cs1  1  0.000000  0.209252  0.809047  1
  Cs  Cs2  1  0.000000  0.801173  0.196446  1
  In  In3  1  0.000000  0.310494  0.305971  1
  Si  Si4  1  0.500000  0.409642  0.035691  1
  Si  Si5  1  0.500000  0.594344  0.966551  1
  Si  Si6  1  0.500000  0.093564  0.528810  1
  Si  Si7  1  0.500000  0.896686  0.460355  1
  Si  Si8  1  0.000000  0.116849  0.021185  1
  Si  Si9  1  0.000000  0.886717  0.988634  1
  Si  Si10  1  0.000000  0.381161  0.513648  1
  Si  Si11  1  0.000000  0.606810  0.483177  1
  Si  Si12  1  0.000000  0.199441  0.131670  1
  Si  Si13  1  0.000000  0.817566  0.876915  1
  Si  Si14  1  0.000000  0.319538  0.624099  1
  Si  Si15  1  0.000000  0.659616  0.371782  1
  P  P16  1  0.500000  0.140998  0.191396  1
  P  P17  1  0.500000  0.883374  0.820427  1
  P  P18  1  0.500000  0.386252  0.683276  1
  P  P19  1  0.500000  0.589846  0.312077  1
  P  P20  1  0.500000  0.276907  0.462455  1
  P  P21  1  0.500000  0.718488  0.529883  1
  P  P22  1  0.500000  0.214219  0.970850  1
  P  P23  1  0.500000  0.783760  0.036136  1
  P  P24  1  0.000000  0.425252  0.105624  1
  P  P25  1  0.000000  0.586911  0.896505  1
  P  P26  1  0.000000  0.088483  0.598790  1
  P  P27  1  0.000000  0.892743  0.390269  1
