# generated using pymatgen
data_Yb14GeSb11
_symmetry_space_group_name_H-M   'P 1'
_cell_length_a   16.21706344
_cell_length_b   16.21706364
_cell_length_c   16.21706400
_cell_angle_alpha   117.95788830
_cell_angle_beta   117.95788868
_cell_angle_gamma   93.57500032
_symmetry_Int_Tables_number   1
_chemical_formula_structural   Yb14GeSb11
_chemical_formula_sum   'Yb56 Ge4 Sb44'
_cell_volume   3102.34833613
_cell_formula_units_Z   4
loop_
 _symmetry_equiv_pos_site_id
 _symmetry_equiv_pos_as_xyz
  1  'x, y, z'
loop_
 _atom_site_type_symbol
 _atom_site_label
 _atom_site_symmetry_multiplicity
 _atom_site_fract_x
 _atom_site_fract_y
 _atom_site_fract_z
 _atom_site_occupancy
  Yb  Yb0  1  0.002721  0.720960  0.632474  1
  Yb  Yb1  1  0.502721  0.870248  0.281761  1
  Yb  Yb2  1  0.970960  0.752721  0.132474  1
  Yb  Yb3  1  0.470960  0.338486  0.218239  1
  Yb  Yb4  1  0.747279  0.529040  0.867526  1
  Yb  Yb5  1  0.247279  0.379752  0.218239  1
  Yb  Yb6  1  0.779040  0.497279  0.367526  1
  Yb  Yb7  1  0.279040  0.911514  0.281761  1
  Yb  Yb8  1  0.588486  0.220960  0.718239  1
  Yb  Yb9  1  0.088486  0.370248  0.367526  1
  Yb  Yb10  1  0.120248  0.252721  0.781761  1
  Yb  Yb11  1  0.620248  0.838486  0.867526  1
  Yb  Yb12  1  0.161514  0.029040  0.781761  1
  Yb  Yb13  1  0.661514  0.879752  0.132474  1
  Yb  Yb14  1  0.629752  0.997279  0.718239  1
  Yb  Yb15  1  0.129752  0.411514  0.632474  1
  Yb  Yb16  1  0.847997  0.743235  0.850013  1
  Yb  Yb17  1  0.347997  0.497984  0.104762  1
  Yb  Yb18  1  0.993235  0.597997  0.350013  1
  Yb  Yb19  1  0.493235  0.143222  0.395238  1
  Yb  Yb20  1  0.902003  0.506765  0.649987  1
  Yb  Yb21  1  0.402003  0.752016  0.395238  1
  Yb  Yb22  1  0.756765  0.652003  0.149987  1
  Yb  Yb23  1  0.256765  0.106778  0.104762  1
  Yb  Yb24  1  0.393222  0.243235  0.895238  1
  Yb  Yb25  1  0.893222  0.997984  0.149987  1
  Yb  Yb26  1  0.747984  0.097997  0.604762  1
  Yb  Yb27  1  0.247984  0.643222  0.649987  1
  Yb  Yb28  1  0.356778  0.006765  0.604762  1
  Yb  Yb29  1  0.856778  0.252016  0.350013  1
  Yb  Yb30  1  0.002016  0.152003  0.895238  1
  Yb  Yb31  1  0.502016  0.606778  0.850013  1
  Yb  Yb32  1  0.978279  0.375000  0.103279  1
  Yb  Yb33  1  0.478279  0.375000  0.603279  1
  Yb  Yb34  1  0.625000  0.728279  0.603279  1
  Yb  Yb35  1  0.125000  0.521721  0.896721  1
  Yb  Yb36  1  0.771721  0.875000  0.396721  1
  Yb  Yb37  1  0.271721  0.875000  0.896721  1
  Yb  Yb38  1  0.625000  0.228279  0.103279  1
  Yb  Yb39  1  0.125000  0.021721  0.396721  1
  Yb  Yb40  1  0.213095  0.193120  0.341324  1
  Yb  Yb41  1  0.713095  0.371771  0.019975  1
  Yb  Yb42  1  0.443120  0.963095  0.841324  1
  Yb  Yb43  1  0.943120  0.101796  0.480025  1
  Yb  Yb44  1  0.536905  0.056880  0.158676  1
  Yb  Yb45  1  0.036905  0.878229  0.480025  1
  Yb  Yb46  1  0.306880  0.286905  0.658676  1
  Yb  Yb47  1  0.806880  0.148204  0.019975  1
  Yb  Yb48  1  0.351796  0.693120  0.980025  1
  Yb  Yb49  1  0.851796  0.871771  0.658676  1
  Yb  Yb50  1  0.621771  0.463095  0.519975  1
  Yb  Yb51  1  0.121771  0.601796  0.158676  1
  Yb  Yb52  1  0.398204  0.556880  0.519975  1
  Yb  Yb53  1  0.898204  0.378229  0.841324  1
  Yb  Yb54  1  0.128229  0.786905  0.980025  1
  Yb  Yb55  1  0.628229  0.648204  0.341324  1
  Ge  Ge56  1  0.000000  0.000000  0.000000  1
  Ge  Ge57  1  0.500000  0.500000  0.000000  1
  Ge  Ge58  1  0.250000  0.750000  0.500000  1
  Ge  Ge59  1  0.750000  0.250000  0.500000  1
  Sb  Sb60  1  0.885221  0.885221  0.270443  1
  Sb  Sb61  1  0.385221  0.114779  0.000000  1
  Sb  Sb62  1  0.135221  0.635221  0.770443  1
  Sb  Sb63  1  0.635221  0.864779  0.500000  1
  Sb  Sb64  1  0.864779  0.364779  0.229557  1
  Sb  Sb65  1  0.364779  0.135221  0.500000  1
  Sb  Sb66  1  0.614779  0.614779  0.729557  1
  Sb  Sb67  1  0.114779  0.385221  0.000000  1
  Sb  Sb68  1  0.071083  0.924701  0.863416  1
  Sb  Sb69  1  0.571083  0.707667  0.146382  1
  Sb  Sb70  1  0.174701  0.821083  0.363416  1
  Sb  Sb71  1  0.674701  0.311285  0.353618  1
  Sb  Sb72  1  0.678917  0.325299  0.636584  1
  Sb  Sb73  1  0.178917  0.542333  0.353618  1
  Sb  Sb74  1  0.575299  0.428917  0.136584  1
  Sb  Sb75  1  0.075299  0.938715  0.146382  1
  Sb  Sb76  1  0.561285  0.424701  0.853618  1
  Sb  Sb77  1  0.061285  0.207667  0.136584  1
  Sb  Sb78  1  0.957667  0.321083  0.646382  1
  Sb  Sb79  1  0.457667  0.811285  0.636584  1
  Sb  Sb80  1  0.188715  0.825299  0.646382  1
  Sb  Sb81  1  0.688715  0.042333  0.363416  1
  Sb  Sb82  1  0.792333  0.928917  0.853618  1
  Sb  Sb83  1  0.292333  0.438715  0.863416  1
  Sb  Sb84  1  0.791396  0.645910  0.592965  1
  Sb  Sb85  1  0.291396  0.698431  0.145486  1
  Sb  Sb86  1  0.895910  0.541396  0.092965  1
  Sb  Sb87  1  0.395910  0.302945  0.354514  1
  Sb  Sb88  1  0.958604  0.604090  0.907035  1
  Sb  Sb89  1  0.458604  0.551569  0.354514  1
  Sb  Sb90  1  0.854090  0.708604  0.407035  1
  Sb  Sb91  1  0.354090  0.947055  0.145486  1
  Sb  Sb92  1  0.552945  0.145910  0.854514  1
  Sb  Sb93  1  0.052945  0.198431  0.407035  1
  Sb  Sb94  1  0.948431  0.041396  0.645486  1
  Sb  Sb95  1  0.448431  0.802945  0.907035  1
  Sb  Sb96  1  0.197055  0.104090  0.645486  1
  Sb  Sb97  1  0.697055  0.051569  0.092965  1
  Sb  Sb98  1  0.801569  0.208604  0.854514  1
  Sb  Sb99  1  0.301569  0.447055  0.592965  1
  Sb  Sb100  1  0.750000  0.750000  0.000000  1
  Sb  Sb101  1  0.250000  0.250000  0.000000  1
  Sb  Sb102  1  0.000000  0.500000  0.500000  1
  Sb  Sb103  1  0.500000  0.000000  0.500000  1
