# generated using pymatgen
data_Hf8Ir3RhO2
_symmetry_space_group_name_H-M   'P 1'
_cell_length_a   8.73185276
_cell_length_b   8.73184349
_cell_length_c   8.73953100
_cell_angle_alpha   59.97094094
_cell_angle_beta   59.97085477
_cell_angle_gamma   59.94749543
_symmetry_Int_Tables_number   1
_chemical_formula_structural   Hf8Ir3RhO2
_chemical_formula_sum   'Hf16 Ir6 Rh2 O4'
_cell_volume   470.78414092
_cell_formula_units_Z   2
loop_
 _symmetry_equiv_pos_site_id
 _symmetry_equiv_pos_as_xyz
  1  'x, y, z'
loop_
 _atom_site_type_symbol
 _atom_site_label
 _atom_site_symmetry_multiplicity
 _atom_site_fract_x
 _atom_site_fract_y
 _atom_site_fract_z
 _atom_site_occupancy
  Hf  Hf0  1  0.108810  0.631418  0.629887  1
  Hf  Hf1  1  0.631418  0.108809  0.629887  1
  Hf  Hf2  1  0.630064  0.630065  0.111329  1
  Hf  Hf3  1  0.630063  0.630064  0.628543  1
  Hf  Hf4  1  0.813809  0.813809  0.186191  1
  Hf  Hf5  1  0.187692  0.187692  0.812308  1
  Hf  Hf6  1  0.813305  0.186779  0.812662  1
  Hf  Hf7  1  0.186779  0.813305  0.187254  1
  Hf  Hf8  1  0.186779  0.813305  0.812662  1
  Hf  Hf9  1  0.813304  0.186779  0.187254  1
  Hf  Hf10  1  0.435999  0.435999  0.064001  1
  Hf  Hf11  1  0.067162  0.067163  0.432838  1
  Hf  Hf12  1  0.434588  0.066381  0.434233  1
  Hf  Hf13  1  0.066381  0.434589  0.064797  1
  Hf  Hf14  1  0.066381  0.434588  0.434233  1
  Hf  Hf15  1  0.434588  0.066381  0.064798  1
  Ir  Ir16  1  0.767820  0.409862  0.411159  1
  Ir  Ir17  1  0.409862  0.767820  0.411159  1
  Ir  Ir18  1  0.411161  0.411161  0.765034  1
  Ir  Ir19  1  0.411162  0.411161  0.412643  1
  Ir  Ir20  1  0.453732  0.847029  0.849619  1
  Ir  Ir21  1  0.847029  0.453733  0.849619  1
  Rh  Rh22  1  0.846834  0.846832  0.456988  1
  Rh  Rh23  1  0.846833  0.846834  0.849346  1
  O  O24  1  0.623380  0.125221  0.125699  1
  O  O25  1  0.125222  0.623380  0.125699  1
  O  O26  1  0.124921  0.124921  0.624796  1
  O  O27  1  0.124921  0.124921  0.125362  1
