# generated using pymatgen
data_SrNdZr2(NiP)4
_symmetry_space_group_name_H-M   'P 1'
_cell_length_a   3.90936900
_cell_length_b   3.90936887
_cell_length_c   15.56788400
_cell_angle_alpha   90.00000000
_cell_angle_beta   90.00000000
_cell_angle_gamma   119.99999268
_symmetry_Int_Tables_number   1
_chemical_formula_structural   SrNdZr2(NiP)4
_chemical_formula_sum   'Sr1 Nd1 Zr2 Ni4 P4'
_cell_volume   206.05044906
_cell_formula_units_Z   1
loop_
 _symmetry_equiv_pos_site_id
 _symmetry_equiv_pos_as_xyz
  1  'x, y, z'
loop_
 _atom_site_type_symbol
 _atom_site_label
 _atom_site_symmetry_multiplicity
 _atom_site_fract_x
 _atom_site_fract_y
 _atom_site_fract_z
 _atom_site_occupancy
  Sr  Sr0  1  0.000000  0.000000  0.500000  1
  Nd  Nd1  1  0.000000  0.000000  0.000000  1
  Zr  Zr2  1  0.000000  0.000000  0.247002  1
  Zr  Zr3  1  0.000000  0.000000  0.752998  1
  Ni  Ni4  1  0.333333  0.666667  0.341134  1
  Ni  Ni5  1  0.666667  0.333333  0.658866  1
  Ni  Ni6  1  0.666667  0.333333  0.855247  1
  Ni  Ni7  1  0.333333  0.666667  0.144753  1
  P  P8  1  0.333333  0.666667  0.873100  1
  P  P9  1  0.666667  0.333333  0.126900  1
  P  P10  1  0.666667  0.333333  0.360311  1
  P  P11  1  0.333333  0.666667  0.639689  1
