# generated using pymatgen
data_Tm17Lu3(Ir2Ru)4
_symmetry_space_group_name_H-M   'P 1'
_cell_length_a   10.66590800
_cell_length_b   10.66590800
_cell_length_c   6.34381100
_cell_angle_alpha   90.00000000
_cell_angle_beta   90.00000000
_cell_angle_gamma   90.00000000
_symmetry_Int_Tables_number   1
_chemical_formula_structural   Tm17Lu3(Ir2Ru)4
_chemical_formula_sum   'Tm17 Lu3 Ir8 Ru4'
_cell_volume   721.68204800
_cell_formula_units_Z   1
loop_
 _symmetry_equiv_pos_site_id
 _symmetry_equiv_pos_as_xyz
  1  'x, y, z'
loop_
 _atom_site_type_symbol
 _atom_site_label
 _atom_site_symmetry_multiplicity
 _atom_site_fract_x
 _atom_site_fract_y
 _atom_site_fract_z
 _atom_site_occupancy
  Tm  Tm0  1  0.293166  0.086365  0.376633  1
  Tm  Tm1  1  0.293175  0.913605  0.876652  1
  Tm  Tm2  1  0.706825  0.086395  0.876652  1
  Tm  Tm3  1  0.706834  0.913635  0.376633  1
  Tm  Tm4  1  0.586384  0.793252  0.876676  1
  Tm  Tm5  1  0.586417  0.206609  0.376566  1
  Tm  Tm6  1  0.413583  0.793391  0.376566  1
  Tm  Tm7  1  0.413616  0.206748  0.876676  1
  Tm  Tm8  1  0.206609  0.413583  0.623434  1
  Tm  Tm9  1  0.206748  0.586384  0.123324  1
  Tm  Tm10  1  0.793252  0.413616  0.123324  1
  Tm  Tm11  1  0.793391  0.586417  0.623434  1
  Tm  Tm12  1  0.913605  0.706825  0.123348  1
  Tm  Tm13  1  0.913635  0.293166  0.623367  1
  Tm  Tm14  1  0.086365  0.706834  0.623367  1
  Tm  Tm15  1  0.086395  0.293175  0.123348  1
  Tm  Tm16  1  0.500000  0.500000  0.500000  1
  Lu  Lu17  1  0.000000  0.000000  0.500000  1
  Lu  Lu18  1  0.000000  0.000000  0.000000  1
  Lu  Lu19  1  0.500000  0.500000  0.000000  1
  Ir  Ir20  1  0.847883  0.152128  0.249992  1
  Ir  Ir21  1  0.847872  0.847883  0.750008  1
  Ir  Ir22  1  0.152128  0.152117  0.750008  1
  Ir  Ir23  1  0.152117  0.847872  0.249992  1
  Ir  Ir24  1  0.652422  0.347590  0.750528  1
  Ir  Ir25  1  0.652410  0.652422  0.249472  1
  Ir  Ir26  1  0.347590  0.347578  0.249472  1
  Ir  Ir27  1  0.347578  0.652410  0.750528  1
  Ru  Ru28  1  0.500000  0.000000  0.122494  1
  Ru  Ru29  1  0.500000  0.000000  0.622499  1
  Ru  Ru30  1  0.000000  0.500000  0.877506  1
  Ru  Ru31  1  0.000000  0.500000  0.377501  1
