# generated using pymatgen
data_Ho8Er2InSb5
_symmetry_space_group_name_H-M   'P 1'
_cell_length_a   8.93822300
_cell_length_b   8.93364406
_cell_length_c   6.35077411
_cell_angle_alpha   89.98124207
_cell_angle_beta   90.00000000
_cell_angle_gamma   120.01696017
_symmetry_Int_Tables_number   1
_chemical_formula_structural   Ho8Er2InSb5
_chemical_formula_sum   'Ho8 Er2 In1 Sb5'
_cell_volume   439.09940655
_cell_formula_units_Z   1
loop_
 _symmetry_equiv_pos_site_id
 _symmetry_equiv_pos_as_xyz
  1  'x, y, z'
loop_
 _atom_site_type_symbol
 _atom_site_label
 _atom_site_symmetry_multiplicity
 _atom_site_fract_x
 _atom_site_fract_y
 _atom_site_fract_z
 _atom_site_occupancy
  Ho  Ho0  1  0.664956  0.331062  0.000807  1
  Ho  Ho1  1  0.333893  0.668938  0.499193  1
  Ho  Ho2  1  0.757217  0.000000  0.750000  1
  Ho  Ho3  1  0.753947  0.755813  0.250037  1
  Ho  Ho4  1  0.998134  0.244187  0.249963  1
  Ho  Ho5  1  0.003856  0.758239  0.749954  1
  Ho  Ho6  1  0.245617  0.241761  0.750046  1
  Ho  Ho7  1  0.241892  0.000000  0.250000  1
  Er  Er8  1  0.333935  0.669097  0.000708  1
  Er  Er9  1  0.664838  0.330903  0.499292  1
  In  In10  1  0.394740  0.000000  0.750000  1
  Sb  Sb11  1  0.388712  0.390427  0.249971  1
  Sb  Sb12  1  0.998286  0.609573  0.250029  1
  Sb  Sb13  1  0.000921  0.390127  0.750033  1
  Sb  Sb14  1  0.610795  0.609873  0.749967  1
  Sb  Sb15  1  0.608262  0.000000  0.250000  1
