# generated using pymatgen
data_Pr2B4IrRh3
_symmetry_space_group_name_H-M   'P 1'
_cell_length_a   6.98996490
_cell_length_b   6.05599314
_cell_length_c   5.56902866
_cell_angle_alpha   73.79026026
_cell_angle_beta   56.29873446
_cell_angle_gamma   51.06973871
_symmetry_Int_Tables_number   1
_chemical_formula_structural   Pr2B4IrRh3
_chemical_formula_sum   'Pr2 B4 Ir1 Rh3'
_cell_volume   151.68534054
_cell_formula_units_Z   1
loop_
 _symmetry_equiv_pos_site_id
 _symmetry_equiv_pos_as_xyz
  1  'x, y, z'
loop_
 _atom_site_type_symbol
 _atom_site_label
 _atom_site_symmetry_multiplicity
 _atom_site_fract_x
 _atom_site_fract_y
 _atom_site_fract_z
 _atom_site_occupancy
  Pr  Pr0  1  0.498640  0.498640  0.501360  1
  Pr  Pr1  1  0.748447  0.748447  0.751553  1
  B  B2  1  0.186223  0.819011  0.175212  1
  B  B3  1  0.059236  0.434203  0.085034  1
  B  B4  1  0.819011  0.186223  0.819554  1
  B  B5  1  0.434203  0.059236  0.421527  1
  Ir  Ir6  1  0.117421  0.117421  0.382579  1
  Rh  Rh7  1  0.869374  0.869374  0.130626  1
  Rh  Rh8  1  0.134233  0.134233  0.865767  1
  Rh  Rh9  1  0.383211  0.383211  0.116789  1
