# generated using pymatgen
data_Np10Si16Ge
_symmetry_space_group_name_H-M   'P 1'
_cell_length_a   10.78591972
_cell_length_b   10.77602536
_cell_length_c   10.78591946
_cell_angle_alpha   144.95794508
_cell_angle_beta   133.32446896
_cell_angle_gamma   59.69706169
_symmetry_Int_Tables_number   1
_chemical_formula_structural   Np10Si16Ge
_chemical_formula_sum   'Np10 Si16 Ge1'
_cell_volume   518.71862371
_cell_formula_units_Z   1
loop_
 _symmetry_equiv_pos_site_id
 _symmetry_equiv_pos_as_xyz
  1  'x, y, z'
loop_
 _atom_site_type_symbol
 _atom_site_label
 _atom_site_symmetry_multiplicity
 _atom_site_fract_x
 _atom_site_fract_y
 _atom_site_fract_z
 _atom_site_occupancy
  Np  Np0  1  0.753090  0.753473  0.507273  1
  Np  Np1  1  0.447970  0.961861  0.012945  1
  Np  Np2  1  0.849599  0.373608  0.022651  1
  Np  Np3  1  0.948914  0.961861  0.513891  1
  Np  Np4  1  0.149933  0.171170  0.523185  1
  Np  Np5  1  0.350957  0.373608  0.524008  1
  Np  Np6  1  0.246200  0.753473  0.000384  1
  Np  Np7  1  0.549973  0.561181  0.506640  1
  Np  Np8  1  0.054540  0.561181  0.011207  1
  Np  Np9  1  0.647985  0.171170  0.021236  1
  Si  Si10  1  0.200817  0.558660  0.357840  1
  Si  Si11  1  0.001152  0.072127  0.070976  1
  Si  Si12  1  0.697650  0.286698  0.589050  1
  Si  Si13  1  0.799393  0.163175  0.363783  1
  Si  Si14  1  0.894239  0.504778  0.610538  1
  Si  Si15  1  0.423316  0.891614  0.468298  1
  Si  Si16  1  0.106422  0.717893  0.611471  1
  Si  Si17  1  0.300952  0.895086  0.594134  1
  Si  Si18  1  0.574360  0.046020  0.471660  1
  Si  Si19  1  0.000150  0.427863  0.427712  1
  Si  Si20  1  0.875366  0.852130  0.976764  1
  Si  Si21  1  0.400608  0.501981  0.101373  1
  Si  Si22  1  0.128345  0.110036  0.981691  1
  Si  Si23  1  0.280581  0.241200  0.960620  1
  Si  Si24  1  0.499523  0.363322  0.863800  1
  Si  Si25  1  0.597258  0.702599  0.105343  1
  Ge  Ge26  1  0.720705  0.683731  0.963027  1
