# generated using pymatgen
data_PrEuYSe3
_symmetry_space_group_name_H-M   'P 1'
_cell_length_a   4.22101200
_cell_length_b   4.22101146
_cell_length_c   10.39827200
_cell_angle_alpha   90.00000000
_cell_angle_beta   90.00000000
_cell_angle_gamma   120.00000422
_symmetry_Int_Tables_number   1
_chemical_formula_structural   PrEuYSe3
_chemical_formula_sum   'Pr1 Eu1 Y1 Se3'
_cell_volume   160.44452620
_cell_formula_units_Z   1
loop_
 _symmetry_equiv_pos_site_id
 _symmetry_equiv_pos_as_xyz
  1  'x, y, z'
loop_
 _atom_site_type_symbol
 _atom_site_label
 _atom_site_symmetry_multiplicity
 _atom_site_fract_x
 _atom_site_fract_y
 _atom_site_fract_z
 _atom_site_occupancy
  Pr  Pr0  1  0.333333  0.666667  0.656788  1
  Eu  Eu1  1  0.000000  0.000000  0.002457  1
  Y  Y2  1  0.666667  0.333333  0.341087  1
  Se  Se3  1  0.333333  0.666667  0.178956  1
  Se  Se4  1  0.666667  0.333333  0.832986  1
  Se  Se5  1  0.000000  0.000000  0.487727  1
