# generated using pymatgen
data_Ac12NiOs2Au
_symmetry_space_group_name_H-M   'P 1'
_cell_length_a   7.03449700
_cell_length_b   7.95440720
_cell_length_c   10.62350900
_cell_angle_alpha   90.00000000
_cell_angle_beta   90.00000000
_cell_angle_gamma   90.12258114
_symmetry_Int_Tables_number   1
_chemical_formula_structural   Ac12NiOs2Au
_chemical_formula_sum   'Ac12 Ni1 Os2 Au1'
_cell_volume   594.43977995
_cell_formula_units_Z   1
loop_
 _symmetry_equiv_pos_site_id
 _symmetry_equiv_pos_as_xyz
  1  'x, y, z'
loop_
 _atom_site_type_symbol
 _atom_site_label
 _atom_site_symmetry_multiplicity
 _atom_site_fract_x
 _atom_site_fract_y
 _atom_site_fract_z
 _atom_site_occupancy
  Ac  Ac0  1  0.340906  0.664786  0.065800  1
  Ac  Ac1  1  0.175464  0.186545  0.432960  1
  Ac  Ac2  1  0.672365  0.328557  0.573297  1
  Ac  Ac3  1  0.825701  0.825939  0.925803  1
  Ac  Ac4  1  0.672365  0.328557  0.926703  1
  Ac  Ac5  1  0.825701  0.825939  0.574197  1
  Ac  Ac6  1  0.340906  0.664786  0.434200  1
  Ac  Ac7  1  0.175464  0.186545  0.067040  1
  Ac  Ac8  1  0.833171  0.529131  0.250000  1
  Ac  Ac9  1  0.640625  0.054314  0.250000  1
  Ac  Ac10  1  0.163339  0.458772  0.750000  1
  Ac  Ac11  1  0.345128  0.945009  0.750000  1
  Ni  Ni12  1  0.930733  0.121159  0.750000  1
  Os  Os13  1  0.431579  0.378941  0.250000  1
  Os  Os14  1  0.561055  0.621023  0.750000  1
  Au  Au15  1  0.065495  0.880001  0.250000  1
