# generated using pymatgen
data_LiHf2(AsRu)3
_symmetry_space_group_name_H-M   'P 1'
_cell_length_a   7.65240078
_cell_length_b   7.65240107
_cell_length_c   7.65240115
_cell_angle_alpha   128.27627311
_cell_angle_beta   121.21234760
_cell_angle_gamma   82.08722874
_symmetry_Int_Tables_number   1
_chemical_formula_structural   LiHf2(AsRu)3
_chemical_formula_sum   'Li2 Hf4 As6 Ru6'
_cell_volume   289.43249785
_cell_formula_units_Z   2
loop_
 _symmetry_equiv_pos_site_id
 _symmetry_equiv_pos_as_xyz
  1  'x, y, z'
loop_
 _atom_site_type_symbol
 _atom_site_label
 _atom_site_symmetry_multiplicity
 _atom_site_fract_x
 _atom_site_fract_y
 _atom_site_fract_z
 _atom_site_occupancy
  Li  Li0  1  0.474443  0.709703  0.735261  1
  Li  Li1  1  0.525557  0.260818  0.235261  1
  Hf  Hf2  1  0.751075  0.835413  0.584338  1
  Hf  Hf3  1  0.248925  0.833264  0.084338  1
  Hf  Hf4  1  0.053072  0.256011  0.702938  1
  Hf  Hf5  1  0.946928  0.649866  0.202938  1
  As  As6  1  0.288122  0.287739  0.499619  1
  As  As7  1  0.711878  0.211497  0.999619  1
  As  As8  1  0.333483  0.580956  0.256214  1
  As  As9  1  0.666517  0.922730  0.247472  1
  As  As10  1  0.175258  0.922730  0.756214  1
  As  As11  1  0.824742  0.580956  0.747472  1
  Ru  Ru12  1  0.500000  0.497893  0.997893  1
  Ru  Ru13  1  0.000000  0.497893  0.497893  1
  Ru  Ru14  1  0.081228  0.247285  0.090009  1
  Ru  Ru15  1  0.918772  0.008780  0.166057  1
  Ru  Ru16  1  0.342723  0.008780  0.590009  1
  Ru  Ru17  1  0.657277  0.247285  0.666057  1
