# generated using pymatgen
data_Dy7ErRe(B8Os)3
_symmetry_space_group_name_H-M   'P 1'
_cell_length_a   3.66360800
_cell_length_b   9.15674705
_cell_length_c   11.54159415
_cell_angle_alpha   90.10230376
_cell_angle_beta   90.00000000
_cell_angle_gamma   90.00000000
_symmetry_Int_Tables_number   1
_chemical_formula_structural   Dy7ErRe(B8Os)3
_chemical_formula_sum   'Dy7 Er1 Re1 B24 Os3'
_cell_volume   387.18214579
_cell_formula_units_Z   1
loop_
 _symmetry_equiv_pos_site_id
 _symmetry_equiv_pos_as_xyz
  1  'x, y, z'
loop_
 _atom_site_type_symbol
 _atom_site_label
 _atom_site_symmetry_multiplicity
 _atom_site_fract_x
 _atom_site_fract_y
 _atom_site_fract_z
 _atom_site_occupancy
  Dy  Dy0  1  0.000000  0.322859  0.414819  1
  Dy  Dy1  1  0.000000  0.679812  0.588344  1
  Dy  Dy2  1  0.000000  0.822479  0.083606  1
  Dy  Dy3  1  0.000000  0.176496  0.913016  1
  Dy  Dy4  1  0.000000  0.943189  0.372015  1
  Dy  Dy5  1  0.000000  0.056174  0.627805  1
  Dy  Dy6  1  0.000000  0.442816  0.127431  1
  Er  Er7  1  0.000000  0.556756  0.872672  1
  Re  Re8  1  0.000000  0.862093  0.821609  1
  B  B9  1  0.500000  0.553567  0.433136  1
  B  B10  1  0.500000  0.446856  0.567500  1
  B  B11  1  0.500000  0.053264  0.067254  1
  B  B12  1  0.500000  0.946820  0.933073  1
  B  B13  1  0.500000  0.747713  0.419405  1
  B  B14  1  0.500000  0.252680  0.580582  1
  B  B15  1  0.500000  0.247572  0.080512  1
  B  B16  1  0.500000  0.751236  0.919273  1
  B  B17  1  0.500000  0.789916  0.266291  1
  B  B18  1  0.500000  0.209959  0.733117  1
  B  B19  1  0.500000  0.290483  0.233491  1
  B  B20  1  0.500000  0.708250  0.766576  1
  B  B21  1  0.500000  0.630887  0.185545  1
  B  B22  1  0.500000  0.369203  0.814240  1
  B  B23  1  0.500000  0.131814  0.314417  1
  B  B24  1  0.500000  0.868322  0.686000  1
  B  B25  1  0.500000  0.983361  0.212618  1
  B  B26  1  0.500000  0.017430  0.787384  1
  B  B27  1  0.500000  0.482955  0.287701  1
  B  B28  1  0.500000  0.517444  0.713310  1
  B  B29  1  0.500000  0.605660  0.029464  1
  B  B30  1  0.500000  0.393190  0.969986  1
  B  B31  1  0.500000  0.108545  0.469652  1
  B  B32  1  0.500000  0.892204  0.529493  1
  Os  Os33  1  0.000000  0.636949  0.321425  1
  Os  Os34  1  0.000000  0.363550  0.678424  1
  Os  Os35  1  0.000000  0.137494  0.178814  1
