# generated using pymatgen
data_Tb17Dy3Ir5Rh7
_symmetry_space_group_name_H-M   'P 1'
_cell_length_a   10.93287112
_cell_length_b   10.93284834
_cell_length_c   6.39895500
_cell_angle_alpha   89.99029060
_cell_angle_beta   89.99369540
_cell_angle_gamma   90.04195608
_symmetry_Int_Tables_number   1
_chemical_formula_structural   Tb17Dy3Ir5Rh7
_chemical_formula_sum   'Tb17 Dy3 Ir5 Rh7'
_cell_volume   764.85037322
_cell_formula_units_Z   1
loop_
 _symmetry_equiv_pos_site_id
 _symmetry_equiv_pos_as_xyz
  1  'x, y, z'
loop_
 _atom_site_type_symbol
 _atom_site_label
 _atom_site_symmetry_multiplicity
 _atom_site_fract_x
 _atom_site_fract_y
 _atom_site_fract_z
 _atom_site_occupancy
  Tb  Tb0  1  0.290848  0.088655  0.378466  1
  Tb  Tb1  1  0.290721  0.909617  0.879774  1
  Tb  Tb2  1  0.708668  0.089998  0.879192  1
  Tb  Tb3  1  0.708463  0.909942  0.378601  1
  Tb  Tb4  1  0.587998  0.789975  0.879746  1
  Tb  Tb5  1  0.587765  0.209939  0.379611  1
  Tb  Tb6  1  0.410706  0.790323  0.379635  1
  Tb  Tb7  1  0.411956  0.209884  0.879506  1
  Tb  Tb8  1  0.210030  0.412026  0.620243  1
  Tb  Tb9  1  0.209674  0.589317  0.120376  1
  Tb  Tb10  1  0.790065  0.412215  0.120392  1
  Tb  Tb11  1  0.790112  0.588023  0.620482  1
  Tb  Tb12  1  0.911352  0.709215  0.121476  1
  Tb  Tb13  1  0.910001  0.291388  0.620863  1
  Tb  Tb14  1  0.090385  0.709223  0.620284  1
  Tb  Tb15  1  0.090046  0.291479  0.121331  1
  Tb  Tb16  1  0.000039  0.999812  0.500138  1
  Dy  Dy17  1  0.000228  0.999922  0.999922  1
  Dy  Dy18  1  0.499928  0.499815  0.000107  1
  Dy  Dy19  1  0.500182  0.500069  0.499897  1
  Ir  Ir20  1  0.153210  0.846800  0.249771  1
  Ir  Ir21  1  0.654353  0.345648  0.749993  1
  Ir  Ir22  1  0.654493  0.654205  0.249834  1
  Ir  Ir23  1  0.345801  0.345500  0.250184  1
  Ir  Ir24  1  0.346266  0.653732  0.749986  1
  Rh  Rh25  1  0.846799  0.153192  0.249832  1
  Rh  Rh26  1  0.846152  0.846773  0.750055  1
  Rh  Rh27  1  0.153224  0.153853  0.750299  1
  Rh  Rh28  1  0.500602  0.000252  0.124010  1
  Rh  Rh29  1  0.500423  0.000235  0.624549  1
  Rh  Rh30  1  0.999765  0.499578  0.875443  1
  Rh  Rh31  1  0.999746  0.499395  0.376001  1
