# generated using pymatgen
data_Tb3Ho(Fe2I)2
_symmetry_space_group_name_H-M   'P 1'
_cell_length_a   3.96168200
_cell_length_b   3.96168178
_cell_length_c   17.22604600
_cell_angle_alpha   90.00000000
_cell_angle_beta   90.00000000
_cell_angle_gamma   120.00000183
_symmetry_Int_Tables_number   1
_chemical_formula_structural   Tb3Ho(Fe2I)2
_chemical_formula_sum   'Tb3 Ho1 Fe4 I2'
_cell_volume   234.13989900
_cell_formula_units_Z   1
loop_
 _symmetry_equiv_pos_site_id
 _symmetry_equiv_pos_as_xyz
  1  'x, y, z'
loop_
 _atom_site_type_symbol
 _atom_site_label
 _atom_site_symmetry_multiplicity
 _atom_site_fract_x
 _atom_site_fract_y
 _atom_site_fract_z
 _atom_site_occupancy
  Tb  Tb0  1  0.000000  0.000000  0.394582  1
  Tb  Tb1  1  0.000000  0.000000  0.605292  1
  Tb  Tb2  1  0.000000  0.000000  0.895388  1
  Ho  Ho3  1  0.000000  0.000000  0.104020  1
  Fe  Fe4  1  0.333333  0.666665  0.005174  1
  Fe  Fe5  1  0.333333  0.666665  0.495628  1
  Fe  Fe6  1  0.666667  0.333333  0.504211  1
  Fe  Fe7  1  0.666667  0.333333  0.996315  1
  I  I8  1  0.666667  0.333333  0.249303  1
  I  I9  1  0.333333  0.666665  0.750088  1
