# generated using pymatgen
data_BaNaTaSe4
_symmetry_space_group_name_H-M   'P 1'
_cell_length_a   10.09025200
_cell_length_b   7.03823872
_cell_length_c   13.12201571
_cell_angle_alpha   69.62262393
_cell_angle_beta   90.00000000
_cell_angle_gamma   90.00000000
_symmetry_Int_Tables_number   1
_chemical_formula_structural   BaNaTaSe4
_chemical_formula_sum   'Ba4 Na4 Ta4 Se16'
_cell_volume   873.57574534
_cell_formula_units_Z   4
loop_
 _symmetry_equiv_pos_site_id
 _symmetry_equiv_pos_as_xyz
  1  'x, y, z'
loop_
 _atom_site_type_symbol
 _atom_site_label
 _atom_site_symmetry_multiplicity
 _atom_site_fract_x
 _atom_site_fract_y
 _atom_site_fract_z
 _atom_site_occupancy
  Ba  Ba0  1  0.881685  0.383127  0.344802  1
  Ba  Ba1  1  0.618315  0.383127  0.844802  1
  Ba  Ba2  1  0.118315  0.616873  0.655198  1
  Ba  Ba3  1  0.381685  0.616873  0.155198  1
  Na  Na4  1  0.116369  0.225661  0.030328  1
  Na  Na5  1  0.383631  0.225661  0.530328  1
  Na  Na6  1  0.883631  0.774339  0.969672  1
  Na  Na7  1  0.616369  0.774339  0.469672  1
  Ta  Ta8  1  0.619135  0.120486  0.184366  1
  Ta  Ta9  1  0.880865  0.120486  0.684366  1
  Ta  Ta10  1  0.380865  0.879514  0.815634  1
  Ta  Ta11  1  0.119135  0.879514  0.315634  1
  Se  Se12  1  0.804802  0.323643  0.090385  1
  Se  Se13  1  0.695198  0.323643  0.590385  1
  Se  Se14  1  0.195198  0.676357  0.909615  1
  Se  Se15  1  0.304802  0.676357  0.409615  1
  Se  Se16  1  0.927706  0.809509  0.431216  1
  Se  Se17  1  0.572294  0.809509  0.931216  1
  Se  Se18  1  0.072294  0.190491  0.568784  1
  Se  Se19  1  0.427706  0.190491  0.068784  1
  Se  Se20  1  0.568938  0.213124  0.341597  1
  Se  Se21  1  0.931062  0.213124  0.841597  1
  Se  Se22  1  0.431062  0.786876  0.658403  1
  Se  Se23  1  0.068938  0.786876  0.158403  1
  Se  Se24  1  0.163487  0.236242  0.261806  1
  Se  Se25  1  0.336513  0.236242  0.761806  1
  Se  Se26  1  0.836513  0.763758  0.738194  1
  Se  Se27  1  0.663487  0.763758  0.238194  1
