# generated using pymatgen
data_Y6Mn15Co2TcP12
_symmetry_space_group_name_H-M   'P 1'
_cell_length_a   3.67988800
_cell_length_b   10.81982800
_cell_length_c   12.63110800
_cell_angle_alpha   90.00000000
_cell_angle_beta   90.00000000
_cell_angle_gamma   90.00000000
_symmetry_Int_Tables_number   1
_chemical_formula_structural   Y6Mn15Co2TcP12
_chemical_formula_sum   'Y6 Mn15 Co2 Tc1 P12'
_cell_volume   502.91710428
_cell_formula_units_Z   1
loop_
 _symmetry_equiv_pos_site_id
 _symmetry_equiv_pos_as_xyz
  1  'x, y, z'
loop_
 _atom_site_type_symbol
 _atom_site_label
 _atom_site_symmetry_multiplicity
 _atom_site_fract_x
 _atom_site_fract_y
 _atom_site_fract_z
 _atom_site_occupancy
  Y  Y0  1  0.000000  0.500000  0.531640  1
  Y  Y1  1  0.500000  0.000000  0.468537  1
  Y  Y2  1  0.500000  0.821058  0.206264  1
  Y  Y3  1  0.500000  0.178942  0.206264  1
  Y  Y4  1  0.000000  0.677593  0.794040  1
  Y  Y5  1  0.000000  0.322407  0.794040  1
  Mn  Mn6  1  0.000000  0.000000  0.835412  1
  Mn  Mn7  1  0.000000  0.500000  0.990680  1
  Mn  Mn8  1  0.500000  0.000000  0.007570  1
  Mn  Mn9  1  0.500000  0.332025  0.996092  1
  Mn  Mn10  1  0.500000  0.667975  0.996092  1
  Mn  Mn11  1  0.000000  0.167612  0.002786  1
  Mn  Mn12  1  0.000000  0.832388  0.002786  1
  Mn  Mn13  1  0.500000  0.297041  0.433300  1
  Mn  Mn14  1  0.500000  0.702959  0.433300  1
  Mn  Mn15  1  0.000000  0.201869  0.568325  1
  Mn  Mn16  1  0.000000  0.798131  0.568325  1
  Mn  Mn17  1  0.500000  0.882586  0.702872  1
  Mn  Mn18  1  0.500000  0.117414  0.702872  1
  Mn  Mn19  1  0.000000  0.620084  0.299695  1
  Mn  Mn20  1  0.000000  0.379916  0.299695  1
  Co  Co21  1  0.500000  0.500000  0.704850  1
  Co  Co22  1  0.000000  0.000000  0.294221  1
  Tc  Tc23  1  0.500000  0.500000  0.163113  1
  P  P24  1  0.500000  0.500000  0.879593  1
  P  P25  1  0.000000  0.000000  0.118968  1
  P  P26  1  0.500000  0.500000  0.357415  1
  P  P27  1  0.000000  0.000000  0.641363  1
  P  P28  1  0.500000  0.317400  0.619130  1
  P  P29  1  0.500000  0.682600  0.619130  1
  P  P30  1  0.000000  0.181564  0.382019  1
  P  P31  1  0.000000  0.818436  0.382019  1
  P  P32  1  0.500000  0.845719  0.885012  1
  P  P33  1  0.500000  0.154281  0.885012  1
  P  P34  1  0.000000  0.653797  0.113783  1
  P  P35  1  0.000000  0.346203  0.113783  1
