# generated using pymatgen
data_HoEr5MnSb2
_symmetry_space_group_name_H-M   'P 1'
_cell_length_a   8.12150900
_cell_length_b   8.12070673
_cell_length_c   4.21434500
_cell_angle_alpha   90.00000000
_cell_angle_beta   90.00000000
_cell_angle_gamma   120.00326404
_symmetry_Int_Tables_number   1
_chemical_formula_structural   HoEr5MnSb2
_chemical_formula_sum   'Ho1 Er5 Mn1 Sb2'
_cell_volume   240.70049784
_cell_formula_units_Z   1
loop_
 _symmetry_equiv_pos_site_id
 _symmetry_equiv_pos_as_xyz
  1  'x, y, z'
loop_
 _atom_site_type_symbol
 _atom_site_label
 _atom_site_symmetry_multiplicity
 _atom_site_fract_x
 _atom_site_fract_y
 _atom_site_fract_z
 _atom_site_occupancy
  Ho  Ho0  1  0.603040  0.000000  0.000000  1
  Er  Er1  1  0.235514  0.000000  0.500000  1
  Er  Er2  1  0.000195  0.235584  0.500000  1
  Er  Er3  1  0.764611  0.764416  0.500000  1
  Er  Er4  1  0.999924  0.603525  0.000000  1
  Er  Er5  1  0.396399  0.396475  0.000000  1
  Mn  Mn6  1  0.000629  0.000000  0.000000  1
  Sb  Sb7  1  0.332925  0.666161  0.500000  1
  Sb  Sb8  1  0.666764  0.333839  0.500000  1
