# generated using pymatgen
data_Tb2B10Rh
_symmetry_space_group_name_H-M   'P 1'
_cell_length_a   4.16711200
_cell_length_b   5.68093000
_cell_length_c   11.33372500
_cell_angle_alpha   90.00000000
_cell_angle_beta   90.00000000
_cell_angle_gamma   90.00000000
_symmetry_Int_Tables_number   1
_chemical_formula_structural   Tb2B10Rh
_chemical_formula_sum   'Tb4 B20 Rh2'
_cell_volume   268.30408313
_cell_formula_units_Z   2
loop_
 _symmetry_equiv_pos_site_id
 _symmetry_equiv_pos_as_xyz
  1  'x, y, z'
loop_
 _atom_site_type_symbol
 _atom_site_label
 _atom_site_symmetry_multiplicity
 _atom_site_fract_x
 _atom_site_fract_y
 _atom_site_fract_z
 _atom_site_occupancy
  Tb  Tb0  1  0.500000  0.201074  0.364019  1
  Tb  Tb1  1  0.500000  0.798926  0.635981  1
  Tb  Tb2  1  0.500000  0.298926  0.864019  1
  Tb  Tb3  1  0.500000  0.701074  0.135981  1
  B  B4  1  0.000000  0.381307  0.042548  1
  B  B5  1  0.000000  0.618693  0.957452  1
  B  B6  1  0.000000  0.118693  0.542548  1
  B  B7  1  0.000000  0.881307  0.457452  1
  B  B8  1  0.000000  0.362998  0.197437  1
  B  B9  1  0.000000  0.637002  0.802563  1
  B  B10  1  0.000000  0.137002  0.697437  1
  B  B11  1  0.000000  0.862998  0.302563  1
  B  B12  1  0.000000  0.055522  0.192742  1
  B  B13  1  0.000000  0.944478  0.807258  1
  B  B14  1  0.000000  0.444478  0.692742  1
  B  B15  1  0.000000  0.555522  0.307258  1
  B  B16  1  0.301209  0.219322  0.118822  1
  B  B17  1  0.698791  0.780678  0.881178  1
  B  B18  1  0.301209  0.780678  0.881178  1
  B  B19  1  0.698791  0.280678  0.618822  1
  B  B20  1  0.698791  0.219322  0.118822  1
  B  B21  1  0.301209  0.719322  0.381178  1
  B  B22  1  0.698791  0.719322  0.381178  1
  B  B23  1  0.301209  0.280678  0.618822  1
  Rh  Rh24  1  0.000000  0.000000  0.000000  1
  Rh  Rh25  1  0.000000  0.500000  0.500000  1
