# generated using pymatgen
data_NdNiPt3Au
_symmetry_space_group_name_H-M   'P 1'
_cell_length_a   5.22139994
_cell_length_b   5.22139992
_cell_length_c   5.22140037
_cell_angle_alpha   62.28972476
_cell_angle_beta   62.28972424
_cell_angle_gamma   62.28973739
_symmetry_Int_Tables_number   1
_chemical_formula_structural   NdNiPt3Au
_chemical_formula_sum   'Nd1 Ni1 Pt3 Au1'
_cell_volume   105.80176311
_cell_formula_units_Z   1
loop_
 _symmetry_equiv_pos_site_id
 _symmetry_equiv_pos_as_xyz
  1  'x, y, z'
loop_
 _atom_site_type_symbol
 _atom_site_label
 _atom_site_symmetry_multiplicity
 _atom_site_fract_x
 _atom_site_fract_y
 _atom_site_fract_z
 _atom_site_occupancy
  Nd  Nd0  1  0.001074  0.001074  0.001074  1
  Ni  Ni1  1  0.623746  0.623746  0.623746  1
  Pt  Pt2  1  0.623404  0.623404  0.126184  1
  Pt  Pt3  1  0.623404  0.126184  0.623404  1
  Pt  Pt4  1  0.126184  0.623404  0.623404  1
  Au  Au5  1  0.252188  0.252188  0.252188  1
