# generated using pymatgen
data_Er4BeSi6Ir
_symmetry_space_group_name_H-M   'P 1'
_cell_length_a   7.99360300
_cell_length_b   7.99360252
_cell_length_c   8.01365100
_cell_angle_alpha   90.00000000
_cell_angle_beta   90.00000000
_cell_angle_gamma   119.99999785
_symmetry_Int_Tables_number   1
_chemical_formula_structural   Er4BeSi6Ir
_chemical_formula_sum   'Er8 Be2 Si12 Ir2'
_cell_volume   443.45156345
_cell_formula_units_Z   2
loop_
 _symmetry_equiv_pos_site_id
 _symmetry_equiv_pos_as_xyz
  1  'x, y, z'
loop_
 _atom_site_type_symbol
 _atom_site_label
 _atom_site_symmetry_multiplicity
 _atom_site_fract_x
 _atom_site_fract_y
 _atom_site_fract_z
 _atom_site_occupancy
  Er  Er0  1  0.994850  0.497425  0.246367  1
  Er  Er1  1  0.502575  0.497425  0.246367  1
  Er  Er2  1  0.497425  0.994850  0.753633  1
  Er  Er3  1  0.005150  0.502575  0.753633  1
  Er  Er4  1  0.497425  0.502575  0.753633  1
  Er  Er5  1  0.502575  0.005150  0.246367  1
  Er  Er6  1  0.000000  0.000000  0.746511  1
  Er  Er7  1  0.000000  0.000000  0.253489  1
  Be  Be8  1  0.666667  0.333333  0.510819  1
  Be  Be9  1  0.333333  0.666667  0.489181  1
  Si  Si10  1  0.172773  0.827227  0.501340  1
  Si  Si11  1  0.172773  0.345544  0.501340  1
  Si  Si12  1  0.654456  0.827227  0.501340  1
  Si  Si13  1  0.332537  0.166269  0.995502  1
  Si  Si14  1  0.827227  0.654456  0.498660  1
  Si  Si15  1  0.833731  0.166269  0.995502  1
  Si  Si16  1  0.833731  0.667463  0.995502  1
  Si  Si17  1  0.166269  0.332537  0.004498  1
  Si  Si18  1  0.667463  0.833731  0.004498  1
  Si  Si19  1  0.345544  0.172773  0.498660  1
  Si  Si20  1  0.827227  0.172773  0.498660  1
  Si  Si21  1  0.166269  0.833731  0.004498  1
  Ir  Ir22  1  0.333333  0.666667  0.004188  1
  Ir  Ir23  1  0.666667  0.333333  0.995812  1
