# generated using pymatgen
data_Er6Si11GePt8
_symmetry_space_group_name_H-M   'P 1'
_cell_length_a   4.24747700
_cell_length_b   8.55452669
_cell_length_c   12.93299753
_cell_angle_alpha   80.31815146
_cell_angle_beta   90.00000000
_cell_angle_gamma   90.00000000
_symmetry_Int_Tables_number   1
_chemical_formula_structural   Er6Si11GePt8
_chemical_formula_sum   'Er6 Si11 Ge1 Pt8'
_cell_volume   463.22927350
_cell_formula_units_Z   1
loop_
 _symmetry_equiv_pos_site_id
 _symmetry_equiv_pos_as_xyz
  1  'x, y, z'
loop_
 _atom_site_type_symbol
 _atom_site_label
 _atom_site_symmetry_multiplicity
 _atom_site_fract_x
 _atom_site_fract_y
 _atom_site_fract_z
 _atom_site_occupancy
  Er  Er0  1  0.250000  0.763969  0.439369  1
  Er  Er1  1  0.250000  0.585269  0.183825  1
  Er  Er2  1  0.750000  0.234041  0.562097  1
  Er  Er3  1  0.750000  0.415984  0.814876  1
  Er  Er4  1  0.750000  0.927129  0.816478  1
  Er  Er5  1  0.250000  0.074138  0.183374  1
  Si  Si6  1  0.750000  0.588126  0.572625  1
  Si  Si7  1  0.750000  0.127638  0.004000  1
  Si  Si8  1  0.750000  0.871663  0.575555  1
  Si  Si9  1  0.250000  0.698450  0.714471  1
  Si  Si10  1  0.750000  0.305167  0.284937  1
  Si  Si11  1  0.750000  0.808210  0.275867  1
  Si  Si12  1  0.250000  0.873325  0.995285  1
  Si  Si13  1  0.250000  0.194254  0.723479  1
  Si  Si14  1  0.250000  0.378720  0.001378  1
  Si  Si15  1  0.250000  0.115263  0.430242  1
  Si  Si16  1  0.750000  0.622028  0.997921  1
  Ge  Ge17  1  0.250000  0.405491  0.426146  1
  Pt  Pt18  1  0.750000  0.352325  0.098436  1
  Pt  Pt19  1  0.250000  0.972146  0.624141  1
  Pt  Pt20  1  0.750000  0.850378  0.087965  1
  Pt  Pt21  1  0.750000  0.029756  0.374600  1
  Pt  Pt22  1  0.250000  0.648321  0.901222  1
  Pt  Pt23  1  0.250000  0.150698  0.911411  1
  Pt  Pt24  1  0.750000  0.539509  0.372742  1
  Pt  Pt25  1  0.250000  0.467997  0.627560  1
