# generated using pymatgen
data_La5Pr5(GeC)4
_symmetry_space_group_name_H-M   'P 1'
_cell_length_a   8.21189499
_cell_length_b   12.93254798
_cell_length_c   4.26984100
_cell_angle_alpha   90.00000000
_cell_angle_beta   90.00000000
_cell_angle_gamma   90.14942142
_symmetry_Int_Tables_number   1
_chemical_formula_structural   La5Pr5(GeC)4
_chemical_formula_sum   'La5 Pr5 Ge4 C4'
_cell_volume   453.45867196
_cell_formula_units_Z   1
loop_
 _symmetry_equiv_pos_site_id
 _symmetry_equiv_pos_as_xyz
  1  'x, y, z'
loop_
 _atom_site_type_symbol
 _atom_site_label
 _atom_site_symmetry_multiplicity
 _atom_site_fract_x
 _atom_site_fract_y
 _atom_site_fract_z
 _atom_site_occupancy
  La  La0  1  0.825907  0.787375  0.000000  1
  La  La1  1  0.832225  0.061624  0.499998  1
  La  La2  1  0.331510  0.438935  0.499998  1
  La  La3  1  0.668064  0.560647  0.499998  1
  La  La4  1  0.168789  0.939926  0.499998  1
  Pr  Pr5  1  0.499619  0.000408  0.000000  1
  Pr  Pr6  1  0.173566  0.212132  0.000000  1
  Pr  Pr7  1  0.673069  0.288212  0.000000  1
  Pr  Pr8  1  0.000498  0.499583  0.000000  1
  Pr  Pr9  1  0.326501  0.711636  0.000000  1
  Ge  Ge10  1  0.451539  0.171656  0.499998  1
  Ge  Ge11  1  0.952299  0.328108  0.499998  1
  Ge  Ge12  1  0.051151  0.669892  0.499998  1
  Ge  Ge13  1  0.544140  0.829250  0.499998  1
  C  C14  1  0.040256  0.046963  0.000000  1
  C  C15  1  0.539847  0.453405  0.000000  1
  C  C16  1  0.460730  0.546707  0.000000  1
  C  C17  1  0.960293  0.953542  0.000000  1
