# generated using pymatgen
data_Y16Zr3ScIr12
_symmetry_space_group_name_H-M   'P 1'
_cell_length_a   10.88066600
_cell_length_b   10.88066600
_cell_length_c   6.28499100
_cell_angle_alpha   90.00000000
_cell_angle_beta   90.00000000
_cell_angle_gamma   90.00000000
_symmetry_Int_Tables_number   1
_chemical_formula_structural   Y16Zr3ScIr12
_chemical_formula_sum   'Y16 Zr3 Sc1 Ir12'
_cell_volume   744.07312451
_cell_formula_units_Z   1
loop_
 _symmetry_equiv_pos_site_id
 _symmetry_equiv_pos_as_xyz
  1  'x, y, z'
loop_
 _atom_site_type_symbol
 _atom_site_label
 _atom_site_symmetry_multiplicity
 _atom_site_fract_x
 _atom_site_fract_y
 _atom_site_fract_z
 _atom_site_occupancy
  Y  Y0  1  0.288261  0.085849  0.374391  1
  Y  Y1  1  0.289751  0.913286  0.875088  1
  Y  Y2  1  0.710249  0.086714  0.875088  1
  Y  Y3  1  0.711739  0.914151  0.374391  1
  Y  Y4  1  0.586862  0.789648  0.874103  1
  Y  Y5  1  0.586097  0.209877  0.373775  1
  Y  Y6  1  0.413903  0.790123  0.373775  1
  Y  Y7  1  0.413138  0.210352  0.874103  1
  Y  Y8  1  0.209877  0.413903  0.626225  1
  Y  Y9  1  0.210352  0.586862  0.125897  1
  Y  Y10  1  0.789648  0.413138  0.125897  1
  Y  Y11  1  0.790123  0.586097  0.626225  1
  Y  Y12  1  0.913286  0.710249  0.124912  1
  Y  Y13  1  0.914151  0.288261  0.625609  1
  Y  Y14  1  0.085849  0.711739  0.625609  1
  Y  Y15  1  0.086714  0.289751  0.124912  1
  Zr  Zr16  1  0.000000  0.000000  0.000000  1
  Zr  Zr17  1  0.500000  0.500000  0.000000  1
  Zr  Zr18  1  0.500000  0.500000  0.500000  1
  Sc  Sc19  1  0.000000  0.000000  0.500000  1
  Ir  Ir20  1  0.855190  0.145784  0.246873  1
  Ir  Ir21  1  0.854216  0.855190  0.753127  1
  Ir  Ir22  1  0.145784  0.144810  0.753127  1
  Ir  Ir23  1  0.144810  0.854216  0.246873  1
  Ir  Ir24  1  0.644339  0.355807  0.749190  1
  Ir  Ir25  1  0.644193  0.644339  0.250810  1
  Ir  Ir26  1  0.355807  0.355661  0.250810  1
  Ir  Ir27  1  0.355661  0.644193  0.749190  1
  Ir  Ir28  1  0.500000  0.000000  0.122169  1
  Ir  Ir29  1  0.500000  0.000000  0.621427  1
  Ir  Ir30  1  0.000000  0.500000  0.877831  1
  Ir  Ir31  1  0.000000  0.500000  0.378573  1
