# generated using pymatgen
data_Dy2TmTa(Co4P3)2
_symmetry_space_group_name_H-M   'P 1'
_cell_length_a   3.70049300
_cell_length_b   10.61353100
_cell_length_c   12.31139200
_cell_angle_alpha   90.00000000
_cell_angle_beta   90.00000000
_cell_angle_gamma   90.00000000
_symmetry_Int_Tables_number   1
_chemical_formula_structural   Dy2TmTa(Co4P3)2
_chemical_formula_sum   'Dy4 Tm2 Ta2 Co16 P12'
_cell_volume   483.53357939
_cell_formula_units_Z   2
loop_
 _symmetry_equiv_pos_site_id
 _symmetry_equiv_pos_as_xyz
  1  'x, y, z'
loop_
 _atom_site_type_symbol
 _atom_site_label
 _atom_site_symmetry_multiplicity
 _atom_site_fract_x
 _atom_site_fract_y
 _atom_site_fract_z
 _atom_site_occupancy
  Dy  Dy0  1  0.000000  0.500000  0.526763  1
  Dy  Dy1  1  0.500000  0.000000  0.472586  1
  Dy  Dy2  1  0.000000  0.679287  0.794971  1
  Dy  Dy3  1  0.000000  0.320713  0.794971  1
  Tm  Tm4  1  0.500000  0.821139  0.204950  1
  Tm  Tm5  1  0.500000  0.178861  0.204950  1
  Ta  Ta6  1  0.500000  0.500000  0.156874  1
  Ta  Ta7  1  0.000000  0.000000  0.843503  1
  Co  Co8  1  0.500000  0.500000  0.702398  1
  Co  Co9  1  0.000000  0.000000  0.296747  1
  Co  Co10  1  0.000000  0.500000  0.987782  1
  Co  Co11  1  0.500000  0.000000  0.013871  1
  Co  Co12  1  0.500000  0.332284  0.993237  1
  Co  Co13  1  0.500000  0.667716  0.993237  1
  Co  Co14  1  0.000000  0.167067  0.008626  1
  Co  Co15  1  0.000000  0.832933  0.008626  1
  Co  Co16  1  0.500000  0.295119  0.431453  1
  Co  Co17  1  0.500000  0.704881  0.431453  1
  Co  Co18  1  0.000000  0.204400  0.567090  1
  Co  Co19  1  0.000000  0.795600  0.567090  1
  Co  Co20  1  0.500000  0.877866  0.705291  1
  Co  Co21  1  0.500000  0.122134  0.705291  1
  Co  Co22  1  0.000000  0.622947  0.293857  1
  Co  Co23  1  0.000000  0.377053  0.293857  1
  P  P24  1  0.500000  0.500000  0.882536  1
  P  P25  1  0.000000  0.000000  0.119022  1
  P  P26  1  0.500000  0.500000  0.356645  1
  P  P27  1  0.000000  0.000000  0.643153  1
  P  P28  1  0.500000  0.310879  0.615243  1
  P  P29  1  0.500000  0.689121  0.615243  1
  P  P30  1  0.000000  0.188526  0.383027  1
  P  P31  1  0.000000  0.811474  0.383027  1
  P  P32  1  0.500000  0.841126  0.893062  1
  P  P33  1  0.500000  0.158874  0.893062  1
  P  P34  1  0.000000  0.659883  0.108253  1
  P  P35  1  0.000000  0.340117  0.108253  1
