# generated using pymatgen
data_Ca4Al2Pd3Pt
_symmetry_space_group_name_H-M   'P 1'
_cell_length_a   5.76475621
_cell_length_b   5.77975760
_cell_length_c   7.81865767
_cell_angle_alpha   79.06893217
_cell_angle_beta   79.03076067
_cell_angle_gamma   60.27435595
_symmetry_Int_Tables_number   1
_chemical_formula_structural   Ca4Al2Pd3Pt
_chemical_formula_sum   'Ca4 Al2 Pd3 Pt1'
_cell_volume   220.70395984
_cell_formula_units_Z   1
loop_
 _symmetry_equiv_pos_site_id
 _symmetry_equiv_pos_as_xyz
  1  'x, y, z'
loop_
 _atom_site_type_symbol
 _atom_site_label
 _atom_site_symmetry_multiplicity
 _atom_site_fract_x
 _atom_site_fract_y
 _atom_site_fract_z
 _atom_site_occupancy
  Ca  Ca0  1  0.782013  0.520337  0.349845  1
  Ca  Ca1  1  0.480782  0.218667  0.147110  1
  Ca  Ca2  1  0.218478  0.482643  0.651182  1
  Ca  Ca3  1  0.519455  0.779210  0.852248  1
  Al  Al4  1  0.118268  0.876632  0.248849  1
  Al  Al5  1  0.881750  0.115918  0.752077  1
  Pd  Pd6  1  0.257365  0.996851  0.494834  1
  Pd  Pd7  1  0.997490  0.262023  0.997431  1
  Pd  Pd8  1  0.741604  0.004830  0.502983  1
  Pt  Pt9  1  0.002794  0.742889  0.003442  1
