# generated using pymatgen
data_Y6CrCo2(P4Ir5)3
_symmetry_space_group_name_H-M   'P 1'
_cell_length_a   3.91342000
_cell_length_b   11.12495000
_cell_length_c   12.75113400
_cell_angle_alpha   90.00000000
_cell_angle_beta   90.00000000
_cell_angle_gamma   90.00000000
_symmetry_Int_Tables_number   1
_chemical_formula_structural   Y6CrCo2(P4Ir5)3
_chemical_formula_sum   'Y6 Cr1 Co2 P12 Ir15'
_cell_volume   555.14104383
_cell_formula_units_Z   1
loop_
 _symmetry_equiv_pos_site_id
 _symmetry_equiv_pos_as_xyz
  1  'x, y, z'
loop_
 _atom_site_type_symbol
 _atom_site_label
 _atom_site_symmetry_multiplicity
 _atom_site_fract_x
 _atom_site_fract_y
 _atom_site_fract_z
 _atom_site_occupancy
  Y  Y0  1  0.000000  0.500000  0.518606  1
  Y  Y1  1  0.500000  0.000000  0.478527  1
  Y  Y2  1  0.500000  0.816747  0.201941  1
  Y  Y3  1  0.500000  0.183253  0.201941  1
  Y  Y4  1  0.000000  0.683112  0.800389  1
  Y  Y5  1  0.000000  0.316888  0.800389  1
  Cr  Cr6  1  0.500000  0.500000  0.163886  1
  Co  Co7  1  0.000000  0.500000  0.989331  1
  Co  Co8  1  0.500000  0.000000  0.022697  1
  P  P9  1  0.500000  0.500000  0.882672  1
  P  P10  1  0.000000  0.000000  0.120345  1
  P  P11  1  0.500000  0.500000  0.344193  1
  P  P12  1  0.000000  0.000000  0.644028  1
  P  P13  1  0.500000  0.316505  0.619146  1
  P  P14  1  0.500000  0.683495  0.619146  1
  P  P15  1  0.000000  0.186514  0.380569  1
  P  P16  1  0.000000  0.813486  0.380569  1
  P  P17  1  0.500000  0.853107  0.896100  1
  P  P18  1  0.500000  0.146893  0.896100  1
  P  P19  1  0.000000  0.649565  0.104920  1
  P  P20  1  0.000000  0.350435  0.104920  1
  Ir  Ir21  1  0.000000  0.000000  0.824772  1
  Ir  Ir22  1  0.500000  0.500000  0.703102  1
  Ir  Ir23  1  0.000000  0.000000  0.298495  1
  Ir  Ir24  1  0.500000  0.336704  0.995685  1
  Ir  Ir25  1  0.500000  0.663296  0.995685  1
  Ir  Ir26  1  0.000000  0.161401  0.005790  1
  Ir  Ir27  1  0.000000  0.838599  0.005790  1
  Ir  Ir28  1  0.500000  0.292616  0.430100  1
  Ir  Ir29  1  0.500000  0.707384  0.430100  1
  Ir  Ir30  1  0.000000  0.207496  0.571730  1
  Ir  Ir31  1  0.000000  0.792504  0.571730  1
  Ir  Ir32  1  0.500000  0.870690  0.714424  1
  Ir  Ir33  1  0.500000  0.129310  0.714424  1
  Ir  Ir34  1  0.000000  0.626729  0.283879  1
  Ir  Ir35  1  0.000000  0.373271  0.283879  1
