# generated using pymatgen
data_TbDyEr2(B6Os)2
_symmetry_space_group_name_H-M   'P 1'
_cell_length_a   3.64486400
_cell_length_b   9.13078701
_cell_length_c   11.51840601
_cell_angle_alpha   89.99925990
_cell_angle_beta   90.00000000
_cell_angle_gamma   90.00000000
_symmetry_Int_Tables_number   1
_chemical_formula_structural   TbDyEr2(B6Os)2
_chemical_formula_sum   'Tb2 Dy2 Er4 B24 Os4'
_cell_volume   383.33804471
_cell_formula_units_Z   2
loop_
 _symmetry_equiv_pos_site_id
 _symmetry_equiv_pos_as_xyz
  1  'x, y, z'
loop_
 _atom_site_type_symbol
 _atom_site_label
 _atom_site_symmetry_multiplicity
 _atom_site_fract_x
 _atom_site_fract_y
 _atom_site_fract_z
 _atom_site_occupancy
  Tb  Tb0  1  0.000000  0.321855  0.413869  1
  Tb  Tb1  1  0.000000  0.678145  0.586131  1
  Dy  Dy2  1  0.000000  0.821829  0.085919  1
  Dy  Dy3  1  0.000000  0.178171  0.914081  1
  Er  Er4  1  0.000000  0.943815  0.372649  1
  Er  Er5  1  0.000000  0.056185  0.627351  1
  Er  Er6  1  0.000000  0.443799  0.126839  1
  Er  Er7  1  0.000000  0.556201  0.873161  1
  B  B8  1  0.500000  0.554229  0.432545  1
  B  B9  1  0.500000  0.445771  0.567455  1
  B  B10  1  0.500000  0.053941  0.066914  1
  B  B11  1  0.500000  0.946059  0.933086  1
  B  B12  1  0.500000  0.748621  0.419178  1
  B  B13  1  0.500000  0.251379  0.580822  1
  B  B14  1  0.500000  0.248224  0.080124  1
  B  B15  1  0.500000  0.751776  0.919876  1
  B  B16  1  0.500000  0.791164  0.265980  1
  B  B17  1  0.500000  0.208836  0.734020  1
  B  B18  1  0.500000  0.290821  0.233181  1
  B  B19  1  0.500000  0.709179  0.766819  1
  B  B20  1  0.500000  0.631288  0.184796  1
  B  B21  1  0.500000  0.368712  0.815204  1
  B  B22  1  0.500000  0.130870  0.314560  1
  B  B23  1  0.500000  0.869130  0.685440  1
  B  B24  1  0.500000  0.982728  0.212926  1
  B  B25  1  0.500000  0.017272  0.787074  1
  B  B26  1  0.500000  0.483087  0.286306  1
  B  B27  1  0.500000  0.516913  0.713694  1
  B  B28  1  0.500000  0.606723  0.029485  1
  B  B29  1  0.500000  0.393277  0.970515  1
  B  B30  1  0.500000  0.105496  0.470779  1
  B  B31  1  0.500000  0.894504  0.529221  1
  Os  Os32  1  0.000000  0.637712  0.320616  1
  Os  Os33  1  0.000000  0.362288  0.679384  1
  Os  Os34  1  0.000000  0.137295  0.178752  1
  Os  Os35  1  0.000000  0.862705  0.821248  1
