# generated using pymatgen
data_CrCu4Ni(RhO4)2
_symmetry_space_group_name_H-M   'P 1'
_cell_length_a   5.30182900
_cell_length_b   6.75505949
_cell_length_c   6.17279603
_cell_angle_alpha   117.18617653
_cell_angle_beta   90.00332910
_cell_angle_gamma   105.11176157
_symmetry_Int_Tables_number   1
_chemical_formula_structural   CrCu4Ni(RhO4)2
_chemical_formula_sum   'Cr1 Cu4 Ni1 Rh2 O8'
_cell_volume   188.01366452
_cell_formula_units_Z   1
loop_
 _symmetry_equiv_pos_site_id
 _symmetry_equiv_pos_as_xyz
  1  'x, y, z'
loop_
 _atom_site_type_symbol
 _atom_site_label
 _atom_site_symmetry_multiplicity
 _atom_site_fract_x
 _atom_site_fract_y
 _atom_site_fract_z
 _atom_site_occupancy
  Cr  Cr0  1  0.500000  0.500000  0.750000  1
  Cu  Cu1  1  0.003226  0.998519  0.499916  1
  Cu  Cu2  1  0.996774  0.001480  0.000086  1
  Cu  Cu3  1  0.500000  0.000000  0.250000  1
  Cu  Cu4  1  0.500000  0.000000  0.750000  1
  Ni  Ni5  1  0.500000  0.500001  0.250000  1
  Rh  Rh6  1  0.999893  0.499872  0.499362  1
  Rh  Rh7  1  0.000107  0.500128  0.000638  1
  O  O8  1  0.396100  0.680489  0.595517  1
  O  O9  1  0.396295  0.680590  0.085054  1
  O  O10  1  0.603705  0.319410  0.414946  1
  O  O11  1  0.603899  0.319511  0.904482  1
  O  O12  1  0.896747  0.679898  0.340040  1
  O  O13  1  0.889518  0.680849  0.840274  1
  O  O14  1  0.110482  0.319151  0.659726  1
  O  O15  1  0.103253  0.320102  0.159960  1
