# generated using pymatgen
data_K2PaBiO6
_symmetry_space_group_name_H-M   'P 1'
_cell_length_a   6.10052061
_cell_length_b   6.10052010
_cell_length_c   6.10052000
_cell_angle_alpha   60.00000055
_cell_angle_beta   60.00000330
_cell_angle_gamma   60.00000571
_symmetry_Int_Tables_number   1
_chemical_formula_structural   K2PaBiO6
_chemical_formula_sum   'K2 Pa1 Bi1 O6'
_cell_volume   160.54088400
_cell_formula_units_Z   1
loop_
 _symmetry_equiv_pos_site_id
 _symmetry_equiv_pos_as_xyz
  1  'x, y, z'
loop_
 _atom_site_type_symbol
 _atom_site_label
 _atom_site_symmetry_multiplicity
 _atom_site_fract_x
 _atom_site_fract_y
 _atom_site_fract_z
 _atom_site_occupancy
  K  K0  1  0.750000  0.750000  0.750000  1
  K  K1  1  0.250000  0.250000  0.250000  1
  Pa  Pa2  1  0.500000  0.500000  0.500000  1
  Bi  Bi3  1  0.000000  0.000000  0.000000  1
  O  O4  1  0.750663  0.249337  0.249337  1
  O  O5  1  0.249337  0.249337  0.750663  1
  O  O6  1  0.249337  0.750663  0.750663  1
  O  O7  1  0.249337  0.750663  0.249337  1
  O  O8  1  0.750663  0.249337  0.750663  1
  O  O9  1  0.750663  0.750663  0.249337  1
