# generated using pymatgen
data_TbY7Ti11Si16Au
_symmetry_space_group_name_H-M   'P 1'
_cell_length_a   7.08046158
_cell_length_b   7.08054130
_cell_length_c   12.92193015
_cell_angle_alpha   90.11986913
_cell_angle_beta   89.87294973
_cell_angle_gamma   89.58029800
_symmetry_Int_Tables_number   1
_chemical_formula_structural   TbY7Ti11Si16Au
_chemical_formula_sum   'Tb1 Y7 Ti11 Si16 Au1'
_cell_volume   647.80118016
_cell_formula_units_Z   1
loop_
 _symmetry_equiv_pos_site_id
 _symmetry_equiv_pos_as_xyz
  1  'x, y, z'
loop_
 _atom_site_type_symbol
 _atom_site_label
 _atom_site_symmetry_multiplicity
 _atom_site_fract_x
 _atom_site_fract_y
 _atom_site_fract_z
 _atom_site_occupancy
  Tb  Tb0  1  0.000240  0.656447  0.031481  1
  Y  Y1  1  0.340503  0.002786  0.466761  1
  Y  Y2  1  0.497345  0.839673  0.717099  1
  Y  Y3  1  0.500729  0.158246  0.214240  1
  Y  Y4  1  0.839694  0.497345  0.282925  1
  Y  Y5  1  0.158281  0.500742  0.785770  1
  Y  Y6  1  0.656411  0.000241  0.968495  1
  Y  Y7  1  0.002809  0.340514  0.533224  1
  Ti  Ti8  1  0.174538  0.826722  0.249566  1
  Ti  Ti9  1  0.826707  0.174510  0.750450  1
  Ti  Ti10  1  0.672900  0.672913  0.499998  1
  Ti  Ti11  1  0.148851  0.007947  0.877697  1
  Ti  Ti12  1  0.494077  0.651462  0.123939  1
  Ti  Ti13  1  0.508256  0.350452  0.626086  1
  Ti  Ti14  1  0.651393  0.494047  0.876081  1
  Ti  Ti15  1  0.350454  0.508320  0.373922  1
  Ti  Ti16  1  0.849061  0.991794  0.374905  1
  Ti  Ti17  1  0.007990  0.148886  0.122332  1
  Ti  Ti18  1  0.991781  0.849025  0.625062  1
  Si  Si19  1  0.201469  0.131051  0.685441  1
  Si  Si20  1  0.374735  0.718521  0.930141  1
  Si  Si21  1  0.630314  0.294896  0.433555  1
  Si  Si22  1  0.718288  0.374451  0.069805  1
  Si  Si23  1  0.294881  0.630328  0.566431  1
  Si  Si24  1  0.798210  0.868943  0.183635  1
  Si  Si25  1  0.131092  0.201393  0.314558  1
  Si  Si26  1  0.868924  0.798248  0.816381  1
  Si  Si27  1  0.285372  0.937666  0.066093  1
  Si  Si28  1  0.546733  0.791334  0.314660  1
  Si  Si29  1  0.454951  0.207561  0.809653  1
  Si  Si30  1  0.791304  0.546875  0.685333  1
  Si  Si31  1  0.207565  0.454973  0.190437  1
  Si  Si32  1  0.709246  0.047717  0.564829  1
  Si  Si33  1  0.937455  0.285049  0.933883  1
  Si  Si34  1  0.047766  0.709277  0.435119  1
  Au  Au35  1  0.329676  0.329645  0.000013  1
