# generated using pymatgen
data_Ho16MgIn2HgIr3Pd
_symmetry_space_group_name_H-M   'P 1'
_cell_length_a   9.62544989
_cell_length_b   9.64152417
_cell_length_c   9.64152500
_cell_angle_alpha   60.13184061
_cell_angle_beta   60.03132360
_cell_angle_gamma   60.03132098
_symmetry_Int_Tables_number   1
_chemical_formula_structural   Ho16MgIn2HgIr3Pd
_chemical_formula_sum   'Ho16 Mg1 In2 Hg1 Ir3 Pd1'
_cell_volume   633.62773926
_cell_formula_units_Z   1
loop_
 _symmetry_equiv_pos_site_id
 _symmetry_equiv_pos_as_xyz
  1  'x, y, z'
loop_
 _atom_site_type_symbol
 _atom_site_label
 _atom_site_symmetry_multiplicity
 _atom_site_fract_x
 _atom_site_fract_y
 _atom_site_fract_z
 _atom_site_occupancy
  Ho  Ho0  1  0.438994  0.433325  0.061084  1
  Ho  Ho1  1  0.653410  0.646711  0.051159  1
  Ho  Ho2  1  0.184053  0.811299  0.193230  1
  Ho  Ho3  1  0.064335  0.439258  0.057146  1
  Ho  Ho4  1  0.186508  0.808929  0.809144  1
  Ho  Ho5  1  0.063876  0.436592  0.435549  1
  Ho  Ho6  1  0.812374  0.188524  0.188118  1
  Ho  Ho7  1  0.654444  0.648592  0.647683  1
  Ho  Ho8  1  0.809783  0.191321  0.807921  1
  Ho  Ho9  1  0.183424  0.192259  0.812163  1
  Ho  Ho10  1  0.045674  0.650976  0.650970  1
  Ho  Ho11  1  0.441017  0.064455  0.058884  1
  Ho  Ho12  1  0.061863  0.060352  0.438532  1
  Ho  Ho13  1  0.652846  0.051670  0.646917  1
  Ho  Ho14  1  0.809512  0.808300  0.191650  1
  Ho  Ho15  1  0.439414  0.063134  0.432532  1
  Mg  Mg16  1  0.422408  0.422716  0.424687  1
  In  In17  1  0.416774  0.747347  0.418615  1
  In  In18  1  0.749253  0.416838  0.417564  1
  Hg  Hg19  1  0.414213  0.415116  0.753964  1
  Ir  Ir20  1  0.855906  0.858566  0.858250  1
  Ir  Ir21  1  0.856339  0.426035  0.859595  1
  Ir  Ir22  1  0.856599  0.859221  0.426200  1
  Pd  Pd23  1  0.426986  0.858468  0.858446  1
