# generated using pymatgen
data_LiYb3SmFeC8
_symmetry_space_group_name_H-M   'P 1'
_cell_length_a   6.83796490
_cell_length_b   6.73738224
_cell_length_c   6.75953662
_cell_angle_alpha   134.21290355
_cell_angle_beta   111.62738871
_cell_angle_gamma   86.22793572
_symmetry_Int_Tables_number   1
_chemical_formula_structural   LiYb3SmFeC8
_chemical_formula_sum   'Li1 Yb3 Sm1 Fe1 C8'
_cell_volume   198.76293131
_cell_formula_units_Z   1
loop_
 _symmetry_equiv_pos_site_id
 _symmetry_equiv_pos_as_xyz
  1  'x, y, z'
loop_
 _atom_site_type_symbol
 _atom_site_label
 _atom_site_symmetry_multiplicity
 _atom_site_fract_x
 _atom_site_fract_y
 _atom_site_fract_z
 _atom_site_occupancy
  Li  Li0  1  0.001252  0.252292  0.244567  1
  Yb  Yb1  1  0.797145  0.639370  0.147643  1
  Yb  Yb2  1  0.519402  0.860785  0.667576  1
  Yb  Yb3  1  0.490375  0.152079  0.350306  1
  Sm  Sm4  1  0.199275  0.346478  0.840197  1
  Fe  Fe5  1  0.997760  0.744665  0.747679  1
  C  C6  1  0.801529  0.137809  0.683978  1
  C  C7  1  0.203108  0.883119  0.340141  1
  C  C8  1  0.451235  0.615927  0.818507  1
  C  C9  1  0.542874  0.372060  0.165226  1
  C  C10  1  0.906229  0.008497  0.750936  1
  C  C11  1  0.092223  0.850077  0.109198  1
  C  C12  1  0.258008  0.652898  0.744402  1
  C  C13  1  0.739588  0.483942  0.389643  1
