# generated using pymatgen
data_Ac6Sc(ReC4)3
_symmetry_space_group_name_H-M   'P 1'
_cell_length_a   8.82626000
_cell_length_b   8.82625967
_cell_length_c   5.64452100
_cell_angle_alpha   90.00000000
_cell_angle_beta   90.00000000
_cell_angle_gamma   120.00000123
_symmetry_Int_Tables_number   1
_chemical_formula_structural   Ac6Sc(ReC4)3
_chemical_formula_sum   'Ac6 Sc1 Re3 C12'
_cell_volume   380.81244814
_cell_formula_units_Z   1
loop_
 _symmetry_equiv_pos_site_id
 _symmetry_equiv_pos_as_xyz
  1  'x, y, z'
loop_
 _atom_site_type_symbol
 _atom_site_label
 _atom_site_symmetry_multiplicity
 _atom_site_fract_x
 _atom_site_fract_y
 _atom_site_fract_z
 _atom_site_occupancy
  Ac  Ac0  1  0.609844  0.692825  0.749416  1
  Ac  Ac1  1  0.917019  0.609844  0.250584  1
  Ac  Ac2  1  0.692825  0.082981  0.250584  1
  Ac  Ac3  1  0.307175  0.917019  0.749416  1
  Ac  Ac4  1  0.082981  0.390156  0.749416  1
  Ac  Ac5  1  0.390156  0.307175  0.250584  1
  Sc  Sc6  1  0.000000  0.000000  0.500000  1
  Re  Re7  1  0.000000  0.000000  0.000000  1
  Re  Re8  1  0.666667  0.333333  0.755057  1
  Re  Re9  1  0.333333  0.666667  0.244943  1
  C  C10  1  0.946964  0.763655  0.764020  1
  C  C11  1  0.183308  0.946964  0.235980  1
  C  C12  1  0.763655  0.816692  0.235980  1
  C  C13  1  0.236345  0.183308  0.764020  1
  C  C14  1  0.816692  0.053036  0.764020  1
  C  C15  1  0.053036  0.236345  0.235980  1
  C  C16  1  0.851562  0.583620  0.759434  1
  C  C17  1  0.267940  0.851562  0.240566  1
  C  C18  1  0.583620  0.732060  0.240566  1
  C  C19  1  0.416380  0.267940  0.759434  1
  C  C20  1  0.148438  0.416380  0.240566  1
  C  C21  1  0.732060  0.148438  0.759434  1
