# generated using pymatgen
data_Sc2U2Ge5AsRu7
_symmetry_space_group_name_H-M   'P 1'
_cell_length_a   7.13768995
_cell_length_b   7.13768945
_cell_length_c   7.13824907
_cell_angle_alpha   109.41941467
_cell_angle_beta   109.41941469
_cell_angle_gamma   109.57170397
_symmetry_Int_Tables_number   1
_chemical_formula_structural   Sc2U2Ge5AsRu7
_chemical_formula_sum   'Sc2 U2 Ge5 As1 Ru7'
_cell_volume   279.96331930
_cell_formula_units_Z   1
loop_
 _symmetry_equiv_pos_site_id
 _symmetry_equiv_pos_as_xyz
  1  'x, y, z'
loop_
 _atom_site_type_symbol
 _atom_site_label
 _atom_site_symmetry_multiplicity
 _atom_site_fract_x
 _atom_site_fract_y
 _atom_site_fract_z
 _atom_site_occupancy
  Sc  Sc0  1  0.001921  0.500990  0.000000  1
  Sc  Sc1  1  0.500990  0.001921  0.000000  1
  U  U2  1  0.001783  0.001783  0.498482  1
  U  U3  1  0.503300  0.503300  0.501518  1
  Ge  Ge4  1  0.311308  0.991936  0.299936  1
  Ge  Ge5  1  0.991936  0.311308  0.299936  1
  Ge  Ge6  1  0.304869  0.304869  0.000000  1
  Ge  Ge7  1  0.691998  0.011371  0.700064  1
  Ge  Ge8  1  0.011371  0.691999  0.700064  1
  As  As9  1  0.687893  0.687893  0.000000  1
  Ru  Ru10  1  0.750633  0.250633  0.500000  1
  Ru  Ru11  1  0.749296  0.506065  0.257460  1
  Ru  Ru12  1  0.491836  0.248605  0.742540  1
  Ru  Ru13  1  0.248605  0.491836  0.742540  1
  Ru  Ru14  1  0.250633  0.750633  0.500000  1
  Ru  Ru15  1  0.506065  0.749296  0.257460  1
  Ru  Ru16  1  0.995563  0.995563  0.000000  1
