# generated using pymatgen
data_Pa4Tc7Mo
_symmetry_space_group_name_H-M   'P 1'
_cell_length_a   5.06689109
_cell_length_b   5.06689199
_cell_length_c   9.33668200
_cell_angle_alpha   90.00000000
_cell_angle_beta   90.00000000
_cell_angle_gamma   111.43235246
_symmetry_Int_Tables_number   1
_chemical_formula_structural   Pa4Tc7Mo
_chemical_formula_sum   'Pa4 Tc7 Mo1'
_cell_volume   223.12863956
_cell_formula_units_Z   1
loop_
 _symmetry_equiv_pos_site_id
 _symmetry_equiv_pos_as_xyz
  1  'x, y, z'
loop_
 _atom_site_type_symbol
 _atom_site_label
 _atom_site_symmetry_multiplicity
 _atom_site_fract_x
 _atom_site_fract_y
 _atom_site_fract_z
 _atom_site_occupancy
  Pa  Pa0  1  0.332021  0.667979  0.434026  1
  Pa  Pa1  1  0.667923  0.332077  0.566796  1
  Pa  Pa2  1  0.667923  0.332077  0.933204  1
  Pa  Pa3  1  0.332021  0.667979  0.065974  1
  Tc  Tc4  1  0.998721  0.001279  0.502045  1
  Tc  Tc5  1  0.998721  0.001279  0.997955  1
  Tc  Tc6  1  0.830894  0.659710  0.250000  1
  Tc  Tc7  1  0.340290  0.169106  0.250000  1
  Tc  Tc8  1  0.168819  0.831181  0.750000  1
  Tc  Tc9  1  0.170780  0.340819  0.750000  1
  Tc  Tc10  1  0.659181  0.829220  0.750000  1
  Mo  Mo11  1  0.832710  0.167290  0.250000  1
