# generated using pymatgen
data_Ce5Si2Ge
_symmetry_space_group_name_H-M   'P 1'
_cell_length_a   7.78371612
_cell_length_b   7.78371539
_cell_length_c   8.51803844
_cell_angle_alpha   117.18699350
_cell_angle_beta   117.18699351
_cell_angle_gamma   89.99999801
_symmetry_Int_Tables_number   1
_chemical_formula_structural   Ce5Si2Ge
_chemical_formula_sum   'Ce10 Si4 Ge2'
_cell_volume   393.87511666
_cell_formula_units_Z   2
loop_
 _symmetry_equiv_pos_site_id
 _symmetry_equiv_pos_as_xyz
  1  'x, y, z'
loop_
 _atom_site_type_symbol
 _atom_site_label
 _atom_site_symmetry_multiplicity
 _atom_site_fract_x
 _atom_site_fract_y
 _atom_site_fract_z
 _atom_site_occupancy
  Ce  Ce0  1  0.500000  0.500000  0.000000  1
  Ce  Ce1  1  0.000000  0.000000  0.000000  1
  Ce  Ce2  1  0.972486  0.833003  0.305489  1
  Ce  Ce3  1  0.333003  0.472486  0.305489  1
  Ce  Ce4  1  0.833003  0.333003  0.305489  1
  Ce  Ce5  1  0.472486  0.972486  0.305489  1
  Ce  Ce6  1  0.027514  0.166997  0.694511  1
  Ce  Ce7  1  0.666997  0.527514  0.694511  1
  Ce  Ce8  1  0.166997  0.666997  0.694511  1
  Ce  Ce9  1  0.527514  0.027514  0.694511  1
  Si  Si10  1  0.613721  0.886279  0.000000  1
  Si  Si11  1  0.386279  0.113721  0.000000  1
  Si  Si12  1  0.886279  0.386279  0.000000  1
  Si  Si13  1  0.113721  0.613721  0.000000  1
  Ge  Ge14  1  0.750000  0.750000  0.500000  1
  Ge  Ge15  1  0.250000  0.250000  0.500000  1
