# generated using pymatgen
data_GdHoCl8
_symmetry_space_group_name_H-M   'P 1'
_cell_length_a   7.04348220
_cell_length_b   7.04340275
_cell_length_c   9.58831676
_cell_angle_alpha   91.94872385
_cell_angle_beta   91.94730623
_cell_angle_gamma   119.98969379
_symmetry_Int_Tables_number   1
_chemical_formula_structural   GdHoCl8
_chemical_formula_sum   'Gd1 Ho1 Cl8'
_cell_volume   411.03837508
_cell_formula_units_Z   1
loop_
 _symmetry_equiv_pos_site_id
 _symmetry_equiv_pos_as_xyz
  1  'x, y, z'
loop_
 _atom_site_type_symbol
 _atom_site_label
 _atom_site_symmetry_multiplicity
 _atom_site_fract_x
 _atom_site_fract_y
 _atom_site_fract_z
 _atom_site_occupancy
  Gd  Gd0  1  0.832560  0.167420  0.999999  1
  Ho  Ho1  1  0.167392  0.832595  0.999997  1
  Cl  Cl2  1  0.509597  0.134064  0.156593  1
  Cl  Cl3  1  0.138930  0.519576  0.156656  1
  Cl  Cl4  1  0.899858  0.894822  0.158258  1
  Cl  Cl5  1  0.613240  0.613129  0.442338  1
  Cl  Cl6  1  0.386878  0.386767  0.557667  1
  Cl  Cl7  1  0.105179  0.100143  0.841744  1
  Cl  Cl8  1  0.865941  0.490408  0.843408  1
  Cl  Cl9  1  0.480424  0.861076  0.843339  1
