# generated using pymatgen
data_Nd9Y2LuIn20
_symmetry_space_group_name_H-M   'P 1'
_cell_length_a   6.68011151
_cell_length_b   10.55931700
_cell_length_c   12.46561005
_cell_angle_alpha   90.00000000
_cell_angle_beta   89.96643705
_cell_angle_gamma   90.00000000
_symmetry_Int_Tables_number   1
_chemical_formula_structural   Nd9Y2LuIn20
_chemical_formula_sum   'Nd9 Y2 Lu1 In20'
_cell_volume   879.29175885
_cell_formula_units_Z   1
loop_
 _symmetry_equiv_pos_site_id
 _symmetry_equiv_pos_as_xyz
  1  'x, y, z'
loop_
 _atom_site_type_symbol
 _atom_site_label
 _atom_site_symmetry_multiplicity
 _atom_site_fract_x
 _atom_site_fract_y
 _atom_site_fract_z
 _atom_site_occupancy
  Nd  Nd0  1  0.349832  0.750000  0.059829  1
  Nd  Nd1  1  0.887728  0.490229  0.143590  1
  Nd  Nd2  1  0.612294  0.011162  0.643232  1
  Nd  Nd3  1  0.110012  0.991234  0.855514  1
  Nd  Nd4  1  0.389557  0.509213  0.356265  1
  Nd  Nd5  1  0.110012  0.508766  0.855514  1
  Nd  Nd6  1  0.389557  0.990787  0.356265  1
  Nd  Nd7  1  0.887728  0.009771  0.143590  1
  Nd  Nd8  1  0.612294  0.488838  0.643232  1
  Y  Y9  1  0.150545  0.750000  0.558820  1
  Y  Y10  1  0.849938  0.250000  0.440734  1
  Lu  Lu11  1  0.650266  0.250000  0.940116  1
  In  In12  1  0.617450  0.750000  0.505380  1
  In  In13  1  0.876733  0.750000  0.002280  1
  In  In14  1  0.384232  0.250000  0.496689  1
  In  In15  1  0.112769  0.250000  0.996304  1
  In  In16  1  0.659656  0.750000  0.246232  1
  In  In17  1  0.846337  0.750000  0.743362  1
  In  In18  1  0.347281  0.250000  0.755748  1
  In  In19  1  0.153738  0.250000  0.255749  1
  In  In20  1  0.112043  0.750000  0.287766  1
  In  In21  1  0.389107  0.750000  0.782458  1
  In  In22  1  0.889639  0.250000  0.716161  1
  In  In23  1  0.612612  0.250000  0.216350  1
  In  In24  1  0.874495  0.544855  0.404575  1
  In  In25  1  0.624453  0.956740  0.902484  1
  In  In26  1  0.126593  0.045089  0.596042  1
  In  In27  1  0.373780  0.451298  0.096310  1
  In  In28  1  0.126593  0.454911  0.596042  1
  In  In29  1  0.373780  0.048702  0.096310  1
  In  In30  1  0.874495  0.955145  0.404575  1
  In  In31  1  0.624453  0.543260  0.902484  1
