# generated using pymatgen
data_Tb2YbHo(B4Os)4
_symmetry_space_group_name_H-M   'P 1'
_cell_length_a   5.97514775
_cell_length_b   11.54904079
_cell_length_c   3.56261600
_cell_angle_alpha   90.00000000
_cell_angle_beta   90.00000000
_cell_angle_gamma   89.99677667
_symmetry_Int_Tables_number   1
_chemical_formula_structural   Tb2YbHo(B4Os)4
_chemical_formula_sum   'Tb2 Yb1 Ho1 B16 Os4'
_cell_volume   245.84624370
_cell_formula_units_Z   1
loop_
 _symmetry_equiv_pos_site_id
 _symmetry_equiv_pos_as_xyz
  1  'x, y, z'
loop_
 _atom_site_type_symbol
 _atom_site_label
 _atom_site_symmetry_multiplicity
 _atom_site_fract_x
 _atom_site_fract_y
 _atom_site_fract_z
 _atom_site_occupancy
  Tb  Tb0  1  0.127712  0.150218  0.000000  1
  Tb  Tb1  1  0.871545  0.848508  0.000000  1
  Yb  Yb2  1  0.370351  0.649025  0.000000  1
  Ho  Ho3  1  0.627820  0.351156  0.000000  1
  B  B4  1  0.788192  0.186454  0.500000  1
  B  B5  1  0.212955  0.813539  0.500000  1
  B  B6  1  0.289452  0.315313  0.500000  1
  B  B7  1  0.710985  0.684658  0.500000  1
  B  B8  1  0.862950  0.030444  0.500000  1
  B  B9  1  0.136762  0.969849  0.500000  1
  B  B10  1  0.363777  0.470263  0.500000  1
  B  B11  1  0.635992  0.530139  0.500000  1
  B  B12  1  0.887666  0.453956  0.500000  1
  B  B13  1  0.114144  0.546975  0.500000  1
  B  B14  1  0.387729  0.046977  0.500000  1
  B  B15  1  0.611481  0.953061  0.500000  1
  B  B16  1  0.974309  0.309355  0.500000  1
  B  B17  1  0.025445  0.690349  0.500000  1
  B  B18  1  0.475748  0.191995  0.500000  1
  B  B19  1  0.524936  0.808188  0.500000  1
  Os  Os20  1  0.640551  0.093467  0.000000  1
  Os  Os21  1  0.358880  0.907693  0.000000  1
  Os  Os22  1  0.140913  0.407165  0.000000  1
  Os  Os23  1  0.859705  0.591253  0.000000  1
