# generated using pymatgen
data_Ce7Tm(Si4W3)4
_symmetry_space_group_name_H-M   'P 1'
_cell_length_a   6.88937793
_cell_length_b   6.95309698
_cell_length_c   12.99511926
_cell_angle_alpha   90.21722339
_cell_angle_beta   89.98452513
_cell_angle_gamma   90.19264467
_symmetry_Int_Tables_number   1
_chemical_formula_structural   Ce7Tm(Si4W3)4
_chemical_formula_sum   'Ce7 Tm1 Si16 W12'
_cell_volume   622.49085508
_cell_formula_units_Z   1
loop_
 _symmetry_equiv_pos_site_id
 _symmetry_equiv_pos_as_xyz
  1  'x, y, z'
loop_
 _atom_site_type_symbol
 _atom_site_label
 _atom_site_symmetry_multiplicity
 _atom_site_fract_x
 _atom_site_fract_y
 _atom_site_fract_z
 _atom_site_occupancy
  Ce  Ce0  1  0.494166  0.661012  0.592042  1
  Ce  Ce1  1  0.994677  0.837544  0.907552  1
  Ce  Ce2  1  0.505410  0.337844  0.092570  1
  Ce  Ce3  1  0.004112  0.166951  0.406277  1
  Ce  Ce4  1  0.505644  0.338120  0.409347  1
  Ce  Ce5  1  0.006435  0.162395  0.092500  1
  Ce  Ce6  1  0.494001  0.662945  0.906223  1
  Tm  Tm7  1  0.993446  0.832947  0.593653  1
  Si  Si8  1  0.660393  0.954982  0.454897  1
  Si  Si9  1  0.157305  0.546256  0.046824  1
  Si  Si10  1  0.344561  0.047533  0.951937  1
  Si  Si11  1  0.843882  0.457035  0.546860  1
  Si  Si12  1  0.337103  0.042500  0.547484  1
  Si  Si13  1  0.841887  0.454153  0.953433  1
  Si  Si14  1  0.658099  0.954317  0.046898  1
  Si  Si15  1  0.156103  0.548486  0.454361  1
  Si  Si16  1  0.461512  0.362971  0.750975  1
  Si  Si17  1  0.963061  0.129359  0.747791  1
  Si  Si18  1  0.538563  0.635327  0.251183  1
  Si  Si19  1  0.038612  0.867819  0.250524  1
  Si  Si20  1  0.695295  0.867682  0.747862  1
  Si  Si21  1  0.190448  0.631017  0.748463  1
  Si  Si22  1  0.307438  0.131395  0.250375  1
  Si  Si23  1  0.807825  0.370883  0.250077  1
  W  W24  1  0.666929  0.162578  0.625367  1
  W  W25  1  0.164723  0.337401  0.872467  1
  W  W26  1  0.333409  0.838538  0.126545  1
  W  W27  1  0.832279  0.663576  0.374534  1
  W  W28  1  0.330847  0.838526  0.374733  1
  W  W29  1  0.831681  0.663763  0.126769  1
  W  W30  1  0.673757  0.160180  0.872722  1
  W  W31  1  0.165560  0.335533  0.625989  1
  W  W32  1  0.832206  0.495640  0.749754  1
  W  W33  1  0.332637  0.999564  0.749493  1
  W  W34  1  0.168570  0.503566  0.250337  1
  W  W35  1  0.667430  0.999663  0.251187  1
