# generated using pymatgen
data_Dy4Lu6Si5Sn
_symmetry_space_group_name_H-M   'P 1'
_cell_length_a   8.39622400
_cell_length_b   8.42912689
_cell_length_c   6.26058200
_cell_angle_alpha   90.00000000
_cell_angle_beta   90.00000000
_cell_angle_gamma   119.87096572
_symmetry_Int_Tables_number   1
_chemical_formula_structural   Dy4Lu6Si5Sn
_chemical_formula_sum   'Dy4 Lu6 Si5 Sn1'
_cell_volume   384.21575158
_cell_formula_units_Z   1
loop_
 _symmetry_equiv_pos_site_id
 _symmetry_equiv_pos_as_xyz
  1  'x, y, z'
loop_
 _atom_site_type_symbol
 _atom_site_label
 _atom_site_symmetry_multiplicity
 _atom_site_fract_x
 _atom_site_fract_y
 _atom_site_fract_z
 _atom_site_occupancy
  Dy  Dy0  1  0.765928  0.000000  0.750000  1
  Dy  Dy1  1  0.755658  0.756340  0.250000  1
  Dy  Dy2  1  0.999317  0.243660  0.250000  1
  Dy  Dy3  1  0.240070  0.000000  0.250000  1
  Lu  Lu4  1  0.673789  0.342757  0.002418  1
  Lu  Lu5  1  0.331031  0.657243  0.497582  1
  Lu  Lu6  1  0.331031  0.657243  0.002418  1
  Lu  Lu7  1  0.673789  0.342757  0.497582  1
  Lu  Lu8  1  0.989621  0.748590  0.750000  1
  Lu  Lu9  1  0.241030  0.251410  0.750000  1
  Si  Si10  1  0.395985  0.394287  0.250000  1
  Si  Si11  1  0.001698  0.605713  0.250000  1
  Si  Si12  1  0.000042  0.396722  0.750000  1
  Si  Si13  1  0.603322  0.603278  0.750000  1
  Si  Si14  1  0.603570  0.000000  0.250000  1
  Sn  Sn15  1  0.394119  0.000000  0.750000  1
