# generated using pymatgen
data_Ce2Sm(RhPb)3
_symmetry_space_group_name_H-M   'P 1'
_cell_length_a   7.76625599
_cell_length_b   7.76625683
_cell_length_c   3.99226600
_cell_angle_alpha   90.00000000
_cell_angle_beta   90.00000000
_cell_angle_gamma   120.63964139
_symmetry_Int_Tables_number   1
_chemical_formula_structural   Ce2Sm(RhPb)3
_chemical_formula_sum   'Ce2 Sm1 Rh3 Pb3'
_cell_volume   207.17535289
_cell_formula_units_Z   1
loop_
 _symmetry_equiv_pos_site_id
 _symmetry_equiv_pos_as_xyz
  1  'x, y, z'
loop_
 _atom_site_type_symbol
 _atom_site_label
 _atom_site_symmetry_multiplicity
 _atom_site_fract_x
 _atom_site_fract_y
 _atom_site_fract_z
 _atom_site_occupancy
  Ce  Ce0  1  0.588999  0.999500  0.500000  1
  Ce  Ce1  1  0.999500  0.588999  0.500000  1
  Sm  Sm2  1  0.406183  0.406183  0.500000  1
  Rh  Rh3  1  0.996200  0.996200  0.500000  1
  Rh  Rh4  1  0.677910  0.331092  0.000000  1
  Rh  Rh5  1  0.331092  0.677910  0.000000  1
  Pb  Pb6  1  0.736488  0.736488  0.000000  1
  Pb  Pb7  1  0.259607  0.004019  0.000000  1
  Pb  Pb8  1  0.004019  0.259607  0.000000  1
