# generated using pymatgen
data_Er12OsPd3
_symmetry_space_group_name_H-M   'P 1'
_cell_length_a   6.40583601
_cell_length_b   7.06018901
_cell_length_c   9.37879600
_cell_angle_alpha   90.00000000
_cell_angle_beta   90.00000000
_cell_angle_gamma   89.99894549
_symmetry_Int_Tables_number   1
_chemical_formula_structural   Er12OsPd3
_chemical_formula_sum   'Er12 Os1 Pd3'
_cell_volume   424.16930116
_cell_formula_units_Z   1
loop_
 _symmetry_equiv_pos_site_id
 _symmetry_equiv_pos_as_xyz
  1  'x, y, z'
loop_
 _atom_site_type_symbol
 _atom_site_label
 _atom_site_symmetry_multiplicity
 _atom_site_fract_x
 _atom_site_fract_y
 _atom_site_fract_z
 _atom_site_occupancy
  Er  Er0  1  0.329869  0.683879  0.052106  1
  Er  Er1  1  0.173347  0.182615  0.440492  1
  Er  Er2  1  0.673666  0.321430  0.562416  1
  Er  Er3  1  0.818546  0.814002  0.937364  1
  Er  Er4  1  0.673666  0.321430  0.937584  1
  Er  Er5  1  0.818546  0.814002  0.562636  1
  Er  Er6  1  0.329869  0.683879  0.447894  1
  Er  Er7  1  0.173347  0.182615  0.059508  1
  Er  Er8  1  0.874049  0.524533  0.250000  1
  Er  Er9  1  0.630708  0.029013  0.250000  1
  Er  Er10  1  0.127739  0.476331  0.750000  1
  Er  Er11  1  0.378236  0.964079  0.750000  1
  Os  Os12  1  0.543800  0.609443  0.750000  1
  Pd  Pd13  1  0.054813  0.888638  0.250000  1
  Pd  Pd14  1  0.444640  0.393593  0.250000  1
  Pd  Pd15  1  0.955160  0.110519  0.750000  1
