# generated using pymatgen
data_Sr4Ga9GePt6
_symmetry_space_group_name_H-M   'P 1'
_cell_length_a   8.78082490
_cell_length_b   8.79806499
_cell_length_c   8.79806466
_cell_angle_alpha   139.01970311
_cell_angle_beta   106.72824285
_cell_angle_gamma   87.57642710
_symmetry_Int_Tables_number   1
_chemical_formula_structural   Sr4Ga9GePt6
_chemical_formula_sum   'Sr4 Ga9 Ge1 Pt6'
_cell_volume   409.96770601
_cell_formula_units_Z   1
loop_
 _symmetry_equiv_pos_site_id
 _symmetry_equiv_pos_as_xyz
  1  'x, y, z'
loop_
 _atom_site_type_symbol
 _atom_site_label
 _atom_site_symmetry_multiplicity
 _atom_site_fract_x
 _atom_site_fract_y
 _atom_site_fract_z
 _atom_site_occupancy
  Sr  Sr0  1  0.865633  0.630918  0.234716  1
  Sr  Sr1  1  0.135049  0.369446  0.765604  1
  Sr  Sr2  1  0.394758  0.130425  0.264333  1
  Sr  Sr3  1  0.601540  0.868362  0.733177  1
  Ga  Ga4  1  0.501418  0.750695  0.250323  1
  Ga  Ga5  1  0.501418  0.251096  0.750723  1
  Ga  Ga6  1  0.227026  0.974371  0.747238  1
  Ga  Ga7  1  0.772494  0.523069  0.749086  1
  Ga  Ga8  1  0.772494  0.023407  0.249424  1
  Ga  Ga9  1  0.227026  0.479789  0.252655  1
  Ga  Ga10  1  0.044542  0.893623  0.150918  1
  Ga  Ga11  1  0.953619  0.103359  0.850260  1
  Ga  Ga12  1  0.742665  0.394420  0.348246  1
  Ge  Ge13  1  0.255986  0.605656  0.650329  1
  Pt  Pt14  1  0.001521  0.749454  0.751357  1
  Pt  Pt15  1  0.001521  0.250164  0.252067  1
  Pt  Pt16  1  0.256790  0.865654  0.391137  1
  Pt  Pt17  1  0.747440  0.136619  0.610820  1
  Pt  Pt18  1  0.471808  0.363545  0.108263  1
  Pt  Pt19  1  0.525252  0.635929  0.889323  1
