# generated using pymatgen
data_DyTh7SbSe17
_symmetry_space_group_name_H-M   'P 1'
_cell_length_a   8.48334378
_cell_length_b   8.47136337
_cell_length_c   11.23886500
_cell_angle_alpha   80.63013950
_cell_angle_beta   80.88946799
_cell_angle_gamma   65.08206486
_symmetry_Int_Tables_number   1
_chemical_formula_structural   DyTh7SbSe17
_chemical_formula_sum   'Dy1 Th7 Sb1 Se17'
_cell_volume   719.08343798
_cell_formula_units_Z   1
loop_
 _symmetry_equiv_pos_site_id
 _symmetry_equiv_pos_as_xyz
  1  'x, y, z'
loop_
 _atom_site_type_symbol
 _atom_site_label
 _atom_site_symmetry_multiplicity
 _atom_site_fract_x
 _atom_site_fract_y
 _atom_site_fract_z
 _atom_site_occupancy
  Dy  Dy0  1  0.812827  0.307219  0.301598  1
  Th  Th1  1  0.304390  0.813497  0.300071  1
  Th  Th2  1  0.184351  0.697105  0.699022  1
  Th  Th3  1  0.697362  0.186605  0.695979  1
  Th  Th4  1  0.206915  0.204901  0.537725  1
  Th  Th5  1  0.793518  0.794391  0.458356  1
  Th  Th6  1  0.678680  0.675609  0.980873  1
  Th  Th7  1  0.321176  0.322327  0.022881  1
  Sb  Sb8  1  0.996405  0.004232  0.002929  1
  Se  Se9  1  0.824729  0.428898  0.530705  1
  Se  Se10  1  0.433004  0.820597  0.534049  1
  Se  Se11  1  0.177474  0.567009  0.465166  1
  Se  Se12  1  0.570533  0.177838  0.465022  1
  Se  Se13  1  0.946675  0.334861  0.041345  1
  Se  Se14  1  0.334593  0.947486  0.036899  1
  Se  Se15  1  0.052993  0.665877  0.961793  1
  Se  Se16  1  0.664273  0.053529  0.960012  1
  Se  Se17  1  0.208548  0.207315  0.278880  1
  Se  Se18  1  0.789530  0.789510  0.721586  1
  Se  Se19  1  0.060591  0.061763  0.761305  1
  Se  Se20  1  0.938344  0.947353  0.242333  1
  Se  Se21  1  0.304357  0.303875  0.752138  1
  Se  Se22  1  0.695578  0.695683  0.246868  1
  Se  Se23  1  0.520368  0.520855  0.831184  1
  Se  Se24  1  0.479377  0.479769  0.167154  1
  Se  Se25  1  0.003407  0.991897  0.504127  1
