# generated using pymatgen
data_SmDy(MgRh)2
_symmetry_space_group_name_H-M   'P 1'
_cell_length_a   4.16196200
_cell_length_b   7.14984707
_cell_length_c   8.54446922
_cell_angle_alpha   89.78428034
_cell_angle_beta   90.00000000
_cell_angle_gamma   90.00000000
_symmetry_Int_Tables_number   1
_chemical_formula_structural   SmDy(MgRh)2
_chemical_formula_sum   'Sm2 Dy2 Mg4 Rh4'
_cell_volume   254.25931634
_cell_formula_units_Z   2
loop_
 _symmetry_equiv_pos_site_id
 _symmetry_equiv_pos_as_xyz
  1  'x, y, z'
loop_
 _atom_site_type_symbol
 _atom_site_label
 _atom_site_symmetry_multiplicity
 _atom_site_fract_x
 _atom_site_fract_y
 _atom_site_fract_z
 _atom_site_occupancy
  Sm  Sm0  1  0.250000  0.538036  0.178859  1
  Sm  Sm1  1  0.750000  0.461964  0.821141  1
  Dy  Dy2  1  0.750000  0.961586  0.674865  1
  Dy  Dy3  1  0.250000  0.038414  0.325135  1
  Mg  Mg4  1  0.250000  0.637564  0.558167  1
  Mg  Mg5  1  0.750000  0.362436  0.441833  1
  Mg  Mg6  1  0.750000  0.866428  0.058533  1
  Mg  Mg7  1  0.250000  0.133572  0.941467  1
  Rh  Rh8  1  0.250000  0.756502  0.869770  1
  Rh  Rh9  1  0.750000  0.243498  0.130230  1
  Rh  Rh10  1  0.750000  0.752957  0.373104  1
  Rh  Rh11  1  0.250000  0.247043  0.626896  1
