# generated using pymatgen
data_Zn2Fe(MoO4)3
_symmetry_space_group_name_H-M   'P 1'
_cell_length_a   7.13370373
_cell_length_b   8.50964056
_cell_length_c   9.94430979
_cell_angle_alpha   97.24381760
_cell_angle_beta   106.66300609
_cell_angle_gamma   102.13958294
_symmetry_Int_Tables_number   1
_chemical_formula_structural   Zn2Fe(MoO4)3
_chemical_formula_sum   'Zn4 Fe2 Mo6 O24'
_cell_volume   554.08051706
_cell_formula_units_Z   2
loop_
 _symmetry_equiv_pos_site_id
 _symmetry_equiv_pos_as_xyz
  1  'x, y, z'
loop_
 _atom_site_type_symbol
 _atom_site_label
 _atom_site_symmetry_multiplicity
 _atom_site_fract_x
 _atom_site_fract_y
 _atom_site_fract_z
 _atom_site_occupancy
  Zn  Zn0  1  0.532272  0.698323  0.485505  1
  Zn  Zn1  1  0.467728  0.301677  0.514495  1
  Zn  Zn2  1  0.967234  0.884582  0.712246  1
  Zn  Zn3  1  0.032766  0.115418  0.287754  1
  Fe  Fe4  1  0.252508  0.695758  0.909831  1
  Fe  Fe5  1  0.747492  0.304242  0.090169  1
  Mo  Mo6  1  0.503812  0.987174  0.754524  1
  Mo  Mo7  1  0.496188  0.012826  0.245476  1
  Mo  Mo8  1  0.699279  0.601679  0.837004  1
  Mo  Mo9  1  0.300721  0.398321  0.162996  1
  Mo  Mo10  1  0.979113  0.708433  0.374907  1
  Mo  Mo11  1  0.020887  0.291567  0.625093  1
  O  O12  1  0.264067  0.868361  0.763578  1
  O  O13  1  0.735933  0.131639  0.236422  1
  O  O14  1  0.558591  0.707720  0.919674  1
  O  O15  1  0.441409  0.292280  0.080326  1
  O  O16  1  0.553881  0.517527  0.648357  1
  O  O17  1  0.446119  0.482473  0.351643  1
  O  O18  1  0.551484  0.869622  0.354645  1
  O  O19  1  0.448516  0.130378  0.645355  1
  O  O20  1  0.660240  0.097500  0.926290  1
  O  O21  1  0.339760  0.902500  0.073710  1
  O  O22  1  0.644963  0.860151  0.679024  1
  O  O23  1  0.355037  0.139849  0.320976  1
  O  O24  1  0.021180  0.120952  0.714853  1
  O  O25  1  0.978820  0.879048  0.285147  1
  O  O26  1  0.051298  0.265472  0.146125  1
  O  O27  1  0.948702  0.734528  0.853875  1
  O  O28  1  0.148943  0.478479  0.751629  1
  O  O29  1  0.851057  0.521521  0.248371  1
  O  O30  1  0.141775  0.266148  0.485656  1
  O  O31  1  0.858225  0.733852  0.514344  1
  O  O32  1  0.254127  0.559559  0.074349  1
  O  O33  1  0.745873  0.440441  0.925651  1
  O  O34  1  0.234517  0.708585  0.460394  1
  O  O35  1  0.765483  0.291415  0.539606  1
