# generated using pymatgen
data_TbDy2Y2Si3
_symmetry_space_group_name_H-M   'P 1'
_cell_length_a   8.46515305
_cell_length_b   8.46668449
_cell_length_c   6.38042300
_cell_angle_alpha   90.00000000
_cell_angle_beta   90.00000000
_cell_angle_gamma   120.00598136
_symmetry_Int_Tables_number   1
_chemical_formula_structural   TbDy2Y2Si3
_chemical_formula_sum   'Tb2 Dy4 Y4 Si6'
_cell_volume   396.00631839
_cell_formula_units_Z   2
loop_
 _symmetry_equiv_pos_site_id
 _symmetry_equiv_pos_as_xyz
  1  'x, y, z'
loop_
 _atom_site_type_symbol
 _atom_site_label
 _atom_site_symmetry_multiplicity
 _atom_site_fract_x
 _atom_site_fract_y
 _atom_site_fract_z
 _atom_site_occupancy
  Tb  Tb0  1  0.243255  0.243265  0.750000  1
  Tb  Tb1  1  0.243255  0.999990  0.250000  1
  Dy  Dy2  1  0.666706  0.333353  0.000000  1
  Dy  Dy3  1  0.333333  0.666667  0.500000  1
  Dy  Dy4  1  0.333333  0.666667  0.000000  1
  Dy  Dy5  1  0.666706  0.333353  0.500000  1
  Y  Y6  1  0.999990  0.756725  0.750000  1
  Y  Y7  1  0.999990  0.243266  0.250000  1
  Y  Y8  1  0.756767  0.756769  0.250000  1
  Y  Y9  1  0.756767  0.999998  0.750000  1
  Si  Si10  1  0.394492  0.999938  0.750000  1
  Si  Si11  1  0.394492  0.394555  0.250000  1
  Si  Si12  1  0.999913  0.605404  0.250000  1
  Si  Si13  1  0.999913  0.394509  0.750000  1
  Si  Si14  1  0.605543  0.605566  0.750000  1
  Si  Si15  1  0.605543  0.999977  0.250000  1
