# generated using pymatgen
data_Sr6Sn8HgP
_symmetry_space_group_name_H-M   'P 1'
_cell_length_a   8.93744957
_cell_length_b   8.93744996
_cell_length_c   8.93744918
_cell_angle_alpha   120.09743923
_cell_angle_beta   120.09744117
_cell_angle_gamma   89.83130681
_symmetry_Int_Tables_number   1
_chemical_formula_structural   Sr6Sn8HgP
_chemical_formula_sum   'Sr6 Sn8 Hg1 P1'
_cell_volume   504.06168728
_cell_formula_units_Z   1
loop_
 _symmetry_equiv_pos_site_id
 _symmetry_equiv_pos_as_xyz
  1  'x, y, z'
loop_
 _atom_site_type_symbol
 _atom_site_label
 _atom_site_symmetry_multiplicity
 _atom_site_fract_x
 _atom_site_fract_y
 _atom_site_fract_z
 _atom_site_occupancy
  Sr  Sr0  1  0.269231  0.269231  0.000000  1
  Sr  Sr1  1  0.730769  0.730769  0.000000  1
  Sr  Sr2  1  0.186092  0.643914  0.830006  1
  Sr  Sr3  1  0.813908  0.356086  0.169994  1
  Sr  Sr4  1  0.643914  0.813908  0.457822  1
  Sr  Sr5  1  0.356086  0.186092  0.542178  1
  Sn  Sn6  1  0.841021  0.324974  0.788019  1
  Sn  Sn7  1  0.158979  0.675026  0.211981  1
  Sn  Sn8  1  0.536956  0.053002  0.211981  1
  Sn  Sn9  1  0.324974  0.536956  0.483953  1
  Sn  Sn10  1  0.946998  0.158979  0.483953  1
  Sn  Sn11  1  0.463044  0.946998  0.788019  1
  Sn  Sn12  1  0.675026  0.463044  0.516047  1
  Sn  Sn13  1  0.053002  0.841021  0.516047  1
  Hg  Hg14  1  0.000000  0.000000  0.000000  1
  P  P15  1  0.500000  0.500000  0.000000  1
