# generated using pymatgen
data_K6Li4NbVAs6
_symmetry_space_group_name_H-M   'P 1'
_cell_length_a   10.01280920
_cell_length_b   10.01281040
_cell_length_c   15.27356500
_cell_angle_alpha   90.00000000
_cell_angle_beta   90.00000000
_cell_angle_gamma   142.59668383
_symmetry_Int_Tables_number   1
_chemical_formula_structural   K6Li4NbVAs6
_chemical_formula_sum   'K12 Li8 Nb2 V2 As12'
_cell_volume   930.12804191
_cell_formula_units_Z   2
loop_
 _symmetry_equiv_pos_site_id
 _symmetry_equiv_pos_as_xyz
  1  'x, y, z'
loop_
 _atom_site_type_symbol
 _atom_site_label
 _atom_site_symmetry_multiplicity
 _atom_site_fract_x
 _atom_site_fract_y
 _atom_site_fract_z
 _atom_site_occupancy
  K  K0  1  0.607101  0.945153  0.828558  1
  K  K1  1  0.283450  0.285578  0.318918  1
  K  K2  1  0.216550  0.214422  0.818918  1
  K  K3  1  0.714422  0.716550  0.681082  1
  K  K4  1  0.445153  0.107101  0.671442  1
  K  K5  1  0.892899  0.554847  0.328558  1
  K  K6  1  0.054847  0.392899  0.171442  1
  K  K7  1  0.392936  0.057585  0.168779  1
  K  K8  1  0.557585  0.892936  0.331221  1
  K  K9  1  0.107064  0.442415  0.668779  1
  K  K10  1  0.942415  0.607064  0.831221  1
  K  K11  1  0.785578  0.783450  0.181082  1
  Li  Li12  1  0.082127  0.917873  0.000000  1
  Li  Li13  1  0.581362  0.418638  0.500000  1
  Li  Li14  1  0.918638  0.081362  0.000000  1
  Li  Li15  1  0.749394  0.250606  0.000000  1
  Li  Li16  1  0.750606  0.249394  0.500000  1
  Li  Li17  1  0.249289  0.750711  0.000000  1
  Li  Li18  1  0.250711  0.749289  0.500000  1
  Li  Li19  1  0.417873  0.582127  0.500000  1
  Nb  Nb20  1  0.081542  0.918458  0.500000  1
  Nb  Nb21  1  0.418458  0.581542  0.000000  1
  V  V22  1  0.916953  0.083047  0.500000  1
  V  V23  1  0.583047  0.416953  0.000000  1
  As  As24  1  0.062480  0.377464  0.411445  1
  As  As25  1  0.877464  0.562480  0.088555  1
  As  As26  1  0.437520  0.122536  0.911445  1
  As  As27  1  0.622536  0.937520  0.588555  1
  As  As28  1  0.932714  0.613170  0.592982  1
  As  As29  1  0.113170  0.432714  0.907018  1
  As  As30  1  0.567286  0.886830  0.092982  1
  As  As31  1  0.386830  0.067286  0.407018  1
  As  As32  1  0.220282  0.226489  0.590287  1
  As  As33  1  0.726489  0.720282  0.909713  1
  As  As34  1  0.279718  0.273511  0.090287  1
  As  As35  1  0.773511  0.779718  0.409713  1
