# generated using pymatgen
data_Y2Th3In3C
_symmetry_space_group_name_H-M   'P 1'
_cell_length_a   9.36506601
_cell_length_b   9.36506671
_cell_length_c   6.39685800
_cell_angle_alpha   89.99997281
_cell_angle_beta   89.99996197
_cell_angle_gamma   119.99328435
_symmetry_Int_Tables_number   1
_chemical_formula_structural   Y2Th3In3C
_chemical_formula_sum   'Y4 Th6 In6 C2'
_cell_volume   485.90173016
_cell_formula_units_Z   2
loop_
 _symmetry_equiv_pos_site_id
 _symmetry_equiv_pos_as_xyz
  1  'x, y, z'
loop_
 _atom_site_type_symbol
 _atom_site_label
 _atom_site_symmetry_multiplicity
 _atom_site_fract_x
 _atom_site_fract_y
 _atom_site_fract_z
 _atom_site_occupancy
  Y  Y0  1  0.666644  0.333359  0.500000  1
  Y  Y1  1  0.333359  0.666644  0.500000  1
  Y  Y2  1  0.333358  0.666643  0.000003  1
  Y  Y3  1  0.666643  0.333358  0.000003  1
  Th  Th4  1  0.780120  0.780120  0.250000  1
  Th  Th5  1  0.219873  0.999948  0.250001  1
  Th  Th6  1  0.999948  0.219873  0.250001  1
  Th  Th7  1  0.219932  0.219932  0.749999  1
  Th  Th8  1  0.780161  0.000057  0.750000  1
  Th  Th9  1  0.000057  0.780161  0.750000  1
  In  In10  1  0.410799  0.410799  0.250001  1
  In  In11  1  0.588892  0.999919  0.250001  1
  In  In12  1  0.999919  0.588892  0.250001  1
  In  In13  1  0.589134  0.589134  0.750000  1
  In  In14  1  0.411069  0.000083  0.750000  1
  In  In15  1  0.000083  0.411069  0.750000  1
  C  C16  1  0.000004  0.000004  0.499995  1
  C  C17  1  0.000005  0.000005  0.999996  1
