# generated using pymatgen
data_Tb4Dy3Y(WO6)4
_symmetry_space_group_name_H-M   'P 1'
_cell_length_a   5.41420700
_cell_length_b   7.72393305
_cell_length_c   11.49739103
_cell_angle_alpha   75.57793675
_cell_angle_beta   89.99567837
_cell_angle_gamma   89.99947929
_symmetry_Int_Tables_number   1
_chemical_formula_structural   Tb4Dy3Y(WO6)4
_chemical_formula_sum   'Tb4 Dy3 Y1 W4 O24'
_cell_volume   465.65749644
_cell_formula_units_Z   1
loop_
 _symmetry_equiv_pos_site_id
 _symmetry_equiv_pos_as_xyz
  1  'x, y, z'
loop_
 _atom_site_type_symbol
 _atom_site_label
 _atom_site_symmetry_multiplicity
 _atom_site_fract_x
 _atom_site_fract_y
 _atom_site_fract_z
 _atom_site_occupancy
  Tb  Tb0  1  0.738939  0.000053  0.750026  1
  Tb  Tb1  1  0.261080  0.000025  0.249962  1
  Tb  Tb2  1  0.683636  0.499945  0.750033  1
  Tb  Tb3  1  0.316377  0.499998  0.249999  1
  Dy  Dy4  1  0.813368  0.795515  0.077799  1
  Dy  Dy5  1  0.186620  0.204481  0.922206  1
  Dy  Dy6  1  0.813369  0.204538  0.422192  1
  Y  Y7  1  0.186757  0.795504  0.577821  1
  W  W8  1  0.254263  0.722773  0.885898  1
  W  W9  1  0.745810  0.722713  0.385683  1
  W  W10  1  0.254239  0.277115  0.614189  1
  W  W11  1  0.745753  0.277215  0.114199  1
  O  O12  1  0.042636  0.938894  0.895866  1
  O  O13  1  0.528856  0.848493  0.931201  1
  O  O14  1  0.957185  0.939027  0.395711  1
  O  O15  1  0.459185  0.788194  0.728491  1
  O  O16  1  0.471418  0.848688  0.430980  1
  O  O17  1  0.983289  0.709843  0.771842  1
  O  O18  1  0.541232  0.788190  0.228289  1
  O  O19  1  0.850973  0.634960  0.547845  1
  O  O20  1  0.361615  0.490088  0.887111  1
  O  O21  1  0.016500  0.709931  0.271645  1
  O  O22  1  0.361898  0.509718  0.612891  1
  O  O23  1  0.851513  0.364786  0.952131  1
  O  O24  1  0.148494  0.635220  0.047857  1
  O  O25  1  0.638354  0.490064  0.387123  1
  O  O26  1  0.983507  0.290106  0.728352  1
  O  O27  1  0.638386  0.509909  0.112879  1
  O  O28  1  0.148486  0.364804  0.452125  1
  O  O29  1  0.458779  0.211788  0.771701  1
  O  O30  1  0.016470  0.290073  0.228349  1
  O  O31  1  0.528891  0.151513  0.568803  1
  O  O32  1  0.541234  0.211797  0.271699  1
  O  O33  1  0.042386  0.061429  0.604157  1
  O  O34  1  0.471138  0.151498  0.068810  1
  O  O35  1  0.957364  0.061110  0.104135  1
