# generated using pymatgen
data_As3Pb5BrO9
_symmetry_space_group_name_H-M   'P 1'
_cell_length_a   10.72180900
_cell_length_b   10.72180841
_cell_length_c   7.16236800
_cell_angle_alpha   90.00000000
_cell_angle_beta   90.00000000
_cell_angle_gamma   120.00000490
_symmetry_Int_Tables_number   1
_chemical_formula_structural   As3Pb5BrO9
_chemical_formula_sum   'As6 Pb10 Br2 O18'
_cell_volume   713.05552662
_cell_formula_units_Z   2
loop_
 _symmetry_equiv_pos_site_id
 _symmetry_equiv_pos_as_xyz
  1  'x, y, z'
loop_
 _atom_site_type_symbol
 _atom_site_label
 _atom_site_symmetry_multiplicity
 _atom_site_fract_x
 _atom_site_fract_y
 _atom_site_fract_z
 _atom_site_occupancy
  As  As0  1  0.415568  0.398160  0.250000  1
  As  As1  1  0.017409  0.415568  0.750000  1
  As  As2  1  0.398160  0.982591  0.750000  1
  As  As3  1  0.601840  0.017409  0.250000  1
  As  As4  1  0.982591  0.584432  0.250000  1
  As  As5  1  0.584432  0.601840  0.750000  1
  Pb  Pb6  1  0.333333  0.666667  0.986181  1
  Pb  Pb7  1  0.666667  0.333333  0.486181  1
  Pb  Pb8  1  0.666667  0.333333  0.013819  1
  Pb  Pb9  1  0.333333  0.666667  0.513819  1
  Pb  Pb10  1  0.273620  0.044282  0.250000  1
  Pb  Pb11  1  0.229340  0.273620  0.750000  1
  Pb  Pb12  1  0.044282  0.770660  0.750000  1
  Pb  Pb13  1  0.955718  0.229340  0.250000  1
  Pb  Pb14  1  0.770660  0.726380  0.250000  1
  Pb  Pb15  1  0.726380  0.955718  0.750000  1
  Br  Br16  1  0.000000  0.000000  0.000000  1
  Br  Br17  1  0.000000  0.000000  0.500000  1
  O  O18  1  0.611906  0.460730  0.250000  1
  O  O19  1  0.151175  0.611906  0.750000  1
  O  O20  1  0.460730  0.848825  0.750000  1
  O  O21  1  0.539270  0.151175  0.250000  1
  O  O22  1  0.848825  0.388094  0.250000  1
  O  O23  1  0.388094  0.539270  0.750000  1
  O  O24  1  0.371612  0.276502  0.059100  1
  O  O25  1  0.095110  0.371612  0.559100  1
  O  O26  1  0.276502  0.904890  0.559100  1
  O  O27  1  0.723498  0.095110  0.059100  1
  O  O28  1  0.904890  0.628388  0.059100  1
  O  O29  1  0.628388  0.723498  0.559100  1
  O  O30  1  0.628388  0.723498  0.940900  1
  O  O31  1  0.904890  0.628388  0.440900  1
  O  O32  1  0.723498  0.095110  0.440900  1
  O  O33  1  0.276502  0.904890  0.940900  1
  O  O34  1  0.095110  0.371612  0.940900  1
  O  O35  1  0.371612  0.276502  0.440900  1
