# generated using pymatgen
data_Sr2GaPtI
_symmetry_space_group_name_H-M   'P 1'
_cell_length_a   4.44474400
_cell_length_b   4.44474481
_cell_length_c   18.41814600
_cell_angle_alpha   90.00000000
_cell_angle_beta   90.00000000
_cell_angle_gamma   120.00002373
_symmetry_Int_Tables_number   1
_chemical_formula_structural   Sr2GaPtI
_chemical_formula_sum   'Sr4 Ga2 Pt2 I2'
_cell_volume   315.11568666
_cell_formula_units_Z   2
loop_
 _symmetry_equiv_pos_site_id
 _symmetry_equiv_pos_as_xyz
  1  'x, y, z'
loop_
 _atom_site_type_symbol
 _atom_site_label
 _atom_site_symmetry_multiplicity
 _atom_site_fract_x
 _atom_site_fract_y
 _atom_site_fract_z
 _atom_site_occupancy
  Sr  Sr0  1  0.000000  0.000000  0.389284  1
  Sr  Sr1  1  0.000000  0.000000  0.889284  1
  Sr  Sr2  1  0.000000  0.000000  0.612026  1
  Sr  Sr3  1  0.000000  0.000000  0.112026  1
  Ga  Ga4  1  0.333333  0.666667  0.501893  1
  Ga  Ga5  1  0.666667  0.333333  0.001893  1
  Pt  Pt6  1  0.666667  0.333333  0.497875  1
  Pt  Pt7  1  0.333333  0.666667  0.997875  1
  I  I8  1  0.333333  0.666667  0.248922  1
  I  I9  1  0.666667  0.333333  0.748922  1
