# generated using pymatgen
data_BiBr37
_symmetry_space_group_name_H-M   'P 1'
_cell_length_a   14.20848141
_cell_length_b   15.29732181
_cell_length_c   14.42416200
_cell_angle_alpha   103.00376457
_cell_angle_beta   48.80056783
_cell_angle_gamma   81.50743146
_symmetry_Int_Tables_number   1
_chemical_formula_structural   BiBr37
_chemical_formula_sum   'Bi1 Br37'
_cell_volume   2102.91272627
_cell_formula_units_Z   1
loop_
 _symmetry_equiv_pos_site_id
 _symmetry_equiv_pos_as_xyz
  1  'x, y, z'
loop_
 _atom_site_type_symbol
 _atom_site_label
 _atom_site_symmetry_multiplicity
 _atom_site_fract_x
 _atom_site_fract_y
 _atom_site_fract_z
 _atom_site_occupancy
  Bi  Bi0  1  0.500000  0.000000  0.000000  1
  Br  Br1  1  0.793196  0.302195  0.134068  1
  Br  Br2  1  0.206804  0.697805  0.865932  1
  Br  Br3  1  0.747234  0.082924  0.362927  1
  Br  Br4  1  0.252766  0.917076  0.637073  1
  Br  Br5  1  0.113450  0.349624  0.168702  1
  Br  Br6  1  0.886550  0.650376  0.831298  1
  Br  Br7  1  0.866551  0.535224  0.247808  1
  Br  Br8  1  0.133449  0.464776  0.752192  1
  Br  Br9  1  0.688486  0.275070  0.521336  1
  Br  Br10  1  0.311514  0.724930  0.478664  1
  Br  Br11  1  0.044301  0.145552  0.485725  1
  Br  Br12  1  0.955699  0.854448  0.514275  1
  Br  Br13  1  0.981905  0.007259  0.283476  1
  Br  Br14  1  0.018095  0.992741  0.716524  1
  Br  Br15  1  0.949871  0.341452  0.605357  1
  Br  Br16  1  0.050129  0.658548  0.394643  1
  Br  Br17  1  0.582165  0.429514  0.234833  1
  Br  Br18  1  0.417835  0.570486  0.765167  1
  Br  Br19  1  0.170445  0.477145  0.275831  1
  Br  Br20  1  0.829555  0.522855  0.724169  1
  Br  Br21  1  0.000000  0.500000  0.000000  1
  Br  Br22  1  0.567547  0.955339  0.141297  1
  Br  Br23  1  0.432453  0.044661  0.858703  1
  Br  Br24  1  0.305634  0.054328  0.311585  1
  Br  Br25  1  0.694366  0.945672  0.688415  1
  Br  Br26  1  0.534489  0.132124  0.413739  1
  Br  Br27  1  0.465511  0.867876  0.586261  1
  Br  Br28  1  0.093217  0.215219  0.065640  1
  Br  Br29  1  0.906783  0.784781  0.934360  1
  Br  Br30  1  0.662240  0.693432  0.401734  1
  Br  Br31  1  0.337760  0.306568  0.598266  1
  Br  Br32  1  0.900562  0.148347  0.923328  1
  Br  Br33  1  0.099438  0.851653  0.076672  1
  Br  Br34  1  0.502208  0.183274  0.060301  1
  Br  Br35  1  0.497792  0.816726  0.939699  1
  Br  Br36  1  0.649266  0.431519  0.650271  1
  Br  Br37  1  0.350734  0.568481  0.349729  1
