# generated using pymatgen
data_Tb8Nb11Si16Mo
_symmetry_space_group_name_H-M   'P 1'
_cell_length_a   7.06587943
_cell_length_b   7.06587873
_cell_length_c   13.07733080
_cell_angle_alpha   89.98822108
_cell_angle_beta   90.01177973
_cell_angle_gamma   89.93670401
_symmetry_Int_Tables_number   1
_chemical_formula_structural   Tb8Nb11Si16Mo
_chemical_formula_sum   'Tb8 Nb11 Si16 Mo1'
_cell_volume   652.90685484
_cell_formula_units_Z   1
loop_
 _symmetry_equiv_pos_site_id
 _symmetry_equiv_pos_as_xyz
  1  'x, y, z'
loop_
 _atom_site_type_symbol
 _atom_site_label
 _atom_site_symmetry_multiplicity
 _atom_site_fract_x
 _atom_site_fract_y
 _atom_site_fract_z
 _atom_site_occupancy
  Tb  Tb0  1  0.342557  0.002228  0.467828  1
  Tb  Tb1  1  0.498010  0.841047  0.716769  1
  Tb  Tb2  1  0.502956  0.158044  0.218003  1
  Tb  Tb3  1  0.841047  0.498010  0.283231  1
  Tb  Tb4  1  0.158044  0.502956  0.781997  1
  Tb  Tb5  1  0.658484  0.997392  0.967723  1
  Tb  Tb6  1  0.002228  0.342557  0.532172  1
  Tb  Tb7  1  0.997392  0.658484  0.032277  1
  Nb  Nb8  1  0.328199  0.328199  0.000000  1
  Nb  Nb9  1  0.171370  0.827512  0.250855  1
  Nb  Nb10  1  0.827512  0.171370  0.749145  1
  Nb  Nb11  1  0.153065  0.007197  0.874474  1
  Nb  Nb12  1  0.493398  0.653208  0.124681  1
  Nb  Nb13  1  0.507074  0.346586  0.623955  1
  Nb  Nb14  1  0.653208  0.493398  0.875319  1
  Nb  Nb15  1  0.346586  0.507074  0.376045  1
  Nb  Nb16  1  0.847509  0.993415  0.374667  1
  Nb  Nb17  1  0.007197  0.153065  0.125526  1
  Nb  Nb18  1  0.993415  0.847509  0.625333  1
  Si  Si19  1  0.204046  0.132487  0.682869  1
  Si  Si20  1  0.366770  0.703592  0.933109  1
  Si  Si21  1  0.633029  0.298573  0.433448  1
  Si  Si22  1  0.703592  0.366770  0.066891  1
  Si  Si23  1  0.298573  0.633029  0.566552  1
  Si  Si24  1  0.796076  0.866595  0.183331  1
  Si  Si25  1  0.132487  0.204046  0.317131  1
  Si  Si26  1  0.866595  0.796076  0.816669  1
  Si  Si27  1  0.292947  0.953606  0.063594  1
  Si  Si28  1  0.547967  0.791527  0.315230  1
  Si  Si29  1  0.453727  0.206814  0.813386  1
  Si  Si30  1  0.791527  0.547967  0.684770  1
  Si  Si31  1  0.206814  0.453727  0.186614  1
  Si  Si32  1  0.707222  0.044435  0.563027  1
  Si  Si33  1  0.953606  0.292947  0.936406  1
  Si  Si34  1  0.044435  0.707222  0.436973  1
  Mo  Mo35  1  0.671335  0.671335  0.500000  1
