# generated using pymatgen
data_Ba8Fe2CoSeO16
_symmetry_space_group_name_H-M   'P 1'
_cell_length_a   6.22234413
_cell_length_b   7.74275104
_cell_length_c   10.64715438
_cell_angle_alpha   90.00178021
_cell_angle_beta   93.40188673
_cell_angle_gamma   89.54351490
_symmetry_Int_Tables_number   1
_chemical_formula_structural   Ba8Fe2CoSeO16
_chemical_formula_sum   'Ba8 Fe2 Co1 Se1 O16'
_cell_volume   512.03905787
_cell_formula_units_Z   1
loop_
 _symmetry_equiv_pos_site_id
 _symmetry_equiv_pos_as_xyz
  1  'x, y, z'
loop_
 _atom_site_type_symbol
 _atom_site_label
 _atom_site_symmetry_multiplicity
 _atom_site_fract_x
 _atom_site_fract_y
 _atom_site_fract_z
 _atom_site_occupancy
  Ba  Ba0  1  0.772287  0.838861  0.116931  1
  Ba  Ba1  1  0.724159  0.341013  0.406193  1
  Ba  Ba2  1  0.248216  0.164257  0.934852  1
  Ba  Ba3  1  0.246386  0.649098  0.550653  1
  Ba  Ba4  1  0.209944  0.485120  0.205198  1
  Ba  Ba5  1  0.276295  0.007971  0.315744  1
  Ba  Ba6  1  0.764517  0.488637  0.795762  1
  Ba  Ba7  1  0.722659  0.012262  0.685783  1
  Fe  Fe8  1  0.745166  0.279379  0.073846  1
  Fe  Fe9  1  0.752406  0.777247  0.424777  1
  Co  Co10  1  0.238563  0.222338  0.588138  1
  Se  Se11  1  0.263597  0.724584  0.916883  1
  O  O12  1  0.697028  0.016035  0.428835  1
  O  O13  1  0.820475  0.517023  0.055961  1
  O  O14  1  0.286028  0.995587  0.577851  1
  O  O15  1  0.246219  0.510570  0.914611  1
  O  O16  1  0.507847  0.235730  0.174832  1
  O  O17  1  0.995763  0.731671  0.326562  1
  O  O18  1  0.463623  0.782031  0.827421  1
  O  O19  1  0.037254  0.261800  0.700320  1
  O  O20  1  0.000043  0.155909  0.134345  1
  O  O21  1  0.501805  0.667136  0.350404  1
  O  O22  1  0.031650  0.819861  0.866026  1
  O  O23  1  0.489591  0.331996  0.629195  1
  O  O24  1  0.665061  0.182595  0.912219  1
  O  O25  1  0.816815  0.685928  0.589107  1
  O  O26  1  0.317479  0.799402  0.064321  1
  O  O27  1  0.159128  0.315961  0.433231  1
