# generated using pymatgen
data_CuOs4RuO12
_symmetry_space_group_name_H-M   'P 1'
_cell_length_a   4.56441418
_cell_length_b   4.56441418
_cell_length_c   9.49513400
_cell_angle_alpha   90.00000000
_cell_angle_beta   90.00000000
_cell_angle_gamma   90.03256174
_symmetry_Int_Tables_number   1
_chemical_formula_structural   CuOs4RuO12
_chemical_formula_sum   'Cu1 Os4 Ru1 O12'
_cell_volume   197.82042044
_cell_formula_units_Z   1
loop_
 _symmetry_equiv_pos_site_id
 _symmetry_equiv_pos_as_xyz
  1  'x, y, z'
loop_
 _atom_site_type_symbol
 _atom_site_label
 _atom_site_symmetry_multiplicity
 _atom_site_fract_x
 _atom_site_fract_y
 _atom_site_fract_z
 _atom_site_occupancy
  Cu  Cu0  1  0.500000  0.500000  0.500000  1
  Os  Os1  1  0.000000  0.000000  0.665901  1
  Os  Os2  1  0.500000  0.500000  0.167498  1
  Os  Os3  1  0.500000  0.500000  0.832502  1
  Os  Os4  1  0.000000  0.000000  0.334099  1
  Ru  Ru5  1  0.000000  0.000000  0.000000  1
  O  O6  1  0.196412  0.803588  0.834422  1
  O  O7  1  0.709156  0.709156  0.316284  1
  O  O8  1  0.809687  0.190313  0.500000  1
  O  O9  1  0.290844  0.290844  0.683716  1
  O  O10  1  0.803588  0.196412  0.834422  1
  O  O11  1  0.190313  0.809687  0.500000  1
  O  O12  1  0.310596  0.310596  0.000000  1
  O  O13  1  0.689404  0.689404  0.000000  1
  O  O14  1  0.290844  0.290844  0.316284  1
  O  O15  1  0.196412  0.803588  0.165578  1
  O  O16  1  0.709156  0.709156  0.683716  1
  O  O17  1  0.803588  0.196412  0.165578  1
