# generated using pymatgen
data_RbSnPIrRh
_symmetry_space_group_name_H-M   'P 1'
_cell_length_a   8.13683169
_cell_length_b   8.13683244
_cell_length_c   8.13683153
_cell_angle_alpha   151.34121761
_cell_angle_beta   150.80276253
_cell_angle_gamma   41.37175794
_symmetry_Int_Tables_number   1
_chemical_formula_structural   RbSnPIrRh
_chemical_formula_sum   'Rb1 Sn1 P1 Ir1 Rh1'
_cell_volume   125.75706910
_cell_formula_units_Z   1
loop_
 _symmetry_equiv_pos_site_id
 _symmetry_equiv_pos_as_xyz
  1  'x, y, z'
loop_
 _atom_site_type_symbol
 _atom_site_label
 _atom_site_symmetry_multiplicity
 _atom_site_fract_x
 _atom_site_fract_y
 _atom_site_fract_z
 _atom_site_occupancy
  Rb  Rb0  1  0.020916  0.020916  0.000000  1
  Sn  Sn1  1  0.349296  0.349296  0.000000  1
  P  P2  1  0.661868  0.661868  0.000000  1
  Ir  Ir3  1  0.735090  0.235090  0.500000  1
  Rh  Rh4  1  0.232829  0.732829  0.500000  1
