# generated using pymatgen
data_Tm3LuSc4(CrB6)4
_symmetry_space_group_name_H-M   'P 1'
_cell_length_a   3.44009100
_cell_length_b   8.97740500
_cell_length_c   11.31125800
_cell_angle_alpha   90.00081369
_cell_angle_beta   90.00000000
_cell_angle_gamma   90.00000000
_symmetry_Int_Tables_number   1
_chemical_formula_structural   Tm3LuSc4(CrB6)4
_chemical_formula_sum   'Tm3 Lu1 Sc4 Cr4 B24'
_cell_volume   349.32660044
_cell_formula_units_Z   1
loop_
 _symmetry_equiv_pos_site_id
 _symmetry_equiv_pos_as_xyz
  1  'x, y, z'
loop_
 _atom_site_type_symbol
 _atom_site_label
 _atom_site_symmetry_multiplicity
 _atom_site_fract_x
 _atom_site_fract_y
 _atom_site_fract_z
 _atom_site_occupancy
  Tm  Tm0  1  0.000000  0.177131  0.914580  1
  Tm  Tm1  1  0.000000  0.322871  0.414538  1
  Tm  Tm2  1  0.000000  0.677127  0.585422  1
  Lu  Lu3  1  0.000000  0.822840  0.085537  1
  Sc  Sc4  1  0.000000  0.443289  0.130637  1
  Sc  Sc5  1  0.000000  0.556778  0.869441  1
  Sc  Sc6  1  0.000000  0.943192  0.369256  1
  Sc  Sc7  1  0.000000  0.056796  0.630640  1
  Cr  Cr8  1  0.000000  0.141263  0.181612  1
  Cr  Cr9  1  0.000000  0.858562  0.818501  1
  Cr  Cr10  1  0.000000  0.641504  0.318190  1
  Cr  Cr11  1  0.000000  0.358605  0.681653  1
  B  B12  1  0.500000  0.054154  0.067035  1
  B  B13  1  0.500000  0.945423  0.933263  1
  B  B14  1  0.500000  0.554467  0.432936  1
  B  B15  1  0.500000  0.445552  0.567046  1
  B  B16  1  0.500000  0.252889  0.081874  1
  B  B17  1  0.500000  0.747163  0.918518  1
  B  B18  1  0.500000  0.752881  0.418140  1
  B  B19  1  0.500000  0.247104  0.581846  1
  B  B20  1  0.500000  0.294672  0.235978  1
  B  B21  1  0.500000  0.705318  0.764029  1
  B  B22  1  0.500000  0.794769  0.263731  1
  B  B23  1  0.500000  0.205334  0.735973  1
  B  B24  1  0.500000  0.130045  0.316840  1
  B  B25  1  0.500000  0.869965  0.683136  1
  B  B26  1  0.500000  0.630313  0.182959  1
  B  B27  1  0.500000  0.369990  0.816847  1
  B  B28  1  0.500000  0.482227  0.287016  1
  B  B29  1  0.500000  0.517781  0.712981  1
  B  B30  1  0.500000  0.981911  0.212781  1
  B  B31  1  0.500000  0.017789  0.787008  1
  B  B32  1  0.500000  0.096833  0.473637  1
  B  B33  1  0.500000  0.903155  0.526341  1
  B  B34  1  0.500000  0.597138  0.026435  1
  B  B35  1  0.500000  0.403168  0.973645  1
