# generated using pymatgen
data_Nd5Ho3Si12Ir3Rh
_symmetry_space_group_name_H-M   'P 1'
_cell_length_a   8.22781900
_cell_length_b   8.22781765
_cell_length_c   8.18515500
_cell_angle_alpha   90.00000000
_cell_angle_beta   90.00000000
_cell_angle_gamma   120.00000141
_symmetry_Int_Tables_number   1
_chemical_formula_structural   Nd5Ho3Si12Ir3Rh
_chemical_formula_sum   'Nd5 Ho3 Si12 Ir3 Rh1'
_cell_volume   479.87366916
_cell_formula_units_Z   1
loop_
 _symmetry_equiv_pos_site_id
 _symmetry_equiv_pos_as_xyz
  1  'x, y, z'
loop_
 _atom_site_type_symbol
 _atom_site_label
 _atom_site_symmetry_multiplicity
 _atom_site_fract_x
 _atom_site_fract_y
 _atom_site_fract_z
 _atom_site_occupancy
  Nd  Nd0  1  0.000000  0.000000  0.249499  1
  Nd  Nd1  1  0.000000  0.000000  0.750231  1
  Nd  Nd2  1  0.505743  0.494257  0.250100  1
  Nd  Nd3  1  0.505743  0.011485  0.250100  1
  Nd  Nd4  1  0.988515  0.494257  0.250100  1
  Ho  Ho5  1  0.491961  0.508039  0.749976  1
  Ho  Ho6  1  0.491961  0.983920  0.749976  1
  Ho  Ho7  1  0.016080  0.508039  0.749976  1
  Si  Si8  1  0.166999  0.833001  0.506862  1
  Si  Si9  1  0.166999  0.333999  0.506862  1
  Si  Si10  1  0.666001  0.833001  0.506862  1
  Si  Si11  1  0.831591  0.168409  0.504352  1
  Si  Si12  1  0.831591  0.663183  0.504352  1
  Si  Si13  1  0.336817  0.168409  0.504352  1
  Si  Si14  1  0.831790  0.168210  0.995662  1
  Si  Si15  1  0.831790  0.663580  0.995662  1
  Si  Si16  1  0.336420  0.168210  0.995662  1
  Si  Si17  1  0.167035  0.832965  0.992833  1
  Si  Si18  1  0.167035  0.334069  0.992833  1
  Si  Si19  1  0.665931  0.832965  0.992833  1
  Ir  Ir20  1  0.333333  0.666667  0.489426  1
  Ir  Ir21  1  0.666667  0.333333  0.545121  1
  Ir  Ir22  1  0.666667  0.333333  0.954415  1
  Rh  Rh23  1  0.333333  0.666667  0.011954  1
