# generated using pymatgen
data_CeEr3(Co5P3)4
_symmetry_space_group_name_H-M   'P 1'
_cell_length_a   3.65223800
_cell_length_b   10.29184200
_cell_length_c   11.71699800
_cell_angle_alpha   89.99917247
_cell_angle_beta   90.00000000
_cell_angle_gamma   90.00000000
_symmetry_Int_Tables_number   1
_chemical_formula_structural   CeEr3(Co5P3)4
_chemical_formula_sum   'Ce1 Er3 Co20 P12'
_cell_volume   440.42152557
_cell_formula_units_Z   1
loop_
 _symmetry_equiv_pos_site_id
 _symmetry_equiv_pos_as_xyz
  1  'x, y, z'
loop_
 _atom_site_type_symbol
 _atom_site_label
 _atom_site_symmetry_multiplicity
 _atom_site_fract_x
 _atom_site_fract_y
 _atom_site_fract_z
 _atom_site_occupancy
  Ce  Ce0  1  0.250000  0.582863  0.703521  1
  Er  Er1  1  0.250000  0.916738  0.201671  1
  Er  Er2  1  0.750000  0.417016  0.299076  1
  Er  Er3  1  0.750000  0.082952  0.797277  1
  Co  Co4  1  0.250000  0.716472  0.990295  1
  Co  Co5  1  0.250000  0.783231  0.490976  1
  Co  Co6  1  0.750000  0.282304  0.007139  1
  Co  Co7  1  0.750000  0.216204  0.505769  1
  Co  Co8  1  0.250000  0.406468  0.487077  1
  Co  Co9  1  0.250000  0.092538  0.987508  1
  Co  Co10  1  0.750000  0.592777  0.512568  1
  Co  Co11  1  0.750000  0.906363  0.011993  1
  Co  Co12  1  0.250000  0.221062  0.176248  1
  Co  Co13  1  0.250000  0.277919  0.676589  1
  Co  Co14  1  0.750000  0.779439  0.823483  1
  Co  Co15  1  0.750000  0.721683  0.323663  1
  Co  Co16  1  0.250000  0.884788  0.698217  1
  Co  Co17  1  0.250000  0.617453  0.199545  1
  Co  Co18  1  0.750000  0.116229  0.299930  1
  Co  Co19  1  0.750000  0.383681  0.802177  1
  Co  Co20  1  0.250000  0.466382  0.933996  1
  Co  Co21  1  0.250000  0.032171  0.430631  1
  Co  Co22  1  0.750000  0.531017  0.071402  1
  Co  Co23  1  0.750000  0.970678  0.567460  1
  P  P24  1  0.250000  0.418275  0.114833  1
  P  P25  1  0.250000  0.082165  0.612044  1
  P  P26  1  0.750000  0.582580  0.892495  1
  P  P27  1  0.750000  0.918813  0.386812  1
  P  P28  1  0.250000  0.269795  0.870175  1
  P  P29  1  0.250000  0.229195  0.368893  1
  P  P30  1  0.750000  0.729740  0.130037  1
  P  P31  1  0.750000  0.775298  0.628538  1
  P  P32  1  0.250000  0.601579  0.391063  1
  P  P33  1  0.250000  0.899197  0.890776  1
  P  P34  1  0.750000  0.394208  0.607872  1
  P  P35  1  0.750000  0.100723  0.108251  1
