# generated using pymatgen
data_Y3Co7NiMoP6
_symmetry_space_group_name_H-M   'P 1'
_cell_length_a   3.73293100
_cell_length_b   10.53705800
_cell_length_c   12.24053900
_cell_angle_alpha   90.00000000
_cell_angle_beta   90.00000000
_cell_angle_gamma   90.00000000
_symmetry_Int_Tables_number   1
_chemical_formula_structural   Y3Co7NiMoP6
_chemical_formula_sum   'Y6 Co14 Ni2 Mo2 P12'
_cell_volume   481.47071308
_cell_formula_units_Z   2
loop_
 _symmetry_equiv_pos_site_id
 _symmetry_equiv_pos_as_xyz
  1  'x, y, z'
loop_
 _atom_site_type_symbol
 _atom_site_label
 _atom_site_symmetry_multiplicity
 _atom_site_fract_x
 _atom_site_fract_y
 _atom_site_fract_z
 _atom_site_occupancy
  Y  Y0  1  0.000000  0.500000  0.522474  1
  Y  Y1  1  0.500000  0.000000  0.477526  1
  Y  Y2  1  0.500000  0.817689  0.204674  1
  Y  Y3  1  0.500000  0.182311  0.204674  1
  Y  Y4  1  0.000000  0.682311  0.795326  1
  Y  Y5  1  0.000000  0.317689  0.795326  1
  Co  Co6  1  0.000000  0.500000  0.986771  1
  Co  Co7  1  0.500000  0.000000  0.013229  1
  Co  Co8  1  0.500000  0.332478  0.990247  1
  Co  Co9  1  0.500000  0.667522  0.990247  1
  Co  Co10  1  0.000000  0.167522  0.009753  1
  Co  Co11  1  0.000000  0.832478  0.009753  1
  Co  Co12  1  0.500000  0.297399  0.431753  1
  Co  Co13  1  0.500000  0.702601  0.431753  1
  Co  Co14  1  0.000000  0.202601  0.568247  1
  Co  Co15  1  0.000000  0.797399  0.568247  1
  Co  Co16  1  0.500000  0.878590  0.707917  1
  Co  Co17  1  0.500000  0.121410  0.707917  1
  Co  Co18  1  0.000000  0.621410  0.292083  1
  Co  Co19  1  0.000000  0.378590  0.292083  1
  Ni  Ni20  1  0.500000  0.500000  0.701693  1
  Ni  Ni21  1  0.000000  0.000000  0.298307  1
  Mo  Mo22  1  0.500000  0.500000  0.155406  1
  Mo  Mo23  1  0.000000  0.000000  0.844594  1
  P  P24  1  0.500000  0.500000  0.882197  1
  P  P25  1  0.000000  0.000000  0.117803  1
  P  P26  1  0.500000  0.500000  0.348335  1
  P  P27  1  0.000000  0.000000  0.651665  1
  P  P28  1  0.500000  0.310110  0.615524  1
  P  P29  1  0.500000  0.689890  0.615524  1
  P  P30  1  0.000000  0.189890  0.384476  1
  P  P31  1  0.000000  0.810110  0.384476  1
  P  P32  1  0.500000  0.844878  0.893343  1
  P  P33  1  0.500000  0.155122  0.893343  1
  P  P34  1  0.000000  0.655122  0.106657  1
  P  P35  1  0.000000  0.344878  0.106657  1
