# generated using pymatgen
data_Er2Tm3In4AgPt
_symmetry_space_group_name_H-M   'P 1'
_cell_length_a   3.61505000
_cell_length_b   8.14123361
_cell_length_c   18.25440683
_cell_angle_alpha   89.93606590
_cell_angle_beta   90.00000000
_cell_angle_gamma   90.00000000
_symmetry_Int_Tables_number   1
_chemical_formula_structural   Er2Tm3In4AgPt
_chemical_formula_sum   'Er4 Tm6 In8 Ag2 Pt2'
_cell_volume   537.24450277
_cell_formula_units_Z   2
loop_
 _symmetry_equiv_pos_site_id
 _symmetry_equiv_pos_as_xyz
  1  'x, y, z'
loop_
 _atom_site_type_symbol
 _atom_site_label
 _atom_site_symmetry_multiplicity
 _atom_site_fract_x
 _atom_site_fract_y
 _atom_site_fract_z
 _atom_site_occupancy
  Er  Er0  1  0.000000  0.272841  0.721020  1
  Er  Er1  1  0.000000  0.727159  0.278980  1
  Er  Er2  1  0.000000  0.000000  0.000000  1
  Er  Er3  1  0.000000  0.500000  0.500000  1
  Tm  Tm4  1  0.000000  0.122463  0.420891  1
  Tm  Tm5  1  0.000000  0.877537  0.579109  1
  Tm  Tm6  1  0.000000  0.383808  0.916161  1
  Tm  Tm7  1  0.000000  0.616192  0.083839  1
  Tm  Tm8  1  0.000000  0.255825  0.216225  1
  Tm  Tm9  1  0.000000  0.744175  0.783775  1
  In  In10  1  0.500000  0.419765  0.352433  1
  In  In11  1  0.500000  0.580235  0.647567  1
  In  In12  1  0.500000  0.076352  0.851934  1
  In  In13  1  0.500000  0.923648  0.148066  1
  In  In14  1  0.500000  0.291963  0.065224  1
  In  In15  1  0.500000  0.708037  0.934776  1
  In  In16  1  0.500000  0.208327  0.567899  1
  In  In17  1  0.500000  0.791673  0.432101  1
  Ag  Ag18  1  0.500000  0.027029  0.302156  1
  Ag  Ag19  1  0.500000  0.972971  0.697844  1
  Pt  Pt20  1  0.500000  0.473638  0.804188  1
  Pt  Pt21  1  0.500000  0.526362  0.195812  1
