# generated using pymatgen
data_Ac3MgAg2Au3
_symmetry_space_group_name_H-M   'P 1'
_cell_length_a   8.13967000
_cell_length_b   8.13967051
_cell_length_c   4.26084700
_cell_angle_alpha   90.00000000
_cell_angle_beta   90.00000000
_cell_angle_gamma   121.20967678
_symmetry_Int_Tables_number   1
_chemical_formula_structural   Ac3MgAg2Au3
_chemical_formula_sum   'Ac3 Mg1 Ag2 Au3'
_cell_volume   241.44389740
_cell_formula_units_Z   1
loop_
 _symmetry_equiv_pos_site_id
 _symmetry_equiv_pos_as_xyz
  1  'x, y, z'
loop_
 _atom_site_type_symbol
 _atom_site_label
 _atom_site_symmetry_multiplicity
 _atom_site_fract_x
 _atom_site_fract_y
 _atom_site_fract_z
 _atom_site_occupancy
  Ac  Ac0  1  0.593457  0.012249  0.000000  1
  Ac  Ac1  1  0.012249  0.593457  0.000000  1
  Ac  Ac2  1  0.385560  0.385560  0.000000  1
  Mg  Mg3  1  0.763282  0.763282  0.500000  1
  Ag  Ag4  1  0.247183  0.993788  0.500000  1
  Ag  Ag5  1  0.993788  0.247183  0.500000  1
  Au  Au6  1  0.354465  0.669868  0.500000  1
  Au  Au7  1  0.669868  0.354465  0.500000  1
  Au  Au8  1  0.980147  0.980147  0.000000  1
