# generated using pymatgen
data_Y3C2I3
_symmetry_space_group_name_H-M   'P 1'
_cell_length_a   10.28236500
_cell_length_b   10.28236483
_cell_length_c   16.99247700
_cell_angle_alpha   90.00000000
_cell_angle_beta   90.00000000
_cell_angle_gamma   111.71550339
_symmetry_Int_Tables_number   1
_chemical_formula_structural   Y3C2I3
_chemical_formula_sum   'Y24 C16 I24'
_cell_volume   1669.06641511
_cell_formula_units_Z   8
loop_
 _symmetry_equiv_pos_site_id
 _symmetry_equiv_pos_as_xyz
  1  'x, y, z'
loop_
 _atom_site_type_symbol
 _atom_site_label
 _atom_site_symmetry_multiplicity
 _atom_site_fract_x
 _atom_site_fract_y
 _atom_site_fract_z
 _atom_site_occupancy
  Y  Y0  1  0.160390  0.896930  0.999597  1
  Y  Y1  1  0.736939  0.774008  0.404578  1
  Y  Y2  1  0.619430  0.320012  0.974993  1
  Y  Y3  1  0.630659  0.369341  0.750000  1
  Y  Y4  1  0.556484  0.006680  0.599531  1
  Y  Y5  1  0.380570  0.679988  0.474993  1
  Y  Y6  1  0.774008  0.736939  0.595422  1
  Y  Y7  1  0.466259  0.969724  0.381563  1
  Y  Y8  1  0.969724  0.466259  0.618437  1
  Y  Y9  1  0.533741  0.030276  0.881563  1
  Y  Y10  1  0.443516  0.993320  0.099531  1
  Y  Y11  1  0.103070  0.839610  0.500403  1
  Y  Y12  1  0.320012  0.619430  0.025007  1
  Y  Y13  1  0.006680  0.556484  0.400469  1
  Y  Y14  1  0.823173  0.176827  0.750000  1
  Y  Y15  1  0.225992  0.263061  0.095422  1
  Y  Y16  1  0.263061  0.225992  0.904578  1
  Y  Y17  1  0.993320  0.443516  0.900469  1
  Y  Y18  1  0.679988  0.380570  0.525007  1
  Y  Y19  1  0.176827  0.823173  0.250000  1
  Y  Y20  1  0.839610  0.103070  0.499597  1
  Y  Y21  1  0.030276  0.533741  0.118437  1
  Y  Y22  1  0.369341  0.630659  0.250000  1
  Y  Y23  1  0.896930  0.160390  0.000403  1
  C  C24  1  0.281942  0.721559  0.348462  1
  C  C25  1  0.902986  0.589061  0.530085  1
  C  C26  1  0.660276  0.853560  0.526122  1
  C  C27  1  0.589061  0.902986  0.469915  1
  C  C28  1  0.718058  0.278441  0.848462  1
  C  C29  1  0.784038  0.224210  0.905241  1
  C  C30  1  0.215962  0.775790  0.405241  1
  C  C31  1  0.278441  0.718058  0.151538  1
  C  C32  1  0.721559  0.281942  0.651538  1
  C  C33  1  0.339724  0.146440  0.026122  1
  C  C34  1  0.853560  0.660276  0.473878  1
  C  C35  1  0.146440  0.339724  0.973878  1
  C  C36  1  0.224210  0.784038  0.094759  1
  C  C37  1  0.097014  0.410939  0.030085  1
  C  C38  1  0.410939  0.097014  0.969915  1
  C  C39  1  0.775790  0.215962  0.594759  1
  I  I40  1  0.360831  0.101404  0.744921  1
  I  I41  1  0.863101  0.627364  0.993843  1
  I  I42  1  0.898596  0.639169  0.755079  1
  I  I43  1  0.499993  0.512111  0.879549  1
  I  I44  1  0.132352  0.367946  0.752450  1
  I  I45  1  0.372636  0.136899  0.506157  1
  I  I46  1  0.487889  0.500007  0.620451  1
  I  I47  1  0.984732  0.986149  0.129148  1
  I  I48  1  0.500007  0.487889  0.379549  1
  I  I49  1  0.136899  0.372636  0.493843  1
  I  I50  1  0.745341  0.263072  0.368338  1
  I  I51  1  0.986149  0.984732  0.870852  1
  I  I52  1  0.013851  0.015268  0.370852  1
  I  I53  1  0.263072  0.745341  0.631662  1
  I  I54  1  0.736928  0.254659  0.131662  1
  I  I55  1  0.254659  0.736928  0.868338  1
  I  I56  1  0.627364  0.863101  0.006157  1
  I  I57  1  0.101404  0.360831  0.255079  1
  I  I58  1  0.015268  0.013851  0.629148  1
  I  I59  1  0.367946  0.132352  0.247550  1
  I  I60  1  0.639169  0.898596  0.244921  1
  I  I61  1  0.632054  0.867648  0.747550  1
  I  I62  1  0.512111  0.499993  0.120451  1
  I  I63  1  0.867648  0.632054  0.252450  1
