# generated using pymatgen
data_Y5Ho7GaCo5
_symmetry_space_group_name_H-M   'P 1'
_cell_length_a   8.22103133
_cell_length_b   8.22812188
_cell_length_c   8.22103332
_cell_angle_alpha   110.58397339
_cell_angle_beta   110.68463205
_cell_angle_gamma   107.13588504
_symmetry_Int_Tables_number   1
_chemical_formula_structural   Y5Ho7GaCo5
_chemical_formula_sum   'Y5 Ho7 Ga1 Co5'
_cell_volume   427.73945005
_cell_formula_units_Z   1
loop_
 _symmetry_equiv_pos_site_id
 _symmetry_equiv_pos_as_xyz
  1  'x, y, z'
loop_
 _atom_site_type_symbol
 _atom_site_label
 _atom_site_symmetry_multiplicity
 _atom_site_fract_x
 _atom_site_fract_y
 _atom_site_fract_z
 _atom_site_occupancy
  Y  Y0  1  0.813130  0.710280  0.522819  1
  Y  Y1  1  0.186332  0.289925  0.476714  1
  Y  Y2  1  0.187462  0.710280  0.897150  1
  Y  Y3  1  0.813210  0.289925  0.103594  1
  Y  Y4  1  0.684105  0.382064  0.697960  1
  Ho  Ho5  1  0.316106  0.619852  0.303745  1
  Ho  Ho6  1  0.683936  0.987961  0.304025  1
  Ho  Ho7  1  0.315867  0.011944  0.696078  1
  Ho  Ho8  1  0.595416  0.787114  0.809466  1
  Ho  Ho9  1  0.403989  0.213252  0.190325  1
  Ho  Ho10  1  0.977647  0.787114  0.191698  1
  Ho  Ho11  1  0.022927  0.213252  0.809262  1
  Ga  Ga12  1  0.499964  0.499953  0.999988  1
  Co  Co13  1  0.622200  0.998360  0.621867  1
  Co  Co14  1  0.376493  0.998360  0.376160  1
  Co  Co15  1  0.114016  0.614247  0.500231  1
  Co  Co16  1  0.887258  0.386449  0.499192  1
  Co  Co17  1  0.999943  0.999669  0.999726  1
