# generated using pymatgen
data_TbDy3Y2(RuBr3)2
_symmetry_space_group_name_H-M   'P 1'
_cell_length_a   4.10037900
_cell_length_b   8.54151207
_cell_length_c   11.89980676
_cell_angle_alpha   87.62923868
_cell_angle_beta   90.00000000
_cell_angle_gamma   90.00000000
_symmetry_Int_Tables_number   1
_chemical_formula_structural   TbDy3Y2(RuBr3)2
_chemical_formula_sum   'Tb1 Dy3 Y2 Ru2 Br6'
_cell_volume   416.41540132
_cell_formula_units_Z   1
loop_
 _symmetry_equiv_pos_site_id
 _symmetry_equiv_pos_as_xyz
  1  'x, y, z'
loop_
 _atom_site_type_symbol
 _atom_site_label
 _atom_site_symmetry_multiplicity
 _atom_site_fract_x
 _atom_site_fract_y
 _atom_site_fract_z
 _atom_site_occupancy
  Tb  Tb0  1  0.250000  0.276463  0.395258  1
  Dy  Dy1  1  0.750000  0.725273  0.604760  1
  Dy  Dy2  1  0.250000  0.863136  0.365409  1
  Dy  Dy3  1  0.750000  0.136917  0.635114  1
  Y  Y4  1  0.250000  0.893493  0.827257  1
  Y  Y5  1  0.750000  0.105388  0.172490  1
  Ru  Ru6  1  0.250000  0.941140  0.595950  1
  Ru  Ru7  1  0.750000  0.059103  0.404213  1
  Br  Br8  1  0.250000  0.429095  0.631499  1
  Br  Br9  1  0.750000  0.572510  0.368422  1
  Br  Br10  1  0.250000  0.870060  0.102878  1
  Br  Br11  1  0.750000  0.128661  0.897428  1
  Br  Br12  1  0.250000  0.343423  0.139242  1
  Br  Br13  1  0.750000  0.655340  0.860079  1
