# generated using pymatgen
data_Tb(Y2Rh)2
_symmetry_space_group_name_H-M   'P 1'
_cell_length_a   6.46892722
_cell_length_b   7.20998106
_cell_length_c   8.67722428
_cell_angle_alpha   96.75470194
_cell_angle_beta   111.88550609
_cell_angle_gamma   90.00000269
_symmetry_Int_Tables_number   1
_chemical_formula_structural   Tb(Y2Rh)2
_chemical_formula_sum   'Tb2 Y8 Rh4'
_cell_volume   372.51653463
_cell_formula_units_Z   2
loop_
 _symmetry_equiv_pos_site_id
 _symmetry_equiv_pos_as_xyz
  1  'x, y, z'
loop_
 _atom_site_type_symbol
 _atom_site_label
 _atom_site_symmetry_multiplicity
 _atom_site_fract_x
 _atom_site_fract_y
 _atom_site_fract_z
 _atom_site_occupancy
  Tb  Tb0  1  0.425175  0.750000  0.000000  1
  Tb  Tb1  1  0.574825  0.250000  0.000000  1
  Y  Y2  1  0.978057  0.916455  0.186615  1
  Y  Y3  1  0.791442  0.583545  0.813385  1
  Y  Y4  1  0.021943  0.083545  0.813385  1
  Y  Y5  1  0.208558  0.416455  0.186615  1
  Y  Y6  1  0.652260  0.815768  0.439231  1
  Y  Y7  1  0.213030  0.684232  0.560769  1
  Y  Y8  1  0.347740  0.184232  0.560769  1
  Y  Y9  1  0.786970  0.315768  0.439231  1
  Rh  Rh10  1  0.818389  0.572038  0.219872  1
  Rh  Rh11  1  0.598517  0.927962  0.780128  1
  Rh  Rh12  1  0.181611  0.427962  0.780128  1
  Rh  Rh13  1  0.401483  0.072038  0.219872  1
