# generated using pymatgen
data_Pr3AgIr2(RhO7)2
_symmetry_space_group_name_H-M   'P 1'
_cell_length_a   7.48898966
_cell_length_b   7.47736927
_cell_length_c   7.27874264
_cell_angle_alpha   58.92872725
_cell_angle_beta   59.03979948
_cell_angle_gamma   59.94857309
_symmetry_Int_Tables_number   1
_chemical_formula_structural   Pr3AgIr2(RhO7)2
_chemical_formula_sum   'Pr3 Ag1 Ir2 Rh2 O14'
_cell_volume   283.60101900
_cell_formula_units_Z   1
loop_
 _symmetry_equiv_pos_site_id
 _symmetry_equiv_pos_as_xyz
  1  'x, y, z'
loop_
 _atom_site_type_symbol
 _atom_site_label
 _atom_site_symmetry_multiplicity
 _atom_site_fract_x
 _atom_site_fract_y
 _atom_site_fract_z
 _atom_site_occupancy
  Pr  Pr0  1  0.125000  0.125000  0.125000  1
  Pr  Pr1  1  0.625000  0.125000  0.125000  1
  Pr  Pr2  1  0.125000  0.625000  0.125000  1
  Ag  Ag3  1  0.125000  0.125000  0.625000  1
  Ir  Ir4  1  0.625000  0.625000  0.625000  1
  Ir  Ir5  1  0.125000  0.625000  0.625000  1
  Rh  Rh6  1  0.625000  0.125000  0.625000  1
  Rh  Rh7  1  0.625000  0.625000  0.125000  1
  O  O8  1  0.944805  0.557814  0.552575  1
  O  O9  1  0.299298  0.308460  0.696007  1
  O  O10  1  0.958014  0.545012  0.958047  1
  O  O11  1  0.711545  0.290841  0.286069  1
  O  O12  1  0.538926  0.545012  0.958047  1
  O  O13  1  0.553763  0.941540  0.553993  1
  O  O14  1  0.538455  0.959159  0.963931  1
  O  O15  1  0.244074  0.244571  0.267281  1
  O  O16  1  0.305195  0.692186  0.697425  1
  O  O17  1  0.696237  0.308460  0.696007  1
  O  O18  1  0.005926  0.005429  0.982719  1
  O  O19  1  0.950702  0.941540  0.553993  1
  O  O20  1  0.291986  0.704988  0.291953  1
  O  O21  1  0.711074  0.704988  0.291953  1
