# generated using pymatgen
data_La16Cd4TcIr3
_symmetry_space_group_name_H-M   'P 1'
_cell_length_a   10.17602863
_cell_length_b   10.17602869
_cell_length_c   10.17602922
_cell_angle_alpha   59.31253233
_cell_angle_beta   59.31253382
_cell_angle_gamma   59.31252794
_symmetry_Int_Tables_number   1
_chemical_formula_structural   La16Cd4TcIr3
_chemical_formula_sum   'La16 Cd4 Tc1 Ir3'
_cell_volume   733.44645251
_cell_formula_units_Z   1
loop_
 _symmetry_equiv_pos_site_id
 _symmetry_equiv_pos_as_xyz
  1  'x, y, z'
loop_
 _atom_site_type_symbol
 _atom_site_label
 _atom_site_symmetry_multiplicity
 _atom_site_fract_x
 _atom_site_fract_y
 _atom_site_fract_z
 _atom_site_occupancy
  La  La0  1  0.597080  0.597080  0.597080  1
  La  La1  1  0.596317  0.596317  0.209745  1
  La  La2  1  0.596317  0.209745  0.596317  1
  La  La3  1  0.209745  0.596317  0.596317  1
  La  La4  1  0.063598  0.439528  0.439528  1
  La  La5  1  0.441509  0.059014  0.059014  1
  La  La6  1  0.439528  0.063598  0.439528  1
  La  La7  1  0.059014  0.441509  0.059014  1
  La  La8  1  0.439528  0.439528  0.063598  1
  La  La9  1  0.059014  0.059014  0.441509  1
  La  La10  1  0.190642  0.809387  0.809387  1
  La  La11  1  0.806119  0.191820  0.191820  1
  La  La12  1  0.809387  0.190642  0.809387  1
  La  La13  1  0.191820  0.806119  0.191820  1
  La  La14  1  0.809387  0.809387  0.190642  1
  La  La15  1  0.191820  0.191820  0.806119  1
  Cd  Cd16  1  0.829506  0.829506  0.829506  1
  Cd  Cd17  1  0.829157  0.829157  0.511457  1
  Cd  Cd18  1  0.829157  0.511457  0.829157  1
  Cd  Cd19  1  0.511457  0.829157  0.829157  1
  Tc  Tc20  1  0.386899  0.386899  0.386899  1
  Ir  Ir21  1  0.391047  0.391047  0.830906  1
  Ir  Ir22  1  0.391047  0.830906  0.391047  1
  Ir  Ir23  1  0.830906  0.391047  0.391047  1
