# generated using pymatgen
data_Lu4InPt10Au
_symmetry_space_group_name_H-M   'P 1'
_cell_length_a   4.16292500
_cell_length_b   5.84824000
_cell_length_c   11.55168144
_cell_angle_alpha   88.43486156
_cell_angle_beta   90.00000000
_cell_angle_gamma   90.00000000
_symmetry_Int_Tables_number   1
_chemical_formula_structural   Lu4InPt10Au
_chemical_formula_sum   'Lu4 In1 Pt10 Au1'
_cell_volume   281.12982353
_cell_formula_units_Z   1
loop_
 _symmetry_equiv_pos_site_id
 _symmetry_equiv_pos_as_xyz
  1  'x, y, z'
loop_
 _atom_site_type_symbol
 _atom_site_label
 _atom_site_symmetry_multiplicity
 _atom_site_fract_x
 _atom_site_fract_y
 _atom_site_fract_z
 _atom_site_occupancy
  Lu  Lu0  1  0.500000  0.768968  0.370787  1
  Lu  Lu1  1  0.500000  0.712417  0.862653  1
  Lu  Lu2  1  0.500000  0.287583  0.137347  1
  Lu  Lu3  1  0.500000  0.231032  0.629213  1
  In  In4  1  0.000000  0.000000  0.000000  1
  Pt  Pt5  1  0.000000  0.024757  0.250047  1
  Pt  Pt6  1  0.000000  0.975243  0.749953  1
  Pt  Pt7  1  0.000000  0.500000  0.000000  1
  Pt  Pt8  1  0.000000  0.524532  0.248610  1
  Pt  Pt9  1  0.000000  0.475468  0.751390  1
  Pt  Pt10  1  0.500000  0.260251  0.378167  1
  Pt  Pt11  1  0.500000  0.225154  0.881009  1
  Pt  Pt12  1  0.500000  0.774846  0.118991  1
  Pt  Pt13  1  0.500000  0.739749  0.621833  1
  Pt  Pt14  1  0.000000  0.000000  0.500000  1
  Au  Au15  1  0.000000  0.500000  0.500000  1
