# generated using pymatgen
data_Dy2GaCoRu
_symmetry_space_group_name_H-M   'P 1'
_cell_length_a   4.06055067
_cell_length_b   5.59798313
_cell_length_c   5.47140012
_cell_angle_alpha   120.76831641
_cell_angle_beta   111.78166299
_cell_angle_gamma   89.99999601
_symmetry_Int_Tables_number   1
_chemical_formula_structural   Dy2GaCoRu
_chemical_formula_sum   'Dy2 Ga1 Co1 Ru1'
_cell_volume   96.38500165
_cell_formula_units_Z   1
loop_
 _symmetry_equiv_pos_site_id
 _symmetry_equiv_pos_as_xyz
  1  'x, y, z'
loop_
 _atom_site_type_symbol
 _atom_site_label
 _atom_site_symmetry_multiplicity
 _atom_site_fract_x
 _atom_site_fract_y
 _atom_site_fract_z
 _atom_site_occupancy
  Dy  Dy0  1  0.791422  0.284676  0.582844  1
  Dy  Dy1  1  0.208578  0.701831  0.417156  1
  Ga  Ga2  1  0.000000  0.990902  0.000000  1
  Co  Co3  1  0.500000  0.726928  0.000000  1
  Ru  Ru4  1  0.500000  0.295664  0.000000  1
