# generated using pymatgen
data_CoPd2PbO7
_symmetry_space_group_name_H-M   'P 1'
_cell_length_a   7.12588446
_cell_length_b   7.21486727
_cell_length_c   7.12588500
_cell_angle_alpha   59.58605414
_cell_angle_beta   59.29856783
_cell_angle_gamma   59.58605928
_symmetry_Int_Tables_number   1
_chemical_formula_structural   CoPd2PbO7
_chemical_formula_sum   'Co2 Pd4 Pb2 O14'
_cell_volume   256.04646834
_cell_formula_units_Z   2
loop_
 _symmetry_equiv_pos_site_id
 _symmetry_equiv_pos_as_xyz
  1  'x, y, z'
loop_
 _atom_site_type_symbol
 _atom_site_label
 _atom_site_symmetry_multiplicity
 _atom_site_fract_x
 _atom_site_fract_y
 _atom_site_fract_z
 _atom_site_occupancy
  Co  Co0  1  0.125000  0.625000  0.625000  1
  Co  Co1  1  0.625000  0.625000  0.125000  1
  Pd  Pd2  1  0.625000  0.125000  0.125000  1
  Pd  Pd3  1  0.125000  0.625000  0.125000  1
  Pd  Pd4  1  0.125000  0.125000  0.625000  1
  Pd  Pd5  1  0.125000  0.125000  0.125000  1
  Pb  Pb6  1  0.625000  0.125000  0.625000  1
  Pb  Pb7  1  0.625000  0.625000  0.625000  1
  O  O8  1  0.782612  0.784170  0.213299  1
  O  O9  1  0.213299  0.219920  0.782612  1
  O  O10  1  0.785656  0.214344  0.785656  1
  O  O11  1  0.218769  0.781231  0.218769  1
  O  O12  1  0.213299  0.784170  0.782612  1
  O  O13  1  0.782612  0.219920  0.213299  1
  O  O14  1  0.467388  0.465830  0.036701  1
  O  O15  1  0.036701  0.030080  0.467388  1
  O  O16  1  0.464344  0.035656  0.464344  1
  O  O17  1  0.031231  0.468769  0.031231  1
  O  O18  1  0.036701  0.465830  0.467388  1
  O  O19  1  0.467388  0.030080  0.036701  1
  O  O20  1  0.492320  0.507680  0.492320  1
  O  O21  1  0.757680  0.742320  0.757680  1
