# generated using pymatgen
data_Ca4Al5Pd9
_symmetry_space_group_name_H-M   'P 1'
_cell_length_a   5.66102571
_cell_length_b   5.66102604
_cell_length_c   12.40483465
_cell_angle_alpha   76.81015446
_cell_angle_beta   76.81015509
_cell_angle_gamma   60.00000396
_symmetry_Int_Tables_number   1
_chemical_formula_structural   Ca4Al5Pd9
_chemical_formula_sum   'Ca4 Al5 Pd9'
_cell_volume   332.11512824
_cell_formula_units_Z   1
loop_
 _symmetry_equiv_pos_site_id
 _symmetry_equiv_pos_as_xyz
  1  'x, y, z'
loop_
 _atom_site_type_symbol
 _atom_site_label
 _atom_site_symmetry_multiplicity
 _atom_site_fract_x
 _atom_site_fract_y
 _atom_site_fract_z
 _atom_site_occupancy
  Ca  Ca0  1  0.950786  0.950786  0.147641  1
  Ca  Ca1  1  0.049214  0.049214  0.852359  1
  Ca  Ca2  1  0.853439  0.853439  0.439684  1
  Ca  Ca3  1  0.146561  0.146561  0.560316  1
  Al  Al4  1  0.500000  0.500000  0.500000  1
  Al  Al5  1  0.722349  0.722349  0.832952  1
  Al  Al6  1  0.277651  0.277651  0.167048  1
  Al  Al7  1  0.610832  0.610832  0.167504  1
  Al  Al8  1  0.389168  0.389168  0.832496  1
  Pd  Pd9  1  0.000000  0.500000  0.000000  1
  Pd  Pd10  1  0.500000  0.000000  0.000000  1
  Pd  Pd11  1  0.500000  0.500000  0.000000  1
  Pd  Pd12  1  0.389589  0.389589  0.330242  1
  Pd  Pd13  1  0.890581  0.389589  0.330242  1
  Pd  Pd14  1  0.389589  0.890581  0.330242  1
  Pd  Pd15  1  0.610411  0.610411  0.669758  1
  Pd  Pd16  1  0.109419  0.610411  0.669758  1
  Pd  Pd17  1  0.610411  0.109419  0.669758  1
