# generated using pymatgen
data_RbCr2InO8
_symmetry_space_group_name_H-M   'P 1'
_cell_length_a   5.72220806
_cell_length_b   9.67153957
_cell_length_c   9.20067418
_cell_angle_alpha   65.29101969
_cell_angle_beta   89.98978998
_cell_angle_gamma   107.18465787
_symmetry_Int_Tables_number   1
_chemical_formula_structural   RbCr2InO8
_chemical_formula_sum   'Rb2 Cr4 In2 O16'
_cell_volume   437.40836566
_cell_formula_units_Z   2
loop_
 _symmetry_equiv_pos_site_id
 _symmetry_equiv_pos_as_xyz
  1  'x, y, z'
loop_
 _atom_site_type_symbol
 _atom_site_label
 _atom_site_symmetry_multiplicity
 _atom_site_fract_x
 _atom_site_fract_y
 _atom_site_fract_z
 _atom_site_occupancy
  Rb  Rb0  1  0.500009  0.000004  0.500005  1
  Rb  Rb1  1  0.000037  0.000021  0.999931  1
  Cr  Cr2  1  0.646452  0.292838  0.983945  1
  Cr  Cr3  1  0.146387  0.292745  0.483898  1
  Cr  Cr4  1  0.853578  0.707193  0.516049  1
  Cr  Cr5  1  0.353578  0.707211  0.016109  1
  In  In6  1  0.749989  0.500005  0.249999  1
  In  In7  1  0.250004  0.500003  0.749999  1
  O  O8  1  0.556277  0.112377  0.131157  1
  O  O9  1  0.056191  0.112221  0.631008  1
  O  O10  1  0.943730  0.887643  0.368856  1
  O  O11  1  0.443740  0.887707  0.868998  1
  O  O12  1  0.716009  0.432175  0.052007  1
  O  O13  1  0.215904  0.431959  0.552128  1
  O  O14  1  0.784013  0.567860  0.447983  1
  O  O15  1  0.284080  0.567988  0.947923  1
  O  O16  1  0.899596  0.313830  0.871298  1
  O  O17  1  0.399542  0.313827  0.371205  1
  O  O18  1  0.600427  0.686179  0.628718  1
  O  O19  1  0.100432  0.686176  0.128786  1
  O  O20  1  0.414396  0.313827  0.871244  1
  O  O21  1  0.914362  0.313812  0.371190  1
  O  O22  1  0.085638  0.686193  0.628752  1
  O  O23  1  0.585629  0.686207  0.128810  1
