# generated using pymatgen
data_Tm7(RhSe)2
_symmetry_space_group_name_H-M   'P 1'
_cell_length_a   9.02994086
_cell_length_b   9.02994015
_cell_length_c   9.02993960
_cell_angle_alpha   155.61828729
_cell_angle_beta   118.54978296
_cell_angle_gamma   67.12402495
_symmetry_Int_Tables_number   1
_chemical_formula_structural   Tm7(RhSe)2
_chemical_formula_sum   'Tm7 Rh2 Se2'
_cell_volume   264.78423683
_cell_formula_units_Z   1
loop_
 _symmetry_equiv_pos_site_id
 _symmetry_equiv_pos_as_xyz
  1  'x, y, z'
loop_
 _atom_site_type_symbol
 _atom_site_label
 _atom_site_symmetry_multiplicity
 _atom_site_fract_x
 _atom_site_fract_y
 _atom_site_fract_z
 _atom_site_occupancy
  Tm  Tm0  1  0.708380  0.124432  0.583949  1
  Tm  Tm1  1  0.459517  0.875568  0.583949  1
  Tm  Tm2  1  0.693328  0.319098  0.374228  1
  Tm  Tm3  1  0.055130  0.680902  0.374228  1
  Tm  Tm4  1  0.100744  0.359963  0.740781  1
  Tm  Tm5  1  0.380819  0.640037  0.740781  1
  Tm  Tm6  1  0.995156  0.000000  0.995156  1
  Rh  Rh7  1  0.307939  0.238192  0.069747  1
  Rh  Rh8  1  0.831555  0.761808  0.069747  1
  Se  Se9  1  0.737164  0.500000  0.237164  1
  Se  Se10  1  0.339409  0.000000  0.339409  1
