# generated using pymatgen
data_Sc4ZnSi(B2Ir5)2
_symmetry_space_group_name_H-M   'P 1'
_cell_length_a   9.36733700
_cell_length_b   9.36733700
_cell_length_c   3.07022300
_cell_angle_alpha   90.00000000
_cell_angle_beta   90.00000000
_cell_angle_gamma   90.00000000
_symmetry_Int_Tables_number   1
_chemical_formula_structural   Sc4ZnSi(B2Ir5)2
_chemical_formula_sum   'Sc4 Zn1 Si1 B4 Ir10'
_cell_volume   269.40286517
_cell_formula_units_Z   1
loop_
 _symmetry_equiv_pos_site_id
 _symmetry_equiv_pos_as_xyz
  1  'x, y, z'
loop_
 _atom_site_type_symbol
 _atom_site_label
 _atom_site_symmetry_multiplicity
 _atom_site_fract_x
 _atom_site_fract_y
 _atom_site_fract_z
 _atom_site_occupancy
  Sc  Sc0  1  0.322712  0.825939  0.000000  1
  Sc  Sc1  1  0.677288  0.174061  0.000000  1
  Sc  Sc2  1  0.825939  0.677288  0.000000  1
  Sc  Sc3  1  0.174061  0.322712  0.000000  1
  Zn  Zn4  1  0.000000  0.000000  0.000000  1
  Si  Si5  1  0.500000  0.500000  0.000000  1
  B  B6  1  0.122338  0.627075  0.000000  1
  B  B7  1  0.877662  0.372926  0.000000  1
  B  B8  1  0.627075  0.877662  0.000000  1
  B  B9  1  0.372926  0.122338  0.000000  1
  Ir  Ir10  1  0.217431  0.073209  0.499999  1
  Ir  Ir11  1  0.782568  0.926790  0.499999  1
  Ir  Ir12  1  0.711238  0.432890  0.499999  1
  Ir  Ir13  1  0.288763  0.567110  0.499999  1
  Ir  Ir14  1  0.432890  0.288763  0.499999  1
  Ir  Ir15  1  0.567110  0.711238  0.499999  1
  Ir  Ir16  1  0.073209  0.782568  0.499999  1
  Ir  Ir17  1  0.926790  0.217431  0.499999  1
  Ir  Ir18  1  0.000000  0.500000  0.499999  1
  Ir  Ir19  1  0.500000  0.000000  0.499999  1
