# generated using pymatgen
data_Tm5SiSe4
_symmetry_space_group_name_H-M   'P 1'
_cell_length_a   6.99254917
_cell_length_b   6.99254956
_cell_length_c   6.99254898
_cell_angle_alpha   99.52945241
_cell_angle_beta   99.52944998
_cell_angle_gamma   131.98153118
_symmetry_Int_Tables_number   1
_chemical_formula_structural   Tm5SiSe4
_chemical_formula_sum   'Tm5 Si1 Se4'
_cell_volume   232.16942290
_cell_formula_units_Z   1
loop_
 _symmetry_equiv_pos_site_id
 _symmetry_equiv_pos_as_xyz
  1  'x, y, z'
loop_
 _atom_site_type_symbol
 _atom_site_label
 _atom_site_symmetry_multiplicity
 _atom_site_fract_x
 _atom_site_fract_y
 _atom_site_fract_z
 _atom_site_occupancy
  Tm  Tm0  1  0.404166  0.787612  0.191778  1
  Tm  Tm1  1  0.000000  0.000000  0.000000  1
  Tm  Tm2  1  0.595834  0.212388  0.808222  1
  Tm  Tm3  1  0.212388  0.404166  0.616554  1
  Tm  Tm4  1  0.787612  0.595834  0.383446  1
  Si  Si5  1  0.500000  0.500000  0.000000  1
  Se  Se6  1  0.096096  0.697399  0.793494  1
  Se  Se7  1  0.697399  0.903904  0.601303  1
  Se  Se8  1  0.302601  0.096096  0.398697  1
  Se  Se9  1  0.903904  0.302601  0.206506  1
