# generated using pymatgen
data_SmHoSi3(AsRh3)4
_symmetry_space_group_name_H-M   'P 1'
_cell_length_a   9.88500300
_cell_length_b   9.88500350
_cell_length_c   3.89440700
_cell_angle_alpha   90.00000000
_cell_angle_beta   90.00000000
_cell_angle_gamma   120.00000168
_symmetry_Int_Tables_number   1
_chemical_formula_structural   SmHoSi3(AsRh3)4
_chemical_formula_sum   'Sm1 Ho1 Si3 As4 Rh12'
_cell_volume   329.55324645
_cell_formula_units_Z   1
loop_
 _symmetry_equiv_pos_site_id
 _symmetry_equiv_pos_as_xyz
  1  'x, y, z'
loop_
 _atom_site_type_symbol
 _atom_site_label
 _atom_site_symmetry_multiplicity
 _atom_site_fract_x
 _atom_site_fract_y
 _atom_site_fract_z
 _atom_site_occupancy
  Sm  Sm0  1  0.333333  0.666667  0.244688  1
  Ho  Ho1  1  0.666667  0.333333  0.743847  1
  Si  Si2  1  0.403955  0.112889  0.242785  1
  Si  Si3  1  0.708933  0.596045  0.242785  1
  Si  Si4  1  0.887111  0.291067  0.242785  1
  As  As5  1  0.000000  0.000000  0.627270  1
  As  As6  1  0.597154  0.884062  0.745649  1
  As  As7  1  0.286908  0.402846  0.745649  1
  As  As8  1  0.115938  0.713092  0.745649  1
  Rh  Rh9  1  0.450226  0.378786  0.242351  1
  Rh  Rh10  1  0.928560  0.549774  0.242351  1
  Rh  Rh11  1  0.621214  0.071440  0.242351  1
  Rh  Rh12  1  0.559548  0.614737  0.744677  1
  Rh  Rh13  1  0.055189  0.440452  0.744677  1
  Rh  Rh14  1  0.385263  0.944811  0.744677  1
  Rh  Rh15  1  0.146557  0.888208  0.244811  1
  Rh  Rh16  1  0.741652  0.853443  0.244811  1
  Rh  Rh17  1  0.111792  0.258348  0.244811  1
  Rh  Rh18  1  0.848612  0.125167  0.741126  1
  Rh  Rh19  1  0.276555  0.151388  0.741126  1
  Rh  Rh20  1  0.874833  0.723445  0.741126  1
