# generated using pymatgen
data_Ca2Pr8GaSi5
_symmetry_space_group_name_H-M   'P 1'
_cell_length_a   7.81097396
_cell_length_b   7.81093834
_cell_length_c   9.04404574
_cell_angle_alpha   115.50740977
_cell_angle_beta   115.50722691
_cell_angle_gamma   90.07835344
_symmetry_Int_Tables_number   1
_chemical_formula_structural   Ca2Pr8GaSi5
_chemical_formula_sum   'Ca2 Pr8 Ga1 Si5'
_cell_volume   437.48458467
_cell_formula_units_Z   1
loop_
 _symmetry_equiv_pos_site_id
 _symmetry_equiv_pos_as_xyz
  1  'x, y, z'
loop_
 _atom_site_type_symbol
 _atom_site_label
 _atom_site_symmetry_multiplicity
 _atom_site_fract_x
 _atom_site_fract_y
 _atom_site_fract_z
 _atom_site_occupancy
  Ca  Ca0  1  0.500902  0.500879  0.001725  1
  Ca  Ca1  1  0.999118  0.999093  0.998273  1
  Pr  Pr2  1  0.967552  0.824776  0.288506  1
  Pr  Pr3  1  0.321134  0.463829  0.288570  1
  Pr  Pr4  1  0.824476  0.320884  0.288655  1
  Pr  Pr5  1  0.463822  0.967446  0.288605  1
  Pr  Pr6  1  0.036174  0.178867  0.711432  1
  Pr  Pr7  1  0.675223  0.532444  0.711495  1
  Pr  Pr8  1  0.179119  0.675522  0.711344  1
  Pr  Pr9  1  0.532556  0.036179  0.711394  1
  Ga  Ga10  1  0.749991  0.750006  0.499998  1
  Si  Si11  1  0.249998  0.250004  0.500001  1
  Si  Si12  1  0.612926  0.887074  0.000000  1
  Si  Si13  1  0.387070  0.112932  0.000000  1
  Si  Si14  1  0.887160  0.387225  0.000116  1
  Si  Si15  1  0.112778  0.612839  0.999885  1
