# generated using pymatgen
data_Tb4Ho6In8Pt3Au
_symmetry_space_group_name_H-M   'P 1'
_cell_length_a   3.64968000
_cell_length_b   8.16586721
_cell_length_c   18.29264230
_cell_angle_alpha   89.94379494
_cell_angle_beta   90.00000000
_cell_angle_gamma   90.00000000
_symmetry_Int_Tables_number   1
_chemical_formula_structural   Tb4Ho6In8Pt3Au
_chemical_formula_sum   'Tb4 Ho6 In8 Pt3 Au1'
_cell_volume   545.17173865
_cell_formula_units_Z   1
loop_
 _symmetry_equiv_pos_site_id
 _symmetry_equiv_pos_as_xyz
  1  'x, y, z'
loop_
 _atom_site_type_symbol
 _atom_site_label
 _atom_site_symmetry_multiplicity
 _atom_site_fract_x
 _atom_site_fract_y
 _atom_site_fract_z
 _atom_site_occupancy
  Tb  Tb0  1  0.000000  0.256654  0.720239  1
  Tb  Tb1  1  0.000000  0.730696  0.279917  1
  Tb  Tb2  1  0.000000  0.999490  0.999185  1
  Tb  Tb3  1  0.000000  0.499297  0.500504  1
  Ho  Ho4  1  0.000000  0.120207  0.419803  1
  Ho  Ho5  1  0.000000  0.883725  0.586281  1
  Ho  Ho6  1  0.000000  0.384467  0.914229  1
  Ho  Ho7  1  0.000000  0.616178  0.083770  1
  Ho  Ho8  1  0.000000  0.252221  0.216683  1
  Ho  Ho9  1  0.000000  0.755921  0.780117  1
  In  In10  1  0.500000  0.421148  0.352093  1
  In  In11  1  0.500000  0.576598  0.649005  1
  In  In12  1  0.500000  0.076338  0.851143  1
  In  In13  1  0.500000  0.921656  0.147755  1
  In  In14  1  0.500000  0.292190  0.065675  1
  In  In15  1  0.500000  0.707863  0.932670  1
  In  In16  1  0.500000  0.207938  0.567816  1
  In  In17  1  0.500000  0.792060  0.434104  1
  Pt  Pt18  1  0.500000  0.973355  0.696905  1
  Pt  Pt19  1  0.500000  0.475619  0.803713  1
  Pt  Pt20  1  0.500000  0.526708  0.195885  1
  Au  Au21  1  0.500000  0.029669  0.302509  1
