# generated using pymatgen
data_Tb4Hg2Pd3Rh
_symmetry_space_group_name_H-M   'P 1'
_cell_length_a   3.80147700
_cell_length_b   7.65769723
_cell_length_c   7.65769791
_cell_angle_alpha   90.16288609
_cell_angle_beta   90.00000000
_cell_angle_gamma   90.00000000
_symmetry_Int_Tables_number   1
_chemical_formula_structural   Tb4Hg2Pd3Rh
_chemical_formula_sum   'Tb4 Hg2 Pd3 Rh1'
_cell_volume   222.91897278
_cell_formula_units_Z   1
loop_
 _symmetry_equiv_pos_site_id
 _symmetry_equiv_pos_as_xyz
  1  'x, y, z'
loop_
 _atom_site_type_symbol
 _atom_site_label
 _atom_site_symmetry_multiplicity
 _atom_site_fract_x
 _atom_site_fract_y
 _atom_site_fract_z
 _atom_site_occupancy
  Tb  Tb0  1  0.500000  0.171129  0.671129  1
  Tb  Tb1  1  0.500000  0.818891  0.318891  1
  Tb  Tb2  1  0.500000  0.336470  0.174600  1
  Tb  Tb3  1  0.500000  0.674600  0.836470  1
  Hg  Hg4  1  0.000000  0.000449  0.000512  1
  Hg  Hg5  1  0.000000  0.500512  0.500449  1
  Pd  Pd6  1  0.000000  0.369774  0.869774  1
  Pd  Pd7  1  0.000000  0.871092  0.627831  1
  Pd  Pd8  1  0.000000  0.127831  0.371092  1
  Rh  Rh9  1  0.000000  0.629253  0.129253  1
