# generated using pymatgen
data_Ce9Th(Sn3Sb)2
_symmetry_space_group_name_H-M   'P 1'
_cell_length_a   9.62043000
_cell_length_b   9.62254028
_cell_length_c   6.47190300
_cell_angle_alpha   90.00000000
_cell_angle_beta   90.00000000
_cell_angle_gamma   119.99273882
_symmetry_Int_Tables_number   1
_chemical_formula_structural   Ce9Th(Sn3Sb)2
_chemical_formula_sum   'Ce9 Th1 Sn6 Sb2'
_cell_volume   518.89397099
_cell_formula_units_Z   1
loop_
 _symmetry_equiv_pos_site_id
 _symmetry_equiv_pos_as_xyz
  1  'x, y, z'
loop_
 _atom_site_type_symbol
 _atom_site_label
 _atom_site_symmetry_multiplicity
 _atom_site_fract_x
 _atom_site_fract_y
 _atom_site_fract_z
 _atom_site_occupancy
  Ce  Ce0  1  0.998918  0.720357  0.750000  1
  Ce  Ce1  1  0.278561  0.279643  0.750000  1
  Ce  Ce2  1  0.332897  0.665801  0.500540  1
  Ce  Ce3  1  0.667098  0.334199  0.500540  1
  Ce  Ce4  1  0.720493  0.719832  0.250000  1
  Ce  Ce5  1  0.722403  0.000000  0.750000  1
  Ce  Ce6  1  0.000660  0.280168  0.250000  1
  Ce  Ce7  1  0.332897  0.665801  0.999460  1
  Ce  Ce8  1  0.667098  0.334199  0.999460  1
  Th  Th9  1  0.280287  0.000000  0.250000  1
  Sn  Sn10  1  0.378741  0.000000  0.750000  1
  Sn  Sn11  1  0.623176  0.000000  0.250000  1
  Sn  Sn12  1  0.378264  0.378209  0.250000  1
  Sn  Sn13  1  0.998969  0.000000  0.999801  1
  Sn  Sn14  1  0.000055  0.621791  0.250000  1
  Sn  Sn15  1  0.998969  0.000000  0.500199  1
  Sb  Sb16  1  0.621090  0.621668  0.750000  1
  Sb  Sb17  1  0.999422  0.378332  0.750000  1
