# generated using pymatgen
data_Tb3Ho2In4CoPt
_symmetry_space_group_name_H-M   'P 1'
_cell_length_a   3.60879400
_cell_length_b   8.11897487
_cell_length_c   18.18943024
_cell_angle_alpha   89.96420651
_cell_angle_beta   90.00000000
_cell_angle_gamma   90.00000000
_symmetry_Int_Tables_number   1
_chemical_formula_structural   Tb3Ho2In4CoPt
_chemical_formula_sum   'Tb6 Ho4 In8 Co2 Pt2'
_cell_volume   532.94488712
_cell_formula_units_Z   2
loop_
 _symmetry_equiv_pos_site_id
 _symmetry_equiv_pos_as_xyz
  1  'x, y, z'
loop_
 _atom_site_type_symbol
 _atom_site_label
 _atom_site_symmetry_multiplicity
 _atom_site_fract_x
 _atom_site_fract_y
 _atom_site_fract_z
 _atom_site_occupancy
  Tb  Tb0  1  0.000000  0.233340  0.223754  1
  Tb  Tb1  1  0.000000  0.766660  0.776246  1
  Tb  Tb2  1  0.000000  0.243926  0.719623  1
  Tb  Tb3  1  0.000000  0.756074  0.280377  1
  Tb  Tb4  1  0.000000  0.000000  0.000000  1
  Tb  Tb5  1  0.000000  0.500000  0.500000  1
  Ho  Ho6  1  0.000000  0.112904  0.409748  1
  Ho  Ho7  1  0.000000  0.887096  0.590252  1
  Ho  Ho8  1  0.000000  0.382040  0.913294  1
  Ho  Ho9  1  0.000000  0.617960  0.086706  1
  In  In10  1  0.500000  0.422883  0.351290  1
  In  In11  1  0.500000  0.577117  0.648710  1
  In  In12  1  0.500000  0.070991  0.847996  1
  In  In13  1  0.500000  0.929009  0.152004  1
  In  In14  1  0.500000  0.293164  0.067379  1
  In  In15  1  0.500000  0.706836  0.932621  1
  In  In16  1  0.500000  0.203230  0.568538  1
  In  In17  1  0.500000  0.796770  0.431462  1
  Co  Co18  1  0.500000  0.018225  0.305785  1
  Co  Co19  1  0.500000  0.981775  0.694215  1
  Pt  Pt20  1  0.500000  0.478412  0.803108  1
  Pt  Pt21  1  0.500000  0.521588  0.196892  1
