# generated using pymatgen
data_CoNi7(Mo4C)4
_symmetry_space_group_name_H-M   'P 1'
_cell_length_a   7.99347709
_cell_length_b   7.99519166
_cell_length_c   7.99519100
_cell_angle_alpha   120.00000140
_cell_angle_beta   90.00000000
_cell_angle_gamma   120.00709451
_symmetry_Int_Tables_number   1
_chemical_formula_structural   CoNi7(Mo4C)4
_chemical_formula_sum   'Co1 Ni7 Mo16 C4'
_cell_volume   361.26997643
_cell_formula_units_Z   1
loop_
 _symmetry_equiv_pos_site_id
 _symmetry_equiv_pos_as_xyz
  1  'x, y, z'
loop_
 _atom_site_type_symbol
 _atom_site_label
 _atom_site_symmetry_multiplicity
 _atom_site_fract_x
 _atom_site_fract_y
 _atom_site_fract_z
 _atom_site_occupancy
  Co  Co0  1  0.491240  0.660826  0.830413  1
  Ni  Ni1  1  0.583210  0.165942  0.417267  1
  Ni  Ni2  1  0.583210  0.834535  0.417267  1
  Ni  Ni3  1  0.249325  0.832885  0.416442  1
  Ni  Ni4  1  0.166537  0.333498  0.500458  1
  Ni  Ni5  1  0.583208  0.165942  0.748675  1
  Ni  Ni6  1  0.166537  0.333498  0.833038  1
  Ni  Ni7  1  0.166537  0.666077  0.833038  1
  Mo  Mo8  1  0.561622  0.499885  0.061737  1
  Mo  Mo9  1  0.561622  0.123475  0.061737  1
  Mo  Mo10  1  0.940076  0.499570  0.059065  1
  Mo  Mo11  1  0.377650  0.750675  0.123701  1
  Mo  Mo12  1  0.190208  0.999757  0.190451  1
  Mo  Mo13  1  0.190208  0.380902  0.190451  1
  Mo  Mo14  1  0.808597  0.997638  0.186677  1
  Mo  Mo15  1  0.940076  0.499570  0.440505  1
  Mo  Mo16  1  0.940076  0.881011  0.440505  1
  Mo  Mo17  1  0.561622  0.499885  0.438149  1
  Mo  Mo18  1  0.377650  0.253950  0.626974  1
  Mo  Mo19  1  0.377650  0.750675  0.626974  1
  Mo  Mo20  1  0.875336  0.250224  0.625112  1
  Mo  Mo21  1  0.190208  0.999757  0.809305  1
  Mo  Mo22  1  0.808597  0.621920  0.810959  1
  Mo  Mo23  1  0.808598  0.997638  0.810960  1
  C  C24  1  0.373884  0.249256  0.124628  1
  C  C25  1  0.875506  0.750005  0.125501  1
  C  C26  1  0.875506  0.251001  0.125501  1
  C  C27  1  0.875506  0.750005  0.624504  1
