# generated using pymatgen
data_Cu3Mo6IrN2
_symmetry_space_group_name_H-M   'P 1'
_cell_length_a   6.77307800
_cell_length_b   6.75102759
_cell_length_c   6.76414711
_cell_angle_alpha   90.17052429
_cell_angle_beta   90.00000000
_cell_angle_gamma   90.00000000
_symmetry_Int_Tables_number   1
_chemical_formula_structural   Cu3Mo6IrN2
_chemical_formula_sum   'Cu6 Mo12 Ir2 N4'
_cell_volume   309.29085613
_cell_formula_units_Z   2
loop_
 _symmetry_equiv_pos_site_id
 _symmetry_equiv_pos_as_xyz
  1  'x, y, z'
loop_
 _atom_site_type_symbol
 _atom_site_label
 _atom_site_symmetry_multiplicity
 _atom_site_fract_x
 _atom_site_fract_y
 _atom_site_fract_z
 _atom_site_occupancy
  Cu  Cu0  1  0.181378  0.319845  0.567266  1
  Cu  Cu1  1  0.681378  0.680155  0.432734  1
  Cu  Cu2  1  0.933838  0.438467  0.325689  1
  Cu  Cu3  1  0.565501  0.926959  0.194045  1
  Cu  Cu4  1  0.433838  0.561533  0.674311  1
  Cu  Cu5  1  0.065501  0.073041  0.805955  1
  Mo  Mo6  1  0.370932  0.953514  0.546464  1
  Mo  Mo7  1  0.870932  0.046486  0.453536  1
  Mo  Mo8  1  0.121802  0.444686  0.963256  1
  Mo  Mo9  1  0.621802  0.555314  0.036744  1
  Mo  Mo10  1  0.793442  0.377932  0.704576  1
  Mo  Mo11  1  0.707426  0.874892  0.805318  1
  Mo  Mo12  1  0.207426  0.125108  0.194682  1
  Mo  Mo13  1  0.293442  0.622068  0.295424  1
  Mo  Mo14  1  0.953694  0.795970  0.125405  1
  Mo  Mo15  1  0.052011  0.708806  0.626354  1
  Mo  Mo16  1  0.453694  0.204030  0.874595  1
  Mo  Mo17  1  0.552011  0.291194  0.373646  1
  Ir  Ir18  1  0.315287  0.817789  0.930523  1
  Ir  Ir19  1  0.815287  0.182211  0.069477  1
  N  N20  1  0.625616  0.123092  0.625948  1
  N  N21  1  0.125616  0.876908  0.374052  1
  N  N22  1  0.879074  0.624921  0.876637  1
  N  N23  1  0.379074  0.375079  0.123363  1
