# generated using pymatgen
data_YU(NiP)4
_symmetry_space_group_name_H-M   'P 1'
_cell_length_a   3.72064100
_cell_length_b   8.62661236
_cell_length_c   9.41438037
_cell_angle_alpha   91.15797606
_cell_angle_beta   90.00000000
_cell_angle_gamma   90.00000000
_symmetry_Int_Tables_number   1
_chemical_formula_structural   YU(NiP)4
_chemical_formula_sum   'Y2 U2 Ni8 P8'
_cell_volume   302.10720897
_cell_formula_units_Z   2
loop_
 _symmetry_equiv_pos_site_id
 _symmetry_equiv_pos_as_xyz
  1  'x, y, z'
loop_
 _atom_site_type_symbol
 _atom_site_label
 _atom_site_symmetry_multiplicity
 _atom_site_fract_x
 _atom_site_fract_y
 _atom_site_fract_z
 _atom_site_occupancy
  Y  Y0  1  0.250000  0.739833  0.824817  1
  Y  Y1  1  0.750000  0.260167  0.175183  1
  U  U2  1  0.250000  0.249607  0.674994  1
  U  U3  1  0.750000  0.750393  0.325006  1
  Ni  Ni4  1  0.750000  0.076136  0.447044  1
  Ni  Ni5  1  0.250000  0.923864  0.552956  1
  Ni  Ni6  1  0.750000  0.583853  0.042637  1
  Ni  Ni7  1  0.250000  0.416147  0.957363  1
  Ni  Ni8  1  0.250000  0.968063  0.098534  1
  Ni  Ni9  1  0.750000  0.031937  0.901466  1
  Ni  Ni10  1  0.250000  0.450898  0.396189  1
  Ni  Ni11  1  0.750000  0.549102  0.603811  1
  P  P12  1  0.250000  0.164593  0.952097  1
  P  P13  1  0.750000  0.835407  0.047903  1
  P  P14  1  0.250000  0.667890  0.535162  1
  P  P15  1  0.750000  0.332110  0.464838  1
  P  P16  1  0.250000  0.538891  0.175258  1
  P  P17  1  0.750000  0.461109  0.824742  1
  P  P18  1  0.250000  0.016202  0.327014  1
  P  P19  1  0.750000  0.983798  0.672986  1
