# generated using pymatgen
data_Lu10Sc9Si16W
_symmetry_space_group_name_H-M   'P 1'
_cell_length_a   6.99452697
_cell_length_b   7.32965591
_cell_length_c   13.84544386
_cell_angle_alpha   90.19973253
_cell_angle_beta   90.05980591
_cell_angle_gamma   89.58157547
_symmetry_Int_Tables_number   1
_chemical_formula_structural   Lu10Sc9Si16W
_chemical_formula_sum   'Lu10 Sc9 Si16 W1'
_cell_volume   709.79735102
_cell_formula_units_Z   1
loop_
 _symmetry_equiv_pos_site_id
 _symmetry_equiv_pos_as_xyz
  1  'x, y, z'
loop_
 _atom_site_type_symbol
 _atom_site_label
 _atom_site_symmetry_multiplicity
 _atom_site_fract_x
 _atom_site_fract_y
 _atom_site_fract_z
 _atom_site_occupancy
  Lu  Lu0  1  0.990871  0.681914  0.600049  1
  Lu  Lu1  1  0.014313  0.320542  0.405927  1
  Lu  Lu2  1  0.514026  0.180012  0.403209  1
  Lu  Lu3  1  0.013018  0.320951  0.092027  1
  Lu  Lu4  1  0.484054  0.822867  0.599282  1
  Lu  Lu5  1  0.991406  0.682156  0.901930  1
  Lu  Lu6  1  0.485517  0.823923  0.903849  1
  Lu  Lu7  1  0.512717  0.178905  0.093489  1
  Lu  Lu8  1  0.326808  0.321249  0.627548  1
  Lu  Lu9  1  0.673060  0.677974  0.374759  1
  Sc  Sc10  1  0.844387  0.006303  0.248256  1
  Sc  Sc11  1  0.342380  0.494936  0.248349  1
  Sc  Sc12  1  0.657214  0.508887  0.751514  1
  Sc  Sc13  1  0.174975  0.828400  0.374893  1
  Sc  Sc14  1  0.672440  0.677310  0.124621  1
  Sc  Sc15  1  0.825345  0.168246  0.630879  1
  Sc  Sc16  1  0.326127  0.319816  0.873496  1
  Sc  Sc17  1  0.823753  0.168778  0.872988  1
  Sc  Sc18  1  0.174949  0.827319  0.121760  1
  Si  Si19  1  0.024965  0.381643  0.754094  1
  Si  Si20  1  0.976718  0.611299  0.246199  1
  Si  Si21  1  0.470464  0.894523  0.247278  1
  Si  Si22  1  0.518159  0.095043  0.752835  1
  Si  Si23  1  0.281081  0.645769  0.751500  1
  Si  Si24  1  0.720090  0.366149  0.247743  1
  Si  Si25  1  0.215864  0.134450  0.248336  1
  Si  Si26  1  0.792160  0.866548  0.751465  1
  Si  Si27  1  0.151827  0.026958  0.548027  1
  Si  Si28  1  0.846012  0.970739  0.463387  1
  Si  Si29  1  0.339198  0.536441  0.461046  1
  Si  Si30  1  0.841977  0.965589  0.037208  1
  Si  Si31  1  0.665669  0.463111  0.540843  1
  Si  Si32  1  0.155159  0.031518  0.951337  1
  Si  Si33  1  0.659135  0.466347  0.960607  1
  Si  Si34  1  0.344625  0.533810  0.037269  1
  W  W35  1  0.149536  0.999573  0.752002  1
