# generated using pymatgen
data_Tb2DyIn3NiHg2
_symmetry_space_group_name_H-M   'P 1'
_cell_length_a   7.79901542
_cell_length_b   7.80346431
_cell_length_c   4.02072100
_cell_angle_alpha   90.00000000
_cell_angle_beta   90.00000000
_cell_angle_gamma   120.01886346
_symmetry_Int_Tables_number   1
_chemical_formula_structural   Tb2DyIn3NiHg2
_chemical_formula_sum   'Tb2 Dy1 In3 Ni1 Hg2'
_cell_volume   211.87475595
_cell_formula_units_Z   1
loop_
 _symmetry_equiv_pos_site_id
 _symmetry_equiv_pos_as_xyz
  1  'x, y, z'
loop_
 _atom_site_type_symbol
 _atom_site_label
 _atom_site_symmetry_multiplicity
 _atom_site_fract_x
 _atom_site_fract_y
 _atom_site_fract_z
 _atom_site_occupancy
  Tb  Tb0  1  0.609260  0.000071  0.500000  1
  Tb  Tb1  1  0.390740  0.390810  0.500000  1
  Dy  Dy2  1  0.000000  0.609636  0.500000  1
  In  In3  1  0.760497  0.760278  0.000000  1
  In  In4  1  0.000000  0.239567  0.000000  1
  In  In5  1  0.239503  0.999780  0.000000  1
  Ni  Ni6  1  0.000000  0.999585  0.500000  1
  Hg  Hg7  1  0.667394  0.333833  0.000000  1
  Hg  Hg8  1  0.332606  0.666440  0.000000  1
