# generated using pymatgen
data_Ti5(CoPd2)2
_symmetry_space_group_name_H-M   'P 1'
_cell_length_a   2.91209200
_cell_length_b   6.88642300
_cell_length_c   16.18825000
_cell_angle_alpha   90.00000000
_cell_angle_beta   90.00000000
_cell_angle_gamma   90.00000000
_symmetry_Int_Tables_number   1
_chemical_formula_structural   Ti5(CoPd2)2
_chemical_formula_sum   'Ti10 Co4 Pd8'
_cell_volume   324.63750340
_cell_formula_units_Z   2
loop_
 _symmetry_equiv_pos_site_id
 _symmetry_equiv_pos_as_xyz
  1  'x, y, z'
loop_
 _atom_site_type_symbol
 _atom_site_label
 _atom_site_symmetry_multiplicity
 _atom_site_fract_x
 _atom_site_fract_y
 _atom_site_fract_z
 _atom_site_occupancy
  Ti  Ti0  1  0.500000  0.500000  0.500000  1
  Ti  Ti1  1  0.500000  0.000000  0.000000  1
  Ti  Ti2  1  0.500000  0.850568  0.418073  1
  Ti  Ti3  1  0.500000  0.149432  0.581927  1
  Ti  Ti4  1  0.500000  0.649432  0.918073  1
  Ti  Ti5  1  0.500000  0.350568  0.081927  1
  Ti  Ti6  1  0.500000  0.222661  0.282740  1
  Ti  Ti7  1  0.500000  0.777339  0.717260  1
  Ti  Ti8  1  0.500000  0.277339  0.782740  1
  Ti  Ti9  1  0.500000  0.722661  0.217260  1
  Co  Co10  1  0.000000  0.929179  0.305628  1
  Co  Co11  1  0.000000  0.070821  0.694372  1
  Co  Co12  1  0.000000  0.570821  0.805628  1
  Co  Co13  1  0.000000  0.429179  0.194372  1
  Pd  Pd14  1  0.000000  0.184236  0.434950  1
  Pd  Pd15  1  0.000000  0.815764  0.565050  1
  Pd  Pd16  1  0.000000  0.315764  0.934950  1
  Pd  Pd17  1  0.000000  0.684236  0.065050  1
  Pd  Pd18  1  0.000000  0.544313  0.352080  1
  Pd  Pd19  1  0.000000  0.455687  0.647920  1
  Pd  Pd20  1  0.000000  0.955687  0.852080  1
  Pd  Pd21  1  0.000000  0.044313  0.147920  1
