# generated using pymatgen
data_NbV4Si6BW5
_symmetry_space_group_name_H-M   'P 1'
_cell_length_a   7.32939823
_cell_length_b   7.33103119
_cell_length_c   4.92033430
_cell_angle_alpha   90.10492177
_cell_angle_beta   89.79010938
_cell_angle_gamma   119.99264088
_symmetry_Int_Tables_number   1
_chemical_formula_structural   NbV4Si6BW5
_chemical_formula_sum   'Nb1 V4 Si6 B1 W5'
_cell_volume   228.97491960
_cell_formula_units_Z   1
loop_
 _symmetry_equiv_pos_site_id
 _symmetry_equiv_pos_as_xyz
  1  'x, y, z'
loop_
 _atom_site_type_symbol
 _atom_site_label
 _atom_site_symmetry_multiplicity
 _atom_site_fract_x
 _atom_site_fract_y
 _atom_site_fract_z
 _atom_site_occupancy
  Nb  Nb0  1  0.247040  0.000000  0.758133  1
  V  V1  1  0.332502  0.667236  0.501196  1
  V  V2  1  0.665267  0.332764  0.501196  1
  V  V3  1  0.665960  0.332408  0.999631  1
  V  V4  1  0.333551  0.667592  0.999631  1
  Si  Si5  1  0.999822  0.403251  0.249864  1
  Si  Si6  1  0.596571  0.596749  0.249864  1
  Si  Si7  1  0.403703  0.000000  0.252066  1
  Si  Si8  1  0.997954  0.593129  0.750331  1
  Si  Si9  1  0.404825  0.406871  0.750331  1
  Si  Si10  1  0.599897  0.000000  0.748870  1
  B  B11  1  0.997559  0.000000  0.495646  1
  W  W12  1  0.998579  0.750705  0.245914  1
  W  W13  1  0.247874  0.249295  0.245914  1
  W  W14  1  0.753692  0.000000  0.242248  1
  W  W15  1  0.001361  0.247519  0.754583  1
  W  W16  1  0.753842  0.752481  0.754583  1
