# generated using pymatgen
data_Tb7Dy9Mg3CdPt4
_symmetry_space_group_name_H-M   'P 1'
_cell_length_a   9.75746622
_cell_length_b   9.77010931
_cell_length_c   9.77543000
_cell_angle_alpha   59.98197676
_cell_angle_beta   59.93907374
_cell_angle_gamma   59.90750750
_symmetry_Int_Tables_number   1
_chemical_formula_structural   Tb7Dy9Mg3CdPt4
_chemical_formula_sum   'Tb7 Dy9 Mg3 Cd1 Pt4'
_cell_volume   658.10275754
_cell_formula_units_Z   1
loop_
 _symmetry_equiv_pos_site_id
 _symmetry_equiv_pos_as_xyz
  1  'x, y, z'
loop_
 _atom_site_type_symbol
 _atom_site_label
 _atom_site_symmetry_multiplicity
 _atom_site_fract_x
 _atom_site_fract_y
 _atom_site_fract_z
 _atom_site_occupancy
  Tb  Tb0  1  0.811589  0.812281  0.188065  1
  Tb  Tb1  1  0.937683  0.564356  0.565230  1
  Tb  Tb2  1  0.565597  0.934636  0.934029  1
  Tb  Tb3  1  0.565597  0.934636  0.565738  1
  Tb  Tb4  1  0.937683  0.564356  0.932731  1
  Tb  Tb5  1  0.566591  0.566156  0.933627  1
  Tb  Tb6  1  0.937850  0.933568  0.564291  1
  Dy  Dy7  1  0.349632  0.350245  0.348718  1
  Dy  Dy8  1  0.349632  0.350245  0.951407  1
  Dy  Dy9  1  0.350505  0.948790  0.350353  1
  Dy  Dy10  1  0.950939  0.350220  0.349421  1
  Dy  Dy11  1  0.811451  0.188464  0.188835  1
  Dy  Dy12  1  0.189490  0.810603  0.810123  1
  Dy  Dy13  1  0.189490  0.810603  0.189785  1
  Dy  Dy14  1  0.811451  0.188464  0.811251  1
  Dy  Dy15  1  0.190135  0.189897  0.809985  1
  Mg  Mg16  1  0.576725  0.579709  0.580489  1
  Mg  Mg17  1  0.576725  0.579709  0.263076  1
  Mg  Mg18  1  0.576862  0.262719  0.580209  1
  Cd  Cd19  1  0.254423  0.581650  0.581963  1
  Pt  Pt20  1  0.142978  0.142167  0.143282  1
  Pt  Pt21  1  0.142978  0.142167  0.571576  1
  Pt  Pt22  1  0.143097  0.571734  0.142585  1
  Pt  Pt23  1  0.570900  0.142630  0.143235  1
