# generated using pymatgen
data_Eu2As2IrRuO2
_symmetry_space_group_name_H-M   'P 1'
_cell_length_a   4.11159200
_cell_length_b   4.11159200
_cell_length_c   8.57476000
_cell_angle_alpha   90.00000000
_cell_angle_beta   90.00000000
_cell_angle_gamma   90.00000000
_symmetry_Int_Tables_number   1
_chemical_formula_structural   Eu2As2IrRuO2
_chemical_formula_sum   'Eu2 As2 Ir1 Ru1 O2'
_cell_volume   144.95793650
_cell_formula_units_Z   1
loop_
 _symmetry_equiv_pos_site_id
 _symmetry_equiv_pos_as_xyz
  1  'x, y, z'
loop_
 _atom_site_type_symbol
 _atom_site_label
 _atom_site_symmetry_multiplicity
 _atom_site_fract_x
 _atom_site_fract_y
 _atom_site_fract_z
 _atom_site_occupancy
  Eu  Eu0  1  0.250003  0.250003  0.125252  1
  Eu  Eu1  1  0.750002  0.750002  0.874750  1
  As  As2  1  0.750002  0.750002  0.343603  1
  As  As3  1  0.250003  0.250003  0.656396  1
  Ir  Ir4  1  0.750002  0.250003  0.499999  1
  Ru  Ru5  1  0.250003  0.750002  0.499999  1
  O  O6  1  0.750002  0.250003  0.000000  1
  O  O7  1  0.250003  0.750002  0.000000  1
