# generated using pymatgen
data_Ca3Er3Al12(Si3Os2)4
_symmetry_space_group_name_H-M   'P 1'
_cell_length_a   8.71626382
_cell_length_b   8.70480962
_cell_length_c   9.26629700
_cell_angle_alpha   90.00000000
_cell_angle_beta   90.00000000
_cell_angle_gamma   120.16715933
_symmetry_Int_Tables_number   1
_chemical_formula_structural   Ca3Er3Al12(Si3Os2)4
_chemical_formula_sum   'Ca3 Er3 Al12 Si12 Os8'
_cell_volume   607.84450605
_cell_formula_units_Z   1
loop_
 _symmetry_equiv_pos_site_id
 _symmetry_equiv_pos_as_xyz
  1  'x, y, z'
loop_
 _atom_site_type_symbol
 _atom_site_label
 _atom_site_symmetry_multiplicity
 _atom_site_fract_x
 _atom_site_fract_y
 _atom_site_fract_z
 _atom_site_occupancy
  Ca  Ca0  1  0.191673  0.383462  0.250000  1
  Ca  Ca1  1  0.808418  0.617514  0.750000  1
  Ca  Ca2  1  0.616834  0.808236  0.250000  1
  Er  Er3  1  0.385792  0.192872  0.750000  1
  Er  Er4  1  0.193039  0.806519  0.250000  1
  Er  Er5  1  0.806897  0.192434  0.750000  1
  Al  Al6  1  0.166077  0.333153  0.578702  1
  Al  Al7  1  0.833262  0.666765  0.421567  1
  Al  Al8  1  0.666308  0.833478  0.578282  1
  Al  Al9  1  0.833262  0.666765  0.078433  1
  Al  Al10  1  0.332311  0.165818  0.419534  1
  Al  Al11  1  0.166077  0.333153  0.921298  1
  Al  Al12  1  0.166128  0.833595  0.580394  1
  Al  Al13  1  0.332311  0.165818  0.080466  1
  Al  Al14  1  0.833056  0.165991  0.420286  1
  Al  Al15  1  0.666308  0.833478  0.921718  1
  Al  Al16  1  0.833056  0.165991  0.079714  1
  Al  Al17  1  0.166128  0.833595  0.919606  1
  Si  Si18  1  0.333793  0.666404  0.046227  1
  Si  Si19  1  0.667215  0.334316  0.953676  1
  Si  Si20  1  0.667215  0.334316  0.546324  1
  Si  Si21  1  0.333793  0.666404  0.453773  1
  Si  Si22  1  0.562543  0.123649  0.250000  1
  Si  Si23  1  0.438238  0.875787  0.750000  1
  Si  Si24  1  0.876376  0.437800  0.250000  1
  Si  Si25  1  0.123529  0.561888  0.750000  1
  Si  Si26  1  0.561718  0.438724  0.250000  1
  Si  Si27  1  0.438713  0.562041  0.750000  1
  Si  Si28  1  0.003044  0.996952  0.250000  1
  Si  Si29  1  0.002694  0.005612  0.750000  1
  Os  Os30  1  0.499069  0.001207  0.998564  1
  Os  Os31  1  0.999445  0.499774  0.999611  1
  Os  Os32  1  0.499069  0.001207  0.501436  1
  Os  Os33  1  0.499058  0.497687  0.998346  1
  Os  Os34  1  0.999445  0.499774  0.500389  1
  Os  Os35  1  0.499058  0.497687  0.501654  1
  Os  Os36  1  0.999527  0.000070  0.999938  1
  Os  Os37  1  0.999527  0.000070  0.500062  1
