# generated using pymatgen
data_Y4HfSc2AlPt4
_symmetry_space_group_name_H-M   'P 1'
_cell_length_a   4.57289200
_cell_length_b   7.07520015
_cell_length_c   8.23905310
_cell_angle_alpha   93.68912760
_cell_angle_beta   90.00000000
_cell_angle_gamma   90.00000000
_symmetry_Int_Tables_number   1
_chemical_formula_structural   Y4HfSc2AlPt4
_chemical_formula_sum   'Y4 Hf1 Sc2 Al1 Pt4'
_cell_volume   266.01499462
_cell_formula_units_Z   1
loop_
 _symmetry_equiv_pos_site_id
 _symmetry_equiv_pos_as_xyz
  1  'x, y, z'
loop_
 _atom_site_type_symbol
 _atom_site_label
 _atom_site_symmetry_multiplicity
 _atom_site_fract_x
 _atom_site_fract_y
 _atom_site_fract_z
 _atom_site_occupancy
  Y  Y0  1  0.250000  0.981680  0.314123  1
  Y  Y1  1  0.250000  0.458869  0.172174  1
  Y  Y2  1  0.750000  0.033156  0.686464  1
  Y  Y3  1  0.750000  0.511528  0.837103  1
  Hf  Hf4  1  0.750000  0.641170  0.428089  1
  Sc  Sc5  1  0.250000  0.366522  0.571273  1
  Sc  Sc6  1  0.250000  0.855789  0.934166  1
  Al  Al7  1  0.750000  0.138981  0.070509  1
  Pt  Pt8  1  0.250000  0.229541  0.881994  1
  Pt  Pt9  1  0.250000  0.745014  0.595509  1
  Pt  Pt10  1  0.750000  0.771036  0.119277  1
  Pt  Pt11  1  0.750000  0.266717  0.389318  1
