# generated using pymatgen
data_Ti3Nb5Co8Si13Ge
_symmetry_space_group_name_H-M   'P 1'
_cell_length_a   9.21571960
_cell_length_b   9.21542042
_cell_length_c   9.22095128
_cell_angle_alpha   94.21758398
_cell_angle_beta   94.19264417
_cell_angle_gamma   148.56797275
_symmetry_Int_Tables_number   1
_chemical_formula_structural   Ti3Nb5Co8Si13Ge
_chemical_formula_sum   'Ti3 Nb5 Co8 Si13 Ge1'
_cell_volume   393.13039544
_cell_formula_units_Z   1
loop_
 _symmetry_equiv_pos_site_id
 _symmetry_equiv_pos_as_xyz
  1  'x, y, z'
loop_
 _atom_site_type_symbol
 _atom_site_label
 _atom_site_symmetry_multiplicity
 _atom_site_fract_x
 _atom_site_fract_y
 _atom_site_fract_z
 _atom_site_occupancy
  Ti  Ti0  1  0.503431  0.308564  0.811981  1
  Ti  Ti1  1  0.307933  0.502942  0.810894  1
  Ti  Ti2  1  0.691603  0.498571  0.190175  1
  Nb  Nb3  1  0.133238  0.132885  0.266134  1
  Nb  Nb4  1  0.867657  0.867618  0.735269  1
  Nb  Nb5  1  0.865938  0.133715  0.999635  1
  Nb  Nb6  1  0.133432  0.866429  0.999877  1
  Nb  Nb7  1  0.499141  0.690548  0.189681  1
  Co  Co8  1  0.398935  0.898721  0.797786  1
  Co  Co9  1  0.100853  0.601264  0.202132  1
  Co  Co10  1  0.098889  0.894763  0.497677  1
  Co  Co11  1  0.399234  0.603046  0.498325  1
  Co  Co12  1  0.602921  0.398781  0.497679  1
  Co  Co13  1  0.895278  0.099097  0.498327  1
  Co  Co14  1  0.899061  0.398844  0.797776  1
  Co  Co15  1  0.600878  0.101285  0.202141  1
  Si  Si16  1  0.706907  0.705766  0.412659  1
  Si  Si17  1  0.707536  0.292789  0.000251  1
  Si  Si18  1  0.291409  0.708172  0.999656  1
  Si  Si19  1  0.999780  0.297286  0.297036  1
  Si  Si20  1  0.999752  0.703272  0.703048  1
  Si  Si21  1  0.703499  0.999759  0.703228  1
  Si  Si22  1  0.295921  0.999701  0.295649  1
  Si  Si23  1  0.499718  0.906763  0.406499  1
  Si  Si24  1  0.499922  0.094825  0.594749  1
  Si  Si25  1  0.094196  0.499782  0.593983  1
  Si  Si26  1  0.905819  0.499571  0.405372  1
  Si  Si27  1  0.748667  0.747943  0.999377  1
  Si  Si28  1  0.251435  0.250709  0.999378  1
  Ge  Ge29  1  0.297020  0.296587  0.593624  1
