# generated using pymatgen
data_Sr5La3(Si3Au)4
_symmetry_space_group_name_H-M   'P 1'
_cell_length_a   8.36035000
_cell_length_b   8.39512183
_cell_length_c   9.01955900
_cell_angle_alpha   90.00000000
_cell_angle_beta   90.00000000
_cell_angle_gamma   119.86306535
_symmetry_Int_Tables_number   1
_chemical_formula_structural   Sr5La3(Si3Au)4
_chemical_formula_sum   'Sr5 La3 Si12 Au4'
_cell_volume   548.99072089
_cell_formula_units_Z   1
loop_
 _symmetry_equiv_pos_site_id
 _symmetry_equiv_pos_as_xyz
  1  'x, y, z'
loop_
 _atom_site_type_symbol
 _atom_site_label
 _atom_site_symmetry_multiplicity
 _atom_site_fract_x
 _atom_site_fract_y
 _atom_site_fract_z
 _atom_site_occupancy
  Sr  Sr0  1  0.499486  0.500372  0.750000  1
  Sr  Sr1  1  0.500413  0.499668  0.250000  1
  Sr  Sr2  1  0.000885  0.500372  0.750000  1
  Sr  Sr3  1  0.999256  0.499669  0.250000  1
  Sr  Sr4  1  0.499579  0.999158  0.750000  1
  La  La5  1  0.500330  0.000660  0.250000  1
  La  La6  1  0.000033  0.000065  0.750000  1
  La  La7  1  0.999963  0.999926  0.250000  1
  Si  Si8  1  0.837259  0.161294  0.003018  1
  Si  Si9  1  0.162782  0.838577  0.002978  1
  Si  Si10  1  0.324036  0.161294  0.003018  1
  Si  Si11  1  0.162782  0.838577  0.497022  1
  Si  Si12  1  0.675794  0.838576  0.002978  1
  Si  Si13  1  0.837259  0.161294  0.496982  1
  Si  Si14  1  0.837601  0.675200  0.000937  1
  Si  Si15  1  0.675794  0.838576  0.497022  1
  Si  Si16  1  0.162493  0.324986  0.001101  1
  Si  Si17  1  0.324036  0.161294  0.496982  1
  Si  Si18  1  0.162493  0.324986  0.498899  1
  Si  Si19  1  0.837601  0.675200  0.499063  1
  Au  Au20  1  0.666504  0.333008  0.003107  1
  Au  Au21  1  0.333558  0.667115  0.004983  1
  Au  Au22  1  0.333558  0.667115  0.495017  1
  Au  Au23  1  0.666504  0.333008  0.496893  1
