# generated using pymatgen
data_TbNd3Ho2(Co3P2)6
_symmetry_space_group_name_H-M   'P 1'
_cell_length_a   3.73600900
_cell_length_b   10.58732475
_cell_length_c   12.27388104
_cell_angle_alpha   90.05268667
_cell_angle_beta   90.00000000
_cell_angle_gamma   90.00000000
_symmetry_Int_Tables_number   1
_chemical_formula_structural   TbNd3Ho2(Co3P2)6
_chemical_formula_sum   'Tb1 Nd3 Ho2 Co18 P12'
_cell_volume   485.48506518
_cell_formula_units_Z   1
loop_
 _symmetry_equiv_pos_site_id
 _symmetry_equiv_pos_as_xyz
  1  'x, y, z'
loop_
 _atom_site_type_symbol
 _atom_site_label
 _atom_site_symmetry_multiplicity
 _atom_site_fract_x
 _atom_site_fract_y
 _atom_site_fract_z
 _atom_site_occupancy
  Tb  Tb0  1  0.500000  0.183903  0.204658  1
  Nd  Nd1  1  0.000000  0.499968  0.522315  1
  Nd  Nd2  1  0.500000  0.000148  0.479207  1
  Nd  Nd3  1  0.500000  0.817733  0.205691  1
  Ho  Ho4  1  0.000000  0.681931  0.795244  1
  Ho  Ho5  1  0.000000  0.317640  0.794082  1
  Co  Co6  1  0.500000  0.498988  0.156553  1
  Co  Co7  1  0.000000  0.001015  0.843199  1
  Co  Co8  1  0.500000  0.499482  0.706260  1
  Co  Co9  1  0.000000  0.002822  0.293993  1
  Co  Co10  1  0.000000  0.498745  0.984457  1
  Co  Co11  1  0.500000  0.001460  0.010675  1
  Co  Co12  1  0.500000  0.333772  0.993845  1
  Co  Co13  1  0.500000  0.664907  0.993431  1
  Co  Co14  1  0.000000  0.168347  0.003371  1
  Co  Co15  1  0.000000  0.833203  0.002620  1
  Co  Co16  1  0.500000  0.296933  0.429542  1
  Co  Co17  1  0.500000  0.702547  0.432199  1
  Co  Co18  1  0.000000  0.203496  0.571617  1
  Co  Co19  1  0.000000  0.796723  0.573699  1
  Co  Co20  1  0.500000  0.879445  0.713804  1
  Co  Co21  1  0.500000  0.120478  0.712490  1
  Co  Co22  1  0.000000  0.618038  0.289145  1
  Co  Co23  1  0.000000  0.379618  0.287472  1
  P  P24  1  0.500000  0.499228  0.882575  1
  P  P25  1  0.000000  0.002602  0.113322  1
  P  P26  1  0.500000  0.499748  0.339610  1
  P  P27  1  0.000000  0.999842  0.661162  1
  P  P28  1  0.500000  0.307326  0.617586  1
  P  P29  1  0.500000  0.692146  0.619234  1
  P  P30  1  0.000000  0.193460  0.383487  1
  P  P31  1  0.000000  0.806121  0.387412  1
  P  P32  1  0.500000  0.845518  0.894315  1
  P  P33  1  0.500000  0.154829  0.893095  1
  P  P34  1  0.000000  0.650033  0.103694  1
  P  P35  1  0.000000  0.347806  0.104940  1
