# generated using pymatgen
data_PaCrCo4P3
_symmetry_space_group_name_H-M   'P 1'
_cell_length_a   3.69288900
_cell_length_b   10.37070500
_cell_length_c   11.77311000
_cell_angle_alpha   90.00000000
_cell_angle_beta   90.00000000
_cell_angle_gamma   90.00000000
_symmetry_Int_Tables_number   1
_chemical_formula_structural   PaCrCo4P3
_chemical_formula_sum   'Pa4 Cr4 Co16 P12'
_cell_volume   450.88494700
_cell_formula_units_Z   4
loop_
 _symmetry_equiv_pos_site_id
 _symmetry_equiv_pos_as_xyz
  1  'x, y, z'
loop_
 _atom_site_type_symbol
 _atom_site_label
 _atom_site_symmetry_multiplicity
 _atom_site_fract_x
 _atom_site_fract_y
 _atom_site_fract_z
 _atom_site_occupancy
  Pa  Pa0  1  0.250000  0.581955  0.703962  1
  Pa  Pa1  1  0.250000  0.918045  0.203962  1
  Pa  Pa2  1  0.750000  0.418045  0.296038  1
  Pa  Pa3  1  0.750000  0.081955  0.796038  1
  Cr  Cr4  1  0.250000  0.709303  0.989433  1
  Cr  Cr5  1  0.250000  0.790697  0.489433  1
  Cr  Cr6  1  0.750000  0.290697  0.010567  1
  Cr  Cr7  1  0.750000  0.209303  0.510567  1
  Co  Co8  1  0.250000  0.407355  0.485268  1
  Co  Co9  1  0.250000  0.092645  0.985268  1
  Co  Co10  1  0.750000  0.592645  0.514732  1
  Co  Co11  1  0.750000  0.907355  0.014732  1
  Co  Co12  1  0.250000  0.221391  0.177493  1
  Co  Co13  1  0.250000  0.278609  0.677493  1
  Co  Co14  1  0.750000  0.778609  0.822507  1
  Co  Co15  1  0.750000  0.721391  0.322507  1
  Co  Co16  1  0.250000  0.885639  0.700935  1
  Co  Co17  1  0.250000  0.614361  0.200935  1
  Co  Co18  1  0.750000  0.114361  0.299065  1
  Co  Co19  1  0.750000  0.385639  0.799065  1
  Co  Co20  1  0.250000  0.467707  0.930490  1
  Co  Co21  1  0.250000  0.032293  0.430490  1
  Co  Co22  1  0.750000  0.532293  0.069510  1
  Co  Co23  1  0.750000  0.967707  0.569510  1
  P  P24  1  0.250000  0.417347  0.110242  1
  P  P25  1  0.250000  0.082653  0.610242  1
  P  P26  1  0.750000  0.582653  0.889758  1
  P  P27  1  0.750000  0.917347  0.389758  1
  P  P28  1  0.250000  0.272896  0.869331  1
  P  P29  1  0.250000  0.227104  0.369331  1
  P  P30  1  0.750000  0.727104  0.130669  1
  P  P31  1  0.750000  0.772896  0.630669  1
  P  P32  1  0.250000  0.605127  0.392880  1
  P  P33  1  0.250000  0.894873  0.892880  1
  P  P34  1  0.750000  0.394873  0.607120  1
  P  P35  1  0.750000  0.105127  0.107120  1
