# generated using pymatgen
data_Tl3Bi3(SbO7)2
_symmetry_space_group_name_H-M   'P 1'
_cell_length_a   6.48496238
_cell_length_b   6.69873545
_cell_length_c   7.63910000
_cell_angle_alpha   106.53269079
_cell_angle_beta   89.71296162
_cell_angle_gamma   98.44787417
_symmetry_Int_Tables_number   1
_chemical_formula_structural   Tl3Bi3(SbO7)2
_chemical_formula_sum   'Tl3 Bi3 Sb2 O14'
_cell_volume   314.44224970
_cell_formula_units_Z   1
loop_
 _symmetry_equiv_pos_site_id
 _symmetry_equiv_pos_as_xyz
  1  'x, y, z'
loop_
 _atom_site_type_symbol
 _atom_site_label
 _atom_site_symmetry_multiplicity
 _atom_site_fract_x
 _atom_site_fract_y
 _atom_site_fract_z
 _atom_site_occupancy
  Tl  Tl0  1  0.534518  0.993867  0.749722  1
  Tl  Tl1  1  0.464740  0.998548  0.249968  1
  Tl  Tl2  1  0.255321  0.529252  0.883923  1
  Bi  Bi3  1  0.746952  0.473134  0.113810  1
  Bi  Bi4  1  0.735618  0.463182  0.613512  1
  Bi  Bi5  1  0.252303  0.522715  0.386353  1
  Sb  Sb6  1  0.003045  0.003140  0.500861  1
  Sb  Sb7  1  0.003248  0.000938  0.000406  1
  O  O8  1  0.441314  0.651174  0.162347  1
  O  O9  1  0.554422  0.339260  0.822562  1
  O  O10  1  0.291839  0.937301  0.958059  1
  O  O11  1  0.713029  0.058845  0.045226  1
  O  O12  1  0.286689  0.917602  0.504993  1
  O  O13  1  0.717844  0.085313  0.494204  1
  O  O14  1  0.527228  0.346657  0.348305  1
  O  O15  1  0.458171  0.646981  0.663706  1
  O  O16  1  0.928261  0.682144  0.954375  1
  O  O17  1  0.080249  0.321033  0.048594  1
  O  O18  1  0.099253  0.319913  0.613398  1
  O  O19  1  0.900501  0.695795  0.382257  1
  O  O20  1  0.916663  0.943274  0.735826  1
  O  O21  1  0.088793  0.069934  0.267593  1
