# generated using pymatgen
data_YEr2In3Ni2Ag
_symmetry_space_group_name_H-M   'P 1'
_cell_length_a   7.60977019
_cell_length_b   7.60625189
_cell_length_c   3.80610200
_cell_angle_alpha   90.00000000
_cell_angle_beta   90.00000000
_cell_angle_gamma   120.16148324
_symmetry_Int_Tables_number   1
_chemical_formula_structural   YEr2In3Ni2Ag
_chemical_formula_sum   'Y1 Er2 In3 Ni2 Ag1'
_cell_volume   190.47777438
_cell_formula_units_Z   1
loop_
 _symmetry_equiv_pos_site_id
 _symmetry_equiv_pos_as_xyz
  1  'x, y, z'
loop_
 _atom_site_type_symbol
 _atom_site_label
 _atom_site_symmetry_multiplicity
 _atom_site_fract_x
 _atom_site_fract_y
 _atom_site_fract_z
 _atom_site_occupancy
  Y  Y0  1  0.393002  0.417284  0.500000  1
  Er  Er1  1  0.025695  0.608178  0.500000  1
  Er  Er2  1  0.581736  0.974127  0.500000  1
  In  In3  1  0.996542  0.249171  0.000000  1
  In  In4  1  0.251913  0.001952  0.000000  1
  In  In5  1  0.750950  0.748507  0.000000  1
  Ni  Ni6  1  0.999758  0.999068  0.500000  1
  Ni  Ni7  1  0.332807  0.668894  0.000000  1
  Ag  Ag8  1  0.667597  0.332820  0.000000  1
