# generated using pymatgen
data_DyHo(NbSe2)8
_symmetry_space_group_name_H-M   'P 1'
_cell_length_a   7.02163500
_cell_length_b   7.02163723
_cell_length_c   14.10239300
_cell_angle_alpha   90.00000000
_cell_angle_beta   90.00000000
_cell_angle_gamma   120.00000361
_symmetry_Int_Tables_number   1
_chemical_formula_structural   DyHo(NbSe2)8
_chemical_formula_sum   'Dy1 Ho1 Nb8 Se16'
_cell_volume   602.14359016
_cell_formula_units_Z   1
loop_
 _symmetry_equiv_pos_site_id
 _symmetry_equiv_pos_as_xyz
  1  'x, y, z'
loop_
 _atom_site_type_symbol
 _atom_site_label
 _atom_site_symmetry_multiplicity
 _atom_site_fract_x
 _atom_site_fract_y
 _atom_site_fract_z
 _atom_site_occupancy
  Dy  Dy0  1  0.000000  0.000000  0.000000  1
  Ho  Ho1  1  0.000000  0.000000  0.500000  1
  Nb  Nb2  1  0.000000  0.000000  0.252335  1
  Nb  Nb3  1  0.000000  0.000000  0.747665  1
  Nb  Nb4  1  0.507879  0.015757  0.252361  1
  Nb  Nb5  1  0.492121  0.984243  0.747639  1
  Nb  Nb6  1  0.984243  0.492121  0.252361  1
  Nb  Nb7  1  0.015757  0.507879  0.747639  1
  Nb  Nb8  1  0.507879  0.492121  0.252361  1
  Nb  Nb9  1  0.492121  0.507879  0.747639  1
  Se  Se10  1  0.333333  0.666667  0.624453  1
  Se  Se11  1  0.666667  0.333333  0.375547  1
  Se  Se12  1  0.666667  0.333333  0.129212  1
  Se  Se13  1  0.333333  0.666667  0.870788  1
  Se  Se14  1  0.170190  0.340381  0.135168  1
  Se  Se15  1  0.829810  0.659619  0.864832  1
  Se  Se16  1  0.659619  0.829810  0.135168  1
  Se  Se17  1  0.828967  0.657933  0.630844  1
  Se  Se18  1  0.340381  0.170190  0.864832  1
  Se  Se19  1  0.171033  0.342067  0.369156  1
  Se  Se20  1  0.170190  0.829810  0.135168  1
  Se  Se21  1  0.342067  0.171033  0.630844  1
  Se  Se22  1  0.829810  0.170190  0.864832  1
  Se  Se23  1  0.657933  0.828967  0.369156  1
  Se  Se24  1  0.828967  0.171033  0.630844  1
  Se  Se25  1  0.171033  0.828967  0.369156  1
