# generated using pymatgen
data_TbDy4ReRuO12
_symmetry_space_group_name_H-M   'P 1'
_cell_length_a   6.86278363
_cell_length_b   6.86296094
_cell_length_c   7.52648343
_cell_angle_alpha   73.83976708
_cell_angle_beta   73.81266959
_cell_angle_gamma   48.86513497
_symmetry_Int_Tables_number   1
_chemical_formula_structural   TbDy4ReRuO12
_chemical_formula_sum   'Tb1 Dy4 Re1 Ru1 O12'
_cell_volume   254.18601919
_cell_formula_units_Z   1
loop_
 _symmetry_equiv_pos_site_id
 _symmetry_equiv_pos_as_xyz
  1  'x, y, z'
loop_
 _atom_site_type_symbol
 _atom_site_label
 _atom_site_symmetry_multiplicity
 _atom_site_fract_x
 _atom_site_fract_y
 _atom_site_fract_z
 _atom_site_occupancy
  Tb  Tb0  1  0.180228  0.213284  0.642536  1
  Dy  Dy1  1  0.180013  0.191356  0.173320  1
  Dy  Dy2  1  0.488109  0.512064  0.499821  1
  Dy  Dy3  1  0.786658  0.819647  0.357057  1
  Dy  Dy4  1  0.808576  0.820052  0.826456  1
  Re  Re5  1  0.299184  0.700602  0.000284  1
  Ru  Ru6  1  0.733404  0.266486  0.000238  1
  O  O7  1  0.411893  0.903549  0.916411  1
  O  O8  1  0.933517  0.414023  0.915913  1
  O  O9  1  0.897596  0.414782  0.421302  1
  O  O10  1  0.390459  0.910875  0.430368  1
  O  O11  1  0.502067  0.501265  0.202653  1
  O  O12  1  0.015257  0.983380  0.175589  1
  O  O13  1  0.016357  0.984082  0.825167  1
  O  O14  1  0.498589  0.497853  0.797607  1
  O  O15  1  0.096141  0.588097  0.084520  1
  O  O16  1  0.586782  0.065791  0.085052  1
  O  O17  1  0.088275  0.611183  0.568421  1
  O  O18  1  0.586897  0.101628  0.577285  1
