# generated using pymatgen
data_Ca9LaIr2
_symmetry_space_group_name_H-M   'P 1'
_cell_length_a   6.82720828
_cell_length_b   7.57990871
_cell_length_c   16.05646200
_cell_angle_alpha   90.00000000
_cell_angle_beta   90.00000000
_cell_angle_gamma   91.05172191
_symmetry_Int_Tables_number   1
_chemical_formula_structural   Ca9LaIr2
_chemical_formula_sum   'Ca18 La2 Ir4'
_cell_volume   830.77575242
_cell_formula_units_Z   2
loop_
 _symmetry_equiv_pos_site_id
 _symmetry_equiv_pos_as_xyz
  1  'x, y, z'
loop_
 _atom_site_type_symbol
 _atom_site_label
 _atom_site_symmetry_multiplicity
 _atom_site_fract_x
 _atom_site_fract_y
 _atom_site_fract_z
 _atom_site_occupancy
  Ca  Ca0  1  0.857650  0.192865  0.562903  1
  Ca  Ca1  1  0.824285  0.463770  0.145649  1
  Ca  Ca2  1  0.175715  0.536230  0.645649  1
  Ca  Ca3  1  0.355882  0.310261  0.064608  1
  Ca  Ca4  1  0.345059  0.596609  0.250000  1
  Ca  Ca5  1  0.824285  0.463770  0.354351  1
  Ca  Ca6  1  0.324843  0.034857  0.855485  1
  Ca  Ca7  1  0.142350  0.807135  0.062903  1
  Ca  Ca8  1  0.644118  0.689739  0.564608  1
  Ca  Ca9  1  0.675157  0.965143  0.355485  1
  Ca  Ca10  1  0.644118  0.689739  0.935392  1
  Ca  Ca11  1  0.324843  0.034857  0.644515  1
  Ca  Ca12  1  0.142350  0.807135  0.437097  1
  Ca  Ca13  1  0.654941  0.403391  0.750000  1
  Ca  Ca14  1  0.175715  0.536230  0.854351  1
  Ca  Ca15  1  0.355882  0.310261  0.435392  1
  Ca  Ca16  1  0.675157  0.965143  0.144515  1
  Ca  Ca17  1  0.857650  0.192865  0.937097  1
  La  La18  1  0.160795  0.087935  0.250000  1
  La  La19  1  0.839205  0.912065  0.750000  1
  Ir  Ir20  1  0.029964  0.227010  0.750000  1
  Ir  Ir21  1  0.477339  0.742937  0.750000  1
  Ir  Ir22  1  0.522661  0.257063  0.250000  1
  Ir  Ir23  1  0.970036  0.772990  0.250000  1
