# generated using pymatgen
data_Y2PaNiIr
_symmetry_space_group_name_H-M   'P 1'
_cell_length_a   5.99885449
_cell_length_b   5.99885476
_cell_length_c   5.99885459
_cell_angle_alpha   142.99884149
_cell_angle_beta   116.94130661
_cell_angle_gamma   75.42182341
_symmetry_Int_Tables_number   1
_chemical_formula_structural   Y2PaNiIr
_chemical_formula_sum   'Y2 Pa1 Ni1 Ir1'
_cell_volume   113.35422587
_cell_formula_units_Z   1
loop_
 _symmetry_equiv_pos_site_id
 _symmetry_equiv_pos_as_xyz
  1  'x, y, z'
loop_
 _atom_site_type_symbol
 _atom_site_label
 _atom_site_symmetry_multiplicity
 _atom_site_fract_x
 _atom_site_fract_y
 _atom_site_fract_z
 _atom_site_occupancy
  Y  Y0  1  0.702691  0.196231  0.506460  1
  Y  Y1  1  0.310228  0.803769  0.506460  1
  Pa  Pa2  1  0.993526  0.000000  0.993526  1
  Ni  Ni3  1  0.711623  0.500000  0.211623  1
  Ir  Ir4  1  0.281932  0.500000  0.781932  1
