# generated using pymatgen
data_Ac2ZnSi4Ni
_symmetry_space_group_name_H-M   'P 1'
_cell_length_a   8.90971435
_cell_length_b   8.90971474
_cell_length_c   4.26965900
_cell_angle_alpha   90.00000000
_cell_angle_beta   90.00000000
_cell_angle_gamma   151.06841828
_symmetry_Int_Tables_number   1
_chemical_formula_structural   Ac2ZnSi4Ni
_chemical_formula_sum   'Ac2 Zn1 Si4 Ni1'
_cell_volume   163.96648960
_cell_formula_units_Z   1
loop_
 _symmetry_equiv_pos_site_id
 _symmetry_equiv_pos_as_xyz
  1  'x, y, z'
loop_
 _atom_site_type_symbol
 _atom_site_label
 _atom_site_symmetry_multiplicity
 _atom_site_fract_x
 _atom_site_fract_y
 _atom_site_fract_z
 _atom_site_occupancy
  Ac  Ac0  1  0.108264  0.891736  0.250000  1
  Ac  Ac1  1  0.896955  0.103045  0.750000  1
  Zn  Zn2  1  0.677072  0.322928  0.750000  1
  Si  Si3  1  0.756379  0.243621  0.250000  1
  Si  Si4  1  0.255259  0.744741  0.750000  1
  Si  Si5  1  0.532493  0.467507  0.750000  1
  Si  Si6  1  0.457457  0.542542  0.250000  1
  Ni  Ni7  1  0.316120  0.683880  0.250000  1
