# generated using pymatgen
data_LaFe3CoAs12
_symmetry_space_group_name_H-M   'P 1'
_cell_length_a   7.22346716
_cell_length_b   7.22346674
_cell_length_c   7.22346807
_cell_angle_alpha   109.44081865
_cell_angle_beta   109.44081334
_cell_angle_gamma   109.44081473
_symmetry_Int_Tables_number   1
_chemical_formula_structural   LaFe3CoAs12
_chemical_formula_sum   'La1 Fe3 Co1 As12'
_cell_volume   290.47126680
_cell_formula_units_Z   1
loop_
 _symmetry_equiv_pos_site_id
 _symmetry_equiv_pos_as_xyz
  1  'x, y, z'
loop_
 _atom_site_type_symbol
 _atom_site_label
 _atom_site_symmetry_multiplicity
 _atom_site_fract_x
 _atom_site_fract_y
 _atom_site_fract_z
 _atom_site_occupancy
  La  La0  1  0.000000  0.000000  0.000000  1
  Fe  Fe1  1  0.500000  0.000000  0.000000  1
  Fe  Fe2  1  0.000000  0.500000  0.000000  1
  Fe  Fe3  1  0.000000  0.000000  0.500000  1
  Co  Co4  1  0.500000  0.500000  0.500000  1
  As  As5  1  0.845931  0.657328  0.500262  1
  As  As6  1  0.154069  0.342672  0.499738  1
  As  As7  1  0.156984  0.657311  0.813871  1
  As  As8  1  0.843016  0.342689  0.186129  1
  As  As9  1  0.657328  0.500262  0.845931  1
  As  As10  1  0.342672  0.499738  0.154069  1
  As  As11  1  0.657311  0.813871  0.156984  1
  As  As12  1  0.342689  0.186129  0.843016  1
  As  As13  1  0.500262  0.845931  0.657328  1
  As  As14  1  0.499738  0.154069  0.342672  1
  As  As15  1  0.186129  0.843016  0.342689  1
  As  As16  1  0.813871  0.156984  0.657311  1
