# generated using pymatgen
data_Ce3Sc(P3Rh4)2
_symmetry_space_group_name_H-M   'P 1'
_cell_length_a   3.97132000
_cell_length_b   11.31877300
_cell_length_c   12.99981100
_cell_angle_alpha   90.00000000
_cell_angle_beta   90.00000000
_cell_angle_gamma   90.00000000
_symmetry_Int_Tables_number   1
_chemical_formula_structural   Ce3Sc(P3Rh4)2
_chemical_formula_sum   'Ce6 Sc2 P12 Rh16'
_cell_volume   584.34760904
_cell_formula_units_Z   2
loop_
 _symmetry_equiv_pos_site_id
 _symmetry_equiv_pos_as_xyz
  1  'x, y, z'
loop_
 _atom_site_type_symbol
 _atom_site_label
 _atom_site_symmetry_multiplicity
 _atom_site_fract_x
 _atom_site_fract_y
 _atom_site_fract_z
 _atom_site_occupancy
  Ce  Ce0  1  0.000000  0.500000  0.524108  1
  Ce  Ce1  1  0.500000  0.000000  0.475892  1
  Ce  Ce2  1  0.500000  0.820949  0.204609  1
  Ce  Ce3  1  0.500000  0.179051  0.204609  1
  Ce  Ce4  1  0.000000  0.679051  0.795391  1
  Ce  Ce5  1  0.000000  0.320949  0.795391  1
  Sc  Sc6  1  0.500000  0.500000  0.156290  1
  Sc  Sc7  1  0.000000  0.000000  0.843710  1
  P  P8  1  0.500000  0.500000  0.881838  1
  P  P9  1  0.000000  0.000000  0.118162  1
  P  P10  1  0.500000  0.500000  0.356848  1
  P  P11  1  0.000000  0.000000  0.643152  1
  P  P12  1  0.500000  0.311580  0.615877  1
  P  P13  1  0.500000  0.688420  0.615877  1
  P  P14  1  0.000000  0.188420  0.384123  1
  P  P15  1  0.000000  0.811580  0.384123  1
  P  P16  1  0.500000  0.842398  0.890046  1
  P  P17  1  0.500000  0.157602  0.890046  1
  P  P18  1  0.000000  0.657602  0.109954  1
  P  P19  1  0.000000  0.342398  0.109954  1
  Rh  Rh20  1  0.500000  0.500000  0.700363  1
  Rh  Rh21  1  0.000000  0.000000  0.299637  1
  Rh  Rh22  1  0.000000  0.500000  0.987858  1
  Rh  Rh23  1  0.500000  0.000000  0.012142  1
  Rh  Rh24  1  0.500000  0.331649  0.991562  1
  Rh  Rh25  1  0.500000  0.668351  0.991562  1
  Rh  Rh26  1  0.000000  0.168351  0.008438  1
  Rh  Rh27  1  0.000000  0.831649  0.008438  1
  Rh  Rh28  1  0.500000  0.294624  0.432855  1
  Rh  Rh29  1  0.500000  0.705376  0.432855  1
  Rh  Rh30  1  0.000000  0.205376  0.567145  1
  Rh  Rh31  1  0.000000  0.794624  0.567145  1
  Rh  Rh32  1  0.500000  0.873802  0.707345  1
  Rh  Rh33  1  0.500000  0.126198  0.707345  1
  Rh  Rh34  1  0.000000  0.626198  0.292655  1
  Rh  Rh35  1  0.000000  0.373802  0.292655  1
