# generated using pymatgen
data_Pr5Nd3Se11Br
_symmetry_space_group_name_H-M   'P 1'
_cell_length_a   4.18896300
_cell_length_b   11.25530696
_cell_length_c   11.64044900
_cell_angle_alpha   90.04153895
_cell_angle_beta   90.00000000
_cell_angle_gamma   90.00000000
_symmetry_Int_Tables_number   1
_chemical_formula_structural   Pr5Nd3Se11Br
_chemical_formula_sum   'Pr5 Nd3 Se11 Br1'
_cell_volume   548.82449487
_cell_formula_units_Z   1
loop_
 _symmetry_equiv_pos_site_id
 _symmetry_equiv_pos_as_xyz
  1  'x, y, z'
loop_
 _atom_site_type_symbol
 _atom_site_label
 _atom_site_symmetry_multiplicity
 _atom_site_fract_x
 _atom_site_fract_y
 _atom_site_fract_z
 _atom_site_occupancy
  Pr  Pr0  1  0.250000  0.986561  0.806901  1
  Pr  Pr1  1  0.750000  0.998647  0.190523  1
  Pr  Pr2  1  0.750000  0.518091  0.692391  1
  Pr  Pr3  1  0.250000  0.505592  0.309641  1
  Pr  Pr4  1  0.250000  0.183097  0.480723  1
  Nd  Nd5  1  0.750000  0.818072  0.509262  1
  Nd  Nd6  1  0.750000  0.683886  0.013986  1
  Nd  Nd7  1  0.250000  0.308338  0.999751  1
  Se  Se8  1  0.750000  0.703134  0.270981  1
  Se  Se9  1  0.750000  0.792282  0.769350  1
  Se  Se10  1  0.250000  0.198151  0.227606  1
  Se  Se11  1  0.250000  0.943869  0.375261  1
  Se  Se12  1  0.750000  0.057122  0.622634  1
  Se  Se13  1  0.750000  0.444128  0.125392  1
  Se  Se14  1  0.250000  0.548248  0.883828  1
  Se  Se15  1  0.250000  0.869665  0.042346  1
  Se  Se16  1  0.750000  0.127331  0.949542  1
  Se  Se17  1  0.750000  0.376113  0.461222  1
  Se  Se18  1  0.250000  0.632943  0.544339  1
  Br  Br19  1  0.250000  0.304734  0.724320  1
