# generated using pymatgen
data_Sr5Th(BiO6)2
_symmetry_space_group_name_H-M   'P 1'
_cell_length_a   6.04440783
_cell_length_b   6.24154871
_cell_length_c   8.66039701
_cell_angle_alpha   90.01895188
_cell_angle_beta   90.09690344
_cell_angle_gamma   90.01793893
_symmetry_Int_Tables_number   1
_chemical_formula_structural   Sr5Th(BiO6)2
_chemical_formula_sum   'Sr5 Th1 Bi2 O12'
_cell_volume   326.72567115
_cell_formula_units_Z   1
loop_
 _symmetry_equiv_pos_site_id
 _symmetry_equiv_pos_as_xyz
  1  'x, y, z'
loop_
 _atom_site_type_symbol
 _atom_site_label
 _atom_site_symmetry_multiplicity
 _atom_site_fract_x
 _atom_site_fract_y
 _atom_site_fract_z
 _atom_site_occupancy
  Sr  Sr0  1  0.000000  0.000000  0.000000  1
  Sr  Sr1  1  0.984752  0.447442  0.236623  1
  Sr  Sr2  1  0.514391  0.953916  0.240034  1
  Sr  Sr3  1  0.485609  0.046084  0.759966  1
  Sr  Sr4  1  0.015248  0.552558  0.763377  1
  Th  Th5  1  0.500000  0.500000  0.500000  1
  Bi  Bi6  1  0.500000  0.500000  0.000000  1
  Bi  Bi7  1  0.000000  0.000000  0.500000  1
  O  O8  1  0.886534  0.950760  0.726397  1
  O  O9  1  0.798244  0.719322  0.432969  1
  O  O10  1  0.785961  0.681001  0.048809  1
  O  O11  1  0.716917  0.206127  0.441780  1
  O  O12  1  0.675589  0.217193  0.058265  1
  O  O13  1  0.605975  0.455538  0.754504  1
  O  O14  1  0.394025  0.544462  0.245496  1
  O  O15  1  0.324411  0.782807  0.941735  1
  O  O16  1  0.283083  0.793873  0.558220  1
  O  O17  1  0.214039  0.318999  0.951191  1
  O  O18  1  0.201756  0.280678  0.567031  1
  O  O19  1  0.113466  0.049240  0.273603  1
