# generated using pymatgen
data_Tb2TmSn2Rh3Pb
_symmetry_space_group_name_H-M   'P 1'
_cell_length_a   7.75592850
_cell_length_b   7.72934261
_cell_length_c   3.73442800
_cell_angle_alpha   90.00000000
_cell_angle_beta   90.00000000
_cell_angle_gamma   119.99044646
_symmetry_Int_Tables_number   1
_chemical_formula_structural   Tb2TmSn2Rh3Pb
_chemical_formula_sum   'Tb2 Tm1 Sn2 Rh3 Pb1'
_cell_volume   193.89779843
_cell_formula_units_Z   1
loop_
 _symmetry_equiv_pos_site_id
 _symmetry_equiv_pos_as_xyz
  1  'x, y, z'
loop_
 _atom_site_type_symbol
 _atom_site_label
 _atom_site_symmetry_multiplicity
 _atom_site_fract_x
 _atom_site_fract_y
 _atom_site_fract_z
 _atom_site_occupancy
  Tb  Tb0  1  0.996600  0.402375  0.000000  1
  Tb  Tb1  1  0.600855  0.600083  0.000000  1
  Tm  Tm2  1  0.401890  0.995943  0.000000  1
  Sn  Sn3  1  0.002553  0.735115  0.500000  1
  Sn  Sn4  1  0.731952  0.000362  0.500000  1
  Rh  Rh5  1  0.673448  0.332680  0.500000  1
  Rh  Rh6  1  0.336852  0.679681  0.500000  1
  Rh  Rh7  1  0.989054  0.988902  0.000000  1
  Pb  Pb8  1  0.266796  0.264858  0.500000  1
