# generated using pymatgen
data_Er5Fe3(P3Ru4)4
_symmetry_space_group_name_H-M   'P 1'
_cell_length_a   12.44564100
_cell_length_b   12.44564101
_cell_length_c   3.87804600
_cell_angle_alpha   90.00000000
_cell_angle_beta   90.00000000
_cell_angle_gamma   120.00000262
_symmetry_Int_Tables_number   1
_chemical_formula_structural   Er5Fe3(P3Ru4)4
_chemical_formula_sum   'Er5 Fe3 P12 Ru16'
_cell_volume   520.20930452
_cell_formula_units_Z   1
loop_
 _symmetry_equiv_pos_site_id
 _symmetry_equiv_pos_as_xyz
  1  'x, y, z'
loop_
 _atom_site_type_symbol
 _atom_site_label
 _atom_site_symmetry_multiplicity
 _atom_site_fract_x
 _atom_site_fract_y
 _atom_site_fract_z
 _atom_site_occupancy
  Er  Er0  1  0.181420  0.181420  0.500000  1
  Er  Er1  1  0.818580  0.000000  0.500000  1
  Er  Er2  1  0.000000  0.818580  0.500000  1
  Er  Er3  1  0.333333  0.666667  0.000000  1
  Er  Er4  1  0.666667  0.333333  0.000000  1
  Fe  Fe5  1  0.716740  0.716740  0.500000  1
  Fe  Fe6  1  0.283260  0.000000  0.500000  1
  Fe  Fe7  1  0.000000  0.283260  0.500000  1
  P  P8  1  0.813820  0.813820  0.000000  1
  P  P9  1  0.186180  0.000000  0.000000  1
  P  P10  1  0.000000  0.186180  0.000000  1
  P  P11  1  0.163005  0.473217  0.500000  1
  P  P12  1  0.526783  0.689788  0.500000  1
  P  P13  1  0.310212  0.836995  0.500000  1
  P  P14  1  0.689788  0.526783  0.500000  1
  P  P15  1  0.836995  0.310212  0.500000  1
  P  P16  1  0.473217  0.163005  0.500000  1
  P  P17  1  0.372770  0.372770  0.000000  1
  P  P18  1  0.627230  0.000000  0.000000  1
  P  P19  1  0.000000  0.627230  0.000000  1
  Ru  Ru20  1  0.557747  0.557747  0.000000  1
  Ru  Ru21  1  0.442253  0.000000  0.000000  1
  Ru  Ru22  1  0.000000  0.442253  0.000000  1
  Ru  Ru23  1  0.181627  0.374559  0.000000  1
  Ru  Ru24  1  0.625441  0.807068  0.000000  1
  Ru  Ru25  1  0.192932  0.818373  0.000000  1
  Ru  Ru26  1  0.807068  0.625441  0.000000  1
  Ru  Ru27  1  0.818373  0.192932  0.000000  1
  Ru  Ru28  1  0.374559  0.181627  0.000000  1
  Ru  Ru29  1  0.363075  0.489773  0.500000  1
  Ru  Ru30  1  0.510227  0.873302  0.500000  1
  Ru  Ru31  1  0.126698  0.636925  0.500000  1
  Ru  Ru32  1  0.873302  0.510227  0.500000  1
  Ru  Ru33  1  0.636925  0.126698  0.500000  1
  Ru  Ru34  1  0.489773  0.363075  0.500000  1
  Ru  Ru35  1  0.000000  0.000000  0.000000  1
