# generated using pymatgen
data_Y7Tm9(LuPb4)4
_symmetry_space_group_name_H-M   'P 1'
_cell_length_a   8.14105874
_cell_length_b   15.49093202
_cell_length_c   8.20562900
_cell_angle_alpha   90.01450247
_cell_angle_beta   89.87381778
_cell_angle_gamma   90.12614144
_symmetry_Int_Tables_number   1
_chemical_formula_structural   Y7Tm9(LuPb4)4
_chemical_formula_sum   'Y7 Tm9 Lu4 Pb16'
_cell_volume   1034.82805632
_cell_formula_units_Z   1
loop_
 _symmetry_equiv_pos_site_id
 _symmetry_equiv_pos_as_xyz
  1  'x, y, z'
loop_
 _atom_site_type_symbol
 _atom_site_label
 _atom_site_symmetry_multiplicity
 _atom_site_fract_x
 _atom_site_fract_y
 _atom_site_fract_z
 _atom_site_occupancy
  Y  Y0  1  0.962769  0.900536  0.823337  1
  Y  Y1  1  0.537374  0.099001  0.323368  1
  Y  Y2  1  0.038563  0.400938  0.176097  1
  Y  Y3  1  0.538060  0.400874  0.324409  1
  Y  Y4  1  0.037041  0.098656  0.176396  1
  Y  Y5  1  0.462920  0.900834  0.676450  1
  Y  Y6  1  0.962073  0.599160  0.823692  1
  Tm  Tm7  1  0.623902  0.622349  0.157806  1
  Tm  Tm8  1  0.124797  0.877732  0.342817  1
  Tm  Tm9  1  0.375462  0.122105  0.842650  1
  Tm  Tm10  1  0.875757  0.378447  0.657758  1
  Tm  Tm11  1  0.376880  0.378500  0.841889  1
  Tm  Tm12  1  0.875354  0.121741  0.657063  1
  Tm  Tm13  1  0.624594  0.877276  0.157049  1
  Tm  Tm14  1  0.124121  0.622046  0.342612  1
  Tm  Tm15  1  0.459465  0.600328  0.674634  1
  Lu  Lu16  1  0.792624  0.749678  0.495018  1
  Lu  Lu17  1  0.292959  0.749714  0.005214  1
  Lu  Lu18  1  0.207506  0.250308  0.505419  1
  Lu  Lu19  1  0.707491  0.250081  0.994747  1
  Pb  Pb20  1  0.717778  0.456826  0.966816  1
  Pb  Pb21  1  0.217008  0.042952  0.535413  1
  Pb  Pb22  1  0.283602  0.956663  0.034994  1
  Pb  Pb23  1  0.780645  0.543577  0.467012  1
  Pb  Pb24  1  0.284076  0.543461  0.033721  1
  Pb  Pb25  1  0.783459  0.956697  0.464216  1
  Pb  Pb26  1  0.716268  0.042713  0.964500  1
  Pb  Pb27  1  0.217020  0.457705  0.535580  1
  Pb  Pb28  1  0.430365  0.750105  0.374041  1
  Pb  Pb29  1  0.930803  0.749752  0.126623  1
  Pb  Pb30  1  0.569844  0.250056  0.626291  1
  Pb  Pb31  1  0.069563  0.250054  0.873036  1
  Pb  Pb32  1  0.650259  0.749231  0.842925  1
  Pb  Pb33  1  0.151314  0.749840  0.656385  1
  Pb  Pb34  1  0.348779  0.250102  0.156054  1
  Pb  Pb35  1  0.849502  0.249962  0.343966  1
