# generated using pymatgen
data_Tb16CoNi3Hg4
_symmetry_space_group_name_H-M   'P 1'
_cell_length_a   9.51906073
_cell_length_b   9.51906083
_cell_length_c   9.51906024
_cell_angle_alpha   60.13235470
_cell_angle_beta   60.13236234
_cell_angle_gamma   60.13235806
_symmetry_Int_Tables_number   1
_chemical_formula_structural   Tb16CoNi3Hg4
_chemical_formula_sum   'Tb16 Co1 Ni3 Hg4'
_cell_volume   611.74088787
_cell_formula_units_Z   1
loop_
 _symmetry_equiv_pos_site_id
 _symmetry_equiv_pos_as_xyz
  1  'x, y, z'
loop_
 _atom_site_type_symbol
 _atom_site_label
 _atom_site_symmetry_multiplicity
 _atom_site_fract_x
 _atom_site_fract_y
 _atom_site_fract_z
 _atom_site_occupancy
  Tb  Tb0  1  0.348465  0.348465  0.348465  1
  Tb  Tb1  1  0.349495  0.349495  0.950200  1
  Tb  Tb2  1  0.349495  0.950200  0.349495  1
  Tb  Tb3  1  0.950200  0.349495  0.349495  1
  Tb  Tb4  1  0.815546  0.189085  0.189085  1
  Tb  Tb5  1  0.188440  0.811135  0.811135  1
  Tb  Tb6  1  0.189085  0.815546  0.189085  1
  Tb  Tb7  1  0.811135  0.188440  0.811135  1
  Tb  Tb8  1  0.189085  0.189085  0.815546  1
  Tb  Tb9  1  0.811135  0.811135  0.188440  1
  Tb  Tb10  1  0.938048  0.562860  0.562860  1
  Tb  Tb11  1  0.560535  0.937517  0.937517  1
  Tb  Tb12  1  0.562860  0.938048  0.562860  1
  Tb  Tb13  1  0.937517  0.560535  0.937517  1
  Tb  Tb14  1  0.562860  0.562860  0.938048  1
  Tb  Tb15  1  0.937517  0.937517  0.560535  1
  Co  Co16  1  0.143245  0.143245  0.143245  1
  Ni  Ni17  1  0.142135  0.142135  0.573277  1
  Ni  Ni18  1  0.142135  0.573277  0.142135  1
  Ni  Ni19  1  0.573277  0.142135  0.142135  1
  Hg  Hg20  1  0.583703  0.583703  0.583703  1
  Hg  Hg21  1  0.584518  0.584518  0.245049  1
  Hg  Hg22  1  0.584518  0.245049  0.584518  1
  Hg  Hg23  1  0.245049  0.584518  0.584518  1
