# generated using pymatgen
data_EuSiPRu2
_symmetry_space_group_name_H-M   'P 1'
_cell_length_a   5.82285733
_cell_length_b   5.82285734
_cell_length_c   5.82285686
_cell_angle_alpha   138.16961464
_cell_angle_beta   138.16961544
_cell_angle_gamma   60.64332299
_symmetry_Int_Tables_number   1
_chemical_formula_structural   EuSiPRu2
_chemical_formula_sum   'Eu1 Si1 P1 Ru2'
_cell_volume   86.87280855
_cell_formula_units_Z   1
loop_
 _symmetry_equiv_pos_site_id
 _symmetry_equiv_pos_as_xyz
  1  'x, y, z'
loop_
 _atom_site_type_symbol
 _atom_site_label
 _atom_site_symmetry_multiplicity
 _atom_site_fract_x
 _atom_site_fract_y
 _atom_site_fract_z
 _atom_site_occupancy
  Eu  Eu0  1  0.998587  0.998587  0.000000  1
  Si  Si1  1  0.634539  0.634539  0.000000  1
  P  P2  1  0.362086  0.362086  0.000000  1
  Ru  Ru3  1  0.252394  0.752394  0.500000  1
  Ru  Ru4  1  0.752394  0.252394  0.500000  1
