# generated using pymatgen
data_Y6Ga5Ni12Ir
_symmetry_space_group_name_H-M   'P 1'
_cell_length_a   5.21497700
_cell_length_b   5.21497576
_cell_length_c   16.06710000
_cell_angle_alpha   90.00000000
_cell_angle_beta   90.00000000
_cell_angle_gamma   119.99998882
_symmetry_Int_Tables_number   1
_chemical_formula_structural   Y6Ga5Ni12Ir
_chemical_formula_sum   'Y6 Ga5 Ni12 Ir1'
_cell_volume   378.41894366
_cell_formula_units_Z   1
loop_
 _symmetry_equiv_pos_site_id
 _symmetry_equiv_pos_as_xyz
  1  'x, y, z'
loop_
 _atom_site_type_symbol
 _atom_site_label
 _atom_site_symmetry_multiplicity
 _atom_site_fract_x
 _atom_site_fract_y
 _atom_site_fract_z
 _atom_site_occupancy
  Y  Y0  1  0.333333  0.666667  0.547097  1
  Y  Y1  1  0.666667  0.333333  0.452903  1
  Y  Y2  1  0.666667  0.333333  0.032322  1
  Y  Y3  1  0.333333  0.666667  0.967678  1
  Y  Y4  1  0.333333  0.666667  0.761604  1
  Y  Y5  1  0.666667  0.333333  0.238396  1
  Ga  Ga6  1  0.000000  0.000000  0.255888  1
  Ga  Ga7  1  0.000000  0.000000  0.744112  1
  Ga  Ga8  1  0.333333  0.666667  0.254296  1
  Ga  Ga9  1  0.666667  0.333333  0.745704  1
  Ga  Ga10  1  0.000000  0.000000  0.500000  1
  Ni  Ni11  1  0.165149  0.330296  0.131173  1
  Ni  Ni12  1  0.834851  0.669704  0.868827  1
  Ni  Ni13  1  0.669704  0.834851  0.131173  1
  Ni  Ni14  1  0.830898  0.661798  0.624192  1
  Ni  Ni15  1  0.330296  0.165149  0.868827  1
  Ni  Ni16  1  0.169102  0.338202  0.375808  1
  Ni  Ni17  1  0.165149  0.834851  0.131173  1
  Ni  Ni18  1  0.338202  0.169102  0.624192  1
  Ni  Ni19  1  0.834851  0.165149  0.868827  1
  Ni  Ni20  1  0.661798  0.830898  0.375808  1
  Ni  Ni21  1  0.830898  0.169102  0.624192  1
  Ni  Ni22  1  0.169102  0.830898  0.375808  1
  Ir  Ir23  1  0.000000  0.000000  0.000000  1
