# generated using pymatgen
data_Ho3Zn2Co7(NiB2)2
_symmetry_space_group_name_H-M   'P 1'
_cell_length_a   5.09999160
_cell_length_b   5.13676146
_cell_length_c   9.71119200
_cell_angle_alpha   89.99986529
_cell_angle_beta   90.00007051
_cell_angle_gamma   120.30624183
_symmetry_Int_Tables_number   1
_chemical_formula_structural   Ho3Zn2Co7(NiB2)2
_chemical_formula_sum   'Ho3 Zn2 Co7 Ni2 B4'
_cell_volume   219.64107258
_cell_formula_units_Z   1
loop_
 _symmetry_equiv_pos_site_id
 _symmetry_equiv_pos_as_xyz
  1  'x, y, z'
loop_
 _atom_site_type_symbol
 _atom_site_label
 _atom_site_symmetry_multiplicity
 _atom_site_fract_x
 _atom_site_fract_y
 _atom_site_fract_z
 _atom_site_occupancy
  Ho  Ho0  1  0.999990  0.000000  0.999995  1
  Ho  Ho1  1  0.999995  0.000005  0.342020  1
  Ho  Ho2  1  0.999994  0.999995  0.657999  1
  Zn  Zn3  1  0.338272  0.669138  0.999998  1
  Zn  Zn4  1  0.661710  0.330863  0.999998  1
  Co  Co5  1  0.499995  0.999997  0.500006  1
  Co  Co6  1  0.499995  0.500001  0.499986  1
  Co  Co7  1  0.999999  0.500001  0.499989  1
  Co  Co8  1  0.499997  0.000003  0.211583  1
  Co  Co9  1  0.499995  0.500001  0.211638  1
  Co  Co10  1  0.499997  0.000000  0.788399  1
  Co  Co11  1  0.499996  0.499999  0.788327  1
  Ni  Ni12  1  0.999991  0.500000  0.208877  1
  Ni  Ni13  1  0.999993  0.499997  0.791159  1
  B  B14  1  0.339192  0.669689  0.351250  1
  B  B15  1  0.660798  0.330314  0.351247  1
  B  B16  1  0.660832  0.330298  0.648765  1
  B  B17  1  0.339159  0.669701  0.648765  1
