# generated using pymatgen
data_Dy2YZr(NiAs)4
_symmetry_space_group_name_H-M   'P 1'
_cell_length_a   4.03200300
_cell_length_b   4.03200323
_cell_length_c   15.24293500
_cell_angle_alpha   90.00000000
_cell_angle_beta   90.00000000
_cell_angle_gamma   120.00000634
_symmetry_Int_Tables_number   1
_chemical_formula_structural   Dy2YZr(NiAs)4
_chemical_formula_sum   'Dy2 Y1 Zr1 Ni4 As4'
_cell_volume   214.60553519
_cell_formula_units_Z   1
loop_
 _symmetry_equiv_pos_site_id
 _symmetry_equiv_pos_as_xyz
  1  'x, y, z'
loop_
 _atom_site_type_symbol
 _atom_site_label
 _atom_site_symmetry_multiplicity
 _atom_site_fract_x
 _atom_site_fract_y
 _atom_site_fract_z
 _atom_site_occupancy
  Dy  Dy0  1  0.000000  0.000000  0.750044  1
  Dy  Dy1  1  0.000000  0.000000  0.493056  1
  Y  Y2  1  0.000000  0.000000  0.007129  1
  Zr  Zr3  1  0.000000  0.000000  0.250096  1
  Ni  Ni4  1  0.333333  0.666667  0.158437  1
  Ni  Ni5  1  0.666667  0.333333  0.874171  1
  Ni  Ni6  1  0.666667  0.333333  0.625228  1
  Ni  Ni7  1  0.333333  0.666667  0.341627  1
  As  As8  1  0.333333  0.666667  0.618801  1
  As  As9  1  0.666667  0.333333  0.375852  1
  As  As10  1  0.666667  0.333333  0.124818  1
  As  As11  1  0.333333  0.666667  0.880740  1
