# generated using pymatgen
data_Sc20GaSi9Te2
_symmetry_space_group_name_H-M   'P 1'
_cell_length_a   5.85634900
_cell_length_b   7.98154354
_cell_length_c   13.90838100
_cell_angle_alpha   90.04574162
_cell_angle_beta   90.00000000
_cell_angle_gamma   90.00000000
_symmetry_Int_Tables_number   1
_chemical_formula_structural   Sc20GaSi9Te2
_chemical_formula_sum   'Sc20 Ga1 Si9 Te2'
_cell_volume   650.11513667
_cell_formula_units_Z   1
loop_
 _symmetry_equiv_pos_site_id
 _symmetry_equiv_pos_as_xyz
  1  'x, y, z'
loop_
 _atom_site_type_symbol
 _atom_site_label
 _atom_site_symmetry_multiplicity
 _atom_site_fract_x
 _atom_site_fract_y
 _atom_site_fract_z
 _atom_site_occupancy
  Sc  Sc0  1  0.745156  0.007725  0.338724  1
  Sc  Sc1  1  0.746118  0.503893  0.825324  1
  Sc  Sc2  1  0.741773  0.491112  0.172198  1
  Sc  Sc3  1  0.750100  0.001216  0.666599  1
  Sc  Sc4  1  0.258227  0.491112  0.172198  1
  Sc  Sc5  1  0.249900  0.001216  0.666599  1
  Sc  Sc6  1  0.254844  0.007725  0.338724  1
  Sc  Sc7  1  0.253882  0.503893  0.825324  1
  Sc  Sc8  1  0.000000  0.260356  0.501421  1
  Sc  Sc9  1  0.000000  0.766174  0.991235  1
  Sc  Sc10  1  0.000000  0.614748  0.385691  1
  Sc  Sc11  1  0.000000  0.113046  0.871088  1
  Sc  Sc12  1  0.000000  0.127104  0.126705  1
  Sc  Sc13  1  0.000000  0.620038  0.620379  1
  Sc  Sc14  1  0.500000  0.741547  0.500307  1
  Sc  Sc15  1  0.500000  0.239040  0.999862  1
  Sc  Sc16  1  0.500000  0.877932  0.120654  1
  Sc  Sc17  1  0.500000  0.378617  0.620444  1
  Sc  Sc18  1  0.500000  0.377432  0.380015  1
  Sc  Sc19  1  0.500000  0.877382  0.877325  1
  Ga  Ga20  1  0.000000  0.895685  0.500950  1
  Si  Si21  1  0.000000  0.303075  0.697360  1
  Si  Si22  1  0.000000  0.302660  0.303816  1
  Si  Si23  1  0.000000  0.803028  0.800206  1
  Si  Si24  1  0.500000  0.608005  0.999506  1
  Si  Si25  1  0.500000  0.107216  0.501782  1
  Si  Si26  1  0.500000  0.695590  0.305197  1
  Si  Si27  1  0.500000  0.197031  0.803793  1
  Si  Si28  1  0.500000  0.191661  0.196998  1
  Si  Si29  1  0.500000  0.698406  0.695335  1
  Te  Te30  1  0.000000  0.393769  0.997440  1
  Te  Te31  1  0.000000  0.802491  0.196789  1
