# generated using pymatgen
data_Dy5HoAl24(Ru3Au)2
_symmetry_space_group_name_H-M   'P 1'
_cell_length_a   8.86822452
_cell_length_b   8.82973287
_cell_length_c   9.56848284
_cell_angle_alpha   90.04804462
_cell_angle_beta   89.93654801
_cell_angle_gamma   119.71976666
_symmetry_Int_Tables_number   1
_chemical_formula_structural   Dy5HoAl24(Ru3Au)2
_chemical_formula_sum   'Dy5 Ho1 Al24 Ru6 Au2'
_cell_volume   650.69448101
_cell_formula_units_Z   1
loop_
 _symmetry_equiv_pos_site_id
 _symmetry_equiv_pos_as_xyz
  1  'x, y, z'
loop_
 _atom_site_type_symbol
 _atom_site_label
 _atom_site_symmetry_multiplicity
 _atom_site_fract_x
 _atom_site_fract_y
 _atom_site_fract_z
 _atom_site_occupancy
  Dy  Dy0  1  0.190569  0.385843  0.253429  1
  Dy  Dy1  1  0.809449  0.613989  0.746576  1
  Dy  Dy2  1  0.615512  0.807927  0.248414  1
  Dy  Dy3  1  0.384534  0.192014  0.751616  1
  Dy  Dy4  1  0.191834  0.806572  0.253892  1
  Ho  Ho5  1  0.807896  0.193984  0.745941  1
  Al  Al6  1  0.321044  0.661091  0.029845  1
  Al  Al7  1  0.678992  0.338752  0.969705  1
  Al  Al8  1  0.666232  0.333174  0.525788  1
  Al  Al9  1  0.333820  0.666751  0.474526  1
  Al  Al10  1  0.164035  0.327320  0.575238  1
  Al  Al11  1  0.835740  0.672494  0.424980  1
  Al  Al12  1  0.673835  0.836727  0.572256  1
  Al  Al13  1  0.848145  0.676788  0.080550  1
  Al  Al14  1  0.326333  0.163517  0.428034  1
  Al  Al15  1  0.151575  0.322971  0.919202  1
  Al  Al16  1  0.163687  0.836957  0.576642  1
  Al  Al17  1  0.318104  0.159568  0.084042  1
  Al  Al18  1  0.836355  0.163042  0.423734  1
  Al  Al19  1  0.682042  0.840643  0.915744  1
  Al  Al20  1  0.847966  0.171363  0.081136  1
  Al  Al21  1  0.152027  0.828609  0.918586  1
  Al  Al22  1  0.564376  0.127990  0.256810  1
  Al  Al23  1  0.435922  0.872184  0.743303  1
  Al  Al24  1  0.878276  0.439484  0.249546  1
  Al  Al25  1  0.121556  0.560211  0.750431  1
  Al  Al26  1  0.564263  0.436550  0.257178  1
  Al  Al27  1  0.435730  0.563448  0.742891  1
  Al  Al28  1  0.996925  0.998992  0.250865  1
  Al  Al29  1  0.002745  0.001232  0.749007  1
  Ru  Ru30  1  0.999903  0.499869  0.999851  1
  Ru  Ru31  1  0.500181  0.000094  0.500155  1
  Ru  Ru32  1  0.999922  0.499861  0.500144  1
  Ru  Ru33  1  0.500034  0.499986  0.500062  1
  Ru  Ru34  1  0.000026  0.999982  0.000022  1
  Ru  Ru35  1  0.000050  0.999964  0.500035  1
  Au  Au36  1  0.500273  0.000107  0.999874  1
  Au  Au37  1  0.500095  0.499953  0.999951  1
