# generated using pymatgen
data_DyHo3Tc3PtF28
_symmetry_space_group_name_H-M   'P 1'
_cell_length_a   5.57761379
_cell_length_b   8.88299246
_cell_length_c   11.98743878
_cell_angle_alpha   62.58044081
_cell_angle_beta   89.93802277
_cell_angle_gamma   89.97013189
_symmetry_Int_Tables_number   1
_chemical_formula_structural   DyHo3Tc3PtF28
_chemical_formula_sum   'Dy1 Ho3 Tc3 Pt1 F28'
_cell_volume   527.20517765
_cell_formula_units_Z   1
loop_
 _symmetry_equiv_pos_site_id
 _symmetry_equiv_pos_as_xyz
  1  'x, y, z'
loop_
 _atom_site_type_symbol
 _atom_site_label
 _atom_site_symmetry_multiplicity
 _atom_site_fract_x
 _atom_site_fract_y
 _atom_site_fract_z
 _atom_site_occupancy
  Dy  Dy0  1  0.759187  0.814068  0.764901  1
  Ho  Ho1  1  0.259585  0.186274  0.734782  1
  Ho  Ho2  1  0.239911  0.185278  0.236787  1
  Ho  Ho3  1  0.741221  0.813520  0.265432  1
  Tc  Tc4  1  0.757831  0.272270  0.957252  1
  Tc  Tc5  1  0.257483  0.726388  0.543062  1
  Tc  Tc6  1  0.242637  0.726448  0.044138  1
  Pt  Pt7  1  0.740649  0.272670  0.456565  1
  F  F8  1  0.446540  0.706692  0.918487  1
  F  F9  1  0.936101  0.297659  0.583637  1
  F  F10  1  0.551480  0.292592  0.081691  1
  F  F11  1  0.053675  0.707017  0.417625  1
  F  F12  1  0.441432  0.278805  0.542696  1
  F  F13  1  0.948498  0.721578  0.954420  1
  F  F14  1  0.552474  0.721514  0.453831  1
  F  F15  1  0.050986  0.277245  0.047809  1
  F  F16  1  0.773404  0.520201  0.859326  1
  F  F17  1  0.271773  0.477999  0.640540  1
  F  F18  1  0.227541  0.478243  0.142021  1
  F  F19  1  0.726038  0.521350  0.357598  1
  F  F20  1  0.756777  0.025052  0.053727  1
  F  F21  1  0.256694  0.973698  0.447201  1
  F  F22  1  0.244069  0.973650  0.946701  1
  F  F23  1  0.744777  0.023815  0.549954  1
  F  F24  1  0.974316  0.728358  0.639660  1
  F  F25  1  0.476393  0.270413  0.859525  1
  F  F26  1  0.031897  0.274427  0.363149  1
  F  F27  1  0.525191  0.729662  0.140394  1
  F  F28  1  0.044292  0.746818  0.172812  1
  F  F29  1  0.551052  0.254467  0.324248  1
  F  F30  1  0.958570  0.252787  0.828691  1
  F  F31  1  0.455269  0.745483  0.672337  1
  F  F32  1  0.419541  0.971569  0.232878  1
  F  F33  1  0.919223  0.028484  0.268387  1
  F  F34  1  0.581121  0.031139  0.766442  1
  F  F35  1  0.082372  0.972367  0.731295  1
