# generated using pymatgen
data_NaMo2(AsO4)3
_symmetry_space_group_name_H-M   'P 1'
_cell_length_a   9.15154136
_cell_length_b   9.15166747
_cell_length_c   9.34304338
_cell_angle_alpha   60.52498506
_cell_angle_beta   60.52452434
_cell_angle_gamma   60.35341090
_symmetry_Int_Tables_number   1
_chemical_formula_structural   NaMo2(AsO4)3
_chemical_formula_sum   'Na2 Mo4 As6 O24'
_cell_volume   559.15480463
_cell_formula_units_Z   2
loop_
 _symmetry_equiv_pos_site_id
 _symmetry_equiv_pos_as_xyz
  1  'x, y, z'
loop_
 _atom_site_type_symbol
 _atom_site_label
 _atom_site_symmetry_multiplicity
 _atom_site_fract_x
 _atom_site_fract_y
 _atom_site_fract_z
 _atom_site_occupancy
  Na  Na0  1  0.001313  0.498808  0.996760  1
  Na  Na1  1  0.498761  0.001328  0.496759  1
  Mo  Mo2  1  0.355145  0.856155  0.925061  1
  Mo  Mo3  1  0.142040  0.642370  0.568379  1
  Mo  Mo4  1  0.856146  0.355157  0.425059  1
  Mo  Mo5  1  0.642389  0.142016  0.068378  1
  As  As6  1  0.746687  0.541051  0.744991  1
  As  As7  1  0.035645  0.959888  0.747940  1
  As  As8  1  0.461530  0.249589  0.746932  1
  As  As9  1  0.541051  0.746690  0.245007  1
  As  As10  1  0.959906  0.035660  0.247910  1
  As  As11  1  0.249595  0.461532  0.246938  1
  O  O12  1  0.128172  0.001805  0.060031  1
  O  O13  1  0.976216  0.859679  0.434050  1
  O  O14  1  0.209287  0.488494  0.434098  1
  O  O15  1  0.064629  0.761765  0.741359  1
  O  O16  1  0.570134  0.736438  0.748977  1
  O  O17  1  0.001721  0.128171  0.560105  1
  O  O18  1  0.267241  0.423521  0.748570  1
  O  O19  1  0.698089  0.370903  0.932890  1
  O  O20  1  0.437848  0.071589  0.753008  1
  O  O21  1  0.516573  0.776670  0.062586  1
  O  O22  1  0.761774  0.064614  0.241361  1
  O  O23  1  0.071612  0.437794  0.253048  1
  O  O24  1  0.370966  0.697984  0.432953  1
  O  O25  1  0.636351  0.281875  0.556433  1
  O  O26  1  0.927081  0.554332  0.745434  1
  O  O27  1  0.230453  0.948080  0.741481  1
  O  O28  1  0.488546  0.209234  0.934082  1
  O  O29  1  0.281795  0.636393  0.056481  1
  O  O30  1  0.554264  0.927110  0.245473  1
  O  O31  1  0.736475  0.570175  0.248926  1
  O  O32  1  0.423556  0.267278  0.248515  1
  O  O33  1  0.948061  0.230469  0.241482  1
  O  O34  1  0.776650  0.516632  0.562542  1
  O  O35  1  0.859681  0.976132  0.934112  1
