# generated using pymatgen
data_La10Tc2IrOs
_symmetry_space_group_name_H-M   'P 1'
_cell_length_a   9.09043992
_cell_length_b   9.06484889
_cell_length_c   7.44722473
_cell_angle_alpha   84.76537384
_cell_angle_beta   84.75084641
_cell_angle_gamma   43.79128986
_symmetry_Int_Tables_number   1
_chemical_formula_structural   La10Tc2IrOs
_chemical_formula_sum   'La10 Tc2 Ir1 Os1'
_cell_volume   422.62138207
_cell_formula_units_Z   1
loop_
 _symmetry_equiv_pos_site_id
 _symmetry_equiv_pos_as_xyz
  1  'x, y, z'
loop_
 _atom_site_type_symbol
 _atom_site_label
 _atom_site_symmetry_multiplicity
 _atom_site_fract_x
 _atom_site_fract_y
 _atom_site_fract_z
 _atom_site_occupancy
  La  La0  1  0.020180  0.798655  0.906695  1
  La  La1  1  0.206510  0.980396  0.597314  1
  La  La2  1  0.981591  0.207552  0.098646  1
  La  La3  1  0.804129  0.014497  0.410456  1
  La  La4  1  0.358714  0.209399  0.816105  1
  La  La5  1  0.789389  0.641754  0.680340  1
  La  La6  1  0.639025  0.787056  0.179070  1
  La  La7  1  0.204685  0.364680  0.319934  1
  La  La8  1  0.577869  0.423550  0.748505  1
  La  La9  1  0.422916  0.576329  0.249787  1
  Tc  Tc10  1  0.388774  0.832068  0.922678  1
  Tc  Tc11  1  0.832479  0.386019  0.416501  1
  Ir  Ir12  1  0.596496  0.176586  0.076931  1
  Os  Os13  1  0.177243  0.601459  0.577037  1
