# generated using pymatgen
data_La16Tc3Hg4Os
_symmetry_space_group_name_H-M   'P 1'
_cell_length_a   10.04220179
_cell_length_b   10.04220389
_cell_length_c   10.04031912
_cell_angle_alpha   60.36084345
_cell_angle_beta   60.36083371
_cell_angle_gamma   60.38164578
_symmetry_Int_Tables_number   1
_chemical_formula_structural   La16Tc3Hg4Os
_chemical_formula_sum   'La16 Tc3 Hg4 Os1'
_cell_volume   721.91875897
_cell_formula_units_Z   1
loop_
 _symmetry_equiv_pos_site_id
 _symmetry_equiv_pos_as_xyz
  1  'x, y, z'
loop_
 _atom_site_type_symbol
 _atom_site_label
 _atom_site_symmetry_multiplicity
 _atom_site_fract_x
 _atom_site_fract_y
 _atom_site_fract_z
 _atom_site_occupancy
  La  La0  1  0.347544  0.347544  0.347569  1
  La  La1  1  0.345860  0.345860  0.961321  1
  La  La2  1  0.345833  0.961412  0.345866  1
  La  La3  1  0.961412  0.345833  0.345866  1
  La  La4  1  0.807599  0.189119  0.189111  1
  La  La5  1  0.186776  0.811112  0.811151  1
  La  La6  1  0.189119  0.807599  0.189111  1
  La  La7  1  0.811112  0.186776  0.811151  1
  La  La8  1  0.189097  0.189097  0.807607  1
  La  La9  1  0.811121  0.811121  0.186853  1
  La  La10  1  0.938917  0.558352  0.558295  1
  La  La11  1  0.552393  0.945135  0.945181  1
  La  La12  1  0.558352  0.938917  0.558295  1
  La  La13  1  0.945135  0.552393  0.945181  1
  La  La14  1  0.558358  0.558358  0.938862  1
  La  La15  1  0.945121  0.945121  0.552426  1
  Tc  Tc16  1  0.134150  0.134150  0.600256  1
  Tc  Tc17  1  0.134200  0.600223  0.134106  1
  Tc  Tc18  1  0.600223  0.134200  0.134106  1
  Hg  Hg19  1  0.581592  0.581592  0.581601  1
  Hg  Hg20  1  0.582113  0.582113  0.254326  1
  Hg  Hg21  1  0.582108  0.254321  0.582111  1
  Hg  Hg22  1  0.254321  0.582108  0.582111  1
  Os  Os23  1  0.137546  0.137546  0.137538  1
