# generated using pymatgen
data_Li3Pr4HfPt4
_symmetry_space_group_name_H-M   'P 1'
_cell_length_a   4.19095700
_cell_length_b   7.28989108
_cell_length_c   8.87656931
_cell_angle_alpha   92.15795432
_cell_angle_beta   90.00000000
_cell_angle_gamma   90.00000000
_symmetry_Int_Tables_number   1
_chemical_formula_structural   Li3Pr4HfPt4
_chemical_formula_sum   'Li3 Pr4 Hf1 Pt4'
_cell_volume   271.00124701
_cell_formula_units_Z   1
loop_
 _symmetry_equiv_pos_site_id
 _symmetry_equiv_pos_as_xyz
  1  'x, y, z'
loop_
 _atom_site_type_symbol
 _atom_site_label
 _atom_site_symmetry_multiplicity
 _atom_site_fract_x
 _atom_site_fract_y
 _atom_site_fract_z
 _atom_site_occupancy
  Li  Li0  1  0.250000  0.130833  0.058739  1
  Li  Li1  1  0.250000  0.638823  0.432468  1
  Li  Li2  1  0.750000  0.876372  0.946008  1
  Pr  Pr3  1  0.250000  0.021678  0.694824  1
  Pr  Pr4  1  0.250000  0.546390  0.830185  1
  Pr  Pr5  1  0.750000  0.961855  0.309643  1
  Pr  Pr6  1  0.750000  0.463382  0.175830  1
  Hf  Hf7  1  0.750000  0.371577  0.557629  1
  Pt  Pt8  1  0.250000  0.249583  0.402671  1
  Pt  Pt9  1  0.250000  0.755053  0.120028  1
  Pt  Pt10  1  0.750000  0.730811  0.612663  1
  Pt  Pt11  1  0.750000  0.253644  0.859314  1
