# generated using pymatgen
data_Er3In4AgRu
_symmetry_space_group_name_H-M   'P 1'
_cell_length_a   8.09470400
_cell_length_b   8.09470411
_cell_length_c   3.67079000
_cell_angle_alpha   90.00000000
_cell_angle_beta   90.00000000
_cell_angle_gamma   119.99999847
_symmetry_Int_Tables_number   1
_chemical_formula_structural   Er3In4AgRu
_chemical_formula_sum   'Er3 In4 Ag1 Ru1'
_cell_volume   208.30137127
_cell_formula_units_Z   1
loop_
 _symmetry_equiv_pos_site_id
 _symmetry_equiv_pos_as_xyz
  1  'x, y, z'
loop_
 _atom_site_type_symbol
 _atom_site_label
 _atom_site_symmetry_multiplicity
 _atom_site_fract_x
 _atom_site_fract_y
 _atom_site_fract_z
 _atom_site_occupancy
  Er  Er0  1  0.708591  0.955654  0.500000  1
  Er  Er1  1  0.247063  0.291409  0.500000  1
  Er  Er2  1  0.044346  0.752937  0.500000  1
  In  In3  1  0.938901  0.332983  0.000000  1
  In  In4  1  0.394083  0.061099  0.000000  1
  In  In5  1  0.667017  0.605917  0.000000  1
  In  In6  1  0.333333  0.666667  0.000000  1
  Ag  Ag7  1  0.666667  0.333333  0.500000  1
  Ru  Ru8  1  0.000000  0.000000  0.000000  1
