# generated using pymatgen
data_YHo2Lu3FeSb2
_symmetry_space_group_name_H-M   'P 1'
_cell_length_a   8.09742000
_cell_length_b   8.08178599
_cell_length_c   4.13079700
_cell_angle_alpha   90.00000000
_cell_angle_beta   90.00000000
_cell_angle_gamma   120.06401257
_symmetry_Int_Tables_number   1
_chemical_formula_structural   YHo2Lu3FeSb2
_chemical_formula_sum   'Y1 Ho2 Lu3 Fe1 Sb2'
_cell_volume   233.95805415
_cell_formula_units_Z   1
loop_
 _symmetry_equiv_pos_site_id
 _symmetry_equiv_pos_as_xyz
  1  'x, y, z'
loop_
 _atom_site_type_symbol
 _atom_site_label
 _atom_site_symmetry_multiplicity
 _atom_site_fract_x
 _atom_site_fract_y
 _atom_site_fract_z
 _atom_site_occupancy
  Y  Y0  1  0.604113  0.000000  0.500000  1
  Ho  Ho1  1  0.000031  0.604352  0.500000  1
  Ho  Ho2  1  0.395678  0.395648  0.500000  1
  Lu  Lu3  1  0.231908  0.000000  0.000000  1
  Lu  Lu4  1  0.767975  0.767762  0.000000  1
  Lu  Lu5  1  0.000213  0.232238  0.000000  1
  Fe  Fe6  1  0.000398  0.000000  0.500000  1
  Sb  Sb7  1  0.333183  0.666682  0.000000  1
  Sb  Sb8  1  0.666502  0.333318  0.000000  1
