# generated using pymatgen
data_Eu2HoCu6Ni7B2
_symmetry_space_group_name_H-M   'P 1'
_cell_length_a   5.12441300
_cell_length_b   5.12421703
_cell_length_c   11.20079400
_cell_angle_alpha   90.00000000
_cell_angle_beta   90.00000000
_cell_angle_gamma   119.99872806
_symmetry_Int_Tables_number   1
_chemical_formula_structural   Eu2HoCu6Ni7B2
_chemical_formula_sum   'Eu2 Ho1 Cu6 Ni7 B2'
_cell_volume   254.71624728
_cell_formula_units_Z   1
loop_
 _symmetry_equiv_pos_site_id
 _symmetry_equiv_pos_as_xyz
  1  'x, y, z'
loop_
 _atom_site_type_symbol
 _atom_site_label
 _atom_site_symmetry_multiplicity
 _atom_site_fract_x
 _atom_site_fract_y
 _atom_site_fract_z
 _atom_site_occupancy
  Eu  Eu0  1  0.000000  0.000000  0.678152  1
  Eu  Eu1  1  0.000000  0.000000  0.321848  1
  Ho  Ho2  1  0.000000  0.000000  0.000000  1
  Cu  Cu3  1  0.500000  0.500000  0.500000  1
  Cu  Cu4  1  0.500000  0.000000  0.500000  1
  Cu  Cu5  1  0.669553  0.334776  0.684638  1
  Cu  Cu6  1  0.330447  0.665224  0.684638  1
  Cu  Cu7  1  0.330447  0.665224  0.315362  1
  Cu  Cu8  1  0.669553  0.334776  0.315362  1
  Ni  Ni9  1  0.000000  0.500000  0.500000  1
  Ni  Ni10  1  0.500000  0.500000  0.870085  1
  Ni  Ni11  1  0.500000  0.000000  0.870085  1
  Ni  Ni12  1  0.000000  0.500000  0.870114  1
  Ni  Ni13  1  0.500000  0.500000  0.129915  1
  Ni  Ni14  1  0.500000  0.000000  0.129915  1
  Ni  Ni15  1  0.000000  0.500000  0.129886  1
  B  B16  1  0.666638  0.333319  0.000000  1
  B  B17  1  0.333362  0.666681  0.000000  1
