# generated using pymatgen
data_VOsO4
_symmetry_space_group_name_H-M   'P 1'
_cell_length_a   5.54674339
_cell_length_b   5.54674312
_cell_length_c   4.74380697
_cell_angle_alpha   88.48142463
_cell_angle_beta   88.48142596
_cell_angle_gamma   62.98450597
_symmetry_Int_Tables_number   1
_chemical_formula_structural   VOsO4
_chemical_formula_sum   'V2 Os2 O8'
_cell_volume   129.96138203
_cell_formula_units_Z   2
loop_
 _symmetry_equiv_pos_site_id
 _symmetry_equiv_pos_as_xyz
  1  'x, y, z'
loop_
 _atom_site_type_symbol
 _atom_site_label
 _atom_site_symmetry_multiplicity
 _atom_site_fract_x
 _atom_site_fract_y
 _atom_site_fract_z
 _atom_site_occupancy
  V  V0  1  0.764542  0.764542  0.512370  1
  V  V1  1  0.235458  0.235458  0.487630  1
  Os  Os2  1  0.276480  0.723520  0.000000  1
  Os  Os3  1  0.723520  0.276480  0.000000  1
  O  O4  1  0.910241  0.910241  0.815966  1
  O  O5  1  0.113232  0.592527  0.300770  1
  O  O6  1  0.592527  0.113232  0.300770  1
  O  O7  1  0.614151  0.614151  0.212215  1
  O  O8  1  0.385849  0.385849  0.787785  1
  O  O9  1  0.407473  0.886768  0.699230  1
  O  O10  1  0.886768  0.407473  0.699230  1
  O  O11  1  0.089759  0.089759  0.184034  1
