# generated using pymatgen
data_Tb3Yb2Y(Si3Ru)8
_symmetry_space_group_name_H-M   'P 1'
_cell_length_a   10.14880939
_cell_length_b   10.14880893
_cell_length_c   8.15233000
_cell_angle_alpha   90.00126726
_cell_angle_beta   90.00127494
_cell_angle_gamma   132.64029093
_symmetry_Int_Tables_number   1
_chemical_formula_structural   Tb3Yb2Y(Si3Ru)8
_chemical_formula_sum   'Tb3 Yb2 Y1 Si24 Ru8'
_cell_volume   617.68349100
_cell_formula_units_Z   1
loop_
 _symmetry_equiv_pos_site_id
 _symmetry_equiv_pos_as_xyz
  1  'x, y, z'
loop_
 _atom_site_type_symbol
 _atom_site_label
 _atom_site_symmetry_multiplicity
 _atom_site_fract_x
 _atom_site_fract_y
 _atom_site_fract_z
 _atom_site_occupancy
  Tb  Tb0  1  0.000068  0.999932  0.000000  1
  Tb  Tb1  1  0.497294  0.997309  0.250031  1
  Tb  Tb2  1  0.002691  0.502706  0.749969  1
  Yb  Yb3  1  0.501480  0.001447  0.749950  1
  Yb  Yb4  1  0.998553  0.498520  0.250050  1
  Y  Y5  1  0.499946  0.500054  0.500000  1
  Si  Si6  1  0.794468  0.205532  0.500000  1
  Si  Si7  1  0.294101  0.705899  0.000000  1
  Si  Si8  1  0.205834  0.794166  0.500000  1
  Si  Si9  1  0.705600  0.294400  0.000000  1
  Si  Si10  1  0.330515  0.336222  0.833006  1
  Si  Si11  1  0.663778  0.669485  0.166994  1
  Si  Si12  1  0.169624  0.163957  0.333143  1
  Si  Si13  1  0.836043  0.830376  0.666857  1
  Si  Si14  1  0.122791  0.888499  0.727775  1
  Si  Si15  1  0.111501  0.877209  0.272225  1
  Si  Si16  1  0.610739  0.376653  0.227757  1
  Si  Si17  1  0.623347  0.389261  0.772243  1
  Si  Si18  1  0.876798  0.110880  0.272294  1
  Si  Si19  1  0.889120  0.123202  0.727706  1
  Si  Si20  1  0.388692  0.623001  0.772172  1
  Si  Si21  1  0.376999  0.611308  0.227828  1
  Si  Si22  1  0.344742  0.110884  0.504676  1
  Si  Si23  1  0.889116  0.655258  0.495324  1
  Si  Si24  1  0.389134  0.155461  0.005150  1
  Si  Si25  1  0.844539  0.610866  0.994850  1
  Si  Si26  1  0.655314  0.888866  0.494600  1
  Si  Si27  1  0.111134  0.344686  0.505400  1
  Si  Si28  1  0.610640  0.844603  0.995662  1
  Si  Si29  1  0.155397  0.389360  0.004338  1
  Ru  Ru30  1  0.669589  0.330411  0.500000  1
  Ru  Ru31  1  0.168958  0.831042  0.000000  1
  Ru  Ru32  1  0.331082  0.668918  0.500000  1
  Ru  Ru33  1  0.830358  0.169642  0.000000  1
  Ru  Ru34  1  0.125720  0.127087  0.626123  1
  Ru  Ru35  1  0.872913  0.874280  0.373877  1
  Ru  Ru36  1  0.374414  0.373031  0.126210  1
  Ru  Ru37  1  0.626969  0.625586  0.873790  1
