# generated using pymatgen
data_Te16Pt
_symmetry_space_group_name_H-M   'P 1'
_cell_length_a   7.68686024
_cell_length_b   7.68685939
_cell_length_c   14.02548555
_cell_angle_alpha   54.51737624
_cell_angle_beta   54.51737900
_cell_angle_gamma   66.11175088
_symmetry_Int_Tables_number   1
_chemical_formula_structural   Te16Pt
_chemical_formula_sum   'Te16 Pt1'
_cell_volume   546.61077597
_cell_formula_units_Z   1
loop_
 _symmetry_equiv_pos_site_id
 _symmetry_equiv_pos_as_xyz
  1  'x, y, z'
loop_
 _atom_site_type_symbol
 _atom_site_label
 _atom_site_symmetry_multiplicity
 _atom_site_fract_x
 _atom_site_fract_y
 _atom_site_fract_z
 _atom_site_occupancy
  Te  Te0  1  0.839455  0.839455  0.887822  1
  Te  Te1  1  0.340364  0.340364  0.874824  1
  Te  Te2  1  0.662647  0.172647  0.119715  1
  Te  Te3  1  0.172647  0.662647  0.119715  1
  Te  Te4  1  0.036994  0.036994  0.322275  1
  Te  Te5  1  0.434824  0.434824  0.410963  1
  Te  Te6  1  0.532906  0.009289  0.639528  1
  Te  Te7  1  0.009289  0.532906  0.639528  1
  Te  Te8  1  0.211496  0.211496  0.411810  1
  Te  Te9  1  0.747125  0.747125  0.325866  1
  Te  Te10  1  0.307374  0.757448  0.634661  1
  Te  Te11  1  0.757448  0.307374  0.634661  1
  Te  Te12  1  0.083075  0.083075  0.883760  1
  Te  Te13  1  0.591200  0.591200  0.884565  1
  Te  Te14  1  0.422266  0.906773  0.117954  1
  Te  Te15  1  0.906773  0.422266  0.117954  1
  Pt  Pt16  1  0.755413  0.755413  0.508800  1
