# generated using pymatgen
data_Sc4Be2Pt7
_symmetry_space_group_name_H-M   'P 1'
_cell_length_a   3.90801000
_cell_length_b   6.51723800
_cell_length_c   16.10099800
_cell_angle_alpha   90.00000000
_cell_angle_beta   90.00000000
_cell_angle_gamma   90.00000000
_symmetry_Int_Tables_number   1
_chemical_formula_structural   Sc4Be2Pt7
_chemical_formula_sum   'Sc8 Be4 Pt14'
_cell_volume   410.08326204
_cell_formula_units_Z   2
loop_
 _symmetry_equiv_pos_site_id
 _symmetry_equiv_pos_as_xyz
  1  'x, y, z'
loop_
 _atom_site_type_symbol
 _atom_site_label
 _atom_site_symmetry_multiplicity
 _atom_site_fract_x
 _atom_site_fract_y
 _atom_site_fract_z
 _atom_site_occupancy
  Sc  Sc0  1  0.000000  0.284431  0.458918  1
  Sc  Sc1  1  0.000000  0.715569  0.541082  1
  Sc  Sc2  1  0.000000  0.784431  0.041082  1
  Sc  Sc3  1  0.000000  0.215569  0.958918  1
  Sc  Sc4  1  0.000000  0.532665  0.287156  1
  Sc  Sc5  1  0.000000  0.467335  0.712844  1
  Sc  Sc6  1  0.000000  0.032665  0.212844  1
  Sc  Sc7  1  0.000000  0.967335  0.787156  1
  Be  Be8  1  0.500000  0.843113  0.305086  1
  Be  Be9  1  0.500000  0.156887  0.694914  1
  Be  Be10  1  0.500000  0.343113  0.194914  1
  Be  Be11  1  0.500000  0.656887  0.805086  1
  Pt  Pt12  1  0.000000  0.901342  0.377694  1
  Pt  Pt13  1  0.000000  0.098658  0.622306  1
  Pt  Pt14  1  0.000000  0.401342  0.122306  1
  Pt  Pt15  1  0.000000  0.598658  0.877694  1
  Pt  Pt16  1  0.500000  0.602081  0.420188  1
  Pt  Pt17  1  0.500000  0.397919  0.579812  1
  Pt  Pt18  1  0.500000  0.102081  0.079812  1
  Pt  Pt19  1  0.500000  0.897919  0.920188  1
  Pt  Pt20  1  0.500000  0.500000  0.000000  1
  Pt  Pt21  1  0.500000  0.000000  0.500000  1
  Pt  Pt22  1  0.500000  0.210069  0.331996  1
  Pt  Pt23  1  0.500000  0.789931  0.668004  1
  Pt  Pt24  1  0.500000  0.710069  0.168004  1
  Pt  Pt25  1  0.500000  0.289931  0.831996  1
