# generated using pymatgen
data_Nd20Ir2(PtRh)5
_symmetry_space_group_name_H-M   'P 1'
_cell_length_a   11.34558147
_cell_length_b   11.34757421
_cell_length_c   6.57641326
_cell_angle_alpha   90.06431526
_cell_angle_beta   90.00980885
_cell_angle_gamma   90.03147706
_symmetry_Int_Tables_number   1
_chemical_formula_structural   Nd20Ir2(PtRh)5
_chemical_formula_sum   'Nd20 Ir2 Pt5 Rh5'
_cell_volume   846.67851865
_cell_formula_units_Z   1
loop_
 _symmetry_equiv_pos_site_id
 _symmetry_equiv_pos_as_xyz
  1  'x, y, z'
loop_
 _atom_site_type_symbol
 _atom_site_label
 _atom_site_symmetry_multiplicity
 _atom_site_fract_x
 _atom_site_fract_y
 _atom_site_fract_z
 _atom_site_occupancy
  Nd  Nd0  1  0.090436  0.291724  0.116144  1
  Nd  Nd1  1  0.791557  0.409168  0.116162  1
  Nd  Nd2  1  0.205969  0.589467  0.121105  1
  Nd  Nd3  1  0.908335  0.708618  0.115819  1
  Nd  Nd4  1  0.410813  0.793544  0.379172  1
  Nd  Nd5  1  0.591137  0.207944  0.383678  1
  Nd  Nd6  1  0.292217  0.091267  0.383441  1
  Nd  Nd7  1  0.709119  0.909225  0.384497  1
  Nd  Nd8  1  0.411272  0.207329  0.878319  1
  Nd  Nd9  1  0.706315  0.090753  0.879320  1
  Nd  Nd10  1  0.294342  0.911369  0.879218  1
  Nd  Nd11  1  0.594052  0.795312  0.879269  1
  Nd  Nd12  1  0.086601  0.706683  0.620842  1
  Nd  Nd13  1  0.907080  0.294616  0.620657  1
  Nd  Nd14  1  0.205112  0.407970  0.620804  1
  Nd  Nd15  1  0.793103  0.590686  0.621516  1
  Nd  Nd16  1  0.999636  0.999566  0.998456  1
  Nd  Nd17  1  0.501535  0.498977  0.998900  1
  Nd  Nd18  1  0.501271  0.498123  0.501096  1
  Nd  Nd19  1  0.000233  0.000367  0.501559  1
  Ir  Ir20  1  0.846862  0.845917  0.749549  1
  Ir  Ir21  1  0.653753  0.345828  0.750188  1
  Pt  Pt22  1  0.155500  0.844805  0.249711  1
  Pt  Pt23  1  0.344920  0.345395  0.250037  1
  Pt  Pt24  1  0.654157  0.654644  0.250015  1
  Pt  Pt25  1  0.845256  0.154997  0.250252  1
  Pt  Pt26  1  0.345353  0.654336  0.749850  1
  Rh  Rh27  1  0.153901  0.153227  0.750328  1
  Rh  Rh28  1  0.000825  0.500074  0.377726  1
  Rh  Rh29  1  0.499066  0.999676  0.122342  1
  Rh  Rh30  1  0.498659  0.999080  0.619225  1
  Rh  Rh31  1  0.001612  0.499314  0.880804  1
