# generated using pymatgen
data_Dy7Ho(CoAg)2
_symmetry_space_group_name_H-M   'P 1'
_cell_length_a   9.39589363
_cell_length_b   9.39589357
_cell_length_c   9.39436500
_cell_angle_alpha   60.00538496
_cell_angle_beta   60.00538517
_cell_angle_gamma   59.98923681
_symmetry_Int_Tables_number   1
_chemical_formula_structural   Dy7Ho(CoAg)2
_chemical_formula_sum   'Dy14 Ho2 Co4 Ag4'
_cell_volume   586.44678859
_cell_formula_units_Z   2
loop_
 _symmetry_equiv_pos_site_id
 _symmetry_equiv_pos_as_xyz
  1  'x, y, z'
loop_
 _atom_site_type_symbol
 _atom_site_label
 _atom_site_symmetry_multiplicity
 _atom_site_fract_x
 _atom_site_fract_y
 _atom_site_fract_z
 _atom_site_occupancy
  Dy  Dy0  1  0.347988  0.347988  0.347843  1
  Dy  Dy1  1  0.347988  0.347988  0.956182  1
  Dy  Dy2  1  0.347843  0.956182  0.347988  1
  Dy  Dy3  1  0.956182  0.347843  0.347988  1
  Dy  Dy4  1  0.811215  0.188785  0.188785  1
  Dy  Dy5  1  0.188785  0.811215  0.811215  1
  Dy  Dy6  1  0.188785  0.811215  0.188785  1
  Dy  Dy7  1  0.811215  0.188785  0.811215  1
  Dy  Dy8  1  0.188713  0.188713  0.811287  1
  Dy  Dy9  1  0.811287  0.811287  0.188713  1
  Dy  Dy10  1  0.937156  0.562844  0.562844  1
  Dy  Dy11  1  0.562844  0.937156  0.937156  1
  Dy  Dy12  1  0.562844  0.937156  0.562844  1
  Dy  Dy13  1  0.937156  0.562844  0.937156  1
  Ho  Ho14  1  0.562738  0.562738  0.937262  1
  Ho  Ho15  1  0.937262  0.937262  0.562738  1
  Co  Co16  1  0.141074  0.141074  0.141202  1
  Co  Co17  1  0.141074  0.141074  0.576650  1
  Co  Co18  1  0.141202  0.576650  0.141074  1
  Co  Co19  1  0.576650  0.141202  0.141074  1
  Ag  Ag20  1  0.580911  0.580911  0.581026  1
  Ag  Ag21  1  0.580911  0.580911  0.257151  1
  Ag  Ag22  1  0.581026  0.257151  0.580911  1
  Ag  Ag23  1  0.257151  0.581026  0.580911  1
