# generated using pymatgen
data_DyTm2ThSb10
_symmetry_space_group_name_H-M   'P 1'
_cell_length_a   4.24291100
_cell_length_b   13.22995453
_cell_length_c   14.61706288
_cell_angle_alpha   78.23558334
_cell_angle_beta   90.00000000
_cell_angle_gamma   90.00000000
_symmetry_Int_Tables_number   1
_chemical_formula_structural   DyTm2ThSb10
_chemical_formula_sum   'Dy2 Tm4 Th2 Sb20'
_cell_volume   803.27177663
_cell_formula_units_Z   2
loop_
 _symmetry_equiv_pos_site_id
 _symmetry_equiv_pos_as_xyz
  1  'x, y, z'
loop_
 _atom_site_type_symbol
 _atom_site_label
 _atom_site_symmetry_multiplicity
 _atom_site_fract_x
 _atom_site_fract_y
 _atom_site_fract_z
 _atom_site_occupancy
  Dy  Dy0  1  0.250000  0.950814  0.355394  1
  Dy  Dy1  1  0.750000  0.049186  0.644606  1
  Tm  Tm2  1  0.250000  0.391186  0.774567  1
  Tm  Tm3  1  0.750000  0.608814  0.225433  1
  Tm  Tm4  1  0.250000  0.662062  0.858485  1
  Tm  Tm5  1  0.750000  0.337938  0.141515  1
  Th  Th6  1  0.250000  0.672863  0.573141  1
  Th  Th7  1  0.750000  0.327137  0.426859  1
  Sb  Sb8  1  0.250000  0.143879  0.778574  1
  Sb  Sb9  1  0.750000  0.856121  0.221426  1
  Sb  Sb10  1  0.250000  0.136905  0.483488  1
  Sb  Sb11  1  0.750000  0.863095  0.516512  1
  Sb  Sb12  1  0.250000  0.152174  0.163938  1
  Sb  Sb13  1  0.750000  0.847826  0.836062  1
  Sb  Sb14  1  0.250000  0.420506  0.977730  1
  Sb  Sb15  1  0.750000  0.579494  0.022270  1
  Sb  Sb16  1  0.750000  0.033178  0.911897  1
  Sb  Sb17  1  0.250000  0.966822  0.088103  1
  Sb  Sb18  1  0.750000  0.137152  0.312042  1
  Sb  Sb19  1  0.250000  0.862848  0.687958  1
  Sb  Sb20  1  0.750000  0.278764  0.938282  1
  Sb  Sb21  1  0.250000  0.721236  0.061718  1
  Sb  Sb22  1  0.750000  0.286009  0.659237  1
  Sb  Sb23  1  0.250000  0.713991  0.340763  1
  Sb  Sb24  1  0.750000  0.575068  0.737315  1
  Sb  Sb25  1  0.250000  0.424932  0.262685  1
  Sb  Sb26  1  0.750000  0.571558  0.444460  1
  Sb  Sb27  1  0.250000  0.428442  0.555540  1
