# generated using pymatgen
data_Dy2Tm8InPb5
_symmetry_space_group_name_H-M   'P 1'
_cell_length_a   6.58474000
_cell_length_b   8.94227879
_cell_length_c   8.96332622
_cell_angle_alpha   120.04875437
_cell_angle_beta   89.99964177
_cell_angle_gamma   89.99976737
_symmetry_Int_Tables_number   1
_chemical_formula_structural   Dy2Tm8InPb5
_chemical_formula_sum   'Dy2 Tm8 In1 Pb5'
_cell_volume   456.84944448
_cell_formula_units_Z   1
loop_
 _symmetry_equiv_pos_site_id
 _symmetry_equiv_pos_as_xyz
  1  'x, y, z'
loop_
 _atom_site_type_symbol
 _atom_site_label
 _atom_site_symmetry_multiplicity
 _atom_site_fract_x
 _atom_site_fract_y
 _atom_site_fract_z
 _atom_site_occupancy
  Dy  Dy0  1  0.250003  0.764152  0.998256  1
  Dy  Dy1  1  0.250005  0.235756  0.235640  1
  Tm  Tm2  1  0.502158  0.336706  0.670451  1
  Tm  Tm3  1  0.502415  0.666326  0.329822  1
  Tm  Tm4  1  0.997578  0.666334  0.329811  1
  Tm  Tm5  1  0.997842  0.336715  0.670459  1
  Tm  Tm6  1  0.750010  0.236287  0.000491  1
  Tm  Tm7  1  0.750003  0.764151  0.768633  1
  Tm  Tm8  1  0.750007  0.995604  0.232979  1
  Tm  Tm9  1  0.250001  0.999319  0.763954  1
  In  In10  1  0.749975  0.601411  0.999075  1
  Pb  Pb11  1  0.749994  0.394548  0.395069  1
  Pb  Pb12  1  0.749986  0.999292  0.605052  1
  Pb  Pb13  1  0.250021  0.396991  0.999577  1
  Pb  Pb14  1  0.249990  0.604676  0.601391  1
  Pb  Pb15  1  0.250013  0.001734  0.399343  1
