# generated using pymatgen
data_Tb10Er2Fe2I17
_symmetry_space_group_name_H-M   'P 1'
_cell_length_a   9.74922883
_cell_length_b   11.69622968
_cell_length_c   11.72151232
_cell_angle_alpha   93.50074551
_cell_angle_beta   104.79513028
_cell_angle_gamma   114.02313756
_symmetry_Int_Tables_number   1
_chemical_formula_structural   Tb10Er2Fe2I17
_chemical_formula_sum   'Tb10 Er2 Fe2 I17'
_cell_volume   1159.55298280
_cell_formula_units_Z   1
loop_
 _symmetry_equiv_pos_site_id
 _symmetry_equiv_pos_as_xyz
  1  'x, y, z'
loop_
 _atom_site_type_symbol
 _atom_site_label
 _atom_site_symmetry_multiplicity
 _atom_site_fract_x
 _atom_site_fract_y
 _atom_site_fract_z
 _atom_site_occupancy
  Tb  Tb0  1  0.052104  0.504145  0.319434  1
  Tb  Tb1  1  0.991488  0.807837  0.589779  1
  Tb  Tb2  1  0.656703  0.241997  0.279398  1
  Tb  Tb3  1  0.009562  0.190906  0.413541  1
  Tb  Tb4  1  0.218113  0.671870  0.982064  1
  Tb  Tb5  1  0.253118  0.977288  0.888740  1
  Tb  Tb6  1  0.347638  0.758526  0.718651  1
  Tb  Tb7  1  0.948567  0.498532  0.681001  1
  Tb  Tb8  1  0.744485  0.020742  0.110048  1
  Tb  Tb9  1  0.138351  0.285989  0.152554  1
  Er  Er10  1  0.781484  0.328271  0.017961  1
  Er  Er11  1  0.859390  0.713556  0.846133  1
  Fe  Fe12  1  0.103975  0.738183  0.785934  1
  Fe  Fe13  1  0.895659  0.262065  0.213703  1
  I  I14  1  0.784529  0.528531  0.417437  1
  I  I15  1  0.646867  0.420570  0.765513  1
  I  I16  1  0.844405  0.896438  0.327397  1
  I  I17  1  0.327079  0.213991  0.367943  1
  I  I18  1  0.155499  0.103707  0.672481  1
  I  I19  1  0.585816  0.054207  0.843182  1
  I  I20  1  0.759511  0.189965  0.538426  1
  I  I21  1  0.552694  0.711837  0.954441  1
  I  I22  1  0.353578  0.579615  0.236668  1
  I  I23  1  0.215698  0.470932  0.582065  1
  I  I24  1  0.055021  0.367445  0.897352  1
  I  I25  1  0.449394  0.288314  0.045198  1
  I  I26  1  0.999650  0.999992  0.000138  1
  I  I27  1  0.240228  0.810147  0.460800  1
  I  I28  1  0.415015  0.947320  0.157070  1
  I  I29  1  0.672482  0.785529  0.633248  1
  I  I30  1  0.941899  0.631552  0.101699  1
