# generated using pymatgen
data_Th14Pd17Au3
_symmetry_space_group_name_H-M   'P 1'
_cell_length_a   8.80587725
_cell_length_b   8.80587685
_cell_length_c   10.42094016
_cell_angle_alpha   89.93904578
_cell_angle_beta   89.93904518
_cell_angle_gamma   106.93914482
_symmetry_Int_Tables_number   1
_chemical_formula_structural   Th14Pd17Au3
_chemical_formula_sum   'Th14 Pd17 Au3'
_cell_volume   773.01606010
_cell_formula_units_Z   1
loop_
 _symmetry_equiv_pos_site_id
 _symmetry_equiv_pos_as_xyz
  1  'x, y, z'
loop_
 _atom_site_type_symbol
 _atom_site_label
 _atom_site_symmetry_multiplicity
 _atom_site_fract_x
 _atom_site_fract_y
 _atom_site_fract_z
 _atom_site_occupancy
  Th  Th0  1  0.694058  0.304971  0.000155  1
  Th  Th1  1  0.304971  0.694058  0.000155  1
  Th  Th2  1  0.808704  0.194069  0.498553  1
  Th  Th3  1  0.194069  0.808704  0.498553  1
  Th  Th4  1  0.001007  0.001007  0.999430  1
  Th  Th5  1  0.500597  0.500597  0.499573  1
  Th  Th6  1  0.998035  0.498958  0.250323  1
  Th  Th7  1  0.002209  0.501907  0.749461  1
  Th  Th8  1  0.501907  0.002209  0.749461  1
  Th  Th9  1  0.498958  0.998035  0.250323  1
  Th  Th10  1  0.309684  0.309684  0.196677  1
  Th  Th11  1  0.684341  0.684341  0.808339  1
  Th  Th12  1  0.184065  0.184065  0.688489  1
  Th  Th13  1  0.818431  0.818431  0.309352  1
  Pd  Pd14  1  0.857058  0.147261  0.209061  1
  Pd  Pd15  1  0.144978  0.852782  0.790795  1
  Pd  Pd16  1  0.645128  0.353142  0.708993  1
  Pd  Pd17  1  0.646841  0.354913  0.290565  1
  Pd  Pd18  1  0.354913  0.646841  0.290565  1
  Pd  Pd19  1  0.353142  0.645128  0.708993  1
  Pd  Pd20  1  0.852782  0.144978  0.790795  1
  Pd  Pd21  1  0.147261  0.857058  0.209061  1
  Pd  Pd22  1  0.937222  0.645153  0.002714  1
  Pd  Pd23  1  0.061999  0.355288  0.997528  1
  Pd  Pd24  1  0.562297  0.855084  0.503242  1
  Pd  Pd25  1  0.146045  0.436804  0.496035  1
  Pd  Pd26  1  0.436804  0.146045  0.496035  1
  Pd  Pd27  1  0.855084  0.562297  0.503242  1
  Pd  Pd28  1  0.355288  0.061999  0.997528  1
  Pd  Pd29  1  0.645153  0.937222  0.002714  1
  Pd  Pd30  1  0.101567  0.101567  0.398990  1
  Au  Au31  1  0.897372  0.897372  0.602412  1
  Au  Au32  1  0.395257  0.395257  0.897326  1
  Au  Au33  1  0.602772  0.602772  0.104564  1
