# generated using pymatgen
data_Tb4AlB4Ir9
_symmetry_space_group_name_H-M   'P 1'
_cell_length_a   10.81051597
_cell_length_b   10.81051558
_cell_length_c   10.81051608
_cell_angle_alpha   29.63844615
_cell_angle_beta   29.63845293
_cell_angle_gamma   29.63844600
_symmetry_Int_Tables_number   1
_chemical_formula_structural   Tb4AlB4Ir9
_chemical_formula_sum   'Tb4 Al1 B4 Ir9'
_cell_volume   273.53414328
_cell_formula_units_Z   1
loop_
 _symmetry_equiv_pos_site_id
 _symmetry_equiv_pos_as_xyz
  1  'x, y, z'
loop_
 _atom_site_type_symbol
 _atom_site_label
 _atom_site_symmetry_multiplicity
 _atom_site_fract_x
 _atom_site_fract_y
 _atom_site_fract_z
 _atom_site_occupancy
  Tb  Tb0  1  0.150416  0.150416  0.150416  1
  Tb  Tb1  1  0.949974  0.949974  0.949974  1
  Tb  Tb2  1  0.849584  0.849584  0.849584  1
  Tb  Tb3  1  0.050026  0.050026  0.050026  1
  Al  Al4  1  0.500000  0.500000  0.500000  1
  B  B5  1  0.615761  0.615761  0.615761  1
  B  B6  1  0.717665  0.717665  0.717665  1
  B  B7  1  0.384239  0.384239  0.384239  1
  B  B8  1  0.282335  0.282335  0.282335  1
  Ir  Ir9  1  0.401667  0.902145  0.401667  1
  Ir  Ir10  1  0.902145  0.401667  0.401667  1
  Ir  Ir11  1  0.500000  0.500000  0.000000  1
  Ir  Ir12  1  0.500000  0.000000  0.500000  1
  Ir  Ir13  1  0.000000  0.500000  0.500000  1
  Ir  Ir14  1  0.598333  0.097855  0.598333  1
  Ir  Ir15  1  0.598333  0.598333  0.097855  1
  Ir  Ir16  1  0.097855  0.598333  0.598333  1
  Ir  Ir17  1  0.401667  0.401667  0.902145  1
