# generated using pymatgen
data_Ca2YbBe2(PPd5)4
_symmetry_space_group_name_H-M   'P 1'
_cell_length_a   8.65008768
_cell_length_b   8.58949776
_cell_length_c   8.58949745
_cell_angle_alpha   60.46722937
_cell_angle_beta   59.76638538
_cell_angle_gamma   59.76638039
_symmetry_Int_Tables_number   1
_chemical_formula_structural   Ca2YbBe2(PPd5)4
_chemical_formula_sum   'Ca2 Yb1 Be2 P4 Pd20'
_cell_volume   451.22950944
_cell_formula_units_Z   1
loop_
 _symmetry_equiv_pos_site_id
 _symmetry_equiv_pos_as_xyz
  1  'x, y, z'
loop_
 _atom_site_type_symbol
 _atom_site_label
 _atom_site_symmetry_multiplicity
 _atom_site_fract_x
 _atom_site_fract_y
 _atom_site_fract_z
 _atom_site_occupancy
  Ca  Ca0  1  0.250000  0.250000  0.250000  1
  Ca  Ca1  1  0.750000  0.750000  0.750000  1
  Yb  Yb2  1  0.000000  0.000000  0.000000  1
  Be  Be3  1  0.728665  0.271335  0.271335  1
  Be  Be4  1  0.271335  0.728665  0.728665  1
  P  P5  1  0.266815  0.733185  0.266815  1
  P  P6  1  0.733185  0.266815  0.733185  1
  P  P7  1  0.266815  0.266815  0.733185  1
  P  P8  1  0.733185  0.733185  0.266815  1
  Pd  Pd9  1  0.387450  0.383863  0.383863  1
  Pd  Pd10  1  0.612550  0.616137  0.616137  1
  Pd  Pd11  1  0.383863  0.387450  0.844825  1
  Pd  Pd12  1  0.383863  0.844825  0.387450  1
  Pd  Pd13  1  0.616137  0.612550  0.155175  1
  Pd  Pd14  1  0.616137  0.155175  0.612550  1
  Pd  Pd15  1  0.844825  0.383863  0.383863  1
  Pd  Pd16  1  0.155175  0.616137  0.616137  1
  Pd  Pd17  1  0.342515  0.000000  0.000000  1
  Pd  Pd18  1  0.657485  0.000000  0.000000  1
  Pd  Pd19  1  0.000000  0.342515  0.657485  1
  Pd  Pd20  1  0.000000  0.657485  0.342515  1
  Pd  Pd21  1  0.996394  0.341774  0.003606  1
  Pd  Pd22  1  0.658226  0.003606  0.341774  1
  Pd  Pd23  1  0.003606  0.658226  0.996394  1
  Pd  Pd24  1  0.341774  0.996394  0.658226  1
  Pd  Pd25  1  0.996394  0.003606  0.341774  1
  Pd  Pd26  1  0.003606  0.996394  0.658226  1
  Pd  Pd27  1  0.658226  0.341774  0.003606  1
  Pd  Pd28  1  0.341774  0.658226  0.996394  1
