# generated using pymatgen
data_TbY16Lu3Sn16
_symmetry_space_group_name_H-M   'P 1'
_cell_length_a   8.02602232
_cell_length_b   8.17563649
_cell_length_c   15.48988400
_cell_angle_alpha   90.00010512
_cell_angle_beta   89.93403078
_cell_angle_gamma   90.01979102
_symmetry_Int_Tables_number   1
_chemical_formula_structural   TbY16Lu3Sn16
_chemical_formula_sum   'Tb1 Y16 Lu3 Sn16'
_cell_volume   1016.41200999
_cell_formula_units_Z   1
loop_
 _symmetry_equiv_pos_site_id
 _symmetry_equiv_pos_as_xyz
  1  'x, y, z'
loop_
 _atom_site_type_symbol
 _atom_site_label
 _atom_site_symmetry_multiplicity
 _atom_site_fract_x
 _atom_site_fract_y
 _atom_site_fract_z
 _atom_site_occupancy
  Tb  Tb0  1  0.019668  0.178909  0.903161  1
  Y  Y1  1  0.367619  0.837684  0.877225  1
  Y  Y2  1  0.867472  0.663214  0.622142  1
  Y  Y3  1  0.631809  0.162713  0.377362  1
  Y  Y4  1  0.132523  0.337293  0.122813  1
  Y  Y5  1  0.632636  0.162811  0.122899  1
  Y  Y6  1  0.131944  0.337375  0.377311  1
  Y  Y7  1  0.368590  0.837549  0.622417  1
  Y  Y8  1  0.867148  0.662817  0.877483  1
  Y  Y9  1  0.521627  0.320880  0.902832  1
  Y  Y10  1  0.021628  0.178935  0.597384  1
  Y  Y11  1  0.478300  0.678970  0.402623  1
  Y  Y12  1  0.979032  0.820510  0.097263  1
  Y  Y13  1  0.478853  0.679068  0.097394  1
  Y  Y14  1  0.978435  0.820892  0.402737  1
  Y  Y15  1  0.521881  0.320895  0.596889  1
  Y  Y16  1  0.198724  0.502788  0.749841  1
  Lu  Lu17  1  0.699374  0.996587  0.749751  1
  Lu  Lu18  1  0.800966  0.496793  0.250144  1
  Lu  Lu19  1  0.301032  0.003206  0.250202  1
  Sn  Sn20  1  0.293251  0.036073  0.042825  1
  Sn  Sn21  1  0.792688  0.463877  0.457254  1
  Sn  Sn22  1  0.707515  0.964272  0.542286  1
  Sn  Sn23  1  0.206915  0.536857  0.958618  1
  Sn  Sn24  1  0.706333  0.963153  0.957910  1
  Sn  Sn25  1  0.207210  0.536542  0.541371  1
  Sn  Sn26  1  0.292517  0.036224  0.457319  1
  Sn  Sn27  1  0.793392  0.463504  0.042540  1
  Sn  Sn28  1  0.565761  0.619229  0.749936  1
  Sn  Sn29  1  0.063749  0.882468  0.750034  1
  Sn  Sn30  1  0.436110  0.381590  0.250065  1
  Sn  Sn31  1  0.935964  0.118312  0.250092  1
  Sn  Sn32  1  0.332027  0.147428  0.749981  1
  Sn  Sn33  1  0.829848  0.350139  0.749884  1
  Sn  Sn34  1  0.668999  0.850205  0.249981  1
  Sn  Sn35  1  0.168458  0.650236  0.250033  1
