# generated using pymatgen
data_Tm4LuPb3
_symmetry_space_group_name_H-M   'P 1'
_cell_length_a   8.93269600
_cell_length_b   8.93269417
_cell_length_c   6.50331100
_cell_angle_alpha   90.00087208
_cell_angle_beta   90.00087667
_cell_angle_gamma   120.00053975
_symmetry_Int_Tables_number   1
_chemical_formula_structural   Tm4LuPb3
_chemical_formula_sum   'Tm8 Lu2 Pb6'
_cell_volume   449.39456130
_cell_formula_units_Z   2
loop_
 _symmetry_equiv_pos_site_id
 _symmetry_equiv_pos_as_xyz
  1  'x, y, z'
loop_
 _atom_site_type_symbol
 _atom_site_label
 _atom_site_symmetry_multiplicity
 _atom_site_fract_x
 _atom_site_fract_y
 _atom_site_fract_z
 _atom_site_occupancy
  Tm  Tm0  1  0.763778  0.763779  0.249815  1
  Tm  Tm1  1  0.236217  0.999998  0.249821  1
  Tm  Tm2  1  0.999998  0.236218  0.249821  1
  Tm  Tm3  1  0.666672  0.333345  0.499998  1
  Tm  Tm4  1  0.333344  0.666672  0.499998  1
  Tm  Tm5  1  0.236226  0.236226  0.750182  1
  Tm  Tm6  1  0.763778  0.999994  0.750190  1
  Tm  Tm7  1  0.999994  0.763779  0.750190  1
  Lu  Lu8  1  0.666667  0.333328  0.999999  1
  Lu  Lu9  1  0.333327  0.666667  0.999999  1
  Pb  Pb10  1  0.605130  0.000003  0.249492  1
  Pb  Pb11  1  0.000003  0.605130  0.249492  1
  Pb  Pb12  1  0.394867  0.394866  0.249502  1
  Pb  Pb13  1  0.394866  0.999998  0.750500  1
  Pb  Pb14  1  0.999998  0.394866  0.750500  1
  Pb  Pb15  1  0.605132  0.605133  0.750504  1
