# generated using pymatgen
data_Dy5Y3(HoGa5)4
_symmetry_space_group_name_H-M   'P 1'
_cell_length_a   6.08321000
_cell_length_b   9.65324801
_cell_length_c   11.49207601
_cell_angle_alpha   90.00407998
_cell_angle_beta   89.99691420
_cell_angle_gamma   90.00068931
_symmetry_Int_Tables_number   1
_chemical_formula_structural   Dy5Y3(HoGa5)4
_chemical_formula_sum   'Dy5 Y3 Ho4 Ga20'
_cell_volume   674.84612949
_cell_formula_units_Z   1
loop_
 _symmetry_equiv_pos_site_id
 _symmetry_equiv_pos_as_xyz
  1  'x, y, z'
loop_
 _atom_site_type_symbol
 _atom_site_label
 _atom_site_symmetry_multiplicity
 _atom_site_fract_x
 _atom_site_fract_y
 _atom_site_fract_z
 _atom_site_occupancy
  Dy  Dy0  1  0.390411  0.492442  0.148630  1
  Dy  Dy1  1  0.109583  0.492415  0.648715  1
  Dy  Dy2  1  0.390364  0.007577  0.148707  1
  Dy  Dy3  1  0.890374  0.992387  0.351279  1
  Dy  Dy4  1  0.609549  0.507592  0.851367  1
  Y  Y5  1  0.890285  0.507592  0.351318  1
  Y  Y6  1  0.609734  0.992406  0.851341  1
  Y  Y7  1  0.109724  0.007610  0.648685  1
  Ho  Ho8  1  0.848772  0.749966  0.074858  1
  Ho  Ho9  1  0.651129  0.749944  0.574809  1
  Ho  Ho10  1  0.151164  0.250076  0.925210  1
  Ho  Ho11  1  0.348832  0.249990  0.425153  1
  Ga  Ga12  1  0.875568  0.053645  0.090038  1
  Ga  Ga13  1  0.624427  0.446341  0.590042  1
  Ga  Ga14  1  0.124503  0.553631  0.910087  1
  Ga  Ga15  1  0.375579  0.946349  0.409940  1
  Ga  Ga16  1  0.124430  0.946265  0.910304  1
  Ga  Ga17  1  0.375589  0.553687  0.410109  1
  Ga  Ga18  1  0.875514  0.446335  0.089778  1
  Ga  Ga19  1  0.624428  0.053730  0.589684  1
  Ga  Ga20  1  0.170382  0.750152  0.253774  1
  Ga  Ga21  1  0.329731  0.749692  0.753843  1
  Ga  Ga22  1  0.829732  0.250328  0.746154  1
  Ga  Ga23  1  0.670105  0.249830  0.246076  1
  Ga  Ga24  1  0.374975  0.749923  0.003139  1
  Ga  Ga25  1  0.125028  0.749884  0.503015  1
  Ga  Ga26  1  0.624879  0.250181  0.997082  1
  Ga  Ga27  1  0.874986  0.249907  0.496975  1
  Ga  Ga28  1  0.602934  0.750203  0.299861  1
  Ga  Ga29  1  0.897010  0.749692  0.799945  1
  Ga  Ga30  1  0.396992  0.250303  0.700066  1
  Ga  Ga31  1  0.103291  0.249925  0.200013  1
