# generated using pymatgen
data_Ce4Al24OsPt8
_symmetry_space_group_name_H-M   'P 1'
_cell_length_a   7.55867131
_cell_length_b   7.58832584
_cell_length_c   13.17178118
_cell_angle_alpha   84.61676371
_cell_angle_beta   79.05022007
_cell_angle_gamma   59.86373831
_symmetry_Int_Tables_number   1
_chemical_formula_structural   Ce4Al24OsPt8
_chemical_formula_sum   'Ce4 Al24 Os1 Pt8'
_cell_volume   641.48763878
_cell_formula_units_Z   1
loop_
 _symmetry_equiv_pos_site_id
 _symmetry_equiv_pos_as_xyz
  1  'x, y, z'
loop_
 _atom_site_type_symbol
 _atom_site_label
 _atom_site_symmetry_multiplicity
 _atom_site_fract_x
 _atom_site_fract_y
 _atom_site_fract_z
 _atom_site_occupancy
  Ce  Ce0  1  0.392407  0.169745  0.809137  1
  Ce  Ce1  1  0.607593  0.830255  0.190863  1
  Ce  Ce2  1  0.734749  0.498560  0.809015  1
  Ce  Ce3  1  0.265251  0.501440  0.190985  1
  Al  Al4  1  0.688476  0.830186  0.946363  1
  Al  Al5  1  0.311524  0.169814  0.053637  1
  Al  Al6  1  0.146231  0.832681  0.560854  1
  Al  Al7  1  0.853769  0.167319  0.439146  1
  Al  Al8  1  0.480974  0.166675  0.558651  1
  Al  Al9  1  0.519026  0.833325  0.441349  1
  Al  Al10  1  0.216262  0.164631  0.329596  1
  Al  Al11  1  0.783738  0.835369  0.670404  1
  Al  Al12  1  0.436424  0.508189  0.670603  1
  Al  Al13  1  0.563576  0.491811  0.329397  1
  Al  Al14  1  0.110372  0.158899  0.667804  1
  Al  Al15  1  0.889628  0.841101  0.332196  1
  Al  Al16  1  0.347480  0.500574  0.946374  1
  Al  Al17  1  0.652520  0.499426  0.053626  1
  Al  Al18  1  0.014251  0.170961  0.956913  1
  Al  Al19  1  0.985749  0.829039  0.043087  1
  Al  Al20  1  0.186672  0.499432  0.441563  1
  Al  Al21  1  0.813328  0.500568  0.558437  1
  Al  Al22  1  0.736879  0.162382  0.182939  1
  Al  Al23  1  0.263121  0.837618  0.817061  1
  Al  Al24  1  0.060590  0.631586  0.818125  1
  Al  Al25  1  0.939410  0.368414  0.181875  1
  Al  Al26  1  0.857990  0.040520  0.816811  1
  Al  Al27  1  0.142010  0.959480  0.183190  1
  Os  Os28  1  0.000000  0.500000  0.000000  1
  Pt  Pt29  1  0.120446  0.493541  0.638241  1
  Pt  Pt30  1  0.879554  0.506459  0.361759  1
  Pt  Pt31  1  0.657596  0.171136  0.000030  1
  Pt  Pt32  1  0.342404  0.828864  0.999970  1
  Pt  Pt33  1  0.538134  0.166854  0.362352  1
  Pt  Pt34  1  0.461866  0.833146  0.637648  1
  Pt  Pt35  1  0.780075  0.174080  0.636904  1
  Pt  Pt36  1  0.219925  0.825920  0.363096  1
