# generated using pymatgen
data_AcCo(P4Ru)3
_symmetry_space_group_name_H-M   'P 1'
_cell_length_a   6.98694053
_cell_length_b   6.98694138
_cell_length_c   6.98694100
_cell_angle_alpha   109.37310173
_cell_angle_beta   109.37309796
_cell_angle_gamma   109.37310220
_symmetry_Int_Tables_number   1
_chemical_formula_structural   AcCo(P4Ru)3
_chemical_formula_sum   'Ac1 Co1 P12 Ru3'
_cell_volume   263.51604482
_cell_formula_units_Z   1
loop_
 _symmetry_equiv_pos_site_id
 _symmetry_equiv_pos_as_xyz
  1  'x, y, z'
loop_
 _atom_site_type_symbol
 _atom_site_label
 _atom_site_symmetry_multiplicity
 _atom_site_fract_x
 _atom_site_fract_y
 _atom_site_fract_z
 _atom_site_occupancy
  Ac  Ac0  1  0.000000  0.000000  0.000000  1
  Co  Co1  1  0.500000  0.500000  0.500000  1
  P  P2  1  0.847511  0.639814  0.497340  1
  P  P3  1  0.855060  0.359049  0.214709  1
  P  P4  1  0.144940  0.640951  0.785291  1
  P  P5  1  0.360186  0.502660  0.152489  1
  P  P6  1  0.502660  0.152489  0.360186  1
  P  P7  1  0.152489  0.360186  0.502660  1
  P  P8  1  0.640951  0.785291  0.144940  1
  P  P9  1  0.214709  0.855060  0.359049  1
  P  P10  1  0.639814  0.497340  0.847511  1
  P  P11  1  0.785291  0.144940  0.640951  1
  P  P12  1  0.359049  0.214709  0.855060  1
  P  P13  1  0.497340  0.847511  0.639814  1
  Ru  Ru14  1  0.000000  0.000000  0.500000  1
  Ru  Ru15  1  0.000000  0.500000  0.000000  1
  Ru  Ru16  1  0.500000  0.000000  0.000000  1
