# generated using pymatgen
data_Tb2Y2Co2Sn5
_symmetry_space_group_name_H-M   'P 1'
_cell_length_a   7.27210700
_cell_length_b   7.27210786
_cell_length_c   10.63846298
_cell_angle_alpha   54.36199287
_cell_angle_beta   54.36198828
_cell_angle_gamma   35.66920365
_symmetry_Int_Tables_number   1
_chemical_formula_structural   Tb2Y2Co2Sn5
_chemical_formula_sum   'Tb2 Y2 Co2 Sn5'
_cell_volume   259.42517746
_cell_formula_units_Z   1
loop_
 _symmetry_equiv_pos_site_id
 _symmetry_equiv_pos_as_xyz
  1  'x, y, z'
loop_
 _atom_site_type_symbol
 _atom_site_label
 _atom_site_symmetry_multiplicity
 _atom_site_fract_x
 _atom_site_fract_y
 _atom_site_fract_z
 _atom_site_occupancy
  Tb  Tb0  1  0.066276  0.066276  0.781988  1
  Tb  Tb1  1  0.933724  0.933724  0.218012  1
  Y  Y2  1  0.328092  0.328092  0.786270  1
  Y  Y3  1  0.671908  0.671908  0.213730  1
  Co  Co4  1  0.771921  0.771921  0.645661  1
  Co  Co5  1  0.228079  0.228079  0.354339  1
  Sn  Sn6  1  0.373682  0.373682  0.047155  1
  Sn  Sn7  1  0.626318  0.626318  0.952845  1
  Sn  Sn8  1  0.000000  0.000000  0.500000  1
  Sn  Sn9  1  0.349376  0.349376  0.473470  1
  Sn  Sn10  1  0.650624  0.650624  0.526530  1
