# generated using pymatgen
data_Tb10Si2BiPb5
_symmetry_space_group_name_H-M   'P 1'
_cell_length_a   9.39285235
_cell_length_b   9.39285271
_cell_length_c   6.53504300
_cell_angle_alpha   90.00000000
_cell_angle_beta   90.00000000
_cell_angle_gamma   119.80616746
_symmetry_Int_Tables_number   1
_chemical_formula_structural   Tb10Si2BiPb5
_chemical_formula_sum   'Tb10 Si2 Bi1 Pb5'
_cell_volume   500.28679154
_cell_formula_units_Z   1
loop_
 _symmetry_equiv_pos_site_id
 _symmetry_equiv_pos_as_xyz
  1  'x, y, z'
loop_
 _atom_site_type_symbol
 _atom_site_label
 _atom_site_symmetry_multiplicity
 _atom_site_fract_x
 _atom_site_fract_y
 _atom_site_fract_z
 _atom_site_occupancy
  Tb  Tb0  1  0.667520  0.333519  0.501216  1
  Tb  Tb1  1  0.333519  0.667520  0.501216  1
  Tb  Tb2  1  0.333519  0.667520  0.998784  1
  Tb  Tb3  1  0.667520  0.333519  0.998784  1
  Tb  Tb4  1  0.750015  0.750015  0.250000  1
  Tb  Tb5  1  0.247690  0.998753  0.250000  1
  Tb  Tb6  1  0.998753  0.247690  0.250000  1
  Tb  Tb7  1  0.250270  0.250270  0.750000  1
  Tb  Tb8  1  0.750600  0.999052  0.750000  1
  Tb  Tb9  1  0.999052  0.750600  0.750000  1
  Si  Si10  1  0.000007  0.000007  0.499733  1
  Si  Si11  1  0.000007  0.000007  0.000267  1
  Bi  Bi12  1  0.392118  0.392118  0.250000  1
  Pb  Pb13  1  0.607515  0.000179  0.250000  1
  Pb  Pb14  1  0.000179  0.607515  0.250000  1
  Pb  Pb15  1  0.608478  0.608478  0.750000  1
  Pb  Pb16  1  0.392215  0.001024  0.750000  1
  Pb  Pb17  1  0.001024  0.392215  0.750000  1
