# generated using pymatgen
data_BaZn9Au2
_symmetry_space_group_name_H-M   'P 1'
_cell_length_a   8.58604921
_cell_length_b   8.58604975
_cell_length_c   8.58604919
_cell_angle_alpha   99.72774823
_cell_angle_beta   99.72774427
_cell_angle_gamma   131.45766667
_symmetry_Int_Tables_number   1
_chemical_formula_structural   BaZn9Au2
_chemical_formula_sum   'Ba2 Zn18 Au4'
_cell_volume   432.44332268
_cell_formula_units_Z   2
loop_
 _symmetry_equiv_pos_site_id
 _symmetry_equiv_pos_as_xyz
  1  'x, y, z'
loop_
 _atom_site_type_symbol
 _atom_site_label
 _atom_site_symmetry_multiplicity
 _atom_site_fract_x
 _atom_site_fract_y
 _atom_site_fract_z
 _atom_site_occupancy
  Ba  Ba0  1  0.250000  0.750000  0.500000  1
  Ba  Ba1  1  0.000000  0.000000  0.000000  1
  Zn  Zn2  1  0.903270  0.572341  0.084027  1
  Zn  Zn3  1  0.427659  0.511686  0.330930  1
  Zn  Zn4  1  0.488314  0.572341  0.669070  1
  Zn  Zn5  1  0.427659  0.096730  0.915973  1
  Zn  Zn6  1  0.761686  0.177659  0.830930  1
  Zn  Zn7  1  0.488314  0.819243  0.915973  1
  Zn  Zn8  1  0.500000  0.500000  0.000000  1
  Zn  Zn9  1  0.761686  0.930757  0.584027  1
  Zn  Zn10  1  0.750000  0.250000  0.500000  1
  Zn  Zn11  1  0.069243  0.653270  0.830930  1
  Zn  Zn12  1  0.346730  0.177659  0.415973  1
  Zn  Zn13  1  0.822341  0.653270  0.584027  1
  Zn  Zn14  1  0.903270  0.819243  0.330930  1
  Zn  Zn15  1  0.180757  0.096730  0.669070  1
  Zn  Zn16  1  0.069243  0.238314  0.415973  1
  Zn  Zn17  1  0.346730  0.930757  0.169070  1
  Zn  Zn18  1  0.822341  0.238314  0.169070  1
  Zn  Zn19  1  0.180757  0.511686  0.084027  1
  Au  Au20  1  0.625000  0.875000  0.250000  1
  Au  Au21  1  0.125000  0.375000  0.750000  1
  Au  Au22  1  0.625000  0.375000  0.250000  1
  Au  Au23  1  0.625000  0.375000  0.750000  1
