# generated using pymatgen
data_Ho7TmTc3B24Ru
_symmetry_space_group_name_H-M   'P 1'
_cell_length_a   3.66421700
_cell_length_b   9.12960405
_cell_length_c   11.51016101
_cell_angle_alpha   89.92600000
_cell_angle_beta   90.00000000
_cell_angle_gamma   90.00000000
_symmetry_Int_Tables_number   1
_chemical_formula_structural   Ho7TmTc3B24Ru
_chemical_formula_sum   'Ho7 Tm1 Tc3 B24 Ru1'
_cell_volume   385.04737283
_cell_formula_units_Z   1
loop_
 _symmetry_equiv_pos_site_id
 _symmetry_equiv_pos_as_xyz
  1  'x, y, z'
loop_
 _atom_site_type_symbol
 _atom_site_label
 _atom_site_symmetry_multiplicity
 _atom_site_fract_x
 _atom_site_fract_y
 _atom_site_fract_z
 _atom_site_occupancy
  Ho  Ho0  1  0.000000  0.323539  0.414021  1
  Ho  Ho1  1  0.000000  0.675167  0.584219  1
  Ho  Ho2  1  0.000000  0.822840  0.087127  1
  Ho  Ho3  1  0.000000  0.178240  0.914486  1
  Ho  Ho4  1  0.000000  0.942555  0.370218  1
  Ho  Ho5  1  0.000000  0.057782  0.630813  1
  Ho  Ho6  1  0.000000  0.443153  0.129712  1
  Tm  Tm7  1  0.000000  0.557891  0.869020  1
  Tc  Tc8  1  0.000000  0.638359  0.320376  1
  Tc  Tc9  1  0.000000  0.362164  0.680462  1
  Tc  Tc10  1  0.000000  0.138048  0.178206  1
  B  B11  1  0.500000  0.552971  0.432975  1
  B  B12  1  0.500000  0.446758  0.566865  1
  B  B13  1  0.500000  0.052978  0.066660  1
  B  B14  1  0.500000  0.945924  0.932846  1
  B  B15  1  0.500000  0.748519  0.418808  1
  B  B16  1  0.500000  0.250897  0.581427  1
  B  B17  1  0.500000  0.249275  0.081094  1
  B  B18  1  0.500000  0.750777  0.918450  1
  B  B19  1  0.500000  0.791791  0.265383  1
  B  B20  1  0.500000  0.208644  0.735418  1
  B  B21  1  0.500000  0.291806  0.234748  1
  B  B22  1  0.500000  0.708627  0.765272  1
  B  B23  1  0.500000  0.630976  0.185317  1
  B  B24  1  0.500000  0.369717  0.815404  1
  B  B25  1  0.500000  0.130445  0.314230  1
  B  B26  1  0.500000  0.868727  0.685693  1
  B  B27  1  0.500000  0.981705  0.211697  1
  B  B28  1  0.500000  0.016684  0.788534  1
  B  B29  1  0.500000  0.481984  0.288025  1
  B  B30  1  0.500000  0.518246  0.712021  1
  B  B31  1  0.500000  0.601941  0.027338  1
  B  B32  1  0.500000  0.400359  0.971215  1
  B  B33  1  0.500000  0.101501  0.472119  1
  B  B34  1  0.500000  0.898139  0.528771  1
  Ru  Ru35  1  0.000000  0.860871  0.821034  1
