# generated using pymatgen
data_Ce(TmPt2)9
_symmetry_space_group_name_H-M   'P 1'
_cell_length_a   9.70894749
_cell_length_b   9.70894749
_cell_length_c   5.75118400
_cell_angle_alpha   90.00000000
_cell_angle_beta   90.00000000
_cell_angle_gamma   89.13050034
_symmetry_Int_Tables_number   1
_chemical_formula_structural   Ce(TmPt2)9
_chemical_formula_sum   'Ce1 Tm9 Pt18'
_cell_volume   542.06523680
_cell_formula_units_Z   1
loop_
 _symmetry_equiv_pos_site_id
 _symmetry_equiv_pos_as_xyz
  1  'x, y, z'
loop_
 _atom_site_type_symbol
 _atom_site_label
 _atom_site_symmetry_multiplicity
 _atom_site_fract_x
 _atom_site_fract_y
 _atom_site_fract_z
 _atom_site_occupancy
  Ce  Ce0  1  0.500000  0.500000  0.500000  1
  Tm  Tm1  1  0.454265  0.808754  0.000000  1
  Tm  Tm2  1  0.545735  0.191246  0.000000  1
  Tm  Tm3  1  0.191246  0.545735  0.000000  1
  Tm  Tm4  1  0.808754  0.454265  0.000000  1
  Tm  Tm5  1  0.305678  0.044926  0.500000  1
  Tm  Tm6  1  0.694322  0.955074  0.500000  1
  Tm  Tm7  1  0.955074  0.694322  0.500000  1
  Tm  Tm8  1  0.044926  0.305678  0.500000  1
  Tm  Tm9  1  0.000000  0.000000  0.000000  1
  Pt  Pt10  1  0.193277  0.806723  0.250628  1
  Pt  Pt11  1  0.806723  0.193277  0.749372  1
  Pt  Pt12  1  0.806723  0.193277  0.250628  1
  Pt  Pt13  1  0.193277  0.806723  0.749372  1
  Pt  Pt14  1  0.444013  0.783164  0.500000  1
  Pt  Pt15  1  0.555987  0.216836  0.500000  1
  Pt  Pt16  1  0.216836  0.555987  0.500000  1
  Pt  Pt17  1  0.783164  0.444013  0.500000  1
  Pt  Pt18  1  0.303288  0.303288  0.249814  1
  Pt  Pt19  1  0.696712  0.696712  0.750186  1
  Pt  Pt20  1  0.696712  0.696712  0.249814  1
  Pt  Pt21  1  0.303288  0.303288  0.750186  1
  Pt  Pt22  1  0.281344  0.055184  0.000000  1
  Pt  Pt23  1  0.718656  0.944816  0.000000  1
  Pt  Pt24  1  0.944816  0.718656  0.000000  1
  Pt  Pt25  1  0.055184  0.281344  0.000000  1
  Pt  Pt26  1  0.000000  0.000000  0.500000  1
  Pt  Pt27  1  0.500000  0.500000  0.000000  1
