# generated using pymatgen
data_Tb3SnPt2RhPb2
_symmetry_space_group_name_H-M   'P 1'
_cell_length_a   7.80761486
_cell_length_b   7.80761466
_cell_length_c   3.85135000
_cell_angle_alpha   90.00000000
_cell_angle_beta   90.00000000
_cell_angle_gamma   120.43263417
_symmetry_Int_Tables_number   1
_chemical_formula_structural   Tb3SnPt2RhPb2
_chemical_formula_sum   'Tb3 Sn1 Pt2 Rh1 Pb2'
_cell_volume   202.42796323
_cell_formula_units_Z   1
loop_
 _symmetry_equiv_pos_site_id
 _symmetry_equiv_pos_as_xyz
  1  'x, y, z'
loop_
 _atom_site_type_symbol
 _atom_site_label
 _atom_site_symmetry_multiplicity
 _atom_site_fract_x
 _atom_site_fract_y
 _atom_site_fract_z
 _atom_site_occupancy
  Tb  Tb0  1  0.404644  0.004395  0.500000  1
  Tb  Tb1  1  0.004395  0.404644  0.500000  1
  Tb  Tb2  1  0.593130  0.593130  0.500000  1
  Sn  Sn3  1  0.259321  0.259321  0.000000  1
  Pt  Pt4  1  0.329808  0.655477  0.000000  1
  Pt  Pt5  1  0.655477  0.329808  0.000000  1
  Rh  Rh6  1  0.011836  0.011836  0.500000  1
  Pb  Pb7  1  0.740514  0.000875  0.000000  1
  Pb  Pb8  1  0.000875  0.740514  0.000000  1
