# generated using pymatgen
data_Sr10Si6F
_symmetry_space_group_name_H-M   'P 1'
_cell_length_a   9.76291659
_cell_length_b   9.76291640
_cell_length_c   9.76291658
_cell_angle_alpha   131.22382517
_cell_angle_beta   131.22382467
_cell_angle_gamma   71.45771010
_symmetry_Int_Tables_number   1
_chemical_formula_structural   Sr10Si6F
_chemical_formula_sum   'Sr10 Si6 F1'
_cell_volume   515.18553220
_cell_formula_units_Z   1
loop_
 _symmetry_equiv_pos_site_id
 _symmetry_equiv_pos_as_xyz
  1  'x, y, z'
loop_
 _atom_site_type_symbol
 _atom_site_label
 _atom_site_symmetry_multiplicity
 _atom_site_fract_x
 _atom_site_fract_y
 _atom_site_fract_z
 _atom_site_occupancy
  Sr  Sr0  1  0.250000  0.750000  0.500000  1
  Sr  Sr1  1  0.750000  0.250000  0.500000  1
  Sr  Sr2  1  0.770908  0.431608  0.000000  1
  Sr  Sr3  1  0.431608  0.770908  0.000000  1
  Sr  Sr4  1  0.929620  0.929620  0.642646  1
  Sr  Sr5  1  0.286973  0.286973  0.357354  1
  Sr  Sr6  1  0.713027  0.070380  0.000000  1
  Sr  Sr7  1  0.070380  0.713027  0.000000  1
  Sr  Sr8  1  0.568392  0.568392  0.339300  1
  Sr  Sr9  1  0.229092  0.229092  0.660700  1
  Si  Si10  1  0.000000  0.500000  0.500000  1
  Si  Si11  1  0.500000  0.000000  0.500000  1
  Si  Si12  1  0.141909  0.355390  0.000000  1
  Si  Si13  1  0.355390  0.141909  0.000000  1
  Si  Si14  1  0.858091  0.858091  0.213481  1
  Si  Si15  1  0.644610  0.644610  0.786519  1
  F  F16  1  0.500000  0.500000  0.000000  1
