# generated using pymatgen
data_Tb5B4Pd7Rh8
_symmetry_space_group_name_H-M   'P 1'
_cell_length_a   4.22579700
_cell_length_b   4.22579700
_cell_length_c   21.00356800
_cell_angle_alpha   90.00000000
_cell_angle_beta   90.00000000
_cell_angle_gamma   90.00000000
_symmetry_Int_Tables_number   1
_chemical_formula_structural   Tb5B4Pd7Rh8
_chemical_formula_sum   'Tb5 B4 Pd7 Rh8'
_cell_volume   375.06828105
_cell_formula_units_Z   1
loop_
 _symmetry_equiv_pos_site_id
 _symmetry_equiv_pos_as_xyz
  1  'x, y, z'
loop_
 _atom_site_type_symbol
 _atom_site_label
 _atom_site_symmetry_multiplicity
 _atom_site_fract_x
 _atom_site_fract_y
 _atom_site_fract_z
 _atom_site_occupancy
  Tb  Tb0  1  0.000000  0.000000  0.900353  1
  Tb  Tb1  1  0.000000  0.000000  0.099647  1
  Tb  Tb2  1  0.000000  0.000000  0.299388  1
  Tb  Tb3  1  0.000000  0.000000  0.500000  1
  Tb  Tb4  1  0.000000  0.000000  0.700612  1
  B  B5  1  0.500000  0.500000  0.189164  1
  B  B6  1  0.500000  0.500000  0.397333  1
  B  B7  1  0.500000  0.500000  0.602667  1
  B  B8  1  0.500000  0.500000  0.810836  1
  Pd  Pd9  1  0.500000  0.500000  0.909250  1
  Pd  Pd10  1  0.500000  0.500000  0.090750  1
  Pd  Pd11  1  0.500000  0.500000  0.296511  1
  Pd  Pd12  1  0.500000  0.500000  0.500000  1
  Pd  Pd13  1  0.500000  0.500000  0.703489  1
  Pd  Pd14  1  0.500000  0.000000  0.000000  1
  Pd  Pd15  1  0.000000  0.500000  0.000000  1
  Rh  Rh16  1  0.500000  0.000000  0.200129  1
  Rh  Rh17  1  0.500000  0.000000  0.400026  1
  Rh  Rh18  1  0.500000  0.000000  0.599974  1
  Rh  Rh19  1  0.500000  0.000000  0.799871  1
  Rh  Rh20  1  0.000000  0.500000  0.200129  1
  Rh  Rh21  1  0.000000  0.500000  0.400026  1
  Rh  Rh22  1  0.000000  0.500000  0.599974  1
  Rh  Rh23  1  0.000000  0.500000  0.799871  1
