# generated using pymatgen
data_Hf18Ta6Re2GeAs
_symmetry_space_group_name_H-M   'P 1'
_cell_length_a   8.73490800
_cell_length_b   8.73490780
_cell_length_c   8.82988200
_cell_angle_alpha   90.00000000
_cell_angle_beta   90.00000000
_cell_angle_gamma   120.00000075
_symmetry_Int_Tables_number   1
_chemical_formula_structural   Hf18Ta6Re2GeAs
_chemical_formula_sum   'Hf18 Ta6 Re2 Ge1 As1'
_cell_volume   583.44804474
_cell_formula_units_Z   1
loop_
 _symmetry_equiv_pos_site_id
 _symmetry_equiv_pos_as_xyz
  1  'x, y, z'
loop_
 _atom_site_type_symbol
 _atom_site_label
 _atom_site_symmetry_multiplicity
 _atom_site_fract_x
 _atom_site_fract_y
 _atom_site_fract_z
 _atom_site_occupancy
  Hf  Hf0  1  0.196513  0.803487  0.453413  1
  Hf  Hf1  1  0.196513  0.393027  0.453413  1
  Hf  Hf2  1  0.606973  0.803487  0.453413  1
  Hf  Hf3  1  0.803238  0.196762  0.546753  1
  Hf  Hf4  1  0.803238  0.606475  0.546753  1
  Hf  Hf5  1  0.393525  0.196762  0.546753  1
  Hf  Hf6  1  0.803238  0.196762  0.953247  1
  Hf  Hf7  1  0.803238  0.606475  0.953247  1
  Hf  Hf8  1  0.393525  0.196762  0.953247  1
  Hf  Hf9  1  0.196513  0.803487  0.046587  1
  Hf  Hf10  1  0.196513  0.393027  0.046587  1
  Hf  Hf11  1  0.606973  0.803487  0.046587  1
  Hf  Hf12  1  0.538280  0.461720  0.250000  1
  Hf  Hf13  1  0.538280  0.076560  0.250000  1
  Hf  Hf14  1  0.923440  0.461720  0.250000  1
  Hf  Hf15  1  0.461747  0.538253  0.750000  1
  Hf  Hf16  1  0.461747  0.923495  0.750000  1
  Hf  Hf17  1  0.076505  0.538253  0.750000  1
  Ta  Ta18  1  0.889387  0.110613  0.250000  1
  Ta  Ta19  1  0.889387  0.778776  0.250000  1
  Ta  Ta20  1  0.221224  0.110613  0.250000  1
  Ta  Ta21  1  0.110561  0.889439  0.750000  1
  Ta  Ta22  1  0.110561  0.221120  0.750000  1
  Ta  Ta23  1  0.778880  0.889439  0.750000  1
  Re  Re24  1  0.000000  0.000000  0.499773  1
  Re  Re25  1  0.000000  0.000000  0.000227  1
  Ge  Ge26  1  0.666667  0.333333  0.750000  1
  As  As27  1  0.333333  0.666667  0.250000  1
