# generated using pymatgen
data_Tb12BiPb9
_symmetry_space_group_name_H-M   'P 1'
_cell_length_a   11.82789579
_cell_length_b   11.90312867
_cell_length_c   11.90312803
_cell_angle_alpha   147.56597883
_cell_angle_beta   132.80665002
_cell_angle_gamma   58.49695528
_symmetry_Int_Tables_number   1
_chemical_formula_structural   Tb12BiPb9
_chemical_formula_sum   'Tb12 Bi1 Pb9'
_cell_volume   653.84262795
_cell_formula_units_Z   1
loop_
 _symmetry_equiv_pos_site_id
 _symmetry_equiv_pos_as_xyz
  1  'x, y, z'
loop_
 _atom_site_type_symbol
 _atom_site_label
 _atom_site_symmetry_multiplicity
 _atom_site_fract_x
 _atom_site_fract_y
 _atom_site_fract_z
 _atom_site_occupancy
  Tb  Tb0  1  0.695884  0.947142  0.250268  1
  Tb  Tb1  1  0.249652  0.641107  0.608545  1
  Tb  Tb2  1  0.679336  0.942164  0.737172  1
  Tb  Tb3  1  0.026129  0.139387  0.886743  1
  Tb  Tb4  1  0.973913  0.860305  0.113608  1
  Tb  Tb5  1  0.788527  0.558099  0.230428  1
  Tb  Tb6  1  0.209132  0.441222  0.767910  1
  Tb  Tb7  1  0.304465  0.053946  0.750091  1
  Tb  Tb8  1  0.323475  0.058522  0.264954  1
  Tb  Tb9  1  0.304465  0.554373  0.250519  1
  Tb  Tb10  1  0.748724  0.358696  0.390029  1
  Tb  Tb11  1  0.695884  0.445616  0.748742  1
  Bi  Bi12  1  0.473029  0.576674  0.896354  1
  Pb  Pb13  1  0.599299  0.794781  0.804519  1
  Pb  Pb14  1  0.673143  0.075295  0.597847  1
  Pb  Pb15  1  0.000602  0.746496  0.747066  1
  Pb  Pb16  1  0.991516  0.294329  0.697188  1
  Pb  Pb17  1  0.526277  0.422663  0.103615  1
  Pb  Pb18  1  0.007752  0.705250  0.302502  1
  Pb  Pb19  1  0.400569  0.205385  0.195183  1
  Pb  Pb20  1  0.327624  0.925013  0.402612  1
  Pb  Pb21  1  0.000602  0.253536  0.254106  1
