# generated using pymatgen
data_Rb3Na(SiP)12
_symmetry_space_group_name_H-M   'P 1'
_cell_length_a   3.55455800
_cell_length_b   9.92138652
_cell_length_c   19.85122300
_cell_angle_alpha   89.32302989
_cell_angle_beta   90.00000000
_cell_angle_gamma   90.00000000
_symmetry_Int_Tables_number   1
_chemical_formula_structural   Rb3Na(SiP)12
_chemical_formula_sum   'Rb3 Na1 Si12 P12'
_cell_volume   700.02721961
_cell_formula_units_Z   1
loop_
 _symmetry_equiv_pos_site_id
 _symmetry_equiv_pos_as_xyz
  1  'x, y, z'
loop_
 _atom_site_type_symbol
 _atom_site_label
 _atom_site_symmetry_multiplicity
 _atom_site_fract_x
 _atom_site_fract_y
 _atom_site_fract_z
 _atom_site_occupancy
  Rb  Rb0  1  0.000000  0.308792  0.301995  1
  Rb  Rb1  1  0.000000  0.701423  0.691711  1
  Rb  Rb2  1  0.000000  0.198486  0.810294  1
  Na  Na3  1  0.000000  0.819023  0.199701  1
  Si  Si4  1  0.500000  0.395691  0.041052  1
  Si  Si5  1  0.500000  0.591481  0.972188  1
  Si  Si6  1  0.500000  0.098082  0.532918  1
  Si  Si7  1  0.500000  0.909732  0.462160  1
  Si  Si8  1  0.000000  0.106963  0.016929  1
  Si  Si9  1  0.000000  0.879077  0.989004  1
  Si  Si10  1  0.000000  0.389990  0.511485  1
  Si  Si11  1  0.000000  0.617210  0.475275  1
  Si  Si12  1  0.000000  0.160367  0.131500  1
  Si  Si13  1  0.000000  0.815635  0.875351  1
  Si  Si14  1  0.000000  0.323185  0.626662  1
  Si  Si15  1  0.000000  0.697126  0.361543  1
  P  P16  1  0.500000  0.088997  0.191242  1
  P  P17  1  0.500000  0.883414  0.815179  1
  P  P18  1  0.500000  0.387261  0.686795  1
  P  P19  1  0.500000  0.639639  0.298773  1
  P  P20  1  0.500000  0.284494  0.461944  1
  P  P21  1  0.500000  0.716715  0.528030  1
  P  P22  1  0.500000  0.215112  0.967985  1
  P  P23  1  0.500000  0.777292  0.041884  1
  P  P24  1  0.000000  0.392970  0.113245  1
  P  P25  1  0.000000  0.585367  0.899900  1
  P  P26  1  0.000000  0.093289  0.604864  1
  P  P27  1  0.000000  0.923183  0.390390  1
