# generated using pymatgen
data_Li2(HfPd)3
_symmetry_space_group_name_H-M   'P 1'
_cell_length_a   7.91459400
_cell_length_b   7.91459310
_cell_length_c   5.18751400
_cell_angle_alpha   90.00000000
_cell_angle_beta   90.00000000
_cell_angle_gamma   119.99999541
_symmetry_Int_Tables_number   1
_chemical_formula_structural   Li2(HfPd)3
_chemical_formula_sum   'Li4 Hf6 Pd6'
_cell_volume   281.41495109
_cell_formula_units_Z   2
loop_
 _symmetry_equiv_pos_site_id
 _symmetry_equiv_pos_as_xyz
  1  'x, y, z'
loop_
 _atom_site_type_symbol
 _atom_site_label
 _atom_site_symmetry_multiplicity
 _atom_site_fract_x
 _atom_site_fract_y
 _atom_site_fract_z
 _atom_site_occupancy
  Li  Li0  1  0.666668  0.333334  0.000000  1
  Li  Li1  1  0.333333  0.666667  0.000000  1
  Li  Li2  1  0.666668  0.333334  0.500000  1
  Li  Li3  1  0.333333  0.666667  0.500000  1
  Hf  Hf4  1  0.242722  0.000000  0.250000  1
  Hf  Hf5  1  0.000000  0.242722  0.250000  1
  Hf  Hf6  1  0.757278  0.757278  0.250000  1
  Hf  Hf7  1  0.757278  0.000000  0.750000  1
  Hf  Hf8  1  0.242723  0.242722  0.750000  1
  Hf  Hf9  1  0.000000  0.757278  0.750000  1
  Pd  Pd10  1  0.602054  0.000000  0.250000  1
  Pd  Pd11  1  0.397947  0.397946  0.250000  1
  Pd  Pd12  1  0.000000  0.602054  0.250000  1
  Pd  Pd13  1  0.397947  0.000000  0.750000  1
  Pd  Pd14  1  0.000000  0.397946  0.750000  1
  Pd  Pd15  1  0.602054  0.602054  0.750000  1
