# generated using pymatgen
data_Tm16In6OsRh
_symmetry_space_group_name_H-M   'P 1'
_cell_length_a   10.28974100
_cell_length_b   10.28974203
_cell_length_c   6.96385000
_cell_angle_alpha   90.00000000
_cell_angle_beta   90.00000000
_cell_angle_gamma   119.99999992
_symmetry_Int_Tables_number   1
_chemical_formula_structural   Tm16In6OsRh
_chemical_formula_sum   'Tm16 In6 Os1 Rh1'
_cell_volume   638.54126763
_cell_formula_units_Z   1
loop_
 _symmetry_equiv_pos_site_id
 _symmetry_equiv_pos_as_xyz
  1  'x, y, z'
loop_
 _atom_site_type_symbol
 _atom_site_label
 _atom_site_symmetry_multiplicity
 _atom_site_fract_x
 _atom_site_fract_y
 _atom_site_fract_z
 _atom_site_occupancy
  Tm  Tm0  1  0.532665  0.065332  0.514994  1
  Tm  Tm1  1  0.934668  0.467335  0.514994  1
  Tm  Tm2  1  0.532665  0.467335  0.514994  1
  Tm  Tm3  1  0.468123  0.936245  0.016116  1
  Tm  Tm4  1  0.063755  0.531877  0.016116  1
  Tm  Tm5  1  0.468123  0.531877  0.016116  1
  Tm  Tm6  1  0.176559  0.353117  0.720978  1
  Tm  Tm7  1  0.646883  0.823441  0.720978  1
  Tm  Tm8  1  0.176559  0.823441  0.720978  1
  Tm  Tm9  1  0.822914  0.645828  0.221632  1
  Tm  Tm10  1  0.354172  0.177086  0.221632  1
  Tm  Tm11  1  0.822914  0.177086  0.221632  1
  Tm  Tm12  1  0.666667  0.333333  0.893547  1
  Tm  Tm13  1  0.333333  0.666667  0.394153  1
  Tm  Tm14  1  0.000000  0.000000  0.500558  1
  Tm  Tm15  1  0.000000  0.000000  0.999568  1
  In  In16  1  0.837239  0.674480  0.761090  1
  In  In17  1  0.325520  0.162761  0.761090  1
  In  In18  1  0.837239  0.162761  0.761090  1
  In  In19  1  0.162995  0.325990  0.261126  1
  In  In20  1  0.674010  0.837005  0.261126  1
  In  In21  1  0.162995  0.837005  0.261126  1
  Os  Os22  1  0.666667  0.333333  0.292426  1
  Rh  Rh23  1  0.333333  0.666667  0.789941  1
