# generated using pymatgen
data_LiPrTh7Ag7Sn8
_symmetry_space_group_name_H-M   'P 1'
_cell_length_a   9.74219100
_cell_length_b   9.74218998
_cell_length_c   7.43720400
_cell_angle_alpha   90.00000000
_cell_angle_beta   90.00000000
_cell_angle_gamma   120.00000008
_symmetry_Int_Tables_number   1
_chemical_formula_structural   LiPrTh7Ag7Sn8
_chemical_formula_sum   'Li1 Pr1 Th7 Ag7 Sn8'
_cell_volume   611.29882296
_cell_formula_units_Z   1
loop_
 _symmetry_equiv_pos_site_id
 _symmetry_equiv_pos_as_xyz
  1  'x, y, z'
loop_
 _atom_site_type_symbol
 _atom_site_label
 _atom_site_symmetry_multiplicity
 _atom_site_fract_x
 _atom_site_fract_y
 _atom_site_fract_z
 _atom_site_occupancy
  Li  Li0  1  0.333333  0.666667  0.809129  1
  Pr  Pr1  1  0.000000  0.000000  0.998521  1
  Th  Th2  1  0.491029  0.508971  0.511107  1
  Th  Th3  1  0.491029  0.982057  0.511107  1
  Th  Th4  1  0.017943  0.508971  0.511107  1
  Th  Th5  1  0.513697  0.486303  0.010691  1
  Th  Th6  1  0.513697  0.027395  0.010691  1
  Th  Th7  1  0.972605  0.486303  0.010691  1
  Th  Th8  1  0.000000  0.000000  0.504109  1
  Ag  Ag9  1  0.835457  0.164543  0.711705  1
  Ag  Ag10  1  0.835457  0.670914  0.711705  1
  Ag  Ag11  1  0.329086  0.164543  0.711705  1
  Ag  Ag12  1  0.167647  0.832353  0.204702  1
  Ag  Ag13  1  0.167647  0.335293  0.204702  1
  Ag  Ag14  1  0.664707  0.832353  0.204702  1
  Ag  Ag15  1  0.666667  0.333333  0.313038  1
  Sn  Sn16  1  0.834289  0.165711  0.272163  1
  Sn  Sn17  1  0.834289  0.668579  0.272163  1
  Sn  Sn18  1  0.331421  0.165711  0.272163  1
  Sn  Sn19  1  0.171143  0.828857  0.771704  1
  Sn  Sn20  1  0.171143  0.342285  0.771704  1
  Sn  Sn21  1  0.657715  0.828857  0.771704  1
  Sn  Sn22  1  0.666667  0.333333  0.736658  1
  Sn  Sn23  1  0.333333  0.666667  0.250333  1
