# generated using pymatgen
data_CaEuSi5N8
_symmetry_space_group_name_H-M   'P 1'
_cell_length_a   7.79825005
_cell_length_b   7.79825097
_cell_length_c   9.77921558
_cell_angle_alpha   69.40220831
_cell_angle_beta   69.40220558
_cell_angle_gamma   42.66267434
_symmetry_Int_Tables_number   1
_chemical_formula_structural   CaEuSi5N8
_chemical_formula_sum   'Ca2 Eu2 Si10 N16'
_cell_volume   373.16825620
_cell_formula_units_Z   2
loop_
 _symmetry_equiv_pos_site_id
 _symmetry_equiv_pos_as_xyz
  1  'x, y, z'
loop_
 _atom_site_type_symbol
 _atom_site_label
 _atom_site_symmetry_multiplicity
 _atom_site_fract_x
 _atom_site_fract_y
 _atom_site_fract_z
 _atom_site_occupancy
  Ca  Ca0  1  0.763063  0.238187  0.495407  1
  Ca  Ca1  1  0.238187  0.763063  0.995407  1
  Eu  Eu2  1  0.358988  0.873964  0.286569  1
  Eu  Eu3  1  0.873964  0.358988  0.786569  1
  Si  Si4  1  0.853108  0.853144  0.375601  1
  Si  Si5  1  0.853144  0.853108  0.875601  1
  Si  Si6  1  0.572353  0.154317  0.132454  1
  Si  Si7  1  0.154317  0.572353  0.632454  1
  Si  Si8  1  0.248645  0.259948  0.438380  1
  Si  Si9  1  0.259948  0.248645  0.938380  1
  Si  Si10  1  0.969843  0.542425  0.182652  1
  Si  Si11  1  0.542425  0.969843  0.682652  1
  Si  Si12  1  0.864889  0.248446  0.147316  1
  Si  Si13  1  0.248446  0.864889  0.647316  1
  N  N14  1  0.281639  0.314335  0.082821  1
  N  N15  1  0.314335  0.281639  0.582821  1
  N  N16  1  0.802687  0.460034  0.228407  1
  N  N17  1  0.460034  0.802687  0.728407  1
  N  N18  1  0.846355  0.816433  0.566985  1
  N  N19  1  0.816433  0.846355  0.066985  1
  N  N20  1  0.968618  0.986129  0.284069  1
  N  N21  1  0.986129  0.968618  0.784069  1
  N  N22  1  0.546769  0.057238  0.325541  1
  N  N23  1  0.057238  0.546769  0.825541  1
  N  N24  1  0.035506  0.554063  0.331348  1
  N  N25  1  0.554063  0.035506  0.831348  1
  N  N26  1  0.128773  0.128419  0.509686  1
  N  N27  1  0.128419  0.128773  0.009686  1
  N  N28  1  0.347538  0.626945  0.570866  1
  N  N29  1  0.626945  0.347538  0.070866  1
