# generated using pymatgen
data_Eu4URh7
_symmetry_space_group_name_H-M   'P 1'
_cell_length_a   5.66998900
_cell_length_b   5.66998781
_cell_length_c   8.27330900
_cell_angle_alpha   90.00000000
_cell_angle_beta   90.00000000
_cell_angle_gamma   119.99998947
_symmetry_Int_Tables_number   1
_chemical_formula_structural   Eu4URh7
_chemical_formula_sum   'Eu4 U1 Rh7'
_cell_volume   230.34259971
_cell_formula_units_Z   1
loop_
 _symmetry_equiv_pos_site_id
 _symmetry_equiv_pos_as_xyz
  1  'x, y, z'
loop_
 _atom_site_type_symbol
 _atom_site_label
 _atom_site_symmetry_multiplicity
 _atom_site_fract_x
 _atom_site_fract_y
 _atom_site_fract_z
 _atom_site_occupancy
  Eu  Eu0  1  0.333333  0.666667  0.051155  1
  Eu  Eu1  1  0.666667  0.333333  0.581276  1
  Eu  Eu2  1  0.666667  0.333333  0.948845  1
  Eu  Eu3  1  0.333333  0.666667  0.418724  1
  U  U4  1  0.000000  0.000000  0.500000  1
  Rh  Rh5  1  0.000000  0.000000  0.000000  1
  Rh  Rh6  1  0.829695  0.659390  0.262530  1
  Rh  Rh7  1  0.170305  0.829695  0.737470  1
  Rh  Rh8  1  0.659390  0.829695  0.737470  1
  Rh  Rh9  1  0.340610  0.170305  0.262530  1
  Rh  Rh10  1  0.829695  0.170305  0.262530  1
  Rh  Rh11  1  0.170305  0.340610  0.737470  1
