# generated using pymatgen
data_YbPr2(SnPt)3
_symmetry_space_group_name_H-M   'P 1'
_cell_length_a   7.59770642
_cell_length_b   7.60820765
_cell_length_c   4.16095200
_cell_angle_alpha   90.00000000
_cell_angle_beta   90.00000000
_cell_angle_gamma   120.04573133
_symmetry_Int_Tables_number   1
_chemical_formula_structural   YbPr2(SnPt)3
_chemical_formula_sum   'Yb1 Pr2 Sn3 Pt3'
_cell_volume   208.20343346
_cell_formula_units_Z   1
loop_
 _symmetry_equiv_pos_site_id
 _symmetry_equiv_pos_as_xyz
  1  'x, y, z'
loop_
 _atom_site_type_symbol
 _atom_site_label
 _atom_site_symmetry_multiplicity
 _atom_site_fract_x
 _atom_site_fract_y
 _atom_site_fract_z
 _atom_site_occupancy
  Yb  Yb0  1  0.000000  0.592439  0.000000  1
  Pr  Pr1  1  0.410821  0.411751  0.000000  1
  Pr  Pr2  1  0.589179  0.000929  0.000000  1
  Sn  Sn3  1  0.000000  0.259044  0.500000  1
  Sn  Sn4  1  0.751617  0.744093  0.500000  1
  Sn  Sn5  1  0.248383  0.992476  0.500000  1
  Pt  Pt6  1  0.669835  0.334760  0.500000  1
  Pt  Pt7  1  0.000000  0.999582  0.000000  1
  Pt  Pt8  1  0.330165  0.664926  0.500000  1
