# generated using pymatgen
data_Cs2FeCoS4
_symmetry_space_group_name_H-M   'P 1'
_cell_length_a   7.57429332
_cell_length_b   7.57429258
_cell_length_c   7.57429275
_cell_angle_alpha   139.34429867
_cell_angle_beta   123.84657710
_cell_angle_gamma   71.60240067
_symmetry_Int_Tables_number   1
_chemical_formula_structural   Cs2FeCoS4
_chemical_formula_sum   'Cs2 Fe1 Co1 S4'
_cell_volume   230.49156428
_cell_formula_units_Z   1
loop_
 _symmetry_equiv_pos_site_id
 _symmetry_equiv_pos_as_xyz
  1  'x, y, z'
loop_
 _atom_site_type_symbol
 _atom_site_label
 _atom_site_symmetry_multiplicity
 _atom_site_fract_x
 _atom_site_fract_y
 _atom_site_fract_z
 _atom_site_occupancy
  Cs  Cs0  1  0.328257  0.828507  0.500250  1
  Cs  Cs1  1  0.671743  0.171993  0.500250  1
  Fe  Fe2  1  0.000000  0.250885  0.250885  1
  Co  Co3  1  0.000000  0.749596  0.749596  1
  S  S4  1  0.244269  0.498905  0.743174  1
  S  S5  1  0.755731  0.498905  0.254637  1
  S  S6  1  0.142353  0.142957  0.000604  1
  S  S7  1  0.857647  0.858251  0.000604  1
