# generated using pymatgen
data_LiEr12InFe4
_symmetry_space_group_name_H-M   'P 1'
_cell_length_a   8.30499668
_cell_length_b   8.30499655
_cell_length_c   8.30499658
_cell_angle_alpha   110.64520495
_cell_angle_beta   111.11925610
_cell_angle_gamma   106.68499825
_symmetry_Int_Tables_number   1
_chemical_formula_structural   LiEr12InFe4
_chemical_formula_sum   'Li1 Er12 In1 Fe4'
_cell_volume   440.17200765
_cell_formula_units_Z   1
loop_
 _symmetry_equiv_pos_site_id
 _symmetry_equiv_pos_as_xyz
  1  'x, y, z'
loop_
 _atom_site_type_symbol
 _atom_site_label
 _atom_site_symmetry_multiplicity
 _atom_site_fract_x
 _atom_site_fract_y
 _atom_site_fract_z
 _atom_site_occupancy
  Li  Li0  1  0.000000  0.000000  0.000000  1
  Er  Er1  1  0.188027  0.290452  0.478478  1
  Er  Er2  1  0.811973  0.709548  0.521522  1
  Er  Er3  1  0.188027  0.709548  0.897575  1
  Er  Er4  1  0.811973  0.290452  0.102425  1
  Er  Er5  1  0.311627  0.610687  0.299060  1
  Er  Er6  1  0.688373  0.389313  0.700940  1
  Er  Er7  1  0.311627  0.012568  0.700940  1
  Er  Er8  1  0.688373  0.987432  0.299060  1
  Er  Er9  1  0.429485  0.224693  0.204792  1
  Er  Er10  1  0.570515  0.775307  0.795208  1
  Er  Er11  1  0.019901  0.224693  0.795208  1
  Er  Er12  1  0.980099  0.775307  0.204792  1
  In  In13  1  0.500000  0.500000  0.000000  1
  Fe  Fe14  1  0.109238  0.609238  0.500000  1
  Fe  Fe15  1  0.890762  0.390762  0.500000  1
  Fe  Fe16  1  0.382295  0.000000  0.382295  1
  Fe  Fe17  1  0.617705  0.000000  0.617705  1
