# generated using pymatgen
data_Tb2Gd3AlRuO12
_symmetry_space_group_name_H-M   'P 1'
_cell_length_a   6.87459796
_cell_length_b   6.87533913
_cell_length_c   7.35404501
_cell_angle_alpha   74.49548509
_cell_angle_beta   74.49136857
_cell_angle_gamma   50.42460726
_symmetry_Int_Tables_number   1
_chemical_formula_structural   Tb2Gd3AlRuO12
_chemical_formula_sum   'Tb2 Gd3 Al1 Ru1 O12'
_cell_volume   255.95365186
_cell_formula_units_Z   1
loop_
 _symmetry_equiv_pos_site_id
 _symmetry_equiv_pos_as_xyz
  1  'x, y, z'
loop_
 _atom_site_type_symbol
 _atom_site_label
 _atom_site_symmetry_multiplicity
 _atom_site_fract_x
 _atom_site_fract_y
 _atom_site_fract_z
 _atom_site_occupancy
  Tb  Tb0  1  0.293830  0.316266  0.857880  1
  Tb  Tb1  1  0.307767  0.307381  0.333306  1
  Gd  Gd2  1  0.693263  0.692285  0.666367  1
  Gd  Gd3  1  0.684134  0.707072  0.142148  1
  Gd  Gd4  1  0.995957  0.004084  0.000164  1
  Al  Al5  1  0.254513  0.744957  0.500120  1
  Ru  Ru6  1  0.764986  0.234276  0.499975  1
  O  O7  1  0.398230  0.912899  0.921805  1
  O  O8  1  0.576522  0.100634  0.580887  1
  O  O9  1  0.903651  0.418505  0.418736  1
  O  O10  1  0.092241  0.599275  0.077869  1
  O  O11  1  0.007112  0.991965  0.324676  1
  O  O12  1  0.504820  0.495147  0.678315  1
  O  O13  1  0.899629  0.406616  0.925457  1
  O  O14  1  0.104013  0.578237  0.579330  1
  O  O15  1  0.417417  0.900088  0.420514  1
  O  O16  1  0.591693  0.104692  0.074373  1
  O  O17  1  0.503976  0.493851  0.322078  1
  O  O18  1  0.006247  0.991771  0.676001  1
