# generated using pymatgen
data_Ba5Ru2I2O9
_symmetry_space_group_name_H-M   'P 1'
_cell_length_a   5.97831300
_cell_length_b   5.97831331
_cell_length_c   26.98756100
_cell_angle_alpha   90.00000000
_cell_angle_beta   90.00000000
_cell_angle_gamma   120.00000381
_symmetry_Int_Tables_number   1
_chemical_formula_structural   Ba5Ru2I2O9
_chemical_formula_sum   'Ba10 Ru4 I4 O18'
_cell_volume   835.31748635
_cell_formula_units_Z   2
loop_
 _symmetry_equiv_pos_site_id
 _symmetry_equiv_pos_as_xyz
  1  'x, y, z'
loop_
 _atom_site_type_symbol
 _atom_site_label
 _atom_site_symmetry_multiplicity
 _atom_site_fract_x
 _atom_site_fract_y
 _atom_site_fract_z
 _atom_site_occupancy
  Ba  Ba0  1  0.333333  0.666667  0.906380  1
  Ba  Ba1  1  0.666667  0.333333  0.406380  1
  Ba  Ba2  1  0.666667  0.333333  0.093620  1
  Ba  Ba3  1  0.333333  0.666667  0.176967  1
  Ba  Ba4  1  0.666667  0.333333  0.676967  1
  Ba  Ba5  1  0.333333  0.666667  0.323033  1
  Ba  Ba6  1  0.666667  0.333333  0.823033  1
  Ba  Ba7  1  0.666667  0.333333  0.250000  1
  Ba  Ba8  1  0.333333  0.666667  0.593620  1
  Ba  Ba9  1  0.333333  0.666667  0.750000  1
  Ru  Ru10  1  0.000000  0.000000  0.802862  1
  Ru  Ru11  1  0.000000  0.000000  0.302862  1
  Ru  Ru12  1  0.000000  0.000000  0.697138  1
  Ru  Ru13  1  0.000000  0.000000  0.197138  1
  I  I14  1  0.333333  0.666667  0.454090  1
  I  I15  1  0.333333  0.666667  0.045910  1
  I  I16  1  0.666667  0.333333  0.545910  1
  I  I17  1  0.666667  0.333333  0.954090  1
  O  O18  1  0.159564  0.840436  0.662032  1
  O  O19  1  0.680872  0.840436  0.837968  1
  O  O20  1  0.159564  0.319128  0.662032  1
  O  O21  1  0.849378  0.150622  0.750000  1
  O  O22  1  0.301243  0.150622  0.750000  1
  O  O23  1  0.150622  0.301243  0.250000  1
  O  O24  1  0.150622  0.849378  0.250000  1
  O  O25  1  0.698757  0.849378  0.250000  1
  O  O26  1  0.840436  0.159564  0.337968  1
  O  O27  1  0.319128  0.159564  0.162032  1
  O  O28  1  0.849378  0.698757  0.750000  1
  O  O29  1  0.840436  0.680872  0.162032  1
  O  O30  1  0.319128  0.159564  0.337968  1
  O  O31  1  0.840436  0.159564  0.162032  1
  O  O32  1  0.159564  0.319128  0.837968  1
  O  O33  1  0.840436  0.680872  0.337968  1
  O  O34  1  0.680872  0.840436  0.662032  1
  O  O35  1  0.159564  0.840436  0.837968  1
