# generated using pymatgen
data_Sr5Pd2
_symmetry_space_group_name_H-M   'P 1'
_cell_length_a   9.65326137
_cell_length_b   9.65326145
_cell_length_c   8.11132357
_cell_angle_alpha   83.63596396
_cell_angle_beta   83.63596536
_cell_angle_gamma   43.80989844
_symmetry_Int_Tables_number   1
_chemical_formula_structural   Sr5Pd2
_chemical_formula_sum   'Sr10 Pd4'
_cell_volume   519.50808826
_cell_formula_units_Z   2
loop_
 _symmetry_equiv_pos_site_id
 _symmetry_equiv_pos_as_xyz
  1  'x, y, z'
loop_
 _atom_site_type_symbol
 _atom_site_label
 _atom_site_symmetry_multiplicity
 _atom_site_fract_x
 _atom_site_fract_y
 _atom_site_fract_z
 _atom_site_occupancy
  Sr  Sr0  1  0.009708  0.805830  0.415555  1
  Sr  Sr1  1  0.194170  0.990292  0.084445  1
  Sr  Sr2  1  0.990292  0.194170  0.584445  1
  Sr  Sr3  1  0.805830  0.009708  0.915555  1
  Sr  Sr4  1  0.365173  0.205668  0.319429  1
  Sr  Sr5  1  0.794332  0.634827  0.180571  1
  Sr  Sr6  1  0.634827  0.794332  0.680571  1
  Sr  Sr7  1  0.205668  0.365173  0.819429  1
  Sr  Sr8  1  0.573646  0.426354  0.250000  1
  Sr  Sr9  1  0.426354  0.573646  0.750000  1
  Pd  Pd10  1  0.182421  0.596079  0.081473  1
  Pd  Pd11  1  0.403921  0.817579  0.418527  1
  Pd  Pd12  1  0.817579  0.403921  0.918527  1
  Pd  Pd13  1  0.596079  0.182421  0.581473  1
