# generated using pymatgen
data_AcY(Si7Ir3)2
_symmetry_space_group_name_H-M   'P 1'
_cell_length_a   8.14583009
_cell_length_b   8.14583146
_cell_length_c   8.14582955
_cell_angle_alpha   56.46096323
_cell_angle_beta   56.46095890
_cell_angle_gamma   56.46095641
_symmetry_Int_Tables_number   1
_chemical_formula_structural   AcY(Si7Ir3)2
_chemical_formula_sum   'Ac1 Y1 Si14 Ir6'
_cell_volume   350.93065941
_cell_formula_units_Z   1
loop_
 _symmetry_equiv_pos_site_id
 _symmetry_equiv_pos_as_xyz
  1  'x, y, z'
loop_
 _atom_site_type_symbol
 _atom_site_label
 _atom_site_symmetry_multiplicity
 _atom_site_fract_x
 _atom_site_fract_y
 _atom_site_fract_z
 _atom_site_occupancy
  Ac  Ac0  1  0.500000  0.500000  0.500000  1
  Y  Y1  1  0.000000  0.000000  0.000000  1
  Si  Si2  1  0.059890  0.853378  0.674837  1
  Si  Si3  1  0.674837  0.059890  0.853378  1
  Si  Si4  1  0.853378  0.674837  0.059890  1
  Si  Si5  1  0.171062  0.348089  0.564985  1
  Si  Si6  1  0.564985  0.171062  0.348089  1
  Si  Si7  1  0.348089  0.564985  0.171062  1
  Si  Si8  1  0.940110  0.146622  0.325163  1
  Si  Si9  1  0.325163  0.940110  0.146622  1
  Si  Si10  1  0.146622  0.325163  0.940110  1
  Si  Si11  1  0.828938  0.651911  0.435015  1
  Si  Si12  1  0.435015  0.828938  0.651911  1
  Si  Si13  1  0.651911  0.435015  0.828938  1
  Si  Si14  1  0.749637  0.749637  0.749637  1
  Si  Si15  1  0.250363  0.250363  0.250363  1
  Ir  Ir16  1  0.064842  0.753956  0.429107  1
  Ir  Ir17  1  0.429107  0.064842  0.753956  1
  Ir  Ir18  1  0.753956  0.429107  0.064842  1
  Ir  Ir19  1  0.935158  0.246044  0.570893  1
  Ir  Ir20  1  0.570893  0.935158  0.246044  1
  Ir  Ir21  1  0.246044  0.570893  0.935158  1
