# generated using pymatgen
data_Sr3LaTh4(Si3Pt)4
_symmetry_space_group_name_H-M   'P 1'
_cell_length_a   8.25595700
_cell_length_b   8.25595632
_cell_length_c   8.70907500
_cell_angle_alpha   90.00000000
_cell_angle_beta   90.00000000
_cell_angle_gamma   119.99999871
_symmetry_Int_Tables_number   1
_chemical_formula_structural   Sr3LaTh4(Si3Pt)4
_chemical_formula_sum   'Sr3 La1 Th4 Si12 Pt4'
_cell_volume   514.08801224
_cell_formula_units_Z   1
loop_
 _symmetry_equiv_pos_site_id
 _symmetry_equiv_pos_as_xyz
  1  'x, y, z'
loop_
 _atom_site_type_symbol
 _atom_site_label
 _atom_site_symmetry_multiplicity
 _atom_site_fract_x
 _atom_site_fract_y
 _atom_site_fract_z
 _atom_site_occupancy
  Sr  Sr0  1  0.500145  0.499855  0.250000  1
  Sr  Sr1  1  0.999709  0.499855  0.250000  1
  Sr  Sr2  1  0.500145  0.000291  0.250000  1
  La  La3  1  0.000000  0.000000  0.250000  1
  Th  Th4  1  0.499876  0.500124  0.750000  1
  Th  Th5  1  0.000248  0.500124  0.750000  1
  Th  Th6  1  0.499876  0.999752  0.750000  1
  Th  Th7  1  0.000000  0.000000  0.750000  1
  Si  Si8  1  0.834622  0.165378  0.989347  1
  Si  Si9  1  0.165371  0.834629  0.989672  1
  Si  Si10  1  0.330755  0.165378  0.989347  1
  Si  Si11  1  0.165371  0.834629  0.510328  1
  Si  Si12  1  0.669258  0.834629  0.989672  1
  Si  Si13  1  0.834622  0.165378  0.510653  1
  Si  Si14  1  0.834622  0.669245  0.989347  1
  Si  Si15  1  0.669258  0.834629  0.510328  1
  Si  Si16  1  0.165371  0.330742  0.989672  1
  Si  Si17  1  0.330755  0.165378  0.510653  1
  Si  Si18  1  0.165371  0.330742  0.510328  1
  Si  Si19  1  0.834622  0.669245  0.510653  1
  Pt  Pt20  1  0.666667  0.333333  0.987232  1
  Pt  Pt21  1  0.333333  0.666667  0.987665  1
  Pt  Pt22  1  0.333333  0.666667  0.512335  1
  Pt  Pt23  1  0.666667  0.333333  0.512768  1
