# generated using pymatgen
data_TmI29
_symmetry_space_group_name_H-M   'P 1'
_cell_length_a   12.11383006
_cell_length_b   14.54738519
_cell_length_c   17.49222400
_cell_angle_alpha   46.82660592
_cell_angle_beta   56.29537274
_cell_angle_gamma   62.84875093
_symmetry_Int_Tables_number   1
_chemical_formula_structural   TmI29
_chemical_formula_sum   'Tm1 I29'
_cell_volume   1855.19745426
_cell_formula_units_Z   1
loop_
 _symmetry_equiv_pos_site_id
 _symmetry_equiv_pos_as_xyz
  1  'x, y, z'
loop_
 _atom_site_type_symbol
 _atom_site_label
 _atom_site_symmetry_multiplicity
 _atom_site_fract_x
 _atom_site_fract_y
 _atom_site_fract_z
 _atom_site_occupancy
  Tm  Tm0  1  0.000000  0.000000  0.000000  1
  I  I1  1  0.500000  0.000000  0.000000  1
  I  I2  1  0.105776  0.170739  0.206201  1
  I  I3  1  0.738928  0.470171  0.374011  1
  I  I4  1  0.261072  0.529829  0.625989  1
  I  I5  1  0.591975  0.152088  0.245754  1
  I  I6  1  0.894224  0.829261  0.793799  1
  I  I7  1  0.314218  0.348108  0.401087  1
  I  I8  1  0.685782  0.651892  0.598913  1
  I  I9  1  0.408025  0.847912  0.754246  1
  I  I10  1  0.243312  0.112499  0.843209  1
  I  I11  1  0.582751  0.802887  0.965800  1
  I  I12  1  0.844434  0.242003  0.009373  1
  I  I13  1  0.117276  0.891529  0.165353  1
  I  I14  1  0.436874  0.571556  0.203291  1
  I  I15  1  0.882724  0.108471  0.834647  1
  I  I16  1  0.836783  0.142614  0.353587  1
  I  I17  1  0.155566  0.757997  0.990627  1
  I  I18  1  0.934285  0.727637  0.389047  1
  I  I19  1  0.417249  0.197113  0.034200  1
  I  I20  1  0.756688  0.887501  0.156791  1
  I  I21  1  0.563736  0.291119  0.562114  1
  I  I22  1  0.649643  0.952503  0.596575  1
  I  I23  1  0.984173  0.554697  0.164738  1
  I  I24  1  0.015827  0.445303  0.835262  1
  I  I25  1  0.350357  0.047497  0.403425  1
  I  I26  1  0.436264  0.708881  0.437886  1
  I  I27  1  0.065715  0.272363  0.610953  1
  I  I28  1  0.163217  0.857386  0.646413  1
  I  I29  1  0.563126  0.428444  0.796709  1
