# generated using pymatgen
data_Nd5Sn15Ir7Pd
_symmetry_space_group_name_H-M   'P 1'
_cell_length_a   4.52403300
_cell_length_b   7.36057278
_cell_length_c   18.77869209
_cell_angle_alpha   89.83522901
_cell_angle_beta   90.00000000
_cell_angle_gamma   90.00000000
_symmetry_Int_Tables_number   1
_chemical_formula_structural   Nd5Sn15Ir7Pd
_chemical_formula_sum   'Nd5 Sn15 Ir7 Pd1'
_cell_volume   625.31798600
_cell_formula_units_Z   1
loop_
 _symmetry_equiv_pos_site_id
 _symmetry_equiv_pos_as_xyz
  1  'x, y, z'
loop_
 _atom_site_type_symbol
 _atom_site_label
 _atom_site_symmetry_multiplicity
 _atom_site_fract_x
 _atom_site_fract_y
 _atom_site_fract_z
 _atom_site_occupancy
  Nd  Nd0  1  0.500000  0.004328  0.854471  1
  Nd  Nd1  1  0.500000  0.498267  0.357889  1
  Nd  Nd2  1  0.000000  0.997629  0.144613  1
  Nd  Nd3  1  0.000000  0.501164  0.642120  1
  Nd  Nd4  1  0.500000  0.491744  0.929088  1
  Sn  Sn5  1  0.000000  0.719525  0.805459  1
  Sn  Sn6  1  0.000000  0.778985  0.307248  1
  Sn  Sn7  1  0.500000  0.276273  0.194378  1
  Sn  Sn8  1  0.500000  0.219663  0.692153  1
  Sn  Sn9  1  0.000000  0.852861  0.967216  1
  Sn  Sn10  1  0.000000  0.631678  0.467658  1
  Sn  Sn11  1  0.500000  0.137406  0.032811  1
  Sn  Sn12  1  0.500000  0.367278  0.531832  1
  Sn  Sn13  1  0.000000  0.303640  0.818359  1
  Sn  Sn14  1  0.000000  0.200236  0.318216  1
  Sn  Sn15  1  0.500000  0.699550  0.187696  1
  Sn  Sn16  1  0.500000  0.806564  0.678585  1
  Sn  Sn17  1  0.500000  0.021541  0.433688  1
  Sn  Sn18  1  0.000000  0.507615  0.067242  1
  Sn  Sn19  1  0.000000  0.979544  0.567740  1
  Ir  Ir20  1  0.000000  0.230196  0.965508  1
  Ir  Ir21  1  0.000000  0.249783  0.464949  1
  Ir  Ir22  1  0.500000  0.750820  0.533307  1
  Ir  Ir23  1  0.000000  0.018014  0.715828  1
  Ir  Ir24  1  0.000000  0.483639  0.213397  1
  Ir  Ir25  1  0.500000  0.986837  0.289101  1
  Ir  Ir26  1  0.500000  0.520155  0.773792  1
  Pd  Pd27  1  0.500000  0.765063  0.045657  1
