# generated using pymatgen
data_Er10LuThCo4
_symmetry_space_group_name_H-M   'P 1'
_cell_length_a   6.16924216
_cell_length_b   6.88866542
_cell_length_c   9.37192052
_cell_angle_alpha   89.96757371
_cell_angle_beta   89.98096841
_cell_angle_gamma   91.07963124
_symmetry_Int_Tables_number   1
_chemical_formula_structural   Er10LuThCo4
_chemical_formula_sum   'Er10 Lu1 Th1 Co4'
_cell_volume   398.21563296
_cell_formula_units_Z   1
loop_
 _symmetry_equiv_pos_site_id
 _symmetry_equiv_pos_as_xyz
  1  'x, y, z'
loop_
 _atom_site_type_symbol
 _atom_site_label
 _atom_site_symmetry_multiplicity
 _atom_site_fract_x
 _atom_site_fract_y
 _atom_site_fract_z
 _atom_site_occupancy
  Er  Er0  1  0.174035  0.175352  0.432092  1
  Er  Er1  1  0.676147  0.323773  0.568737  1
  Er  Er2  1  0.822820  0.826942  0.931260  1
  Er  Er3  1  0.675733  0.324137  0.931487  1
  Er  Er4  1  0.823145  0.827420  0.569168  1
  Er  Er5  1  0.327333  0.675364  0.433155  1
  Er  Er6  1  0.174582  0.175326  0.067823  1
  Er  Er7  1  0.638696  0.041090  0.249758  1
  Er  Er8  1  0.143924  0.457420  0.750678  1
  Er  Er9  1  0.357596  0.957138  0.750467  1
  Lu  Lu10  1  0.327691  0.675554  0.067015  1
  Th  Th11  1  0.848346  0.552613  0.249248  1
  Co  Co12  1  0.045268  0.871781  0.249311  1
  Co  Co13  1  0.464590  0.388787  0.249150  1
  Co  Co14  1  0.953453  0.114303  0.750023  1
  Co  Co15  1  0.546642  0.612997  0.750629  1
