# generated using pymatgen
data_TiCr2B4Mo7P2
_symmetry_space_group_name_H-M   'P 1'
_cell_length_a   5.87441146
_cell_length_b   5.87441209
_cell_length_c   6.93585929
_cell_angle_alpha   115.03497787
_cell_angle_beta   115.03496763
_cell_angle_gamma   90.01861877
_symmetry_Int_Tables_number   1
_chemical_formula_structural   TiCr2B4Mo7P2
_chemical_formula_sum   'Ti1 Cr2 B4 Mo7 P2'
_cell_volume   191.73750313
_cell_formula_units_Z   1
loop_
 _symmetry_equiv_pos_site_id
 _symmetry_equiv_pos_as_xyz
  1  'x, y, z'
loop_
 _atom_site_type_symbol
 _atom_site_label
 _atom_site_symmetry_multiplicity
 _atom_site_fract_x
 _atom_site_fract_y
 _atom_site_fract_z
 _atom_site_occupancy
  Ti  Ti0  1  0.028917  0.528917  0.720457  1
  Cr  Cr1  1  0.495311  0.499998  0.995321  1
  Cr  Cr2  1  0.999998  0.995311  0.995321  1
  B  B3  1  0.380226  0.880226  0.002134  1
  B  B4  1  0.621766  0.121766  0.002401  1
  B  B5  1  0.120206  0.380015  0.999778  1
  B  B6  1  0.880015  0.620206  0.999778  1
  Mo  Mo7  1  0.694244  0.194244  0.727140  1
  Mo  Mo8  1  0.193557  0.033030  0.725567  1
  Mo  Mo9  1  0.533030  0.693557  0.725567  1
  Mo  Mo10  1  0.966518  0.466518  0.276355  1
  Mo  Mo11  1  0.308341  0.808341  0.275273  1
  Mo  Mo12  1  0.809643  0.965526  0.275983  1
  Mo  Mo13  1  0.465526  0.309643  0.275983  1
  P  P14  1  0.251968  0.250733  0.501470  1
  P  P15  1  0.750733  0.751968  0.501470  1
