# generated using pymatgen
data_Pr4Mg2As3P2
_symmetry_space_group_name_H-M   'P 1'
_cell_length_a   4.29837100
_cell_length_b   4.29837033
_cell_length_c   17.49471900
_cell_angle_alpha   90.00000000
_cell_angle_beta   90.00000000
_cell_angle_gamma   119.99999743
_symmetry_Int_Tables_number   1
_chemical_formula_structural   Pr4Mg2As3P2
_chemical_formula_sum   'Pr4 Mg2 As3 P2'
_cell_volume   279.92735581
_cell_formula_units_Z   1
loop_
 _symmetry_equiv_pos_site_id
 _symmetry_equiv_pos_as_xyz
  1  'x, y, z'
loop_
 _atom_site_type_symbol
 _atom_site_label
 _atom_site_symmetry_multiplicity
 _atom_site_fract_x
 _atom_site_fract_y
 _atom_site_fract_z
 _atom_site_occupancy
  Pr  Pr0  1  0.666667  0.333333  0.901883  1
  Pr  Pr1  1  0.333333  0.666667  0.098117  1
  Pr  Pr2  1  0.000000  0.000000  0.706399  1
  Pr  Pr3  1  0.000000  0.000000  0.293601  1
  Mg  Mg4  1  0.666667  0.333333  0.445351  1
  Mg  Mg5  1  0.333333  0.666667  0.554649  1
  As  As6  1  0.666667  0.333333  0.200142  1
  As  As7  1  0.333333  0.666667  0.799858  1
  As  As8  1  0.000000  0.000000  0.000000  1
  P  P9  1  0.666667  0.333333  0.597311  1
  P  P10  1  0.333333  0.666667  0.402689  1
