# generated using pymatgen
data_Ca3EuHf2(SiO3)8
_symmetry_space_group_name_H-M   'P 1'
_cell_length_a   13.80918700
_cell_length_b   5.41329806
_cell_length_c   7.50725301
_cell_angle_alpha   71.15203238
_cell_angle_beta   90.00000000
_cell_angle_gamma   90.00000000
_symmetry_Int_Tables_number   1
_chemical_formula_structural   Ca3EuHf2(SiO3)8
_chemical_formula_sum   'Ca3 Eu1 Hf2 Si8 O24'
_cell_volume   531.09994670
_cell_formula_units_Z   1
loop_
 _symmetry_equiv_pos_site_id
 _symmetry_equiv_pos_as_xyz
  1  'x, y, z'
loop_
 _atom_site_type_symbol
 _atom_site_label
 _atom_site_symmetry_multiplicity
 _atom_site_fract_x
 _atom_site_fract_y
 _atom_site_fract_z
 _atom_site_occupancy
  Ca  Ca0  1  0.997235  0.998376  0.502758  1
  Ca  Ca1  1  0.750000  0.829223  0.815735  1
  Ca  Ca2  1  0.502765  0.998376  0.502758  1
  Eu  Eu3  1  0.250000  0.158500  0.187191  1
  Hf  Hf4  1  0.500822  0.001883  0.999327  1
  Hf  Hf5  1  0.999178  0.001883  0.999327  1
  Si  Si6  1  0.639750  0.425165  0.616526  1
  Si  Si7  1  0.863572  0.433607  0.181202  1
  Si  Si8  1  0.860250  0.425165  0.616526  1
  Si  Si9  1  0.135494  0.572972  0.816032  1
  Si  Si10  1  0.137010  0.569785  0.385658  1
  Si  Si11  1  0.636428  0.433607  0.181202  1
  Si  Si12  1  0.364506  0.572972  0.816032  1
  Si  Si13  1  0.362990  0.569785  0.385658  1
  O  O14  1  0.069172  0.801173  0.846581  1
  O  O15  1  0.866603  0.716230  0.624666  1
  O  O16  1  0.884169  0.731502  0.046998  1
  O  O17  1  0.120446  0.615898  0.590316  1
  O  O18  1  0.933592  0.204160  0.745935  1
  O  O19  1  0.750000  0.298210  0.685589  1
  O  O20  1  0.878199  0.399022  0.405881  1
  O  O21  1  0.250000  0.671732  0.316672  1
  O  O22  1  0.374906  0.275828  0.388227  1
  O  O23  1  0.750000  0.379885  0.135066  1
  O  O24  1  0.250000  0.619168  0.861549  1
  O  O25  1  0.621801  0.399022  0.405881  1
  O  O26  1  0.111803  0.275830  0.945827  1
  O  O27  1  0.430828  0.801173  0.846581  1
  O  O28  1  0.068002  0.796896  0.248944  1
  O  O29  1  0.930510  0.203313  0.154219  1
  O  O30  1  0.566408  0.204160  0.745935  1
  O  O31  1  0.615831  0.731502  0.046998  1
  O  O32  1  0.633397  0.716230  0.624666  1
  O  O33  1  0.379554  0.615898  0.590316  1
  O  O34  1  0.125094  0.275828  0.388227  1
  O  O35  1  0.431998  0.796896  0.248944  1
  O  O36  1  0.388197  0.275830  0.945827  1
  O  O37  1  0.569490  0.203313  0.154219  1
