# generated using pymatgen
data_CaZr(Al3Ni)6
_symmetry_space_group_name_H-M   'P 1'
_cell_length_a   10.04703056
_cell_length_b   10.04703108
_cell_length_c   10.04703107
_cell_angle_alpha   42.29599943
_cell_angle_beta   42.29600397
_cell_angle_gamma   42.29600331
_symmetry_Int_Tables_number   1
_chemical_formula_structural   CaZr(Al3Ni)6
_chemical_formula_sum   'Ca1 Zr1 Al18 Ni6'
_cell_volume   415.71285428
_cell_formula_units_Z   1
loop_
 _symmetry_equiv_pos_site_id
 _symmetry_equiv_pos_as_xyz
  1  'x, y, z'
loop_
 _atom_site_type_symbol
 _atom_site_label
 _atom_site_symmetry_multiplicity
 _atom_site_fract_x
 _atom_site_fract_y
 _atom_site_fract_z
 _atom_site_occupancy
  Ca  Ca0  1  0.833024  0.833024  0.833024  1
  Zr  Zr1  1  0.166997  0.166997  0.166997  1
  Al  Al2  1  0.102722  0.432502  0.766004  1
  Al  Al3  1  0.432502  0.766004  0.102722  1
  Al  Al4  1  0.565283  0.897955  0.235518  1
  Al  Al5  1  0.946852  0.946852  0.946852  1
  Al  Al6  1  0.052859  0.052859  0.052859  1
  Al  Al7  1  0.292513  0.716299  0.491181  1
  Al  Al8  1  0.897955  0.235518  0.565283  1
  Al  Al9  1  0.388333  0.388333  0.388333  1
  Al  Al10  1  0.491181  0.292513  0.716299  1
  Al  Al11  1  0.235518  0.565283  0.897955  1
  Al  Al12  1  0.718861  0.718861  0.718861  1
  Al  Al13  1  0.612426  0.612426  0.612426  1
  Al  Al14  1  0.333569  0.001062  0.665370  1
  Al  Al15  1  0.716299  0.491181  0.292513  1
  Al  Al16  1  0.665370  0.333569  0.001062  1
  Al  Al17  1  0.280715  0.280715  0.280715  1
  Al  Al18  1  0.001062  0.665370  0.333569  1
  Al  Al19  1  0.766004  0.102722  0.432502  1
  Ni  Ni20  1  0.416333  0.080180  0.757942  1
  Ni  Ni21  1  0.580148  0.243204  0.922149  1
  Ni  Ni22  1  0.080180  0.757942  0.416333  1
  Ni  Ni23  1  0.757942  0.416333  0.080180  1
  Ni  Ni24  1  0.922149  0.580148  0.243204  1
  Ni  Ni25  1  0.243204  0.922149  0.580148  1
