# generated using pymatgen
data_Dy2Er2Al24Ir2Pt7
_symmetry_space_group_name_H-M   'P 1'
_cell_length_a   7.51268514
_cell_length_b   7.51128853
_cell_length_c   13.17483319
_cell_angle_alpha   84.52796105
_cell_angle_beta   100.90227299
_cell_angle_gamma   119.78090081
_symmetry_Int_Tables_number   1
_chemical_formula_structural   Dy2Er2Al24Ir2Pt7
_chemical_formula_sum   'Dy2 Er2 Al24 Ir2 Pt7'
_cell_volume   633.62061549
_cell_formula_units_Z   1
loop_
 _symmetry_equiv_pos_site_id
 _symmetry_equiv_pos_as_xyz
  1  'x, y, z'
loop_
 _atom_site_type_symbol
 _atom_site_label
 _atom_site_symmetry_multiplicity
 _atom_site_fract_x
 _atom_site_fract_y
 _atom_site_fract_z
 _atom_site_occupancy
  Dy  Dy0  1  0.731976  0.998551  0.190127  1
  Dy  Dy1  1  0.267227  0.001295  0.809749  1
  Er  Er2  1  0.062237  0.668934  0.190553  1
  Er  Er3  1  0.938492  0.331558  0.809583  1
  Al  Al4  1  0.810057  0.870445  0.817672  1
  Al  Al5  1  0.190447  0.128796  0.182307  1
  Al  Al6  1  0.985283  0.668748  0.946317  1
  Al  Al7  1  0.020212  0.334553  0.053433  1
  Al  Al8  1  0.396359  0.662850  0.818892  1
  Al  Al9  1  0.601817  0.335938  0.182690  1
  Al  Al10  1  0.882458  0.664825  0.673152  1
  Al  Al11  1  0.117579  0.335018  0.326196  1
  Al  Al12  1  0.603449  0.458409  0.816845  1
  Al  Al13  1  0.397072  0.543735  0.181547  1
  Al  Al14  1  0.230776  0.340328  0.670983  1
  Al  Al15  1  0.769388  0.659734  0.329086  1
  Al  Al16  1  0.853444  0.333571  0.559277  1
  Al  Al17  1  0.186510  0.999496  0.559107  1
  Al  Al18  1  0.814078  0.000076  0.440889  1
  Al  Al19  1  0.348575  0.996252  0.053851  1
  Al  Al20  1  0.648202  0.998199  0.946518  1
  Al  Al21  1  0.557037  0.992453  0.673702  1
  Al  Al22  1  0.443236  0.007232  0.326772  1
  Al  Al23  1  0.521625  0.668628  0.561798  1
  Al  Al24  1  0.478339  0.331640  0.438066  1
  Al  Al25  1  0.682438  0.671132  0.042995  1
  Al  Al26  1  0.314211  0.332232  0.956992  1
  Al  Al27  1  0.146816  0.665819  0.440930  1
  Ir  Ir28  1  0.328394  0.671273  0.000007  1
  Ir  Ir29  1  0.999776  0.000266  0.999976  1
  Pt  Pt30  1  0.546123  0.324555  0.637090  1
  Pt  Pt31  1  0.453888  0.674896  0.362483  1
  Pt  Pt32  1  0.887839  0.008504  0.638532  1
  Pt  Pt33  1  0.112271  0.991393  0.361494  1
  Pt  Pt34  1  0.671682  0.328619  0.999973  1
  Pt  Pt35  1  0.204059  0.666796  0.638754  1
  Pt  Pt36  1  0.796624  0.333250  0.361661  1
