# generated using pymatgen
data_CaNd2PaN4
_symmetry_space_group_name_H-M   'P 1'
_cell_length_a   6.30330267
_cell_length_b   6.30313807
_cell_length_c   5.00769800
_cell_angle_alpha   66.59640225
_cell_angle_beta   66.59294259
_cell_angle_gamma   46.81065513
_symmetry_Int_Tables_number   1
_chemical_formula_structural   CaNd2PaN4
_chemical_formula_sum   'Ca1 Nd2 Pa1 N4'
_cell_volume   130.76675024
_cell_formula_units_Z   1
loop_
 _symmetry_equiv_pos_site_id
 _symmetry_equiv_pos_as_xyz
  1  'x, y, z'
loop_
 _atom_site_type_symbol
 _atom_site_label
 _atom_site_symmetry_multiplicity
 _atom_site_fract_x
 _atom_site_fract_y
 _atom_site_fract_z
 _atom_site_occupancy
  Ca  Ca0  1  0.497873  0.502127  0.502127  1
  Nd  Nd1  1  0.747358  0.752642  0.752642  1
  Nd  Nd2  1  0.247358  0.252642  0.252642  1
  Pa  Pa3  1  0.999222  0.000778  0.000778  1
  N  N4  1  0.997710  0.002290  0.508177  1
  N  N5  1  0.210199  0.215610  0.789801  1
  N  N6  1  0.491823  0.508177  0.002290  1
  N  N7  1  0.784390  0.789801  0.215610  1
