# generated using pymatgen
data_Y3ErMg2(Ni7B2)2
_symmetry_space_group_name_H-M   'P 1'
_cell_length_a   4.99817300
_cell_length_b   4.99817207
_cell_length_c   14.23814400
_cell_angle_alpha   90.00000000
_cell_angle_beta   90.00000000
_cell_angle_gamma   119.99999957
_symmetry_Int_Tables_number   1
_chemical_formula_structural   Y3ErMg2(Ni7B2)2
_chemical_formula_sum   'Y3 Er1 Mg2 Ni14 B4'
_cell_volume   308.03956511
_cell_formula_units_Z   1
loop_
 _symmetry_equiv_pos_site_id
 _symmetry_equiv_pos_as_xyz
  1  'x, y, z'
loop_
 _atom_site_type_symbol
 _atom_site_label
 _atom_site_symmetry_multiplicity
 _atom_site_fract_x
 _atom_site_fract_y
 _atom_site_fract_z
 _atom_site_occupancy
  Y  Y0  1  0.666667  0.333333  0.529537  1
  Y  Y1  1  0.333333  0.666667  0.030128  1
  Y  Y2  1  0.666667  0.333333  0.755883  1
  Er  Er3  1  0.333333  0.666667  0.255686  1
  Mg  Mg4  1  0.333333  0.666667  0.466768  1
  Mg  Mg5  1  0.666667  0.333333  0.967707  1
  Ni  Ni6  1  0.834659  0.165341  0.352080  1
  Ni  Ni7  1  0.834659  0.669319  0.352080  1
  Ni  Ni8  1  0.000000  0.000000  0.998810  1
  Ni  Ni9  1  0.000000  0.000000  0.498450  1
  Ni  Ni10  1  0.833907  0.667813  0.148269  1
  Ni  Ni11  1  0.166192  0.833808  0.647574  1
  Ni  Ni12  1  0.667615  0.833808  0.647574  1
  Ni  Ni13  1  0.332187  0.166093  0.148269  1
  Ni  Ni14  1  0.833907  0.166093  0.148269  1
  Ni  Ni15  1  0.165304  0.330608  0.852766  1
  Ni  Ni16  1  0.165304  0.834696  0.852766  1
  Ni  Ni17  1  0.166192  0.332385  0.647574  1
  Ni  Ni18  1  0.669392  0.834696  0.852766  1
  Ni  Ni19  1  0.330681  0.165341  0.352080  1
  B  B20  1  0.666667  0.333333  0.249848  1
  B  B21  1  0.333333  0.666667  0.749857  1
  B  B22  1  0.000000  0.000000  0.747567  1
  B  B23  1  0.000000  0.000000  0.247691  1
