# generated using pymatgen
data_Dy3Er5B24IrRu3
_symmetry_space_group_name_H-M   'P 1'
_cell_length_a   3.64760900
_cell_length_b   9.12166552
_cell_length_c   11.47857109
_cell_angle_alpha   90.02598539
_cell_angle_beta   90.00000000
_cell_angle_gamma   90.00000000
_symmetry_Int_Tables_number   1
_chemical_formula_structural   Dy3Er5B24IrRu3
_chemical_formula_sum   'Dy3 Er5 B24 Ir1 Ru3'
_cell_volume   381.91806843
_cell_formula_units_Z   1
loop_
 _symmetry_equiv_pos_site_id
 _symmetry_equiv_pos_as_xyz
  1  'x, y, z'
loop_
 _atom_site_type_symbol
 _atom_site_label
 _atom_site_symmetry_multiplicity
 _atom_site_fract_x
 _atom_site_fract_y
 _atom_site_fract_z
 _atom_site_occupancy
  Dy  Dy0  1  0.000000  0.318945  0.414388  1
  Dy  Dy1  1  0.000000  0.679063  0.589123  1
  Dy  Dy2  1  0.000000  0.823322  0.084203  1
  Er  Er3  1  0.000000  0.178964  0.913132  1
  Er  Er4  1  0.000000  0.945705  0.373231  1
  Er  Er5  1  0.000000  0.056095  0.627052  1
  Er  Er6  1  0.000000  0.441599  0.125340  1
  Er  Er7  1  0.000000  0.555783  0.873356  1
  B  B8  1  0.500000  0.553988  0.433652  1
  B  B9  1  0.500000  0.445765  0.567238  1
  B  B10  1  0.500000  0.054585  0.066671  1
  B  B11  1  0.500000  0.946529  0.932616  1
  B  B12  1  0.500000  0.749799  0.421098  1
  B  B13  1  0.500000  0.251170  0.580339  1
  B  B14  1  0.500000  0.248024  0.079446  1
  B  B15  1  0.500000  0.751924  0.919841  1
  B  B16  1  0.500000  0.792262  0.265716  1
  B  B17  1  0.500000  0.208621  0.734046  1
  B  B18  1  0.500000  0.291434  0.233987  1
  B  B19  1  0.500000  0.708744  0.766467  1
  B  B20  1  0.500000  0.631372  0.183666  1
  B  B21  1  0.500000  0.368386  0.815125  1
  B  B22  1  0.500000  0.131386  0.314983  1
  B  B23  1  0.500000  0.868614  0.685308  1
  B  B24  1  0.500000  0.983017  0.213075  1
  B  B25  1  0.500000  0.017532  0.786790  1
  B  B26  1  0.500000  0.481727  0.286212  1
  B  B27  1  0.500000  0.516717  0.713713  1
  B  B28  1  0.500000  0.608693  0.030142  1
  B  B29  1  0.500000  0.390632  0.969941  1
  B  B30  1  0.500000  0.107798  0.470373  1
  B  B31  1  0.500000  0.891533  0.529540  1
  Ir  Ir32  1  0.000000  0.637606  0.321128  1
  Ru  Ru33  1  0.000000  0.362031  0.678966  1
  Ru  Ru34  1  0.000000  0.138027  0.179220  1
  Ru  Ru35  1  0.000000  0.862606  0.820881  1
