# generated using pymatgen
data_Ho4Ga18Ir5Pt
_symmetry_space_group_name_H-M   'P 1'
_cell_length_a   7.60757965
_cell_length_b   7.60757930
_cell_length_c   9.48849209
_cell_angle_alpha   89.97218318
_cell_angle_beta   89.97217944
_cell_angle_gamma   119.91689862
_symmetry_Int_Tables_number   1
_chemical_formula_structural   Ho4Ga18Ir5Pt
_chemical_formula_sum   'Ho4 Ga18 Ir5 Pt1'
_cell_volume   475.97449938
_cell_formula_units_Z   1
loop_
 _symmetry_equiv_pos_site_id
 _symmetry_equiv_pos_as_xyz
  1  'x, y, z'
loop_
 _atom_site_type_symbol
 _atom_site_label
 _atom_site_symmetry_multiplicity
 _atom_site_fract_x
 _atom_site_fract_y
 _atom_site_fract_z
 _atom_site_occupancy
  Ho  Ho0  1  0.995658  0.668401  0.251247  1
  Ho  Ho1  1  0.002143  0.329878  0.748789  1
  Ho  Ho2  1  0.670122  0.997857  0.251211  1
  Ho  Ho3  1  0.331599  0.004342  0.748753  1
  Ga  Ga4  1  0.128514  0.126912  0.250302  1
  Ga  Ga5  1  0.873088  0.871486  0.749698  1
  Ga  Ga6  1  0.002552  0.334497  0.081842  1
  Ga  Ga7  1  0.004863  0.668662  0.918274  1
  Ga  Ga8  1  0.002096  0.665633  0.580091  1
  Ga  Ga9  1  0.334367  0.997904  0.419909  1
  Ga  Ga10  1  0.998625  0.334138  0.419506  1
  Ga  Ga11  1  0.665862  0.001375  0.580494  1
  Ga  Ga12  1  0.665503  0.997448  0.918158  1
  Ga  Ga13  1  0.331338  0.995137  0.081726  1
  Ga  Ga14  1  0.331424  0.331542  0.564787  1
  Ga  Ga15  1  0.668458  0.668576  0.435213  1
  Ga  Ga16  1  0.667884  0.671126  0.068780  1
  Ga  Ga17  1  0.328874  0.332116  0.931220  1
  Ga  Ga18  1  0.340545  0.548864  0.250570  1
  Ga  Ga19  1  0.660198  0.455640  0.747520  1
  Ga  Ga20  1  0.544360  0.339802  0.252480  1
  Ga  Ga21  1  0.451136  0.659455  0.749430  1
  Ir  Ir22  1  0.328953  0.671047  0.000000  1
  Ir  Ir23  1  0.328671  0.671329  0.500000  1
  Ir  Ir24  1  0.671475  0.328525  0.500000  1
  Ir  Ir25  1  0.000213  0.999787  0.000000  1
  Ir  Ir26  1  0.999965  0.000035  0.500000  1
  Pt  Pt27  1  0.671512  0.328488  0.000000  1
