# generated using pymatgen
data_Pr2PaSn3IrRh2
_symmetry_space_group_name_H-M   'P 1'
_cell_length_a   7.78298000
_cell_length_b   7.69886284
_cell_length_c   3.94130300
_cell_angle_alpha   90.00000000
_cell_angle_beta   90.00000000
_cell_angle_gamma   120.35851526
_symmetry_Int_Tables_number   1
_chemical_formula_structural   Pr2PaSn3IrRh2
_chemical_formula_sum   'Pr2 Pa1 Sn3 Ir1 Rh2'
_cell_volume   203.78050797
_cell_formula_units_Z   1
loop_
 _symmetry_equiv_pos_site_id
 _symmetry_equiv_pos_as_xyz
  1  'x, y, z'
loop_
 _atom_site_type_symbol
 _atom_site_label
 _atom_site_symmetry_multiplicity
 _atom_site_fract_x
 _atom_site_fract_y
 _atom_site_fract_z
 _atom_site_occupancy
  Pr  Pr0  1  0.407709  0.408856  0.500000  1
  Pr  Pr1  1  0.999881  0.591616  0.500000  1
  Pa  Pa2  1  0.585146  0.999387  0.500000  1
  Sn  Sn3  1  0.242389  0.000549  0.000000  1
  Sn  Sn4  1  0.745879  0.739155  0.000000  1
  Sn  Sn5  1  0.005874  0.260694  0.000000  1
  Ir  Ir6  1  0.371774  0.711546  0.000000  1
  Rh  Rh7  1  0.980906  0.999769  0.500000  1
  Rh  Rh8  1  0.660441  0.288430  0.000000  1
