# generated using pymatgen
data_SmDy8Th3(Si2Ni)4
_symmetry_space_group_name_H-M   'P 1'
_cell_length_a   4.16914100
_cell_length_b   11.47549374
_cell_length_c   11.29741739
_cell_angle_alpha   89.92350764
_cell_angle_beta   90.00000000
_cell_angle_gamma   90.00000000
_symmetry_Int_Tables_number   1
_chemical_formula_structural   SmDy8Th3(Si2Ni)4
_chemical_formula_sum   'Sm1 Dy8 Th3 Si8 Ni4'
_cell_volume   540.50131039
_cell_formula_units_Z   1
loop_
 _symmetry_equiv_pos_site_id
 _symmetry_equiv_pos_as_xyz
  1  'x, y, z'
loop_
 _atom_site_type_symbol
 _atom_site_label
 _atom_site_symmetry_multiplicity
 _atom_site_fract_x
 _atom_site_fract_y
 _atom_site_fract_z
 _atom_site_occupancy
  Sm  Sm0  1  0.250000  0.119381  0.562768  1
  Dy  Dy1  1  0.750000  0.560118  0.615675  1
  Dy  Dy2  1  0.250000  0.379538  0.060345  1
  Dy  Dy3  1  0.750000  0.873833  0.437266  1
  Dy  Dy4  1  0.750000  0.621867  0.937271  1
  Dy  Dy5  1  0.250000  0.799117  0.710479  1
  Dy  Dy6  1  0.250000  0.691917  0.209943  1
  Dy  Dy7  1  0.750000  0.197386  0.290800  1
  Dy  Dy8  1  0.750000  0.313968  0.791530  1
  Th  Th9  1  0.250000  0.061400  0.883441  1
  Th  Th10  1  0.250000  0.439809  0.385762  1
  Th  Th11  1  0.750000  0.939800  0.115913  1
  Si  Si12  1  0.250000  0.805418  0.971183  1
  Si  Si13  1  0.250000  0.689956  0.471530  1
  Si  Si14  1  0.750000  0.195626  0.028326  1
  Si  Si15  1  0.750000  0.310856  0.532765  1
  Si  Si16  1  0.250000  0.497047  0.800963  1
  Si  Si17  1  0.250000  0.013618  0.306614  1
  Si  Si18  1  0.750000  0.508236  0.193724  1
  Si  Si19  1  0.750000  0.979487  0.693728  1
  Ni  Ni20  1  0.250000  0.365968  0.630374  1
  Ni  Ni21  1  0.250000  0.136616  0.128591  1
  Ni  Ni22  1  0.750000  0.633890  0.367696  1
  Ni  Ni23  1  0.750000  0.865148  0.873315  1
