# generated using pymatgen
data_Pr4In2Pd3Rh
_symmetry_space_group_name_H-M   'P 1'
_cell_length_a   7.85682046
_cell_length_b   7.85682046
_cell_length_c   3.93205000
_cell_angle_alpha   90.00000000
_cell_angle_beta   90.00000000
_cell_angle_gamma   90.14691453
_symmetry_Int_Tables_number   1
_chemical_formula_structural   Pr4In2Pd3Rh
_chemical_formula_sum   'Pr4 In2 Pd3 Rh1'
_cell_volume   242.72318465
_cell_formula_units_Z   1
loop_
 _symmetry_equiv_pos_site_id
 _symmetry_equiv_pos_as_xyz
  1  'x, y, z'
loop_
 _atom_site_type_symbol
 _atom_site_label
 _atom_site_symmetry_multiplicity
 _atom_site_fract_x
 _atom_site_fract_y
 _atom_site_fract_z
 _atom_site_occupancy
  Pr  Pr0  1  0.324146  0.834035  0.500000  1
  Pr  Pr1  1  0.826910  0.673090  0.500000  1
  Pr  Pr2  1  0.181409  0.318591  0.500000  1
  Pr  Pr3  1  0.665965  0.175854  0.500000  1
  In  In4  1  0.001224  0.000461  0.000000  1
  In  In5  1  0.499539  0.498776  0.000000  1
  Pd  Pd6  1  0.872932  0.371733  0.000000  1
  Pd  Pd7  1  0.128267  0.627068  0.000000  1
  Pd  Pd8  1  0.628274  0.871726  0.000000  1
  Rh  Rh9  1  0.371334  0.128666  0.000000  1
