# generated using pymatgen
data_Tm8Co2AgHg
_symmetry_space_group_name_H-M   'P 1'
_cell_length_a   9.30773491
_cell_length_b   9.30773533
_cell_length_c   9.29870500
_cell_angle_alpha   60.03208510
_cell_angle_beta   60.03208361
_cell_angle_gamma   60.06414775
_symmetry_Int_Tables_number   1
_chemical_formula_structural   Tm8Co2AgHg
_chemical_formula_sum   'Tm16 Co4 Ag2 Hg2'
_cell_volume   570.18561040
_cell_formula_units_Z   2
loop_
 _symmetry_equiv_pos_site_id
 _symmetry_equiv_pos_as_xyz
  1  'x, y, z'
loop_
 _atom_site_type_symbol
 _atom_site_label
 _atom_site_symmetry_multiplicity
 _atom_site_fract_x
 _atom_site_fract_y
 _atom_site_fract_z
 _atom_site_occupancy
  Tm  Tm0  1  0.347433  0.347433  0.346004  1
  Tm  Tm1  1  0.347433  0.347433  0.959131  1
  Tm  Tm2  1  0.349149  0.955590  0.347631  1
  Tm  Tm3  1  0.955590  0.349149  0.347631  1
  Tm  Tm4  1  0.811101  0.188649  0.188036  1
  Tm  Tm5  1  0.188649  0.811101  0.812213  1
  Tm  Tm6  1  0.188649  0.811101  0.188036  1
  Tm  Tm7  1  0.811101  0.188649  0.812213  1
  Tm  Tm8  1  0.187929  0.187929  0.812071  1
  Tm  Tm9  1  0.810767  0.810767  0.189233  1
  Tm  Tm10  1  0.939483  0.563274  0.561937  1
  Tm  Tm11  1  0.563274  0.939483  0.935306  1
  Tm  Tm12  1  0.563274  0.939483  0.561937  1
  Tm  Tm13  1  0.939483  0.563274  0.935306  1
  Tm  Tm14  1  0.563753  0.563753  0.936247  1
  Tm  Tm15  1  0.938606  0.938606  0.561394  1
  Co  Co16  1  0.140686  0.140686  0.142025  1
  Co  Co17  1  0.140686  0.140686  0.576604  1
  Co  Co18  1  0.139577  0.576151  0.142137  1
  Co  Co19  1  0.576151  0.139577  0.142137  1
  Ag  Ag20  1  0.581078  0.252681  0.583120  1
  Ag  Ag21  1  0.252681  0.581078  0.583120  1
  Hg  Hg22  1  0.581733  0.581733  0.586181  1
  Hg  Hg23  1  0.581733  0.581733  0.250350  1
