# generated using pymatgen
data_Yb12Ho5Er3Sn16
_symmetry_space_group_name_H-M   'P 1'
_cell_length_a   7.82381101
_cell_length_b   8.40929101
_cell_length_c   16.00974102
_cell_angle_alpha   89.99686889
_cell_angle_beta   89.99538836
_cell_angle_gamma   89.99525614
_symmetry_Int_Tables_number   1
_chemical_formula_structural   Yb12Ho5Er3Sn16
_chemical_formula_sum   'Yb12 Ho5 Er3 Sn16'
_cell_volume   1053.32413727
_cell_formula_units_Z   1
loop_
 _symmetry_equiv_pos_site_id
 _symmetry_equiv_pos_as_xyz
  1  'x, y, z'
loop_
 _atom_site_type_symbol
 _atom_site_label
 _atom_site_symmetry_multiplicity
 _atom_site_fract_x
 _atom_site_fract_y
 _atom_site_fract_z
 _atom_site_occupancy
  Yb  Yb0  1  0.499417  0.686775  0.593297  1
  Yb  Yb1  1  0.999404  0.813218  0.906719  1
  Yb  Yb2  1  0.500602  0.313215  0.093274  1
  Yb  Yb3  1  0.000571  0.186796  0.406731  1
  Yb  Yb4  1  0.500559  0.313228  0.406709  1
  Yb  Yb5  1  0.000531  0.186794  0.093285  1
  Yb  Yb6  1  0.499451  0.686785  0.906709  1
  Yb  Yb7  1  0.999449  0.813206  0.593288  1
  Yb  Yb8  1  0.827822  0.511253  0.750010  1
  Yb  Yb9  1  0.327815  0.988762  0.749991  1
  Yb  Yb10  1  0.172169  0.488717  0.249992  1
  Yb  Yb11  1  0.672197  0.011274  0.249973  1
  Ho  Ho12  1  0.666954  0.167399  0.622088  1
  Ho  Ho13  1  0.166938  0.332612  0.877926  1
  Ho  Ho14  1  0.333060  0.832613  0.122061  1
  Ho  Ho15  1  0.833058  0.667369  0.377942  1
  Ho  Ho16  1  0.333014  0.832631  0.377942  1
  Er  Er17  1  0.833051  0.667351  0.122001  1
  Er  Er18  1  0.666946  0.167225  0.877948  1
  Er  Er19  1  0.166975  0.332732  0.622094  1
  Sn  Sn20  1  0.673781  0.964489  0.460066  1
  Sn  Sn21  1  0.173594  0.535597  0.039972  1
  Sn  Sn22  1  0.326399  0.035578  0.960030  1
  Sn  Sn23  1  0.826411  0.464391  0.539985  1
  Sn  Sn24  1  0.326001  0.035692  0.539980  1
  Sn  Sn25  1  0.825983  0.464420  0.960121  1
  Sn  Sn26  1  0.674026  0.964447  0.039884  1
  Sn  Sn27  1  0.173818  0.535434  0.460177  1
  Sn  Sn28  1  0.463731  0.373928  0.749976  1
  Sn  Sn29  1  0.963724  0.126080  0.750031  1
  Sn  Sn30  1  0.536398  0.625949  0.249913  1
  Sn  Sn31  1  0.036157  0.873971  0.249950  1
  Sn  Sn32  1  0.708754  0.874081  0.750045  1
  Sn  Sn33  1  0.208761  0.625909  0.749960  1
  Sn  Sn34  1  0.291220  0.125992  0.249988  1
  Sn  Sn35  1  0.791260  0.374089  0.249943  1
