# generated using pymatgen
data_Ho3Lu(ZrPt)4
_symmetry_space_group_name_H-M   'P 1'
_cell_length_a   4.68694800
_cell_length_b   7.08076167
_cell_length_c   8.22917199
_cell_angle_alpha   89.96622785
_cell_angle_beta   90.00000000
_cell_angle_gamma   90.00000000
_symmetry_Int_Tables_number   1
_chemical_formula_structural   Ho3Lu(ZrPt)4
_chemical_formula_sum   'Ho3 Lu1 Zr4 Pt4'
_cell_volume   273.10281442
_cell_formula_units_Z   1
loop_
 _symmetry_equiv_pos_site_id
 _symmetry_equiv_pos_as_xyz
  1  'x, y, z'
loop_
 _atom_site_type_symbol
 _atom_site_label
 _atom_site_symmetry_multiplicity
 _atom_site_fract_x
 _atom_site_fract_y
 _atom_site_fract_z
 _atom_site_occupancy
  Ho  Ho0  1  0.250000  0.515217  0.179301  1
  Ho  Ho1  1  0.750000  0.485103  0.821752  1
  Ho  Ho2  1  0.750000  0.985271  0.677505  1
  Lu  Lu3  1  0.250000  0.016345  0.321869  1
  Zr  Zr4  1  0.250000  0.649507  0.580014  1
  Zr  Zr5  1  0.750000  0.350441  0.418853  1
  Zr  Zr6  1  0.750000  0.851819  0.082566  1
  Zr  Zr7  1  0.250000  0.148079  0.919573  1
  Pt  Pt8  1  0.250000  0.769298  0.908167  1
  Pt  Pt9  1  0.750000  0.229347  0.093136  1
  Pt  Pt10  1  0.750000  0.731115  0.407155  1
  Pt  Pt11  1  0.250000  0.268458  0.590111  1
