# generated using pymatgen
data_Ho2Fe5P6Rh5
_symmetry_space_group_name_H-M   'P 1'
_cell_length_a   3.78426900
_cell_length_b   10.44717800
_cell_length_c   12.23915200
_cell_angle_alpha   90.00000000
_cell_angle_beta   90.00000000
_cell_angle_gamma   90.00000000
_symmetry_Int_Tables_number   1
_chemical_formula_structural   Ho2Fe5P6Rh5
_chemical_formula_sum   'Ho4 Fe10 P12 Rh10'
_cell_volume   483.87404013
_cell_formula_units_Z   2
loop_
 _symmetry_equiv_pos_site_id
 _symmetry_equiv_pos_as_xyz
  1  'x, y, z'
loop_
 _atom_site_type_symbol
 _atom_site_label
 _atom_site_symmetry_multiplicity
 _atom_site_fract_x
 _atom_site_fract_y
 _atom_site_fract_z
 _atom_site_occupancy
  Ho  Ho0  1  0.250000  0.583022  0.712072  1
  Ho  Ho1  1  0.250000  0.916978  0.212072  1
  Ho  Ho2  1  0.750000  0.423454  0.290407  1
  Ho  Ho3  1  0.750000  0.076546  0.790407  1
  Fe  Fe4  1  0.750000  0.774093  0.828395  1
  Fe  Fe5  1  0.750000  0.725907  0.328395  1
  Fe  Fe6  1  0.250000  0.874337  0.697217  1
  Fe  Fe7  1  0.250000  0.625663  0.197217  1
  Fe  Fe8  1  0.750000  0.119799  0.301867  1
  Fe  Fe9  1  0.750000  0.380201  0.801867  1
  Fe  Fe10  1  0.250000  0.460049  0.934821  1
  Fe  Fe11  1  0.250000  0.039951  0.434821  1
  Fe  Fe12  1  0.750000  0.541165  0.064589  1
  Fe  Fe13  1  0.750000  0.958835  0.564589  1
  P  P14  1  0.250000  0.439434  0.111975  1
  P  P15  1  0.250000  0.060566  0.611975  1
  P  P16  1  0.750000  0.570586  0.886756  1
  P  P17  1  0.750000  0.929414  0.386756  1
  P  P18  1  0.250000  0.271853  0.863473  1
  P  P19  1  0.250000  0.228147  0.363473  1
  P  P20  1  0.750000  0.726853  0.146611  1
  P  P21  1  0.750000  0.773147  0.646611  1
  P  P22  1  0.250000  0.609576  0.376851  1
  P  P23  1  0.250000  0.890424  0.876851  1
  P  P24  1  0.750000  0.402943  0.618606  1
  P  P25  1  0.750000  0.097057  0.118606  1
  Rh  Rh26  1  0.250000  0.707906  0.984532  1
  Rh  Rh27  1  0.250000  0.792094  0.484532  1
  Rh  Rh28  1  0.750000  0.286896  0.009200  1
  Rh  Rh29  1  0.750000  0.213104  0.509200  1
  Rh  Rh30  1  0.250000  0.411977  0.477942  1
  Rh  Rh31  1  0.250000  0.088023  0.977942  1
  Rh  Rh32  1  0.750000  0.599246  0.520604  1
  Rh  Rh33  1  0.750000  0.900754  0.020604  1
  Rh  Rh34  1  0.250000  0.229797  0.174082  1
  Rh  Rh35  1  0.250000  0.270203  0.674082  1
