# generated using pymatgen
data_DyLu(Al2Co)2
_symmetry_space_group_name_H-M   'P 1'
_cell_length_a   5.37532965
_cell_length_b   5.37532898
_cell_length_c   7.07440400
_cell_angle_alpha   90.00000000
_cell_angle_beta   90.00000000
_cell_angle_gamma   136.54649708
_symmetry_Int_Tables_number   1
_chemical_formula_structural   DyLu(Al2Co)2
_chemical_formula_sum   'Dy1 Lu1 Al4 Co2'
_cell_volume   140.58549534
_cell_formula_units_Z   1
loop_
 _symmetry_equiv_pos_site_id
 _symmetry_equiv_pos_as_xyz
  1  'x, y, z'
loop_
 _atom_site_type_symbol
 _atom_site_label
 _atom_site_symmetry_multiplicity
 _atom_site_fract_x
 _atom_site_fract_y
 _atom_site_fract_z
 _atom_site_occupancy
  Dy  Dy0  1  0.060298  0.939702  0.250000  1
  Lu  Lu1  1  0.939684  0.060316  0.750000  1
  Al  Al2  1  0.658999  0.341001  0.942865  1
  Al  Al3  1  0.341342  0.658658  0.052964  1
  Al  Al4  1  0.341342  0.658658  0.447036  1
  Al  Al5  1  0.658999  0.341001  0.557135  1
  Co  Co6  1  0.217835  0.782165  0.750000  1
  Co  Co7  1  0.781501  0.218499  0.250000  1
