# generated using pymatgen
data_PrHo3(Si5Os3)2
_symmetry_space_group_name_H-M   'P 1'
_cell_length_a   8.16400449
_cell_length_b   8.14867294
_cell_length_c   5.81647962
_cell_angle_alpha   70.53347367
_cell_angle_beta   70.44006145
_cell_angle_gamma   93.93306297
_symmetry_Int_Tables_number   1
_chemical_formula_structural   PrHo3(Si5Os3)2
_chemical_formula_sum   'Pr1 Ho3 Si10 Os6'
_cell_volume   336.63050022
_cell_formula_units_Z   1
loop_
 _symmetry_equiv_pos_site_id
 _symmetry_equiv_pos_as_xyz
  1  'x, y, z'
loop_
 _atom_site_type_symbol
 _atom_site_label
 _atom_site_symmetry_multiplicity
 _atom_site_fract_x
 _atom_site_fract_y
 _atom_site_fract_z
 _atom_site_occupancy
  Pr  Pr0  1  0.868272  0.601290  0.754287  1
  Ho  Ho1  1  0.398423  0.131041  0.746811  1
  Ho  Ho2  1  0.131786  0.398428  0.245902  1
  Ho  Ho3  1  0.601693  0.868534  0.253459  1
  Si  Si4  1  0.069275  0.261574  0.833586  1
  Si  Si5  1  0.737535  0.936062  0.665429  1
  Si  Si6  1  0.933027  0.739395  0.165040  1
  Si  Si7  1  0.260490  0.067323  0.334233  1
  Si  Si8  1  0.208974  0.795198  0.749711  1
  Si  Si9  1  0.792945  0.206543  0.249142  1
  Si  Si10  1  0.509676  0.485279  0.752384  1
  Si  Si11  1  0.486319  0.511695  0.250512  1
  Si  Si12  1  0.773480  0.223124  0.751130  1
  Si  Si13  1  0.227863  0.774556  0.247240  1
  Os  Os14  1  0.257941  0.544278  0.630921  1
  Os  Os15  1  0.456877  0.744624  0.867588  1
  Os  Os16  1  0.742782  0.454584  0.371406  1
  Os  Os17  1  0.542005  0.253345  0.132825  1
  Os  Os18  1  0.002782  0.999290  0.749276  1
  Os  Os19  1  0.997854  0.003840  0.249119  1
