# generated using pymatgen
data_Tm8V5Si16Mo7
_symmetry_space_group_name_H-M   'P 1'
_cell_length_a   6.66984621
_cell_length_b   6.86506938
_cell_length_c   12.89519402
_cell_angle_alpha   89.99192098
_cell_angle_beta   89.98721848
_cell_angle_gamma   90.05506347
_symmetry_Int_Tables_number   1
_chemical_formula_structural   Tm8V5Si16Mo7
_chemical_formula_sum   'Tm8 V5 Si16 Mo7'
_cell_volume   590.45719087
_cell_formula_units_Z   1
loop_
 _symmetry_equiv_pos_site_id
 _symmetry_equiv_pos_as_xyz
  1  'x, y, z'
loop_
 _atom_site_type_symbol
 _atom_site_label
 _atom_site_symmetry_multiplicity
 _atom_site_fract_x
 _atom_site_fract_y
 _atom_site_fract_z
 _atom_site_occupancy
  Tm  Tm0  1  0.498962  0.329222  0.094764  1
  Tm  Tm1  1  0.999396  0.169953  0.406262  1
  Tm  Tm2  1  0.501809  0.670777  0.593497  1
  Tm  Tm3  1  0.000985  0.829433  0.906092  1
  Tm  Tm4  1  0.503536  0.666781  0.905736  1
  Tm  Tm5  1  0.003798  0.833266  0.593374  1
  Tm  Tm6  1  0.497174  0.331617  0.406032  1
  Tm  Tm7  1  0.997637  0.167878  0.095133  1
  V  V8  1  0.835475  0.333093  0.626312  1
  V  V9  1  0.334125  0.165966  0.874015  1
  V  V10  1  0.165333  0.668029  0.125668  1
  V  V11  1  0.667323  0.833053  0.373792  1
  V  V12  1  0.165240  0.667018  0.374613  1
  Si  Si13  1  0.664669  0.044582  0.542840  1
  Si  Si14  1  0.165545  0.455808  0.957114  1
  Si  Si15  1  0.334358  0.955127  0.042306  1
  Si  Si16  1  0.836955  0.545694  0.456905  1
  Si  Si17  1  0.339090  0.952093  0.454457  1
  Si  Si18  1  0.841147  0.543461  0.044742  1
  Si  Si19  1  0.658738  0.043134  0.955203  1
  Si  Si20  1  0.160462  0.459547  0.542657  1
  Si  Si21  1  0.535974  0.367848  0.748883  1
  Si  Si22  1  0.036312  0.131585  0.750648  1
  Si  Si23  1  0.460780  0.631847  0.251238  1
  Si  Si24  1  0.964696  0.867271  0.251728  1
  Si  Si25  1  0.801701  0.627836  0.747975  1
  Si  Si26  1  0.301683  0.872320  0.751439  1
  Si  Si27  1  0.198601  0.376139  0.250085  1
  Si  Si28  1  0.698425  0.126644  0.252030  1
  Mo  Mo29  1  0.667473  0.833536  0.124303  1
  Mo  Mo30  1  0.831687  0.334825  0.876681  1
  Mo  Mo31  1  0.330544  0.164938  0.623064  1
  Mo  Mo32  1  0.664910  0.004958  0.749711  1
  Mo  Mo33  1  0.164813  0.495234  0.749624  1
  Mo  Mo34  1  0.334503  0.992733  0.250080  1
  Mo  Mo35  1  0.836146  0.506747  0.250997  1
