# generated using pymatgen
data_Ce4TlNi4Ag
_symmetry_space_group_name_H-M   'P 1'
_cell_length_a   7.54739200
_cell_length_b   7.54739200
_cell_length_c   3.60462800
_cell_angle_alpha   90.00000000
_cell_angle_beta   90.00000000
_cell_angle_gamma   90.00000000
_symmetry_Int_Tables_number   1
_chemical_formula_structural   Ce4TlNi4Ag
_chemical_formula_sum   'Ce4 Tl1 Ni4 Ag1'
_cell_volume   205.33087895
_cell_formula_units_Z   1
loop_
 _symmetry_equiv_pos_site_id
 _symmetry_equiv_pos_as_xyz
  1  'x, y, z'
loop_
 _atom_site_type_symbol
 _atom_site_label
 _atom_site_symmetry_multiplicity
 _atom_site_fract_x
 _atom_site_fract_y
 _atom_site_fract_z
 _atom_site_occupancy
  Ce  Ce0  1  0.678751  0.167277  0.500000  1
  Ce  Ce1  1  0.167277  0.321249  0.500000  1
  Ce  Ce2  1  0.832723  0.678751  0.500000  1
  Ce  Ce3  1  0.321249  0.832723  0.500000  1
  Tl  Tl4  1  0.500000  0.500000  0.000000  1
  Ni  Ni5  1  0.877084  0.377018  0.000000  1
  Ni  Ni6  1  0.622982  0.877084  0.000000  1
  Ni  Ni7  1  0.122916  0.622982  0.000000  1
  Ni  Ni8  1  0.377018  0.122916  0.000000  1
  Ag  Ag9  1  0.000000  0.000000  0.000000  1
