# generated using pymatgen
data_Te11Rh2AuCl6
_symmetry_space_group_name_H-M   'P 1'
_cell_length_a   9.11087298
_cell_length_b   9.32894059
_cell_length_c   9.28870471
_cell_angle_alpha   108.67866889
_cell_angle_beta   107.76789988
_cell_angle_gamma   107.88268594
_symmetry_Int_Tables_number   1
_chemical_formula_structural   Te11Rh2AuCl6
_chemical_formula_sum   'Te11 Rh2 Au1 Cl6'
_cell_volume   636.50730618
_cell_formula_units_Z   1
loop_
 _symmetry_equiv_pos_site_id
 _symmetry_equiv_pos_as_xyz
  1  'x, y, z'
loop_
 _atom_site_type_symbol
 _atom_site_label
 _atom_site_symmetry_multiplicity
 _atom_site_fract_x
 _atom_site_fract_y
 _atom_site_fract_z
 _atom_site_occupancy
  Te  Te0  1  0.811561  0.076947  0.818867  1
  Te  Te1  1  0.077381  0.828650  0.815912  1
  Te  Te2  1  0.690427  0.670932  0.428354  1
  Te  Te3  1  0.420177  0.684976  0.665967  1
  Te  Te4  1  0.673414  0.436189  0.691163  1
  Te  Te5  1  0.175716  0.185895  0.923678  1
  Te  Te6  1  0.153674  0.918247  0.169963  1
  Te  Te7  1  0.913961  0.168224  0.169044  1
  Te  Te8  1  0.306660  0.327756  0.572149  1
  Te  Te9  1  0.574022  0.309633  0.327422  1
  Te  Te10  1  0.318539  0.572549  0.310864  1
  Rh  Rh11  1  0.747662  0.753986  0.742321  1
  Rh  Rh12  1  0.242253  0.248065  0.246599  1
  Au  Au13  1  0.822399  0.819356  0.085193  1
  Cl  Cl14  1  0.756714  0.004373  0.478388  1
  Cl  Cl15  1  0.521082  0.710496  0.018505  1
  Cl  Cl16  1  0.014642  0.496708  0.751890  1
  Cl  Cl17  1  0.260565  0.002579  0.517308  1
  Cl  Cl18  1  0.518410  0.246614  0.997601  1
  Cl  Cl19  1  0.000741  0.537827  0.268812  1
