# generated using pymatgen
data_TbMg(ZnPt)2
_symmetry_space_group_name_H-M   'P 1'
_cell_length_a   4.21246300
_cell_length_b   6.63896522
_cell_length_c   7.98206409
_cell_angle_alpha   93.44343337
_cell_angle_beta   90.00000000
_cell_angle_gamma   90.00000000
_symmetry_Int_Tables_number   1
_chemical_formula_structural   TbMg(ZnPt)2
_chemical_formula_sum   'Tb2 Mg2 Zn4 Pt4'
_cell_volume   222.82653760
_cell_formula_units_Z   2
loop_
 _symmetry_equiv_pos_site_id
 _symmetry_equiv_pos_as_xyz
  1  'x, y, z'
loop_
 _atom_site_type_symbol
 _atom_site_label
 _atom_site_symmetry_multiplicity
 _atom_site_fract_x
 _atom_site_fract_y
 _atom_site_fract_z
 _atom_site_occupancy
  Tb  Tb0  1  0.750000  0.962290  0.689355  1
  Tb  Tb1  1  0.250000  0.037710  0.310645  1
  Mg  Mg2  1  0.250000  0.532585  0.172858  1
  Mg  Mg3  1  0.750000  0.467415  0.827142  1
  Zn  Zn4  1  0.250000  0.640045  0.554140  1
  Zn  Zn5  1  0.750000  0.359955  0.445860  1
  Zn  Zn6  1  0.750000  0.843653  0.060158  1
  Zn  Zn7  1  0.250000  0.156347  0.939842  1
  Pt  Pt8  1  0.250000  0.747386  0.878362  1
  Pt  Pt9  1  0.750000  0.252614  0.121638  1
  Pt  Pt10  1  0.750000  0.735050  0.367249  1
  Pt  Pt11  1  0.250000  0.264950  0.632751  1
