# generated using pymatgen
data_Ac2ZnIn2Ag
_symmetry_space_group_name_H-M   'P 1'
_cell_length_a   6.31252087
_cell_length_b   6.31252145
_cell_length_c   8.06450431
_cell_angle_alpha   50.88907549
_cell_angle_beta   50.88907960
_cell_angle_gamma   46.72182266
_symmetry_Int_Tables_number   1
_chemical_formula_structural   Ac2ZnIn2Ag
_chemical_formula_sum   'Ac2 Zn1 In2 Ag1'
_cell_volume   169.97235981
_cell_formula_units_Z   1
loop_
 _symmetry_equiv_pos_site_id
 _symmetry_equiv_pos_as_xyz
  1  'x, y, z'
loop_
 _atom_site_type_symbol
 _atom_site_label
 _atom_site_symmetry_multiplicity
 _atom_site_fract_x
 _atom_site_fract_y
 _atom_site_fract_z
 _atom_site_occupancy
  Ac  Ac0  1  0.536022  0.536022  0.709343  1
  Ac  Ac1  1  0.461733  0.461733  0.290981  1
  Zn  Zn2  1  0.165862  0.165862  0.884747  1
  In  In3  1  0.830897  0.830897  0.720910  1
  In  In4  1  0.840646  0.840646  0.108715  1
  Ag  Ag5  1  0.164842  0.164842  0.285306  1
