# generated using pymatgen
data_DyLu(Al5Ru)4
_symmetry_space_group_name_H-M   'P 1'
_cell_length_a   6.83443476
_cell_length_b   6.83442362
_cell_length_c   9.11696800
_cell_angle_alpha   90.00000000
_cell_angle_beta   90.00000000
_cell_angle_gamma   96.69258488
_symmetry_Int_Tables_number   1
_chemical_formula_structural   DyLu(Al5Ru)4
_chemical_formula_sum   'Dy1 Lu1 Al20 Ru4'
_cell_volume   422.94646759
_cell_formula_units_Z   1
loop_
 _symmetry_equiv_pos_site_id
 _symmetry_equiv_pos_as_xyz
  1  'x, y, z'
loop_
 _atom_site_type_symbol
 _atom_site_label
 _atom_site_symmetry_multiplicity
 _atom_site_fract_x
 _atom_site_fract_y
 _atom_site_fract_z
 _atom_site_occupancy
  Dy  Dy0  1  0.873312  0.126691  0.750000  1
  Lu  Lu1  1  0.128188  0.871811  0.250000  1
  Al  Al2  1  0.585997  0.858714  0.250000  1
  Al  Al3  1  0.780303  0.521539  0.250000  1
  Al  Al4  1  0.157120  0.842887  0.901147  1
  Al  Al5  1  0.412337  0.140431  0.750000  1
  Al  Al6  1  0.622186  0.377809  0.949398  1
  Al  Al7  1  0.843420  0.156572  0.400200  1
  Al  Al8  1  0.774828  0.774573  0.000560  1
  Al  Al9  1  0.859567  0.587662  0.750000  1
  Al  Al10  1  0.843420  0.156572  0.099800  1
  Al  Al11  1  0.221151  0.480144  0.750000  1
  Al  Al12  1  0.157120  0.842887  0.598853  1
  Al  Al13  1  0.774828  0.774573  0.499440  1
  Al  Al14  1  0.478461  0.219692  0.250000  1
  Al  Al15  1  0.622186  0.377809  0.550602  1
  Al  Al16  1  0.225435  0.225164  0.499442  1
  Al  Al17  1  0.376879  0.623122  0.448335  1
  Al  Al18  1  0.141291  0.414001  0.250000  1
  Al  Al19  1  0.519854  0.778852  0.750000  1
  Al  Al20  1  0.376879  0.623122  0.051665  1
  Al  Al21  1  0.225435  0.225164  0.000558  1
  Ru  Ru22  1  0.499765  0.999869  0.000617  1
  Ru  Ru23  1  0.499765  0.999869  0.499383  1
  Ru  Ru24  1  0.000135  0.500236  0.000618  1
  Ru  Ru25  1  0.000135  0.500236  0.499382  1
