# generated using pymatgen
data_Dy6Er2Ga12CoCu3
_symmetry_space_group_name_H-M   'P 1'
_cell_length_a   7.00746500
_cell_length_b   8.77636161
_cell_length_c   8.76426878
_cell_angle_alpha   120.04565231
_cell_angle_beta   89.99724270
_cell_angle_gamma   90.00000296
_symmetry_Int_Tables_number   1
_chemical_formula_structural   Dy6Er2Ga12CoCu3
_chemical_formula_sum   'Dy6 Er2 Ga12 Co1 Cu3'
_cell_volume   466.57535652
_cell_formula_units_Z   1
loop_
 _symmetry_equiv_pos_site_id
 _symmetry_equiv_pos_as_xyz
  1  'x, y, z'
loop_
 _atom_site_type_symbol
 _atom_site_label
 _atom_site_symmetry_multiplicity
 _atom_site_fract_x
 _atom_site_fract_y
 _atom_site_fract_z
 _atom_site_occupancy
  Dy  Dy0  1  0.745665  0.000056  0.000113  1
  Dy  Dy1  1  0.252101  0.999934  0.999867  1
  Dy  Dy2  1  0.749832  0.485071  0.515275  1
  Dy  Dy3  1  0.255526  0.521806  0.478084  1
  Dy  Dy4  1  0.749832  0.030203  0.515275  1
  Dy  Dy5  1  0.255526  0.956277  0.478084  1
  Er  Er6  1  0.749894  0.485351  0.970702  1
  Er  Er7  1  0.256458  0.521968  0.043938  1
  Ga  Ga8  1  0.962329  0.830201  0.168310  1
  Ga  Ga9  1  0.040211  0.171305  0.830230  1
  Ga  Ga10  1  0.962329  0.338111  0.168310  1
  Ga  Ga11  1  0.463045  0.170975  0.830613  1
  Ga  Ga12  1  0.040211  0.658923  0.830230  1
  Ga  Ga13  1  0.540630  0.825393  0.172594  1
  Ga  Ga14  1  0.962047  0.830976  0.661950  1
  Ga  Ga15  1  0.463045  0.659636  0.830613  1
  Ga  Ga16  1  0.040305  0.170456  0.340914  1
  Ga  Ga17  1  0.540630  0.347201  0.172594  1
  Ga  Ga18  1  0.462907  0.170131  0.340264  1
  Ga  Ga19  1  0.540986  0.826392  0.652785  1
  Co  Co20  1  0.517494  0.665963  0.331925  1
  Cu  Cu21  1  0.945817  0.666360  0.332719  1
  Cu  Cu22  1  0.047409  0.333649  0.667299  1
  Cu  Cu23  1  0.455771  0.333658  0.667317  1
