# generated using pymatgen
data_Tb4Y4Ti11NbSi16
_symmetry_space_group_name_H-M   'P 1'
_cell_length_a   7.07233100
_cell_length_b   7.07228207
_cell_length_c   13.00868373
_cell_angle_alpha   89.95175537
_cell_angle_beta   90.03091955
_cell_angle_gamma   89.97368253
_symmetry_Int_Tables_number   1
_chemical_formula_structural   Tb4Y4Ti11NbSi16
_chemical_formula_sum   'Tb4 Y4 Ti11 Nb1 Si16'
_cell_volume   650.66170108
_cell_formula_units_Z   1
loop_
 _symmetry_equiv_pos_site_id
 _symmetry_equiv_pos_as_xyz
  1  'x, y, z'
loop_
 _atom_site_type_symbol
 _atom_site_label
 _atom_site_symmetry_multiplicity
 _atom_site_fract_x
 _atom_site_fract_y
 _atom_site_fract_z
 _atom_site_occupancy
  Tb  Tb0  1  0.159753  0.502093  0.783579  1
  Tb  Tb1  1  0.659520  0.997888  0.966651  1
  Tb  Tb2  1  0.002815  0.339735  0.533206  1
  Tb  Tb3  1  0.997830  0.659510  0.033411  1
  Y  Y4  1  0.339932  0.002617  0.466770  1
  Y  Y5  1  0.497554  0.839593  0.716764  1
  Y  Y6  1  0.501797  0.159515  0.216420  1
  Y  Y7  1  0.839628  0.497575  0.283215  1
  Ti  Ti8  1  0.173381  0.826889  0.250079  1
  Ti  Ti9  1  0.826957  0.173283  0.749838  1
  Ti  Ti10  1  0.672781  0.672893  0.499999  1
  Ti  Ti11  1  0.154004  0.009562  0.876813  1
  Ti  Ti12  1  0.490983  0.651681  0.125689  1
  Ti  Ti13  1  0.508580  0.347971  0.626258  1
  Ti  Ti14  1  0.651752  0.490953  0.874432  1
  Ti  Ti15  1  0.347959  0.508786  0.373764  1
  Ti  Ti16  1  0.847182  0.991677  0.376360  1
  Ti  Ti17  1  0.009610  0.153907  0.123313  1
  Ti  Ti18  1  0.991450  0.847020  0.623636  1
  Nb  Nb19  1  0.326827  0.326867  0.000030  1
  Si  Si20  1  0.202158  0.129098  0.684823  1
  Si  Si21  1  0.370720  0.703116  0.934625  1
  Si  Si22  1  0.629285  0.297848  0.434888  1
  Si  Si23  1  0.702995  0.370614  0.065476  1
  Si  Si24  1  0.298004  0.629502  0.564991  1
  Si  Si25  1  0.797906  0.870797  0.185243  1
  Si  Si26  1  0.129316  0.201948  0.315138  1
  Si  Si27  1  0.870711  0.797979  0.814730  1
  Si  Si28  1  0.290654  0.952261  0.065197  1
  Si  Si29  1  0.546720  0.791130  0.314900  1
  Si  Si30  1  0.454083  0.208131  0.813370  1
  Si  Si31  1  0.790833  0.546927  0.685041  1
  Si  Si32  1  0.208226  0.454041  0.186591  1
  Si  Si33  1  0.709168  0.046501  0.564734  1
  Si  Si34  1  0.952177  0.290616  0.934856  1
  Si  Si35  1  0.046749  0.709476  0.435172  1
