# generated using pymatgen
data_Hf18Cu2Re5W3
_symmetry_space_group_name_H-M   'P 1'
_cell_length_a   8.68450908
_cell_length_b   8.68450890
_cell_length_c   8.48999200
_cell_angle_alpha   90.00000000
_cell_angle_beta   90.00000000
_cell_angle_gamma   120.05335372
_symmetry_Int_Tables_number   1
_chemical_formula_structural   Hf18Cu2Re5W3
_chemical_formula_sum   'Hf18 Cu2 Re5 W3'
_cell_volume   554.23597369
_cell_formula_units_Z   1
loop_
 _symmetry_equiv_pos_site_id
 _symmetry_equiv_pos_as_xyz
  1  'x, y, z'
loop_
 _atom_site_type_symbol
 _atom_site_label
 _atom_site_symmetry_multiplicity
 _atom_site_fract_x
 _atom_site_fract_y
 _atom_site_fract_z
 _atom_site_occupancy
  Hf  Hf0  1  0.196371  0.803629  0.446504  1
  Hf  Hf1  1  0.196547  0.393062  0.447256  1
  Hf  Hf2  1  0.606938  0.803453  0.447256  1
  Hf  Hf3  1  0.803473  0.196527  0.554682  1
  Hf  Hf4  1  0.803775  0.607656  0.554112  1
  Hf  Hf5  1  0.392344  0.196225  0.554112  1
  Hf  Hf6  1  0.803473  0.196527  0.945318  1
  Hf  Hf7  1  0.803775  0.607656  0.945888  1
  Hf  Hf8  1  0.392344  0.196225  0.945888  1
  Hf  Hf9  1  0.196371  0.803629  0.053496  1
  Hf  Hf10  1  0.196547  0.393062  0.052744  1
  Hf  Hf11  1  0.606938  0.803453  0.052744  1
  Hf  Hf12  1  0.541222  0.458778  0.250000  1
  Hf  Hf13  1  0.540381  0.082024  0.250000  1
  Hf  Hf14  1  0.917976  0.459619  0.250000  1
  Hf  Hf15  1  0.458831  0.541169  0.750000  1
  Hf  Hf16  1  0.458123  0.917309  0.750000  1
  Hf  Hf17  1  0.082691  0.541877  0.750000  1
  Cu  Cu18  1  0.333410  0.666590  0.250000  1
  Cu  Cu19  1  0.666363  0.333637  0.750000  1
  Re  Re20  1  0.888603  0.776452  0.250000  1
  Re  Re21  1  0.223548  0.111397  0.250000  1
  Re  Re22  1  0.111242  0.888758  0.750000  1
  Re  Re23  1  0.111859  0.222932  0.750000  1
  Re  Re24  1  0.777068  0.888141  0.750000  1
  W  W25  1  0.889205  0.110795  0.250000  1
  W  W26  1  0.000291  0.999709  0.500174  1
  W  W27  1  0.000291  0.999709  0.999826  1
