# generated using pymatgen
data_K8Hf3Zr3BeI20
_symmetry_space_group_name_H-M   'P 1'
_cell_length_a   12.57388885
_cell_length_b   12.57595292
_cell_length_c   12.57773017
_cell_angle_alpha   59.98447003
_cell_angle_beta   60.00075123
_cell_angle_gamma   60.01478273
_symmetry_Int_Tables_number   1
_chemical_formula_structural   K8Hf3Zr3BeI20
_chemical_formula_sum   'K8 Hf3 Zr3 Be1 I20'
_cell_volume   1406.36402247
_cell_formula_units_Z   1
loop_
 _symmetry_equiv_pos_site_id
 _symmetry_equiv_pos_as_xyz
  1  'x, y, z'
loop_
 _atom_site_type_symbol
 _atom_site_label
 _atom_site_symmetry_multiplicity
 _atom_site_fract_x
 _atom_site_fract_y
 _atom_site_fract_z
 _atom_site_occupancy
  K  K0  1  0.361396  0.361403  0.361797  1
  K  K1  1  0.638694  0.638260  0.638283  1
  K  K2  1  0.361740  0.361306  0.915237  1
  K  K3  1  0.361797  0.915405  0.361396  1
  K  K4  1  0.638597  0.638604  0.084595  1
  K  K5  1  0.638283  0.084763  0.638694  1
  K  K6  1  0.915237  0.361717  0.361740  1
  K  K7  1  0.084595  0.638203  0.638597  1
  Hf  Hf8  1  0.864362  0.135638  0.135345  1
  Hf  Hf9  1  0.135345  0.864655  0.864362  1
  Hf  Hf10  1  0.135512  0.864488  0.135512  1
  Zr  Zr11  1  0.863509  0.136491  0.863509  1
  Zr  Zr12  1  0.136370  0.136646  0.863354  1
  Zr  Zr13  1  0.863354  0.863630  0.136370  1
  Be  Be14  1  0.000540  0.999460  0.000540  1
  I  I15  1  0.325382  0.998149  0.001851  1
  I  I16  1  0.673291  0.999986  0.000014  1
  I  I17  1  0.000014  0.326709  0.673291  1
  I  I18  1  0.001851  0.674618  0.325382  1
  I  I19  1  0.998236  0.325300  0.001905  1
  I  I20  1  0.674700  0.001764  0.325441  1
  I  I21  1  0.001905  0.674559  0.998236  1
  I  I22  1  0.325441  0.998095  0.674700  1
  I  I23  1  0.000005  0.999995  0.324109  1
  I  I24  1  0.001847  0.998153  0.674617  1
  I  I25  1  0.674617  0.325383  0.001847  1
  I  I26  1  0.324109  0.675891  0.000005  1
  I  I27  1  0.685353  0.314647  0.315002  1
  I  I28  1  0.315002  0.684998  0.685353  1
  I  I29  1  0.314748  0.685252  0.314748  1
  I  I30  1  0.683870  0.316130  0.683870  1
  I  I31  1  0.316245  0.315893  0.684107  1
  I  I32  1  0.684107  0.683755  0.316245  1
  I  I33  1  0.249972  0.250028  0.249972  1
  I  I34  1  0.749972  0.750028  0.749972  1
