# generated using pymatgen
data_Nb12Co12OsRu
_symmetry_space_group_name_H-M   'P 1'
_cell_length_a   4.92254097
_cell_length_b   4.92250187
_cell_length_c   17.82970600
_cell_angle_alpha   97.87893042
_cell_angle_beta   97.87985448
_cell_angle_gamma   60.05762846
_symmetry_Int_Tables_number   1
_chemical_formula_structural   Nb12Co12OsRu
_chemical_formula_sum   'Nb12 Co12 Os1 Ru1'
_cell_volume   369.64784829
_cell_formula_units_Z   1
loop_
 _symmetry_equiv_pos_site_id
 _symmetry_equiv_pos_as_xyz
  1  'x, y, z'
loop_
 _atom_site_type_symbol
 _atom_site_label
 _atom_site_symmetry_multiplicity
 _atom_site_fract_x
 _atom_site_fract_y
 _atom_site_fract_z
 _atom_site_occupancy
  Nb  Nb0  1  0.416821  0.417038  0.252702  1
  Nb  Nb1  1  0.917007  0.917124  0.752691  1
  Nb  Nb2  1  0.082993  0.082876  0.247309  1
  Nb  Nb3  1  0.583179  0.582962  0.747298  1
  Nb  Nb4  1  0.775228  0.775276  0.325158  1
  Nb  Nb5  1  0.275960  0.275848  0.826436  1
  Nb  Nb6  1  0.724040  0.724152  0.173564  1
  Nb  Nb7  1  0.224772  0.224724  0.674842  1
  Nb  Nb8  1  0.826680  0.826657  0.481505  1
  Nb  Nb9  1  0.327316  0.327472  0.984006  1
  Nb  Nb10  1  0.672684  0.672528  0.015994  1
  Nb  Nb11  1  0.173320  0.173343  0.518495  1
  Co  Co12  1  0.704122  0.205783  0.116574  1
  Co  Co13  1  0.201401  0.707356  0.616056  1
  Co  Co14  1  0.205577  0.205751  0.116804  1
  Co  Co15  1  0.706992  0.706920  0.616421  1
  Co  Co16  1  0.205710  0.704233  0.116574  1
  Co  Co17  1  0.707403  0.201300  0.616056  1
  Co  Co18  1  0.798599  0.292644  0.383944  1
  Co  Co19  1  0.295878  0.794217  0.883426  1
  Co  Co20  1  0.293008  0.293080  0.383579  1
  Co  Co21  1  0.794423  0.794249  0.883196  1
  Co  Co22  1  0.292597  0.798700  0.383944  1
  Co  Co23  1  0.794290  0.295767  0.883426  1
  Os  Os24  1  0.500000  0.500000  0.500000  1
  Ru  Ru25  1  0.000000  0.000000  0.000000  1
