# generated using pymatgen
data_Lu3ZnIn3HgPt
_symmetry_space_group_name_H-M   'P 1'
_cell_length_a   7.81359400
_cell_length_b   7.81359445
_cell_length_c   3.81590700
_cell_angle_alpha   90.00000000
_cell_angle_beta   90.00000000
_cell_angle_gamma   119.99998961
_symmetry_Int_Tables_number   1
_chemical_formula_structural   Lu3ZnIn3HgPt
_chemical_formula_sum   'Lu3 Zn1 In3 Hg1 Pt1'
_cell_volume   201.75772235
_cell_formula_units_Z   1
loop_
 _symmetry_equiv_pos_site_id
 _symmetry_equiv_pos_as_xyz
  1  'x, y, z'
loop_
 _atom_site_type_symbol
 _atom_site_label
 _atom_site_symmetry_multiplicity
 _atom_site_fract_x
 _atom_site_fract_y
 _atom_site_fract_z
 _atom_site_occupancy
  Lu  Lu0  1  0.027183  0.613686  0.500000  1
  Lu  Lu1  1  0.586504  0.972817  0.500000  1
  Lu  Lu2  1  0.386314  0.413496  0.500000  1
  Zn  Zn3  1  0.000000  0.000000  0.500000  1
  In  In4  1  0.999499  0.259021  0.000000  1
  In  In5  1  0.259522  0.000501  0.000000  1
  In  In6  1  0.740979  0.740478  0.000000  1
  Hg  Hg7  1  0.666667  0.333333  0.000000  1
  Pt  Pt8  1  0.333333  0.666667  0.000000  1
