# generated using pymatgen
data_Sm2Ga5Pd2Rh
_symmetry_space_group_name_H-M   'P 1'
_cell_length_a   8.67530321
_cell_length_b   8.67530408
_cell_length_c   5.78951239
_cell_angle_alpha   70.51830639
_cell_angle_beta   70.51830462
_cell_angle_gamma   95.44884235
_symmetry_Int_Tables_number   1
_chemical_formula_structural   Sm2Ga5Pd2Rh
_chemical_formula_sum   'Sm4 Ga10 Pd4 Rh2'
_cell_volume   376.69525556
_cell_formula_units_Z   2
loop_
 _symmetry_equiv_pos_site_id
 _symmetry_equiv_pos_as_xyz
  1  'x, y, z'
loop_
 _atom_site_type_symbol
 _atom_site_label
 _atom_site_symmetry_multiplicity
 _atom_site_fract_x
 _atom_site_fract_y
 _atom_site_fract_z
 _atom_site_occupancy
  Sm  Sm0  1  0.865500  0.589651  0.772398  1
  Sm  Sm1  1  0.410349  0.134500  0.727602  1
  Sm  Sm2  1  0.134500  0.410349  0.227602  1
  Sm  Sm3  1  0.589651  0.865500  0.272398  1
  Ga  Ga4  1  0.076800  0.259158  0.831768  1
  Ga  Ga5  1  0.740842  0.923200  0.668232  1
  Ga  Ga6  1  0.923200  0.740842  0.168232  1
  Ga  Ga7  1  0.259158  0.076800  0.331768  1
  Ga  Ga8  1  0.204415  0.795585  0.750000  1
  Ga  Ga9  1  0.795585  0.204415  0.250000  1
  Ga  Ga10  1  0.500540  0.499460  0.750000  1
  Ga  Ga11  1  0.499460  0.500540  0.250000  1
  Ga  Ga12  1  0.794560  0.205440  0.750000  1
  Ga  Ga13  1  0.205440  0.794560  0.250000  1
  Pd  Pd14  1  0.260191  0.553750  0.594610  1
  Pd  Pd15  1  0.446250  0.739809  0.905390  1
  Pd  Pd16  1  0.739809  0.446250  0.405390  1
  Pd  Pd17  1  0.553750  0.260191  0.094610  1
  Rh  Rh18  1  0.999909  0.000091  0.750000  1
  Rh  Rh19  1  0.000091  0.999909  0.250000  1
