# generated using pymatgen
data_HoThCo3Ni5B2
_symmetry_space_group_name_H-M   'P 1'
_cell_length_a   4.98422500
_cell_length_b   4.98422434
_cell_length_c   6.97422300
_cell_angle_alpha   90.00000000
_cell_angle_beta   90.00000000
_cell_angle_gamma   119.99999771
_symmetry_Int_Tables_number   1
_chemical_formula_structural   HoThCo3Ni5B2
_chemical_formula_sum   'Ho1 Th1 Co3 Ni5 B2'
_cell_volume   150.04505697
_cell_formula_units_Z   1
loop_
 _symmetry_equiv_pos_site_id
 _symmetry_equiv_pos_as_xyz
  1  'x, y, z'
loop_
 _atom_site_type_symbol
 _atom_site_label
 _atom_site_symmetry_multiplicity
 _atom_site_fract_x
 _atom_site_fract_y
 _atom_site_fract_z
 _atom_site_occupancy
  Ho  Ho0  1  0.000000  0.000000  0.002302  1
  Th  Th1  1  0.000000  0.000000  0.491620  1
  Co  Co2  1  0.500000  0.500000  0.206205  1
  Co  Co3  1  0.500000  0.000000  0.206205  1
  Co  Co4  1  0.000000  0.500000  0.206205  1
  Ni  Ni5  1  0.500000  0.500000  0.794038  1
  Ni  Ni6  1  0.500000  0.000000  0.794038  1
  Ni  Ni7  1  0.000000  0.500000  0.794038  1
  Ni  Ni8  1  0.666667  0.333333  0.498810  1
  Ni  Ni9  1  0.333333  0.666667  0.498810  1
  B  B10  1  0.666667  0.333333  0.003865  1
  B  B11  1  0.333333  0.666667  0.003865  1
