# generated using pymatgen
data_Hf18TiMnCuRe7
_symmetry_space_group_name_H-M   'P 1'
_cell_length_a   8.60514600
_cell_length_b   8.60514733
_cell_length_c   8.47682000
_cell_angle_alpha   90.00000000
_cell_angle_beta   90.00000000
_cell_angle_gamma   120.00000257
_symmetry_Int_Tables_number   1
_chemical_formula_structural   Hf18TiMnCuRe7
_chemical_formula_sum   'Hf18 Ti1 Mn1 Cu1 Re7'
_cell_volume   543.60086035
_cell_formula_units_Z   1
loop_
 _symmetry_equiv_pos_site_id
 _symmetry_equiv_pos_as_xyz
  1  'x, y, z'
loop_
 _atom_site_type_symbol
 _atom_site_label
 _atom_site_symmetry_multiplicity
 _atom_site_fract_x
 _atom_site_fract_y
 _atom_site_fract_z
 _atom_site_occupancy
  Hf  Hf0  1  0.200626  0.799374  0.444089  1
  Hf  Hf1  1  0.200626  0.401252  0.444089  1
  Hf  Hf2  1  0.598748  0.799374  0.444089  1
  Hf  Hf3  1  0.803655  0.196345  0.553850  1
  Hf  Hf4  1  0.803655  0.607308  0.553850  1
  Hf  Hf5  1  0.392692  0.196345  0.553850  1
  Hf  Hf6  1  0.805502  0.194498  0.946098  1
  Hf  Hf7  1  0.805502  0.611003  0.946098  1
  Hf  Hf8  1  0.388997  0.194498  0.946098  1
  Hf  Hf9  1  0.202373  0.797627  0.058587  1
  Hf  Hf10  1  0.202373  0.404749  0.058587  1
  Hf  Hf11  1  0.595251  0.797627  0.058587  1
  Hf  Hf12  1  0.540069  0.459931  0.250046  1
  Hf  Hf13  1  0.540069  0.080138  0.250046  1
  Hf  Hf14  1  0.919862  0.459931  0.250046  1
  Hf  Hf15  1  0.459376  0.540624  0.751196  1
  Hf  Hf16  1  0.459376  0.918755  0.751196  1
  Hf  Hf17  1  0.081245  0.540624  0.751196  1
  Ti  Ti18  1  0.000000  0.000000  0.495620  1
  Mn  Mn19  1  0.333333  0.666667  0.251944  1
  Cu  Cu20  1  0.666667  0.333333  0.752405  1
  Re  Re21  1  0.888261  0.111739  0.249802  1
  Re  Re22  1  0.888261  0.776520  0.249802  1
  Re  Re23  1  0.223480  0.111739  0.249802  1
  Re  Re24  1  0.111514  0.888486  0.746689  1
  Re  Re25  1  0.111514  0.223028  0.746689  1
  Re  Re26  1  0.776972  0.888486  0.746689  1
  Re  Re27  1  0.000000  0.000000  0.998960  1
