# generated using pymatgen
data_Ta4Cr5Ga2Os
_symmetry_space_group_name_H-M   'P 1'
_cell_length_a   4.90415300
_cell_length_b   4.95166025
_cell_length_c   8.25284800
_cell_angle_alpha   90.00000000
_cell_angle_beta   90.00000000
_cell_angle_gamma   119.68313716
_symmetry_Int_Tables_number   1
_chemical_formula_structural   Ta4Cr5Ga2Os
_chemical_formula_sum   'Ta4 Cr5 Ga2 Os1'
_cell_volume   174.11138030
_cell_formula_units_Z   1
loop_
 _symmetry_equiv_pos_site_id
 _symmetry_equiv_pos_as_xyz
  1  'x, y, z'
loop_
 _atom_site_type_symbol
 _atom_site_label
 _atom_site_symmetry_multiplicity
 _atom_site_fract_x
 _atom_site_fract_y
 _atom_site_fract_z
 _atom_site_occupancy
  Ta  Ta0  1  0.333145  0.666291  0.432547  1
  Ta  Ta1  1  0.666321  0.332642  0.935913  1
  Ta  Ta2  1  0.666321  0.332642  0.564087  1
  Ta  Ta3  1  0.333145  0.666291  0.067453  1
  Cr  Cr4  1  0.178330  0.835255  0.750000  1
  Cr  Cr5  1  0.351815  0.175880  0.250000  1
  Cr  Cr6  1  0.823663  0.647326  0.250000  1
  Cr  Cr7  1  0.656926  0.835255  0.750000  1
  Cr  Cr8  1  0.824064  0.175880  0.250000  1
  Ga  Ga9  1  0.996442  0.992884  0.005777  1
  Ga  Ga10  1  0.996442  0.992884  0.494223  1
  Os  Os11  1  0.173386  0.346770  0.750000  1
