# generated using pymatgen
data_TbTe16
_symmetry_space_group_name_H-M   'P 1'
_cell_length_a   4.40403212
_cell_length_b   4.40403059
_cell_length_c   33.62670984
_cell_angle_alpha   86.24535677
_cell_angle_beta   86.24535886
_cell_angle_gamma   60.00000646
_symmetry_Int_Tables_number   1
_chemical_formula_structural   TbTe16
_chemical_formula_sum   'Tb1 Te16'
_cell_volume   563.21048535
_cell_formula_units_Z   1
loop_
 _symmetry_equiv_pos_site_id
 _symmetry_equiv_pos_as_xyz
  1  'x, y, z'
loop_
 _atom_site_type_symbol
 _atom_site_label
 _atom_site_symmetry_multiplicity
 _atom_site_fract_x
 _atom_site_fract_y
 _atom_site_fract_z
 _atom_site_occupancy
  Tb  Tb0  1  0.000000  0.000000  0.000000  1
  Te  Te1  1  0.290862  0.290862  0.127416  1
  Te  Te2  1  0.709138  0.709138  0.872584  1
  Te  Te3  1  0.233763  0.233763  0.298709  1
  Te  Te4  1  0.766237  0.766237  0.701291  1
  Te  Te5  1  0.470545  0.470545  0.588365  1
  Te  Te6  1  0.529455  0.529455  0.411635  1
  Te  Te7  1  0.351004  0.351004  0.946988  1
  Te  Te8  1  0.648996  0.648996  0.053012  1
  Te  Te9  1  0.059802  0.059802  0.820595  1
  Te  Te10  1  0.940198  0.940198  0.179405  1
  Te  Te11  1  0.411998  0.411998  0.764006  1
  Te  Te12  1  0.588002  0.588002  0.235994  1
  Te  Te13  1  0.117545  0.117545  0.647364  1
  Te  Te14  1  0.882455  0.882455  0.352636  1
  Te  Te15  1  0.175844  0.175844  0.472468  1
  Te  Te16  1  0.824156  0.824156  0.527532  1
