# generated using pymatgen
data_NdPa2(GaNi)3
_symmetry_space_group_name_H-M   'P 1'
_cell_length_a   6.82476900
_cell_length_b   6.89793100
_cell_length_c   4.01270800
_cell_angle_alpha   90.00000000
_cell_angle_beta   90.00000000
_cell_angle_gamma   119.64975523
_symmetry_Int_Tables_number   1
_chemical_formula_structural   NdPa2(GaNi)3
_chemical_formula_sum   'Nd1 Pa2 Ga3 Ni3'
_cell_volume   164.17119244
_cell_formula_units_Z   1
loop_
 _symmetry_equiv_pos_site_id
 _symmetry_equiv_pos_as_xyz
  1  'x, y, z'
loop_
 _atom_site_type_symbol
 _atom_site_label
 _atom_site_symmetry_multiplicity
 _atom_site_fract_x
 _atom_site_fract_y
 _atom_site_fract_z
 _atom_site_occupancy
  Nd  Nd0  1  0.580217  0.000000  0.500000  1
  Pa  Pa1  1  0.998635  0.577623  0.500000  1
  Pa  Pa2  1  0.421012  0.422377  0.500000  1
  Ga  Ga3  1  0.240393  0.000000  0.000000  1
  Ga  Ga4  1  0.760372  0.762657  0.000000  1
  Ga  Ga5  1  0.997715  0.237343  0.000000  1
  Ni  Ni6  1  0.670622  0.356961  0.000000  1
  Ni  Ni7  1  0.313660  0.643039  0.000000  1
  Ni  Ni8  1  0.017374  0.000000  0.500000  1
