# generated using pymatgen
data_DyVFe4P3
_symmetry_space_group_name_H-M   'P 1'
_cell_length_a   3.65476800
_cell_length_b   10.47318300
_cell_length_c   11.92361400
_cell_angle_alpha   90.00000000
_cell_angle_beta   90.00000000
_cell_angle_gamma   90.00000000
_symmetry_Int_Tables_number   1
_chemical_formula_structural   DyVFe4P3
_chemical_formula_sum   'Dy4 V4 Fe16 P12'
_cell_volume   456.40081799
_cell_formula_units_Z   4
loop_
 _symmetry_equiv_pos_site_id
 _symmetry_equiv_pos_as_xyz
  1  'x, y, z'
loop_
 _atom_site_type_symbol
 _atom_site_label
 _atom_site_symmetry_multiplicity
 _atom_site_fract_x
 _atom_site_fract_y
 _atom_site_fract_z
 _atom_site_occupancy
  Dy  Dy0  1  0.250000  0.580481  0.704695  1
  Dy  Dy1  1  0.250000  0.919519  0.204695  1
  Dy  Dy2  1  0.750000  0.419519  0.295305  1
  Dy  Dy3  1  0.750000  0.080481  0.795305  1
  V  V4  1  0.250000  0.699689  0.988941  1
  V  V5  1  0.250000  0.800311  0.488941  1
  V  V6  1  0.750000  0.300311  0.011059  1
  V  V7  1  0.750000  0.199689  0.511059  1
  Fe  Fe8  1  0.250000  0.405308  0.491771  1
  Fe  Fe9  1  0.250000  0.094692  0.991771  1
  Fe  Fe10  1  0.750000  0.594692  0.508229  1
  Fe  Fe11  1  0.750000  0.905308  0.008229  1
  Fe  Fe12  1  0.250000  0.217901  0.178425  1
  Fe  Fe13  1  0.250000  0.282099  0.678425  1
  Fe  Fe14  1  0.750000  0.782099  0.821575  1
  Fe  Fe15  1  0.750000  0.717901  0.321575  1
  Fe  Fe16  1  0.250000  0.874393  0.702023  1
  Fe  Fe17  1  0.250000  0.625607  0.202023  1
  Fe  Fe18  1  0.750000  0.125607  0.297977  1
  Fe  Fe19  1  0.750000  0.374393  0.797977  1
  Fe  Fe20  1  0.250000  0.462576  0.932675  1
  Fe  Fe21  1  0.250000  0.037424  0.432675  1
  Fe  Fe22  1  0.750000  0.537424  0.067325  1
  Fe  Fe23  1  0.750000  0.962576  0.567325  1
  P  P24  1  0.250000  0.425444  0.113775  1
  P  P25  1  0.250000  0.074556  0.613775  1
  P  P26  1  0.750000  0.574556  0.886225  1
  P  P27  1  0.750000  0.925444  0.386225  1
  P  P28  1  0.250000  0.263343  0.872495  1
  P  P29  1  0.250000  0.236657  0.372495  1
  P  P30  1  0.750000  0.736657  0.127505  1
  P  P31  1  0.750000  0.763343  0.627505  1
  P  P32  1  0.250000  0.593823  0.396200  1
  P  P33  1  0.250000  0.906177  0.896200  1
  P  P34  1  0.750000  0.406177  0.603800  1
  P  P35  1  0.750000  0.093823  0.103800  1
