# generated using pymatgen
data_U6Ga6Ir5Pt
_symmetry_space_group_name_H-M   'P 1'
_cell_length_a   6.98470400
_cell_length_b   6.98470305
_cell_length_c   8.11562900
_cell_angle_alpha   90.00000000
_cell_angle_beta   90.00000000
_cell_angle_gamma   120.00000452
_symmetry_Int_Tables_number   1
_chemical_formula_structural   U6Ga6Ir5Pt
_chemical_formula_sum   'U6 Ga6 Ir5 Pt1'
_cell_volume   342.88520811
_cell_formula_units_Z   1
loop_
 _symmetry_equiv_pos_site_id
 _symmetry_equiv_pos_as_xyz
  1  'x, y, z'
loop_
 _atom_site_type_symbol
 _atom_site_label
 _atom_site_symmetry_multiplicity
 _atom_site_fract_x
 _atom_site_fract_y
 _atom_site_fract_z
 _atom_site_occupancy
  U  U0  1  0.420423  0.419081  0.250000  1
  U  U1  1  0.572464  0.998729  0.750000  1
  U  U2  1  0.426265  0.427536  0.750000  1
  U  U3  1  0.001271  0.573735  0.750000  1
  U  U4  1  0.998658  0.579577  0.250000  1
  U  U5  1  0.580919  0.001342  0.250000  1
  Ga  Ga6  1  0.241922  0.999784  0.002257  1
  Ga  Ga7  1  0.241922  0.999784  0.497743  1
  Ga  Ga8  1  0.000216  0.242138  0.497743  1
  Ga  Ga9  1  0.000216  0.242138  0.002257  1
  Ga  Ga10  1  0.757862  0.758078  0.002257  1
  Ga  Ga11  1  0.757862  0.758078  0.497743  1
  Ir  Ir12  1  0.666667  0.333333  0.501790  1
  Ir  Ir13  1  0.666667  0.333333  0.998210  1
  Ir  Ir14  1  0.333333  0.666667  0.000201  1
  Ir  Ir15  1  0.333333  0.666667  0.499799  1
  Ir  Ir16  1  0.000000  0.000000  0.250000  1
  Pt  Pt17  1  0.000000  0.000000  0.750000  1
