# generated using pymatgen
data_Hf3Ti2SiSn2
_symmetry_space_group_name_H-M   'P 1'
_cell_length_a   8.14268893
_cell_length_b   8.14268932
_cell_length_c   5.45961200
_cell_angle_alpha   90.00000000
_cell_angle_beta   90.00000000
_cell_angle_gamma   120.45161024
_symmetry_Int_Tables_number   1
_chemical_formula_structural   Hf3Ti2SiSn2
_chemical_formula_sum   'Hf6 Ti4 Si2 Sn4'
_cell_volume   312.05685206
_cell_formula_units_Z   2
loop_
 _symmetry_equiv_pos_site_id
 _symmetry_equiv_pos_as_xyz
  1  'x, y, z'
loop_
 _atom_site_type_symbol
 _atom_site_label
 _atom_site_symmetry_multiplicity
 _atom_site_fract_x
 _atom_site_fract_y
 _atom_site_fract_z
 _atom_site_occupancy
  Hf  Hf0  1  0.240785  0.016147  0.250000  1
  Hf  Hf1  1  0.759215  0.983853  0.750000  1
  Hf  Hf2  1  0.016147  0.240785  0.250000  1
  Hf  Hf3  1  0.983853  0.759215  0.750000  1
  Hf  Hf4  1  0.734969  0.734969  0.250000  1
  Hf  Hf5  1  0.265031  0.265031  0.750000  1
  Ti  Ti6  1  0.345982  0.654018  0.000000  1
  Ti  Ti7  1  0.654018  0.345982  0.000000  1
  Ti  Ti8  1  0.654018  0.345982  0.500000  1
  Ti  Ti9  1  0.345982  0.654018  0.500000  1
  Si  Si10  1  0.394994  0.394994  0.250000  1
  Si  Si11  1  0.605006  0.605006  0.750000  1
  Sn  Sn12  1  0.604944  0.008497  0.250000  1
  Sn  Sn13  1  0.395056  0.991503  0.750000  1
  Sn  Sn14  1  0.008497  0.604944  0.250000  1
  Sn  Sn15  1  0.991503  0.395056  0.750000  1
