# generated using pymatgen
data_Y2B4IrRh4
_symmetry_space_group_name_H-M   'P 1'
_cell_length_a   7.50641337
_cell_length_b   6.31372088
_cell_length_c   5.60868839
_cell_angle_alpha   77.79381395
_cell_angle_beta   55.29509824
_cell_angle_gamma   46.91109957
_symmetry_Int_Tables_number   1
_chemical_formula_structural   Y2B4IrRh4
_chemical_formula_sum   'Y2 B4 Ir1 Rh4'
_cell_volume   152.45265108
_cell_formula_units_Z   1
loop_
 _symmetry_equiv_pos_site_id
 _symmetry_equiv_pos_as_xyz
  1  'x, y, z'
loop_
 _atom_site_type_symbol
 _atom_site_label
 _atom_site_symmetry_multiplicity
 _atom_site_fract_x
 _atom_site_fract_y
 _atom_site_fract_z
 _atom_site_occupancy
  Y  Y0  1  0.856205  0.856205  0.143795  1
  Y  Y1  1  0.143795  0.143795  0.856205  1
  B  B2  1  0.208289  0.524982  0.482514  1
  B  B3  1  0.784215  0.482514  0.524982  1
  B  B4  1  0.524982  0.208289  0.784215  1
  B  B5  1  0.482514  0.784215  0.208289  1
  Ir  Ir6  1  0.750000  0.750000  0.750000  1
  Rh  Rh7  1  0.498963  0.498963  0.001037  1
  Rh  Rh8  1  0.250000  0.250000  0.250000  1
  Rh  Rh9  1  0.001037  0.001037  0.498963  1
  Rh  Rh10  1  0.500000  0.500000  0.500000  1
