# generated using pymatgen
data_Tm3LuSiRh12
_symmetry_space_group_name_H-M   'P 1'
_cell_length_a   7.12264216
_cell_length_b   7.12264159
_cell_length_c   7.12364700
_cell_angle_alpha   109.47408008
_cell_angle_beta   109.47407846
_cell_angle_gamma   109.46836025
_symmetry_Int_Tables_number   1
_chemical_formula_structural   Tm3LuSiRh12
_chemical_formula_sum   'Tm3 Lu1 Si1 Rh12'
_cell_volume   278.19377203
_cell_formula_units_Z   1
loop_
 _symmetry_equiv_pos_site_id
 _symmetry_equiv_pos_as_xyz
  1  'x, y, z'
loop_
 _atom_site_type_symbol
 _atom_site_label
 _atom_site_symmetry_multiplicity
 _atom_site_fract_x
 _atom_site_fract_y
 _atom_site_fract_z
 _atom_site_occupancy
  Tm  Tm0  1  0.000000  0.500000  0.000000  1
  Tm  Tm1  1  0.500000  0.000000  0.000000  1
  Tm  Tm2  1  0.500000  0.500000  0.500000  1
  Lu  Lu3  1  0.000000  0.000000  0.500000  1
  Si  Si4  1  0.000000  0.000000  0.000000  1
  Rh  Rh5  1  0.750320  0.249680  0.500000  1
  Rh  Rh6  1  0.750320  0.500639  0.250320  1
  Rh  Rh7  1  0.499361  0.249680  0.749680  1
  Rh  Rh8  1  0.249680  0.499361  0.749680  1
  Rh  Rh9  1  0.249680  0.750320  0.500000  1
  Rh  Rh10  1  0.500639  0.750320  0.250320  1
  Rh  Rh11  1  0.720816  0.720816  0.000573  1
  Rh  Rh12  1  0.279184  0.000000  0.279756  1
  Rh  Rh13  1  0.000000  0.279184  0.279756  1
  Rh  Rh14  1  0.279184  0.279184  0.999427  1
  Rh  Rh15  1  0.720816  0.000000  0.720244  1
  Rh  Rh16  1  0.000000  0.720816  0.720244  1
