# generated using pymatgen
data_Li6PaIn5Rh12
_symmetry_space_group_name_H-M   'P 1'
_cell_length_a   4.43812400
_cell_length_b   6.28180700
_cell_length_c   13.29029703
_cell_angle_alpha   90.00000000
_cell_angle_beta   89.99549227
_cell_angle_gamma   90.00000000
_symmetry_Int_Tables_number   1
_chemical_formula_structural   Li6PaIn5Rh12
_chemical_formula_sum   'Li6 Pa1 In5 Rh12'
_cell_volume   370.52601629
_cell_formula_units_Z   1
loop_
 _symmetry_equiv_pos_site_id
 _symmetry_equiv_pos_as_xyz
  1  'x, y, z'
loop_
 _atom_site_type_symbol
 _atom_site_label
 _atom_site_symmetry_multiplicity
 _atom_site_fract_x
 _atom_site_fract_y
 _atom_site_fract_z
 _atom_site_occupancy
  Li  Li0  1  0.000000  0.000000  0.000000  1
  Li  Li1  1  0.499857  0.500000  0.173765  1
  Li  Li2  1  0.999772  0.000000  0.332875  1
  Li  Li3  1  0.500001  0.500000  0.500000  1
  Li  Li4  1  0.000230  0.000000  0.667126  1
  Li  Li5  1  0.500144  0.500000  0.826235  1
  Pa  Pa6  1  0.000000  0.500000  0.000000  1
  In  In7  1  0.499900  0.000000  0.171302  1
  In  In8  1  0.999880  0.500000  0.335656  1
  In  In9  1  0.500001  0.000000  0.500000  1
  In  In10  1  0.000120  0.500000  0.664344  1
  In  In11  1  0.500101  0.000000  0.828698  1
  Rh  Rh12  1  0.500001  0.248035  0.000000  1
  Rh  Rh13  1  0.500001  0.751966  0.000000  1
  Rh  Rh14  1  0.999867  0.257993  0.161617  1
  Rh  Rh15  1  0.999867  0.742007  0.161617  1
  Rh  Rh16  1  0.499871  0.252229  0.334851  1
  Rh  Rh17  1  0.499871  0.747770  0.334851  1
  Rh  Rh18  1  0.000000  0.245536  0.500000  1
  Rh  Rh19  1  0.000000  0.754462  0.500000  1
  Rh  Rh20  1  0.500127  0.252229  0.665149  1
  Rh  Rh21  1  0.500127  0.747770  0.665149  1
  Rh  Rh22  1  0.000133  0.257993  0.838382  1
  Rh  Rh23  1  0.000133  0.742007  0.838382  1
