# generated using pymatgen
data_Tb2U(GaCo)3
_symmetry_space_group_name_H-M   'P 1'
_cell_length_a   7.08818887
_cell_length_b   7.08818874
_cell_length_c   3.58138500
_cell_angle_alpha   90.00000000
_cell_angle_beta   90.00000000
_cell_angle_gamma   119.07133559
_symmetry_Int_Tables_number   1
_chemical_formula_structural   Tb2U(GaCo)3
_chemical_formula_sum   'Tb2 U1 Ga3 Co3'
_cell_volume   157.26810750
_cell_formula_units_Z   1
loop_
 _symmetry_equiv_pos_site_id
 _symmetry_equiv_pos_as_xyz
  1  'x, y, z'
loop_
 _atom_site_type_symbol
 _atom_site_label
 _atom_site_symmetry_multiplicity
 _atom_site_fract_x
 _atom_site_fract_y
 _atom_site_fract_z
 _atom_site_occupancy
  Tb  Tb0  1  0.412002  0.001285  0.500000  1
  Tb  Tb1  1  0.001285  0.412002  0.500000  1
  U  U2  1  0.579425  0.579425  0.500000  1
  Ga  Ga3  1  0.751094  0.000934  0.000000  1
  Ga  Ga4  1  0.000934  0.751094  0.000000  1
  Ga  Ga5  1  0.234996  0.234996  0.000000  1
  Co  Co6  1  0.378981  0.657930  0.000000  1
  Co  Co7  1  0.657930  0.378981  0.000000  1
  Co  Co8  1  0.983353  0.983353  0.500000  1
