# generated using pymatgen
data_Y7(AsSe3)2
_symmetry_space_group_name_H-M   'P 1'
_cell_length_a   8.19703700
_cell_length_b   8.19703618
_cell_length_c   8.19703700
_cell_angle_alpha   119.99999926
_cell_angle_beta   90.00000000
_cell_angle_gamma   119.99999926
_symmetry_Int_Tables_number   1
_chemical_formula_structural   Y7(AsSe3)2
_chemical_formula_sum   'Y7 As2 Se6'
_cell_volume   389.45353915
_cell_formula_units_Z   1
loop_
 _symmetry_equiv_pos_site_id
 _symmetry_equiv_pos_as_xyz
  1  'x, y, z'
loop_
 _atom_site_type_symbol
 _atom_site_label
 _atom_site_symmetry_multiplicity
 _atom_site_fract_x
 _atom_site_fract_y
 _atom_site_fract_z
 _atom_site_occupancy
  Y  Y0  1  0.250010  0.000000  0.250010  1
  Y  Y1  1  0.250010  0.500019  0.250010  1
  Y  Y2  1  0.749990  0.000000  0.250011  1
  Y  Y3  1  0.250001  0.500001  0.750002  1
  Y  Y4  1  0.250011  0.000000  0.749990  1
  Y  Y5  1  0.749990  0.000000  0.749990  1
  Y  Y6  1  0.749990  0.499980  0.749990  1
  As  As7  1  0.000000  0.000000  0.000000  1
  As  As8  1  0.500000  0.000000  0.500000  1
  Se  Se9  1  0.999539  0.999079  0.499541  1
  Se  Se10  1  0.999539  0.500001  0.499541  1
  Se  Se11  1  0.500462  0.500001  0.499541  1
  Se  Se12  1  0.999541  0.500001  0.000461  1
  Se  Se13  1  0.500460  0.500001  0.000461  1
  Se  Se14  1  0.500460  0.000920  0.000461  1
