# generated using pymatgen
data_SrCo(As4Os)3
_symmetry_space_group_name_H-M   'P 1'
_cell_length_a   7.42942049
_cell_length_b   7.47704908
_cell_length_c   7.42942011
_cell_angle_alpha   109.60112843
_cell_angle_beta   109.34099291
_cell_angle_gamma   109.60114334
_symmetry_Int_Tables_number   1
_chemical_formula_structural   SrCo(As4Os)3
_chemical_formula_sum   'Sr1 Co1 As12 Os3'
_cell_volume   317.18991456
_cell_formula_units_Z   1
loop_
 _symmetry_equiv_pos_site_id
 _symmetry_equiv_pos_as_xyz
  1  'x, y, z'
loop_
 _atom_site_type_symbol
 _atom_site_label
 _atom_site_symmetry_multiplicity
 _atom_site_fract_x
 _atom_site_fract_y
 _atom_site_fract_z
 _atom_site_occupancy
  Sr  Sr0  1  0.000000  0.000000  0.000000  1
  Co  Co1  1  0.000000  0.500000  0.000000  1
  As  As2  1  0.350274  0.200641  0.850454  1
  As  As3  1  0.649726  0.799359  0.149546  1
  As  As4  1  0.657812  0.500769  0.853394  1
  As  As5  1  0.342188  0.499231  0.146606  1
  As  As6  1  0.195582  0.842956  0.342188  1
  As  As7  1  0.804418  0.157044  0.657812  1
  As  As8  1  0.500181  0.850367  0.649726  1
  As  As9  1  0.499819  0.149633  0.350274  1
  As  As10  1  0.853394  0.352625  0.195582  1
  As  As11  1  0.146606  0.647375  0.804418  1
  As  As12  1  0.850454  0.649813  0.500181  1
  As  As13  1  0.149546  0.350187  0.499819  1
  Os  Os14  1  0.000000  0.000000  0.500000  1
  Os  Os15  1  0.500000  0.000000  0.000000  1
  Os  Os16  1  0.500000  0.500000  0.500000  1
