# generated using pymatgen
data_Dy2Y4Ni20P13
_symmetry_space_group_name_H-M   'P 1'
_cell_length_a   12.65777501
_cell_length_b   12.65313138
_cell_length_c   3.75671200
_cell_angle_alpha   90.00000000
_cell_angle_beta   90.00000000
_cell_angle_gamma   120.00771273
_symmetry_Int_Tables_number   1
_chemical_formula_structural   Dy2Y4Ni20P13
_chemical_formula_sum   'Dy2 Y4 Ni20 P13'
_cell_volume   521.02692282
_cell_formula_units_Z   1
loop_
 _symmetry_equiv_pos_site_id
 _symmetry_equiv_pos_as_xyz
  1  'x, y, z'
loop_
 _atom_site_type_symbol
 _atom_site_label
 _atom_site_symmetry_multiplicity
 _atom_site_fract_x
 _atom_site_fract_y
 _atom_site_fract_z
 _atom_site_occupancy
  Dy  Dy0  1  0.470258  0.188065  0.000000  1
  Dy  Dy1  1  0.717826  0.529885  0.000000  1
  Y  Y2  1  0.811986  0.282192  0.000000  1
  Y  Y3  1  0.530848  0.812178  0.500000  1
  Y  Y4  1  0.281450  0.469217  0.500000  1
  Y  Y5  1  0.187731  0.718559  0.500000  1
  Ni  Ni6  1  0.333329  0.666666  0.000000  1
  Ni  Ni7  1  0.666511  0.333389  0.500000  1
  Ni  Ni8  1  0.195535  0.090669  0.000000  1
  Ni  Ni9  1  0.895083  0.804436  0.000000  1
  Ni  Ni10  1  0.909373  0.104844  0.000000  1
  Ni  Ni11  1  0.848423  0.927596  0.500000  1
  Ni  Ni12  1  0.079093  0.151539  0.500000  1
  Ni  Ni13  1  0.072443  0.920894  0.500000  1
  Ni  Ni14  1  0.437864  0.416275  0.000000  1
  Ni  Ni15  1  0.978463  0.562186  0.000000  1
  Ni  Ni16  1  0.583660  0.021507  0.000000  1
  Ni  Ni17  1  0.565070  0.586832  0.500000  1
  Ni  Ni18  1  0.021901  0.435058  0.500000  1
  Ni  Ni19  1  0.413159  0.978249  0.500000  1
  Ni  Ni20  1  0.078241  0.320218  0.000000  1
  Ni  Ni21  1  0.242057  0.921783  0.000000  1
  Ni  Ni22  1  0.679813  0.757991  0.000000  1
  Ni  Ni23  1  0.929001  0.682889  0.500000  1
  Ni  Ni24  1  0.753834  0.070856  0.500000  1
  Ni  Ni25  1  0.317103  0.246094  0.500000  1
  P  P26  1  0.234348  0.282192  0.000000  1
  P  P27  1  0.047866  0.765713  0.000000  1
  P  P28  1  0.717784  0.952084  0.000000  1
  P  P29  1  0.767315  0.721021  0.500000  1
  P  P30  1  0.953855  0.232615  0.500000  1
  P  P31  1  0.278933  0.046299  0.500000  1
  P  P32  1  0.476770  0.614252  0.000000  1
  P  P33  1  0.137520  0.523233  0.000000  1
  P  P34  1  0.385707  0.862492  0.000000  1
  P  P35  1  0.523651  0.386503  0.500000  1
  P  P36  1  0.862827  0.476465  0.500000  1
  P  P37  1  0.613342  0.137078  0.500000  1
  P  P38  1  0.000028  0.999987  0.000000  1
