# generated using pymatgen
data_AcPrZn5Ge
_symmetry_space_group_name_H-M   'P 1'
_cell_length_a   8.51313300
_cell_length_b   8.51313342
_cell_length_c   9.00699400
_cell_angle_alpha   90.00000000
_cell_angle_beta   90.00000000
_cell_angle_gamma   148.72330031
_symmetry_Int_Tables_number   1
_chemical_formula_structural   AcPrZn5Ge
_chemical_formula_sum   'Ac2 Pr2 Zn10 Ge2'
_cell_volume   338.89850217
_cell_formula_units_Z   2
loop_
 _symmetry_equiv_pos_site_id
 _symmetry_equiv_pos_as_xyz
  1  'x, y, z'
loop_
 _atom_site_type_symbol
 _atom_site_label
 _atom_site_symmetry_multiplicity
 _atom_site_fract_x
 _atom_site_fract_y
 _atom_site_fract_z
 _atom_site_occupancy
  Ac  Ac0  1  0.000000  0.000000  0.500000  1
  Ac  Ac1  1  0.000000  0.000000  0.000000  1
  Pr  Pr2  1  0.207231  0.792769  0.250000  1
  Pr  Pr3  1  0.792769  0.207231  0.750000  1
  Zn  Zn4  1  0.812489  0.187511  0.391810  1
  Zn  Zn5  1  0.187511  0.812489  0.608190  1
  Zn  Zn6  1  0.812489  0.187511  0.108190  1
  Zn  Zn7  1  0.187511  0.812489  0.891810  1
  Zn  Zn8  1  0.654801  0.345199  0.481100  1
  Zn  Zn9  1  0.345199  0.654801  0.518900  1
  Zn  Zn10  1  0.654801  0.345199  0.018900  1
  Zn  Zn11  1  0.345199  0.654801  0.981100  1
  Zn  Zn12  1  0.404867  0.595133  0.250000  1
  Zn  Zn13  1  0.595133  0.404867  0.750000  1
  Ge  Ge14  1  0.562901  0.437099  0.250000  1
  Ge  Ge15  1  0.437099  0.562901  0.750000  1
