# generated using pymatgen
data_Sm2Ho3LuRh18
_symmetry_space_group_name_H-M   'P 1'
_cell_length_a   5.26420200
_cell_length_b   5.26417103
_cell_length_c   17.49419800
_cell_angle_alpha   90.00034829
_cell_angle_beta   89.99939049
_cell_angle_gamma   120.00269567
_symmetry_Int_Tables_number   1
_chemical_formula_structural   Sm2Ho3LuRh18
_chemical_formula_sum   'Sm2 Ho3 Lu1 Rh18'
_cell_volume   419.83187471
_cell_formula_units_Z   1
loop_
 _symmetry_equiv_pos_site_id
 _symmetry_equiv_pos_as_xyz
  1  'x, y, z'
loop_
 _atom_site_type_symbol
 _atom_site_label
 _atom_site_symmetry_multiplicity
 _atom_site_fract_x
 _atom_site_fract_y
 _atom_site_fract_z
 _atom_site_occupancy
  Sm  Sm0  1  0.333329  0.666666  0.749739  1
  Sm  Sm1  1  0.666673  0.333333  0.250068  1
  Ho  Ho2  1  0.333338  0.666664  0.958875  1
  Ho  Ho3  1  0.666664  0.333339  0.041046  1
  Ho  Ho4  1  0.666666  0.333340  0.459387  1
  Lu  Lu5  1  0.333333  0.666659  0.541415  1
  Rh  Rh6  1  0.167431  0.832579  0.375323  1
  Rh  Rh7  1  0.167421  0.334863  0.375327  1
  Rh  Rh8  1  0.665134  0.832571  0.375329  1
  Rh  Rh9  1  0.832495  0.167496  0.624481  1
  Rh  Rh10  1  0.832493  0.664980  0.624478  1
  Rh  Rh11  1  0.335010  0.167498  0.624478  1
  Rh  Rh12  1  0.832634  0.167364  0.874958  1
  Rh  Rh13  1  0.832632  0.665248  0.874961  1
  Rh  Rh14  1  0.334746  0.167367  0.874961  1
  Rh  Rh15  1  0.167334  0.832670  0.124999  1
  Rh  Rh16  1  0.167333  0.334679  0.124993  1
  Rh  Rh17  1  0.665329  0.832677  0.124993  1
  Rh  Rh18  1  0.333349  0.666671  0.250027  1
  Rh  Rh19  1  0.666659  0.333331  0.749920  1
  Rh  Rh20  1  0.999994  0.000004  0.250238  1
  Rh  Rh21  1  0.000003  0.999997  0.749935  1
  Rh  Rh22  1  0.000000  0.000003  0.500064  1
  Rh  Rh23  1  0.000002  0.999997  0.000006  1
