# generated using pymatgen
data_TbHo(OsO3)6
_symmetry_space_group_name_H-M   'P 1'
_cell_length_a   7.37566900
_cell_length_b   5.20593813
_cell_length_c   8.22022145
_cell_angle_alpha   85.36430117
_cell_angle_beta   90.00000000
_cell_angle_gamma   90.00000000
_symmetry_Int_Tables_number   1
_chemical_formula_structural   TbHo(OsO3)6
_chemical_formula_sum   'Tb1 Ho1 Os6 O18'
_cell_volume   314.60158673
_cell_formula_units_Z   1
loop_
 _symmetry_equiv_pos_site_id
 _symmetry_equiv_pos_as_xyz
  1  'x, y, z'
loop_
 _atom_site_type_symbol
 _atom_site_label
 _atom_site_symmetry_multiplicity
 _atom_site_fract_x
 _atom_site_fract_y
 _atom_site_fract_z
 _atom_site_occupancy
  Tb  Tb0  1  0.250000  0.972289  0.427234  1
  Ho  Ho1  1  0.750000  0.029282  0.572977  1
  Os  Os2  1  0.999832  0.000349  0.999721  1
  Os  Os3  1  0.500168  0.000349  0.999721  1
  Os  Os4  1  0.496124  0.539009  0.692391  1
  Os  Os5  1  0.003876  0.539009  0.692391  1
  Os  Os6  1  0.995002  0.461802  0.307827  1
  Os  Os7  1  0.504998  0.461802  0.307827  1
  O  O8  1  0.250000  0.902071  0.983747  1
  O  O9  1  0.933585  0.852849  0.788645  1
  O  O10  1  0.566415  0.852849  0.788645  1
  O  O11  1  0.958359  0.740553  0.471515  1
  O  O12  1  0.541641  0.740553  0.471515  1
  O  O13  1  0.250000  0.662892  0.665174  1
  O  O14  1  0.956693  0.686186  0.122571  1
  O  O15  1  0.543307  0.686186  0.122571  1
  O  O16  1  0.250000  0.581985  0.313541  1
  O  O17  1  0.750000  0.414204  0.687054  1
  O  O18  1  0.043386  0.314738  0.877463  1
  O  O19  1  0.456614  0.314738  0.877463  1
  O  O20  1  0.750000  0.332004  0.336120  1
  O  O21  1  0.038348  0.259060  0.529171  1
  O  O22  1  0.461652  0.259060  0.529171  1
  O  O23  1  0.065029  0.149129  0.210048  1
  O  O24  1  0.434971  0.149129  0.210048  1
  O  O25  1  0.750000  0.097923  0.015453  1
