# generated using pymatgen
data_Y4Lu(AlBi)2
_symmetry_space_group_name_H-M   'P 1'
_cell_length_a   8.86102500
_cell_length_b   8.86102529
_cell_length_c   8.09758900
_cell_angle_alpha   90.00000000
_cell_angle_beta   90.00000000
_cell_angle_gamma   125.72645964
_symmetry_Int_Tables_number   1
_chemical_formula_structural   Y4Lu(AlBi)2
_chemical_formula_sum   'Y8 Lu2 Al4 Bi4'
_cell_volume   516.15505061
_cell_formula_units_Z   2
loop_
 _symmetry_equiv_pos_site_id
 _symmetry_equiv_pos_as_xyz
  1  'x, y, z'
loop_
 _atom_site_type_symbol
 _atom_site_label
 _atom_site_symmetry_multiplicity
 _atom_site_fract_x
 _atom_site_fract_y
 _atom_site_fract_z
 _atom_site_occupancy
  Y  Y0  1  0.042132  0.299965  0.330242  1
  Y  Y1  1  0.957868  0.700035  0.669758  1
  Y  Y2  1  0.457868  0.200035  0.830242  1
  Y  Y3  1  0.799965  0.542132  0.169758  1
  Y  Y4  1  0.542132  0.799965  0.169758  1
  Y  Y5  1  0.200035  0.457868  0.830242  1
  Y  Y6  1  0.700035  0.957868  0.669758  1
  Y  Y7  1  0.299965  0.042132  0.330242  1
  Lu  Lu8  1  0.000000  0.000000  0.000000  1
  Lu  Lu9  1  0.500000  0.500000  0.500000  1
  Al  Al10  1  0.377374  0.377374  0.122070  1
  Al  Al11  1  0.622626  0.622626  0.877930  1
  Al  Al12  1  0.122626  0.122626  0.622070  1
  Al  Al13  1  0.877374  0.877374  0.377930  1
  Bi  Bi14  1  0.794111  0.205889  0.000000  1
  Bi  Bi15  1  0.205889  0.794111  0.000000  1
  Bi  Bi16  1  0.705889  0.294111  0.500000  1
  Bi  Bi17  1  0.294111  0.705889  0.500000  1
