# generated using pymatgen
data_Ho16Cd3NiHgIr3
_symmetry_space_group_name_H-M   'P 1'
_cell_length_a   9.54645863
_cell_length_b   9.54645872
_cell_length_c   9.54646000
_cell_angle_alpha   60.21033678
_cell_angle_beta   60.21033357
_cell_angle_gamma   60.21033544
_symmetry_Int_Tables_number   1
_chemical_formula_structural   Ho16Cd3NiHgIr3
_chemical_formula_sum   'Ho16 Cd3 Ni1 Hg1 Ir3'
_cell_volume   618.12364263
_cell_formula_units_Z   1
loop_
 _symmetry_equiv_pos_site_id
 _symmetry_equiv_pos_as_xyz
  1  'x, y, z'
loop_
 _atom_site_type_symbol
 _atom_site_label
 _atom_site_symmetry_multiplicity
 _atom_site_fract_x
 _atom_site_fract_y
 _atom_site_fract_z
 _atom_site_occupancy
  Ho  Ho0  1  0.598616  0.598616  0.598616  1
  Ho  Ho1  1  0.599096  0.599096  0.201460  1
  Ho  Ho2  1  0.599096  0.201460  0.599096  1
  Ho  Ho3  1  0.201460  0.599096  0.599096  1
  Ho  Ho4  1  0.061440  0.439817  0.439817  1
  Ho  Ho5  1  0.438217  0.059487  0.059487  1
  Ho  Ho6  1  0.439817  0.061440  0.439817  1
  Ho  Ho7  1  0.059487  0.438217  0.059487  1
  Ho  Ho8  1  0.439817  0.439817  0.061440  1
  Ho  Ho9  1  0.059487  0.059487  0.438217  1
  Ho  Ho10  1  0.188139  0.811583  0.811583  1
  Ho  Ho11  1  0.813632  0.186979  0.186979  1
  Ho  Ho12  1  0.811583  0.188139  0.811583  1
  Ho  Ho13  1  0.186979  0.813632  0.186979  1
  Ho  Ho14  1  0.811583  0.811583  0.188139  1
  Ho  Ho15  1  0.186979  0.186979  0.813632  1
  Cd  Cd16  1  0.831474  0.831474  0.506151  1
  Cd  Cd17  1  0.831474  0.506151  0.831474  1
  Cd  Cd18  1  0.506151  0.831474  0.831474  1
  Ni  Ni19  1  0.392376  0.392376  0.392376  1
  Hg  Hg20  1  0.833878  0.833878  0.833878  1
  Ir  Ir21  1  0.392197  0.392197  0.824828  1
  Ir  Ir22  1  0.392197  0.824828  0.392197  1
  Ir  Ir23  1  0.824828  0.392197  0.392197  1
