# generated using pymatgen
data_Ba(SnPd2)2
_symmetry_space_group_name_H-M   'P 1'
_cell_length_a   7.32970334
_cell_length_b   7.32970383
_cell_length_c   7.32970420
_cell_angle_alpha   109.11797753
_cell_angle_beta   109.11798318
_cell_angle_gamma   110.18004237
_symmetry_Int_Tables_number   1
_chemical_formula_structural   Ba(SnPd2)2
_chemical_formula_sum   'Ba2 Sn4 Pd8'
_cell_volume   303.10103372
_cell_formula_units_Z   2
loop_
 _symmetry_equiv_pos_site_id
 _symmetry_equiv_pos_as_xyz
  1  'x, y, z'
loop_
 _atom_site_type_symbol
 _atom_site_label
 _atom_site_symmetry_multiplicity
 _atom_site_fract_x
 _atom_site_fract_y
 _atom_site_fract_z
 _atom_site_occupancy
  Ba  Ba0  1  0.250000  0.250000  0.000000  1
  Ba  Ba1  1  0.750000  0.750000  0.000000  1
  Sn  Sn2  1  0.851490  0.648510  0.500000  1
  Sn  Sn3  1  0.648510  0.148510  0.797020  1
  Sn  Sn4  1  0.351490  0.851490  0.202980  1
  Sn  Sn5  1  0.148510  0.351490  0.500000  1
  Pd  Pd6  1  0.189019  0.983351  0.500000  1
  Pd  Pd7  1  0.689019  0.189019  0.205668  1
  Pd  Pd8  1  0.983351  0.483351  0.794332  1
  Pd  Pd9  1  0.483351  0.689019  0.500000  1
  Pd  Pd10  1  0.516649  0.310981  0.500000  1
  Pd  Pd11  1  0.310981  0.810981  0.794332  1
  Pd  Pd12  1  0.810981  0.016649  0.500000  1
  Pd  Pd13  1  0.016649  0.516649  0.205668  1
