# generated using pymatgen
data_Ca7Y(Si3Rh4)2
_symmetry_space_group_name_H-M   'P 1'
_cell_length_a   10.76317366
_cell_length_b   10.75751043
_cell_length_c   7.57843061
_cell_angle_alpha   72.89725307
_cell_angle_beta   72.79718939
_cell_angle_gamma   30.82318812
_symmetry_Int_Tables_number   1
_chemical_formula_structural   Ca7Y(Si3Rh4)2
_chemical_formula_sum   'Ca7 Y1 Si6 Rh8'
_cell_volume   428.04850260
_cell_formula_units_Z   1
loop_
 _symmetry_equiv_pos_site_id
 _symmetry_equiv_pos_as_xyz
  1  'x, y, z'
loop_
 _atom_site_type_symbol
 _atom_site_label
 _atom_site_symmetry_multiplicity
 _atom_site_fract_x
 _atom_site_fract_y
 _atom_site_fract_z
 _atom_site_occupancy
  Ca  Ca0  1  0.210334  0.447912  0.409710  1
  Ca  Ca1  1  0.545452  0.794762  0.090693  1
  Ca  Ca2  1  0.450980  0.204584  0.910440  1
  Ca  Ca3  1  0.932572  0.202576  0.331385  1
  Ca  Ca4  1  0.795639  0.067934  0.167508  1
  Ca  Ca5  1  0.069060  0.795344  0.666317  1
  Ca  Ca6  1  0.201522  0.933386  0.833104  1
  Y  Y7  1  0.785370  0.556785  0.592916  1
  Si  Si8  1  0.598108  0.403613  0.748057  1
  Si  Si9  1  0.403853  0.596547  0.249470  1
  Si  Si10  1  0.305231  0.042747  0.436057  1
  Si  Si11  1  0.967273  0.688000  0.061134  1
  Si  Si12  1  0.689368  0.963280  0.563083  1
  Si  Si13  1  0.037335  0.312777  0.935224  1
  Rh  Rh14  1  0.302119  0.575718  0.025683  1
  Rh  Rh15  1  0.579331  0.298750  0.525367  1
  Rh  Rh16  1  0.703554  0.420848  0.969691  1
  Rh  Rh17  1  0.068327  0.373165  0.192168  1
  Rh  Rh18  1  0.651834  0.901744  0.317061  1
  Rh  Rh19  1  0.426432  0.698284  0.473497  1
  Rh  Rh20  1  0.912760  0.643526  0.813693  1
  Rh  Rh21  1  0.363547  0.077718  0.687740  1
