# generated using pymatgen
data_Sm3Dy(Ho4Bi3)4
_symmetry_space_group_name_H-M   'P 1'
_cell_length_a   8.28539500
_cell_length_b   9.50183800
_cell_length_c   12.06665800
_cell_angle_alpha   90.00184850
_cell_angle_beta   89.99726802
_cell_angle_gamma   90.00005783
_symmetry_Int_Tables_number   1
_chemical_formula_structural   Sm3Dy(Ho4Bi3)4
_chemical_formula_sum   'Sm3 Dy1 Ho16 Bi12'
_cell_volume   949.96552166
_cell_formula_units_Z   1
loop_
 _symmetry_equiv_pos_site_id
 _symmetry_equiv_pos_as_xyz
  1  'x, y, z'
loop_
 _atom_site_type_symbol
 _atom_site_label
 _atom_site_symmetry_multiplicity
 _atom_site_fract_x
 _atom_site_fract_y
 _atom_site_fract_z
 _atom_site_occupancy
  Sm  Sm0  1  0.313359  0.250003  0.219340  1
  Sm  Sm1  1  0.813385  0.250003  0.280621  1
  Sm  Sm2  1  0.686923  0.749998  0.780758  1
  Dy  Dy3  1  0.187294  0.749998  0.718301  1
  Ho  Ho4  1  0.352388  0.749999  0.216104  1
  Ho  Ho5  1  0.852760  0.750002  0.283968  1
  Ho  Ho6  1  0.647386  0.249999  0.783773  1
  Ho  Ho7  1  0.147257  0.249999  0.716189  1
  Ho  Ho8  1  0.692368  0.564900  0.059251  1
  Ho  Ho9  1  0.192640  0.935049  0.440985  1
  Ho  Ho10  1  0.307483  0.064854  0.940523  1
  Ho  Ho11  1  0.807239  0.435027  0.559314  1
  Ho  Ho12  1  0.307492  0.435159  0.940523  1
  Ho  Ho13  1  0.807247  0.064966  0.559312  1
  Ho  Ho14  1  0.692377  0.935093  0.059255  1
  Ho  Ho15  1  0.192648  0.564957  0.440982  1
  Ho  Ho16  1  0.474961  0.249989  0.488720  1
  Ho  Ho17  1  0.975234  0.250005  0.011393  1
  Ho  Ho18  1  0.524626  0.750010  0.511916  1
  Ho  Ho19  1  0.025047  0.749994  0.988276  1
  Bi  Bi20  1  0.405224  0.750001  0.958781  1
  Bi  Bi21  1  0.907846  0.749997  0.541793  1
  Bi  Bi22  1  0.593941  0.249998  0.040519  1
  Bi  Bi23  1  0.093793  0.250001  0.459407  1
  Bi  Bi24  1  0.564748  0.993022  0.326308  1
  Bi  Bi25  1  0.064626  0.506875  0.173843  1
  Bi  Bi26  1  0.433829  0.494322  0.674074  1
  Bi  Bi27  1  0.936336  0.006000  0.825772  1
  Bi  Bi28  1  0.433831  0.005679  0.674076  1
  Bi  Bi29  1  0.936338  0.494000  0.825769  1
  Bi  Bi30  1  0.564747  0.506977  0.326312  1
  Bi  Bi31  1  0.064625  0.993123  0.173840  1
