# generated using pymatgen
data_BaNi9Sb2As3
_symmetry_space_group_name_H-M   'P 1'
_cell_length_a   6.93105103
_cell_length_b   6.93730449
_cell_length_c   11.67355800
_cell_angle_alpha   90.00000000
_cell_angle_beta   90.00000000
_cell_angle_gamma   119.98071759
_symmetry_Int_Tables_number   1
_chemical_formula_structural   BaNi9Sb2As3
_chemical_formula_sum   'Ba2 Ni18 Sb4 As6'
_cell_volume   486.19230581
_cell_formula_units_Z   2
loop_
 _symmetry_equiv_pos_site_id
 _symmetry_equiv_pos_as_xyz
  1  'x, y, z'
loop_
 _atom_site_type_symbol
 _atom_site_label
 _atom_site_symmetry_multiplicity
 _atom_site_fract_x
 _atom_site_fract_y
 _atom_site_fract_z
 _atom_site_occupancy
  Ba  Ba0  1  0.000002  0.000016  0.000025  1
  Ba  Ba1  1  0.000002  0.000016  0.499975  1
  Ni  Ni2  1  0.539012  0.460980  0.115366  1
  Ni  Ni3  1  0.078071  0.539002  0.615369  1
  Ni  Ni4  1  0.460893  0.921736  0.615521  1
  Ni  Ni5  1  0.539034  0.078095  0.115426  1
  Ni  Ni6  1  0.921911  0.460961  0.115439  1
  Ni  Ni7  1  0.078071  0.539002  0.884631  1
  Ni  Ni8  1  0.460893  0.921736  0.884479  1
  Ni  Ni9  1  0.460937  0.539047  0.615319  1
  Ni  Ni10  1  0.460937  0.539047  0.884681  1
  Ni  Ni11  1  0.539012  0.460980  0.384634  1
  Ni  Ni12  1  0.921911  0.460961  0.384561  1
  Ni  Ni13  1  0.539034  0.078095  0.384574  1
  Ni  Ni14  1  0.206338  0.793696  0.250000  1
  Ni  Ni15  1  0.412433  0.206308  0.750000  1
  Ni  Ni16  1  0.793741  0.587501  0.750000  1
  Ni  Ni17  1  0.206438  0.412740  0.250000  1
  Ni  Ni18  1  0.587418  0.793678  0.250000  1
  Ni  Ni19  1  0.793808  0.206347  0.750000  1
  Sb  Sb20  1  0.333367  0.666663  0.060679  1
  Sb  Sb21  1  0.666670  0.333354  0.560760  1
  Sb  Sb22  1  0.666670  0.333354  0.939240  1
  Sb  Sb23  1  0.333367  0.666663  0.439321  1
  As  As24  1  0.829348  0.170598  0.250000  1
  As  As25  1  0.658938  0.829476  0.750000  1
  As  As26  1  0.170564  0.341117  0.750000  1
  As  As27  1  0.829429  0.658793  0.250000  1
  As  As28  1  0.341234  0.170566  0.250000  1
  As  As29  1  0.170516  0.829470  0.750000  1
