# generated using pymatgen
data_Tm15Lu5(IrPt2)4
_symmetry_space_group_name_H-M   'P 1'
_cell_length_a   10.89006007
_cell_length_b   10.89123107
_cell_length_c   6.27270101
_cell_angle_alpha   90.00496869
_cell_angle_beta   89.99515812
_cell_angle_gamma   89.98835223
_symmetry_Int_Tables_number   1
_chemical_formula_structural   Tm15Lu5(IrPt2)4
_chemical_formula_sum   'Tm15 Lu5 Ir4 Pt8'
_cell_volume   743.98096215
_cell_formula_units_Z   1
loop_
 _symmetry_equiv_pos_site_id
 _symmetry_equiv_pos_as_xyz
  1  'x, y, z'
loop_
 _atom_site_type_symbol
 _atom_site_label
 _atom_site_symmetry_multiplicity
 _atom_site_fract_x
 _atom_site_fract_y
 _atom_site_fract_z
 _atom_site_occupancy
  Tm  Tm0  1  0.294796  0.913496  0.874625  1
  Tm  Tm1  1  0.705146  0.086685  0.874467  1
  Tm  Tm2  1  0.705133  0.913309  0.374576  1
  Tm  Tm3  1  0.586768  0.794917  0.874592  1
  Tm  Tm4  1  0.586424  0.205120  0.374535  1
  Tm  Tm5  1  0.413110  0.795128  0.374535  1
  Tm  Tm6  1  0.413010  0.205065  0.874557  1
  Tm  Tm7  1  0.205164  0.413242  0.625429  1
  Tm  Tm8  1  0.205137  0.586738  0.125486  1
  Tm  Tm9  1  0.794818  0.413211  0.125511  1
  Tm  Tm10  1  0.794838  0.586760  0.625493  1
  Tm  Tm11  1  0.913286  0.705230  0.125494  1
  Tm  Tm12  1  0.913238  0.294780  0.625548  1
  Tm  Tm13  1  0.086768  0.705193  0.625401  1
  Tm  Tm14  1  0.086934  0.294648  0.125564  1
  Lu  Lu15  1  0.295337  0.086660  0.375017  1
  Lu  Lu16  1  0.000290  0.000108  0.499884  1
  Lu  Lu17  1  0.000085  0.000080  0.000007  1
  Lu  Lu18  1  0.499952  0.499952  0.000020  1
  Lu  Lu19  1  0.499963  0.500028  0.499915  1
  Ir  Ir20  1  0.499572  0.000293  0.120758  1
  Ir  Ir21  1  0.499564  0.000189  0.620082  1
  Ir  Ir22  1  0.000008  0.499963  0.879655  1
  Ir  Ir23  1  0.000041  0.499915  0.379551  1
  Pt  Pt24  1  0.847070  0.152784  0.249993  1
  Pt  Pt25  1  0.847226  0.847213  0.750038  1
  Pt  Pt26  1  0.153325  0.152490  0.748538  1
  Pt  Pt27  1  0.153104  0.847596  0.250302  1
  Pt  Pt28  1  0.652765  0.347120  0.750083  1
  Pt  Pt29  1  0.652845  0.652858  0.249877  1
  Pt  Pt30  1  0.347088  0.346421  0.250436  1
  Pt  Pt31  1  0.347193  0.652810  0.750027  1
