# generated using pymatgen
data_CaTb5Al17Si7Os8
_symmetry_space_group_name_H-M   'P 1'
_cell_length_a   8.70614695
_cell_length_b   8.69261556
_cell_length_c   9.53792300
_cell_angle_alpha   90.00001062
_cell_angle_beta   90.00000059
_cell_angle_gamma   120.05091522
_symmetry_Int_Tables_number   1
_chemical_formula_structural   CaTb5Al17Si7Os8
_chemical_formula_sum   'Ca1 Tb5 Al17 Si7 Os8'
_cell_volume   624.79545892
_cell_formula_units_Z   1
loop_
 _symmetry_equiv_pos_site_id
 _symmetry_equiv_pos_as_xyz
  1  'x, y, z'
loop_
 _atom_site_type_symbol
 _atom_site_label
 _atom_site_symmetry_multiplicity
 _atom_site_fract_x
 _atom_site_fract_y
 _atom_site_fract_z
 _atom_site_occupancy
  Ca  Ca0  1  0.802571  0.192609  0.750000  1
  Tb  Tb1  1  0.192110  0.386697  0.250000  1
  Tb  Tb2  1  0.807915  0.615706  0.750000  1
  Tb  Tb3  1  0.612185  0.807904  0.250000  1
  Tb  Tb4  1  0.386601  0.189374  0.750000  1
  Tb  Tb5  1  0.196208  0.805143  0.250000  1
  Al  Al6  1  0.165189  0.330804  0.577375  1
  Al  Al7  1  0.833001  0.670128  0.421692  1
  Al  Al8  1  0.670314  0.834828  0.577019  1
  Al  Al9  1  0.833001  0.670127  0.078308  1
  Al  Al10  1  0.330818  0.167136  0.423035  1
  Al  Al11  1  0.165189  0.330804  0.922625  1
  Al  Al12  1  0.164133  0.833543  0.576599  1
  Al  Al13  1  0.330818  0.167137  0.076966  1
  Al  Al14  1  0.834783  0.164647  0.424308  1
  Al  Al15  1  0.670314  0.834828  0.922983  1
  Al  Al16  1  0.834783  0.164647  0.075691  1
  Al  Al17  1  0.164133  0.833543  0.923401  1
  Al  Al18  1  0.125218  0.564336  0.749999  1
  Al  Al19  1  0.564925  0.434599  0.250000  1
  Al  Al20  1  0.438028  0.566948  0.750000  1
  Al  Al21  1  0.999734  0.998999  0.250001  1
  Al  Al22  1  0.999145  0.001540  0.750001  1
  Si  Si23  1  0.333737  0.664282  0.039047  1
  Si  Si24  1  0.667023  0.335323  0.960285  1
  Si  Si25  1  0.667024  0.335323  0.539715  1
  Si  Si26  1  0.333738  0.664282  0.460953  1
  Si  Si27  1  0.565886  0.125463  0.250000  1
  Si  Si28  1  0.437056  0.872665  0.750000  1
  Si  Si29  1  0.873710  0.433540  0.250000  1
  Os  Os30  1  0.499373  0.000122  0.002751  1
  Os  Os31  1  0.999296  0.500773  0.008252  1
  Os  Os32  1  0.499373  0.000121  0.497249  1
  Os  Os33  1  0.500676  0.500441  0.000861  1
  Os  Os34  1  0.999297  0.500773  0.491747  1
  Os  Os35  1  0.500676  0.500442  0.499139  1
  Os  Os36  1  0.001012  0.000211  0.000239  1
  Os  Os37  1  0.001009  0.000212  0.499762  1
