# generated using pymatgen
data_Cs12K6Ga2Bi7Sb
_symmetry_space_group_name_H-M   'P 1'
_cell_length_a   11.32380835
_cell_length_b   11.31346240
_cell_length_c   11.89515100
_cell_angle_alpha   90.00000000
_cell_angle_beta   90.00000000
_cell_angle_gamma   119.96932552
_symmetry_Int_Tables_number   1
_chemical_formula_structural   Cs12K6Ga2Bi7Sb
_chemical_formula_sum   'Cs12 K6 Ga2 Bi7 Sb1'
_cell_volume   1320.14852703
_cell_formula_units_Z   1
loop_
 _symmetry_equiv_pos_site_id
 _symmetry_equiv_pos_as_xyz
  1  'x, y, z'
loop_
 _atom_site_type_symbol
 _atom_site_label
 _atom_site_symmetry_multiplicity
 _atom_site_fract_x
 _atom_site_fract_y
 _atom_site_fract_z
 _atom_site_occupancy
  Cs  Cs0  1  0.417137  0.208565  0.038899  1
  Cs  Cs1  1  0.791525  0.208912  0.038663  1
  Cs  Cs2  1  0.791525  0.582613  0.038663  1
  Cs  Cs3  1  0.791525  0.582613  0.461337  1
  Cs  Cs4  1  0.417137  0.208565  0.461101  1
  Cs  Cs5  1  0.791525  0.208912  0.461337  1
  Cs  Cs6  1  0.207419  0.789915  0.540493  1
  Cs  Cs7  1  0.583125  0.791566  0.539267  1
  Cs  Cs8  1  0.207414  0.417502  0.540497  1
  Cs  Cs9  1  0.207414  0.417502  0.959504  1
  Cs  Cs10  1  0.207419  0.789915  0.959507  1
  Cs  Cs11  1  0.583125  0.791566  0.960733  1
  K  K12  1  0.118550  0.236942  0.250000  1
  K  K13  1  0.118563  0.881622  0.250000  1
  K  K14  1  0.763160  0.881574  0.250000  1
  K  K15  1  0.237044  0.118528  0.750000  1
  K  K16  1  0.881828  0.120051  0.750000  1
  K  K17  1  0.881831  0.761776  0.750000  1
  Ga  Ga18  1  0.333553  0.666766  0.250000  1
  Ga  Ga19  1  0.671097  0.335557  0.750000  1
  Bi  Bi20  1  0.000106  0.000053  0.999738  1
  Bi  Bi21  1  0.049301  0.524647  0.250000  1
  Bi  Bi22  1  0.475235  0.524675  0.250000  1
  Bi  Bi23  1  0.475225  0.950535  0.250000  1
  Bi  Bi24  1  0.000106  0.000053  0.500262  1
  Bi  Bi25  1  0.525985  0.050967  0.750000  1
  Bi  Bi26  1  0.525984  0.475033  0.750000  1
  Sb  Sb27  1  0.946147  0.473078  0.750000  1
