# generated using pymatgen
data_La3Sb2As4Rh9
_symmetry_space_group_name_H-M   'P 1'
_cell_length_a   4.12617100
_cell_length_b   8.65431860
_cell_length_c   10.17807436
_cell_angle_alpha   105.99625725
_cell_angle_beta   90.00000000
_cell_angle_gamma   103.79142036
_symmetry_Int_Tables_number   1
_chemical_formula_structural   La3Sb2As4Rh9
_chemical_formula_sum   'La3 Sb2 As4 Rh9'
_cell_volume   338.46426188
_cell_formula_units_Z   1
loop_
 _symmetry_equiv_pos_site_id
 _symmetry_equiv_pos_as_xyz
  1  'x, y, z'
loop_
 _atom_site_type_symbol
 _atom_site_label
 _atom_site_symmetry_multiplicity
 _atom_site_fract_x
 _atom_site_fract_y
 _atom_site_fract_z
 _atom_site_occupancy
  La  La0  1  0.851491  0.702980  0.310537  1
  La  La1  1  0.148509  0.297020  0.689463  1
  La  La2  1  0.000000  0.000000  0.000000  1
  Sb  Sb3  1  0.800780  0.601557  0.871103  1
  Sb  Sb4  1  0.199220  0.398443  0.128897  1
  As  As5  1  0.529924  0.059848  0.772145  1
  As  As6  1  0.470076  0.940152  0.227855  1
  As  As7  1  0.639646  0.279292  0.454880  1
  As  As8  1  0.360354  0.720708  0.545120  1
  Rh  Rh9  1  0.954693  0.909386  0.664762  1
  Rh  Rh10  1  0.045307  0.090614  0.335238  1
  Rh  Rh11  1  0.780651  0.561302  0.599751  1
  Rh  Rh12  1  0.219349  0.438698  0.400249  1
  Rh  Rh13  1  0.375773  0.751545  0.786765  1
  Rh  Rh14  1  0.624227  0.248455  0.213235  1
  Rh  Rh15  1  0.500000  0.000000  0.500000  1
  Rh  Rh16  1  0.665107  0.330214  0.950270  1
  Rh  Rh17  1  0.334893  0.669786  0.049730  1
