# generated using pymatgen
data_Dy4Pb3
_symmetry_space_group_name_H-M   'P 1'
_cell_length_a   8.14911166
_cell_length_b   8.14911240
_cell_length_c   8.14911200
_cell_angle_alpha   109.47122212
_cell_angle_beta   109.47122396
_cell_angle_gamma   109.47122251
_symmetry_Int_Tables_number   1
_chemical_formula_structural   Dy4Pb3
_chemical_formula_sum   'Dy8 Pb6'
_cell_volume   416.59009231
_cell_formula_units_Z   2
loop_
 _symmetry_equiv_pos_site_id
 _symmetry_equiv_pos_as_xyz
  1  'x, y, z'
loop_
 _atom_site_type_symbol
 _atom_site_label
 _atom_site_symmetry_multiplicity
 _atom_site_fract_x
 _atom_site_fract_y
 _atom_site_fract_z
 _atom_site_occupancy
  Dy  Dy0  1  0.358809  0.500000  0.000000  1
  Dy  Dy1  1  0.858809  0.499999  0.000000  1
  Dy  Dy2  1  0.141191  0.141191  0.141191  1
  Dy  Dy3  1  0.500000  0.000000  0.358809  1
  Dy  Dy4  1  0.000000  0.358809  0.500000  1
  Dy  Dy5  1  0.000000  0.858809  0.499999  1
  Dy  Dy6  1  0.641192  0.641192  0.641192  1
  Dy  Dy7  1  0.499999  0.000000  0.858809  1
  Pb  Pb8  1  0.750000  0.874999  0.125000  1
  Pb  Pb9  1  0.625000  0.375000  0.250000  1
  Pb  Pb10  1  0.250000  0.625000  0.375000  1
  Pb  Pb11  1  0.375000  0.250000  0.625000  1
  Pb  Pb12  1  0.874999  0.125000  0.750000  1
  Pb  Pb13  1  0.125000  0.750000  0.874999  1
