# generated using pymatgen
data_KHg3SbO6
_symmetry_space_group_name_H-M   'P 1'
_cell_length_a   7.43953537
_cell_length_b   7.43953474
_cell_length_c   7.43953510
_cell_angle_alpha   85.20931707
_cell_angle_beta   85.20931511
_cell_angle_gamma   85.20931970
_symmetry_Int_Tables_number   1
_chemical_formula_structural   KHg3SbO6
_chemical_formula_sum   'K2 Hg6 Sb2 O12'
_cell_volume   407.66523460
_cell_formula_units_Z   2
loop_
 _symmetry_equiv_pos_site_id
 _symmetry_equiv_pos_as_xyz
  1  'x, y, z'
loop_
 _atom_site_type_symbol
 _atom_site_label
 _atom_site_symmetry_multiplicity
 _atom_site_fract_x
 _atom_site_fract_y
 _atom_site_fract_z
 _atom_site_occupancy
  K  K0  1  0.250000  0.250000  0.250000  1
  K  K1  1  0.750000  0.750000  0.750000  1
  Hg  Hg2  1  0.383352  0.750000  0.116648  1
  Hg  Hg3  1  0.116648  0.383352  0.750000  1
  Hg  Hg4  1  0.616648  0.250000  0.883352  1
  Hg  Hg5  1  0.883352  0.616648  0.250000  1
  Hg  Hg6  1  0.750000  0.116648  0.383352  1
  Hg  Hg7  1  0.250000  0.883352  0.616648  1
  Sb  Sb8  1  0.000000  0.000000  0.000000  1
  Sb  Sb9  1  0.500000  0.500000  0.500000  1
  O  O10  1  0.485745  0.774362  0.497556  1
  O  O11  1  0.497556  0.485745  0.774362  1
  O  O12  1  0.774362  0.497556  0.485745  1
  O  O13  1  0.014255  0.002444  0.725638  1
  O  O14  1  0.725638  0.014255  0.002444  1
  O  O15  1  0.002444  0.725638  0.014255  1
  O  O16  1  0.514255  0.225638  0.502444  1
  O  O17  1  0.502444  0.514255  0.225638  1
  O  O18  1  0.225638  0.502444  0.514255  1
  O  O19  1  0.985745  0.997556  0.274362  1
  O  O20  1  0.997556  0.274362  0.985745  1
  O  O21  1  0.274362  0.985745  0.997556  1
