# generated using pymatgen
data_Sr4TbPa5O18
_symmetry_space_group_name_H-M   'P 1'
_cell_length_a   6.95731474
_cell_length_b   7.85656926
_cell_length_c   8.82601537
_cell_angle_alpha   101.55878357
_cell_angle_beta   98.02052683
_cell_angle_gamma   106.94903109
_symmetry_Int_Tables_number   1
_chemical_formula_structural   Sr4TbPa5O18
_chemical_formula_sum   'Sr4 Tb1 Pa5 O18'
_cell_volume   441.92190293
_cell_formula_units_Z   1
loop_
 _symmetry_equiv_pos_site_id
 _symmetry_equiv_pos_as_xyz
  1  'x, y, z'
loop_
 _atom_site_type_symbol
 _atom_site_label
 _atom_site_symmetry_multiplicity
 _atom_site_fract_x
 _atom_site_fract_y
 _atom_site_fract_z
 _atom_site_occupancy
  Sr  Sr0  1  0.803566  0.109190  0.591326  1
  Sr  Sr1  1  0.594286  0.693091  0.194719  1
  Sr  Sr2  1  0.405714  0.306909  0.805281  1
  Sr  Sr3  1  0.196434  0.890810  0.408674  1
  Tb  Tb4  1  0.000000  0.500000  0.000000  1
  Pa  Pa5  1  0.000000  0.000000  0.000000  1
  Pa  Pa6  1  0.792241  0.580598  0.586566  1
  Pa  Pa7  1  0.631041  0.197565  0.196532  1
  Pa  Pa8  1  0.368959  0.802435  0.803468  1
  Pa  Pa9  1  0.207759  0.419402  0.413434  1
  O  O10  1  0.819864  0.788700  0.471417  1
  O  O11  1  0.988710  0.221602  0.188346  1
  O  O12  1  0.689132  0.401428  0.069985  1
  O  O13  1  0.457878  0.999770  0.684306  1
  O  O14  1  0.858002  0.346312  0.431124  1
  O  O15  1  0.504247  0.398644  0.346145  1
  O  O16  1  0.225155  0.589244  0.255734  1
  O  O17  1  0.976776  0.797301  0.129618  1
  O  O18  1  0.661474  0.935813  0.993085  1
  O  O19  1  0.338526  0.064187  0.006915  1
  O  O20  1  0.023224  0.202699  0.870382  1
  O  O21  1  0.774845  0.410756  0.744266  1
  O  O22  1  0.495753  0.601356  0.653855  1
  O  O23  1  0.141998  0.653688  0.568876  1
  O  O24  1  0.542122  0.000230  0.315694  1
  O  O25  1  0.310868  0.598572  0.930015  1
  O  O26  1  0.011290  0.778398  0.811654  1
  O  O27  1  0.180136  0.211300  0.528583  1
