# generated using pymatgen
data_Dy4HoAl2Ru3
_symmetry_space_group_name_H-M   'P 1'
_cell_length_a   8.32426472
_cell_length_b   8.32743523
_cell_length_c   8.32590422
_cell_angle_alpha   109.58039910
_cell_angle_beta   109.39914219
_cell_angle_gamma   109.41898221
_symmetry_Int_Tables_number   1
_chemical_formula_structural   Dy4HoAl2Ru3
_chemical_formula_sum   'Dy8 Ho2 Al4 Ru6'
_cell_volume   444.37211315
_cell_formula_units_Z   2
loop_
 _symmetry_equiv_pos_site_id
 _symmetry_equiv_pos_as_xyz
  1  'x, y, z'
loop_
 _atom_site_type_symbol
 _atom_site_label
 _atom_site_symmetry_multiplicity
 _atom_site_fract_x
 _atom_site_fract_y
 _atom_site_fract_z
 _atom_site_occupancy
  Dy  Dy0  1  0.476808  0.157377  0.226297  1
  Dy  Dy1  1  0.157415  0.225970  0.476008  1
  Dy  Dy2  1  0.227287  0.477252  0.157677  1
  Dy  Dy3  1  0.407667  0.693272  0.907651  1
  Dy  Dy4  1  0.693563  0.907211  0.408388  1
  Dy  Dy5  1  0.907834  0.407657  0.693689  1
  Dy  Dy6  1  0.657482  0.089007  0.839227  1
  Dy  Dy7  1  0.087870  0.837762  0.657992  1
  Ho  Ho8  1  0.837105  0.657595  0.086925  1
  Ho  Ho9  1  0.620605  0.620301  0.619894  1
  Al  Al10  1  0.407317  0.317037  0.906278  1
  Al  Al11  1  0.317395  0.907723  0.408162  1
  Al  Al12  1  0.909020  0.408543  0.317934  1
  Al  Al13  1  0.995462  0.996746  0.996899  1
  Ru  Ru14  1  0.035242  0.157476  0.785208  1
  Ru  Ru15  1  0.157419  0.785671  0.036125  1
  Ru  Ru16  1  0.784119  0.034926  0.158407  1
  Ru  Ru17  1  0.657585  0.529084  0.278455  1
  Ru  Ru18  1  0.531094  0.280983  0.657468  1
  Ru  Ru19  1  0.281714  0.658412  0.531321  1
