# generated using pymatgen
data_TbTm4Co19(Si3P)3
_symmetry_space_group_name_H-M   'P 1'
_cell_length_a   12.10794100
_cell_length_b   12.10794119
_cell_length_c   3.68815500
_cell_angle_alpha   90.00000000
_cell_angle_beta   90.00000000
_cell_angle_gamma   119.99999675
_symmetry_Int_Tables_number   1
_chemical_formula_structural   TbTm4Co19(Si3P)3
_chemical_formula_sum   'Tb1 Tm4 Co19 Si9 P3'
_cell_volume   468.25282844
_cell_formula_units_Z   1
loop_
 _symmetry_equiv_pos_site_id
 _symmetry_equiv_pos_as_xyz
  1  'x, y, z'
loop_
 _atom_site_type_symbol
 _atom_site_label
 _atom_site_symmetry_multiplicity
 _atom_site_fract_x
 _atom_site_fract_y
 _atom_site_fract_z
 _atom_site_occupancy
  Tb  Tb0  1  0.666667  0.333333  0.000000  1
  Tm  Tm1  1  0.333333  0.666667  0.000000  1
  Tm  Tm2  1  0.184196  0.184100  0.500000  1
  Tm  Tm3  1  0.815900  0.000096  0.500000  1
  Tm  Tm4  1  0.999904  0.815804  0.500000  1
  Co  Co5  1  0.824908  0.196294  0.000000  1
  Co  Co6  1  0.803706  0.628612  0.000000  1
  Co  Co7  1  0.371388  0.175092  0.000000  1
  Co  Co8  1  0.196780  0.824141  0.000000  1
  Co  Co9  1  0.627359  0.803220  0.000000  1
  Co  Co10  1  0.175859  0.372641  0.000000  1
  Co  Co11  1  0.557487  0.557616  0.000000  1
  Co  Co12  1  0.442384  0.999871  0.000000  1
  Co  Co13  1  0.000129  0.442513  0.000000  1
  Co  Co14  1  0.645375  0.122993  0.500000  1
  Co  Co15  1  0.877007  0.522383  0.500000  1
  Co  Co16  1  0.477617  0.354625  0.500000  1
  Co  Co17  1  0.124112  0.645413  0.500000  1
  Co  Co18  1  0.521302  0.875888  0.500000  1
  Co  Co19  1  0.354587  0.478698  0.500000  1
  Co  Co20  1  0.722809  0.723546  0.500000  1
  Co  Co21  1  0.276454  0.999263  0.500000  1
  Co  Co22  1  0.000737  0.277191  0.500000  1
  Co  Co23  1  0.000000  0.000000  0.000000  1
  Si  Si24  1  0.368886  0.369066  0.000000  1
  Si  Si25  1  0.630934  0.999820  0.000000  1
  Si  Si26  1  0.000180  0.631114  0.000000  1
  Si  Si27  1  0.841628  0.318731  0.500000  1
  Si  Si28  1  0.681269  0.522897  0.500000  1
  Si  Si29  1  0.477103  0.158372  0.500000  1
  Si  Si30  1  0.318696  0.840045  0.500000  1
  Si  Si31  1  0.521349  0.681304  0.500000  1
  Si  Si32  1  0.159955  0.478651  0.500000  1
  P  P33  1  0.819574  0.819995  0.000000  1
  P  P34  1  0.180005  0.999579  0.000000  1
  P  P35  1  0.000421  0.180426  0.000000  1
