# generated using pymatgen
data_Eu2Cl2OF
_symmetry_space_group_name_H-M   'P 1'
_cell_length_a   3.90128600
_cell_length_b   3.90128600
_cell_length_c   8.30418100
_cell_angle_alpha   90.00000000
_cell_angle_beta   90.00000000
_cell_angle_gamma   90.00000000
_symmetry_Int_Tables_number   1
_chemical_formula_structural   Eu2Cl2OF
_chemical_formula_sum   'Eu2 Cl2 O1 F1'
_cell_volume   126.38990432
_cell_formula_units_Z   1
loop_
 _symmetry_equiv_pos_site_id
 _symmetry_equiv_pos_as_xyz
  1  'x, y, z'
loop_
 _atom_site_type_symbol
 _atom_site_label
 _atom_site_symmetry_multiplicity
 _atom_site_fract_x
 _atom_site_fract_y
 _atom_site_fract_z
 _atom_site_occupancy
  Eu  Eu0  1  0.250000  0.250000  0.163418  1
  Eu  Eu1  1  0.750000  0.750000  0.836582  1
  Cl  Cl2  1  0.250000  0.250000  0.672000  1
  Cl  Cl3  1  0.750000  0.750000  0.328000  1
  O  O4  1  0.250000  0.750000  0.000000  1
  F  F5  1  0.750000  0.250000  0.000000  1
