# generated using pymatgen
data_LaYb3(H6Pd)2
_symmetry_space_group_name_H-M   'P 1'
_cell_length_a   7.05915700
_cell_length_b   7.05915691
_cell_length_c   5.31459500
_cell_angle_alpha   89.99953736
_cell_angle_beta   89.99953736
_cell_angle_gamma   135.82322551
_symmetry_Int_Tables_number   1
_chemical_formula_structural   LaYb3(H6Pd)2
_chemical_formula_sum   'La1 Yb3 H12 Pd2'
_cell_volume   184.55694181
_cell_formula_units_Z   1
loop_
 _symmetry_equiv_pos_site_id
 _symmetry_equiv_pos_as_xyz
  1  'x, y, z'
loop_
 _atom_site_type_symbol
 _atom_site_label
 _atom_site_symmetry_multiplicity
 _atom_site_fract_x
 _atom_site_fract_y
 _atom_site_fract_z
 _atom_site_occupancy
  La  La0  1  0.149706  0.850294  0.500000  1
  Yb  Yb1  1  0.651973  0.348027  0.000000  1
  Yb  Yb2  1  0.854078  0.145922  0.500000  1
  Yb  Yb3  1  0.357124  0.642876  0.000000  1
  H  H4  1  0.000567  0.496648  0.753373  1
  H  H5  1  0.503352  0.999433  0.246627  1
  H  H6  1  0.000570  0.496654  0.246627  1
  H  H7  1  0.503346  0.999430  0.753373  1
  H  H8  1  0.365470  0.634530  0.500000  1
  H  H9  1  0.867330  0.132670  0.000000  1
  H  H10  1  0.629959  0.370041  0.500000  1
  H  H11  1  0.129328  0.870672  0.000000  1
  H  H12  1  0.246933  0.251025  0.748766  1
  H  H13  1  0.748975  0.753067  0.251234  1
  H  H14  1  0.246924  0.251017  0.251242  1
  H  H15  1  0.748983  0.753076  0.748758  1
  Pd  Pd16  1  0.497507  0.502493  0.500000  1
  Pd  Pd17  1  0.997875  0.002125  0.000000  1
