# generated using pymatgen
data_VCo20(ReB3)2
_symmetry_space_group_name_H-M   'P 1'
_cell_length_a   7.39167788
_cell_length_b   7.39191961
_cell_length_c   7.39208500
_cell_angle_alpha   59.99925539
_cell_angle_beta   59.99817353
_cell_angle_gamma   60.00000228
_symmetry_Int_Tables_number   1
_chemical_formula_structural   VCo20(ReB3)2
_chemical_formula_sum   'V1 Co20 Re2 B6'
_cell_volume   285.59052213
_cell_formula_units_Z   1
loop_
 _symmetry_equiv_pos_site_id
 _symmetry_equiv_pos_as_xyz
  1  'x, y, z'
loop_
 _atom_site_type_symbol
 _atom_site_label
 _atom_site_symmetry_multiplicity
 _atom_site_fract_x
 _atom_site_fract_y
 _atom_site_fract_z
 _atom_site_occupancy
  V  V0  1  0.000000  0.000000  0.000000  1
  Co  Co1  1  0.618443  0.618465  0.144589  1
  Co  Co2  1  0.618456  0.144655  0.618445  1
  Co  Co3  1  0.144580  0.618494  0.618463  1
  Co  Co4  1  0.618443  0.618465  0.618503  1
  Co  Co5  1  0.381557  0.381535  0.855411  1
  Co  Co6  1  0.381544  0.855345  0.381555  1
  Co  Co7  1  0.855420  0.381506  0.381537  1
  Co  Co8  1  0.381557  0.381535  0.381497  1
  Co  Co9  1  0.000000  0.000000  0.339279  1
  Co  Co10  1  0.660683  0.000036  0.339295  1
  Co  Co11  1  0.000043  0.660698  0.339266  1
  Co  Co12  1  0.660694  0.339322  0.999992  1
  Co  Co13  1  0.999957  0.339302  0.000006  1
  Co  Co14  1  0.999957  0.339302  0.660734  1
  Co  Co15  1  0.339306  0.660678  0.000008  1
  Co  Co16  1  0.339317  0.999964  0.660705  1
  Co  Co17  1  0.339317  0.999964  0.000014  1
  Co  Co18  1  0.000000  0.000000  0.660721  1
  Co  Co19  1  0.000043  0.660698  0.999994  1
  Co  Co20  1  0.660683  0.000036  0.999986  1
  Re  Re21  1  0.750005  0.749963  0.750016  1
  Re  Re22  1  0.249995  0.250037  0.249984  1
  B  B23  1  0.725945  0.725974  0.274041  1
  B  B24  1  0.274025  0.725990  0.274004  1
  B  B25  1  0.725975  0.274010  0.274019  1
  B  B26  1  0.274055  0.274026  0.725959  1
  B  B27  1  0.725975  0.274010  0.725996  1
  B  B28  1  0.274025  0.725990  0.725981  1
