# generated using pymatgen
data_Cd2BH11
_symmetry_space_group_name_H-M   'P 1'
_cell_length_a   6.55495016
_cell_length_b   7.19285458
_cell_length_c   7.93574205
_cell_angle_alpha   133.16603427
_cell_angle_beta   84.71632343
_cell_angle_gamma   120.94831162
_symmetry_Int_Tables_number   1
_chemical_formula_structural   Cd2BH11
_chemical_formula_sum   'Cd2 B1 H11'
_cell_volume   212.92150041
_cell_formula_units_Z   1
loop_
 _symmetry_equiv_pos_site_id
 _symmetry_equiv_pos_as_xyz
  1  'x, y, z'
loop_
 _atom_site_type_symbol
 _atom_site_label
 _atom_site_symmetry_multiplicity
 _atom_site_fract_x
 _atom_site_fract_y
 _atom_site_fract_z
 _atom_site_occupancy
  Cd  Cd0  1  0.782389  0.155436  0.622158  1
  Cd  Cd1  1  0.932884  0.813078  0.285399  1
  B  B2  1  0.244284  0.731116  0.358519  1
  H  H3  1  0.490290  0.709482  0.886622  1
  H  H4  1  0.328154  0.954181  0.385250  1
  H  H5  1  0.256982  0.528461  0.173074  1
  H  H6  1  0.929059  0.812506  0.716838  1
  H  H7  1  0.914280  0.901154  0.839932  1
  H  H8  1  0.367570  0.856449  0.559873  1
  H  H9  1  0.465511  0.193434  0.169615  1
  H  H10  1  0.386604  0.216144  0.132042  1
  H  H11  1  0.841094  0.521909  0.934667  1
  H  H12  1  0.014297  0.596198  0.337200  1
  H  H13  1  0.464151  0.698341  0.974646  1
