# generated using pymatgen
data_TmTh(BRu)8
_symmetry_space_group_name_H-M   'P 1'
_cell_length_a   9.25221988
_cell_length_b   7.51671120
_cell_length_c   7.51671200
_cell_angle_alpha   90.00000000
_cell_angle_beta   113.96704715
_cell_angle_gamma   113.96705271
_symmetry_Int_Tables_number   1
_chemical_formula_structural   TmTh(BRu)8
_chemical_formula_sum   'Tm2 Th2 B16 Ru16'
_cell_volume   427.89206341
_cell_formula_units_Z   2
loop_
 _symmetry_equiv_pos_site_id
 _symmetry_equiv_pos_as_xyz
  1  'x, y, z'
loop_
 _atom_site_type_symbol
 _atom_site_label
 _atom_site_symmetry_multiplicity
 _atom_site_fract_x
 _atom_site_fract_y
 _atom_site_fract_z
 _atom_site_occupancy
  Tm  Tm0  1  0.750000  0.375000  0.625000  1
  Tm  Tm1  1  0.250000  0.125000  0.875000  1
  Th  Th2  1  0.750000  0.874999  0.124999  1
  Th  Th3  1  0.250000  0.625000  0.375001  1
  B  B4  1  0.913556  0.289412  0.065018  1
  B  B5  1  0.413556  0.565017  0.124145  1
  B  B6  1  0.086444  0.210588  0.151461  1
  B  B7  1  0.584843  0.149696  0.210009  1
  B  B8  1  0.415157  0.064852  0.289990  1
  B  B9  1  0.913556  0.624145  0.348539  1
  B  B10  1  0.586444  0.651462  0.375855  1
  B  B11  1  0.086444  0.875856  0.434982  1
  B  B12  1  0.915157  0.125167  0.564853  1
  B  B13  1  0.415157  0.350304  0.625167  1
  B  B14  1  0.084843  0.374833  0.649697  1
  B  B15  1  0.586444  0.934983  0.710589  1
  B  B16  1  0.413556  0.848539  0.789411  1
  B  B17  1  0.915157  0.789991  0.850303  1
  B  B18  1  0.584843  0.435147  0.874833  1
  B  B19  1  0.084843  0.710009  0.935147  1
  Ru  Ru20  1  0.870895  0.549550  0.036338  1
  Ru  Ru21  1  0.370894  0.834557  0.049549  1
  Ru  Ru22  1  0.129105  0.950450  0.165444  1
  Ru  Ru23  1  0.625277  0.459166  0.178010  1
  Ru  Ru24  1  0.374723  0.333890  0.321990  1
  Ru  Ru25  1  0.870895  0.321345  0.334556  1
  Ru  Ru26  1  0.629106  0.963662  0.450451  1
  Ru  Ru27  1  0.129105  0.178655  0.463662  1
  Ru  Ru28  1  0.874724  0.821991  0.540835  1
  Ru  Ru29  1  0.374723  0.040834  0.552733  1
  Ru  Ru30  1  0.125276  0.678009  0.666110  1
  Ru  Ru31  1  0.629106  0.665443  0.678654  1
  Ru  Ru32  1  0.370894  0.536338  0.821346  1
  Ru  Ru33  1  0.874724  0.052733  0.833891  1
  Ru  Ru34  1  0.625277  0.166110  0.947267  1
  Ru  Ru35  1  0.125276  0.447267  0.959165  1
