# generated using pymatgen
data_Tm4V3B16W
_symmetry_space_group_name_H-M   'P 1'
_cell_length_a   3.43547800
_cell_length_b   6.00317994
_cell_length_c   11.61002733
_cell_angle_alpha   89.98157968
_cell_angle_beta   90.00000000
_cell_angle_gamma   90.00000000
_symmetry_Int_Tables_number   1
_chemical_formula_structural   Tm4V3B16W
_chemical_formula_sum   'Tm4 V3 B16 W1'
_cell_volume   239.44278333
_cell_formula_units_Z   1
loop_
 _symmetry_equiv_pos_site_id
 _symmetry_equiv_pos_as_xyz
  1  'x, y, z'
loop_
 _atom_site_type_symbol
 _atom_site_label
 _atom_site_symmetry_multiplicity
 _atom_site_fract_x
 _atom_site_fract_y
 _atom_site_fract_z
 _atom_site_occupancy
  Tm  Tm0  1  0.500000  0.125754  0.653054  1
  Tm  Tm1  1  0.500000  0.872170  0.347196  1
  Tm  Tm2  1  0.500000  0.624479  0.850020  1
  Tm  Tm3  1  0.500000  0.375743  0.147759  1
  V  V4  1  0.500000  0.128023  0.916664  1
  V  V5  1  0.500000  0.871952  0.082612  1
  V  V6  1  0.500000  0.630840  0.585221  1
  B  B7  1  0.000000  0.477853  0.694781  1
  B  B8  1  0.000000  0.527945  0.304484  1
  B  B9  1  0.000000  0.977483  0.807434  1
  B  B10  1  0.000000  0.021372  0.191239  1
  B  B11  1  0.000000  0.287713  0.814773  1
  B  B12  1  0.000000  0.713572  0.184196  1
  B  B13  1  0.000000  0.787676  0.687418  1
  B  B14  1  0.000000  0.207698  0.310693  1
  B  B15  1  0.000000  0.365223  0.967514  1
  B  B16  1  0.000000  0.634818  0.031398  1
  B  B17  1  0.000000  0.865567  0.534232  1
  B  B18  1  0.000000  0.129492  0.470493  1
  B  B19  1  0.000000  0.385417  0.551255  1
  B  B20  1  0.000000  0.620041  0.453454  1
  B  B21  1  0.000000  0.884932  0.951696  1
  B  B22  1  0.000000  0.114889  0.047144  1
  W  W23  1  0.500000  0.369346  0.415267  1
