# generated using pymatgen
data_Ho2GeP(Ru2C)2
_symmetry_space_group_name_H-M   'P 1'
_cell_length_a   5.88766852
_cell_length_b   5.88766875
_cell_length_c   7.19001000
_cell_angle_alpha   90.00000000
_cell_angle_beta   90.00000000
_cell_angle_gamma   142.34353067
_symmetry_Int_Tables_number   1
_chemical_formula_structural   Ho2GeP(Ru2C)2
_chemical_formula_sum   'Ho2 Ge1 P1 Ru4 C2'
_cell_volume   152.26659271
_cell_formula_units_Z   1
loop_
 _symmetry_equiv_pos_site_id
 _symmetry_equiv_pos_as_xyz
  1  'x, y, z'
loop_
 _atom_site_type_symbol
 _atom_site_label
 _atom_site_symmetry_multiplicity
 _atom_site_fract_x
 _atom_site_fract_y
 _atom_site_fract_z
 _atom_site_occupancy
  Ho  Ho0  1  0.545698  0.454302  0.250000  1
  Ho  Ho1  1  0.454754  0.545246  0.750000  1
  Ge  Ge2  1  0.732927  0.267073  0.750000  1
  P  P3  1  0.266502  0.733498  0.250000  1
  Ru  Ru4  1  0.837174  0.162826  0.063593  1
  Ru  Ru5  1  0.163890  0.836110  0.955110  1
  Ru  Ru6  1  0.163890  0.836110  0.544890  1
  Ru  Ru7  1  0.837174  0.162826  0.436407  1
  C  C8  1  0.998996  0.001004  0.998762  1
  C  C9  1  0.998996  0.001004  0.501238  1
