# generated using pymatgen
data_Rb6TbInAs4
_symmetry_space_group_name_H-M   'P 1'
_cell_length_a   9.69662969
_cell_length_b   9.69663068
_cell_length_c   9.69662936
_cell_angle_alpha   129.18335312
_cell_angle_beta   68.61919776
_cell_angle_gamma   137.11833156
_symmetry_Int_Tables_number   1
_chemical_formula_structural   Rb6TbInAs4
_chemical_formula_sum   'Rb6 Tb1 In1 As4'
_cell_volume   472.45908145
_cell_formula_units_Z   1
loop_
 _symmetry_equiv_pos_site_id
 _symmetry_equiv_pos_as_xyz
  1  'x, y, z'
loop_
 _atom_site_type_symbol
 _atom_site_label
 _atom_site_symmetry_multiplicity
 _atom_site_fract_x
 _atom_site_fract_y
 _atom_site_fract_z
 _atom_site_occupancy
  Rb  Rb0  1  0.801435  0.186410  0.009768  1
  Rb  Rb1  1  0.698565  0.708334  0.384978  1
  Rb  Rb2  1  0.750000  0.250000  0.500000  1
  Rb  Rb3  1  0.250000  0.750000  0.500001  1
  Rb  Rb4  1  0.323358  0.313589  0.615023  1
  Rb  Rb5  1  0.176642  0.791666  0.990231  1
  Tb  Tb6  1  0.250000  0.250000  0.000000  1
  In  In7  1  0.750000  0.750000  0.000000  1
  As  As8  1  0.409114  0.694158  0.089163  1
  As  As9  1  0.090886  0.180049  0.285044  1
  As  As10  1  0.895004  0.805842  0.714956  1
  As  As11  1  0.604995  0.319952  0.910837  1
