# generated using pymatgen
data_LaNd2Mg3Hg2Ir
_symmetry_space_group_name_H-M   'P 1'
_cell_length_a   8.00950624
_cell_length_b   7.97106956
_cell_length_c   4.12278800
_cell_angle_alpha   90.00000000
_cell_angle_beta   90.00000000
_cell_angle_gamma   119.79984272
_symmetry_Int_Tables_number   1
_chemical_formula_structural   LaNd2Mg3Hg2Ir
_chemical_formula_sum   'La1 Nd2 Mg3 Hg2 Ir1'
_cell_volume   228.41066895
_cell_formula_units_Z   1
loop_
 _symmetry_equiv_pos_site_id
 _symmetry_equiv_pos_as_xyz
  1  'x, y, z'
loop_
 _atom_site_type_symbol
 _atom_site_label
 _atom_site_symmetry_multiplicity
 _atom_site_fract_x
 _atom_site_fract_y
 _atom_site_fract_z
 _atom_site_occupancy
  La  La0  1  0.598429  0.032557  0.000000  1
  Nd  Nd1  1  0.970455  0.570250  0.000000  1
  Nd  Nd2  1  0.431465  0.401171  0.000000  1
  Mg  Mg3  1  0.253974  0.003033  0.500000  1
  Mg  Mg4  1  0.999393  0.254341  0.500000  1
  Mg  Mg5  1  0.747440  0.743722  0.500000  1
  Hg  Hg6  1  0.331683  0.664709  0.500000  1
  Hg  Hg7  1  0.001343  0.999648  0.000000  1
  Ir  Ir8  1  0.665819  0.330568  0.500000  1
