# generated using pymatgen
data_Pr2Tc2Cl
_symmetry_space_group_name_H-M   'P 1'
_cell_length_a   4.13340300
_cell_length_b   4.13340275
_cell_length_c   17.38023700
_cell_angle_alpha   90.00000000
_cell_angle_beta   90.00000000
_cell_angle_gamma   119.99999401
_symmetry_Int_Tables_number   1
_chemical_formula_structural   Pr2Tc2Cl
_chemical_formula_sum   'Pr4 Tc4 Cl2'
_cell_volume   257.15905810
_cell_formula_units_Z   2
loop_
 _symmetry_equiv_pos_site_id
 _symmetry_equiv_pos_as_xyz
  1  'x, y, z'
loop_
 _atom_site_type_symbol
 _atom_site_label
 _atom_site_symmetry_multiplicity
 _atom_site_fract_x
 _atom_site_fract_y
 _atom_site_fract_z
 _atom_site_occupancy
  Pr  Pr0  1  0.000000  0.000000  0.123511  1
  Pr  Pr1  1  0.000000  0.000000  0.376489  1
  Pr  Pr2  1  0.000000  0.000000  0.623511  1
  Pr  Pr3  1  0.000000  0.000000  0.876489  1
  Tc  Tc4  1  0.333334  0.666668  0.014891  1
  Tc  Tc5  1  0.333334  0.666668  0.485109  1
  Tc  Tc6  1  0.666667  0.333332  0.514891  1
  Tc  Tc7  1  0.666667  0.333332  0.985109  1
  Cl  Cl8  1  0.666667  0.333332  0.250000  1
  Cl  Cl9  1  0.333334  0.666668  0.750000  1
