# generated using pymatgen
data_Tb12Y4MgIn3Pd4
_symmetry_space_group_name_H-M   'P 1'
_cell_length_a   9.79777739
_cell_length_b   9.79679918
_cell_length_c   9.79679932
_cell_angle_alpha   59.78495546
_cell_angle_beta   59.94464122
_cell_angle_gamma   59.94463875
_symmetry_Int_Tables_number   1
_chemical_formula_structural   Tb12Y4MgIn3Pd4
_chemical_formula_sum   'Tb12 Y4 Mg1 In3 Pd4'
_cell_volume   663.29613642
_cell_formula_units_Z   1
loop_
 _symmetry_equiv_pos_site_id
 _symmetry_equiv_pos_as_xyz
  1  'x, y, z'
loop_
 _atom_site_type_symbol
 _atom_site_label
 _atom_site_symmetry_multiplicity
 _atom_site_fract_x
 _atom_site_fract_y
 _atom_site_fract_z
 _atom_site_occupancy
  Tb  Tb0  1  0.350451  0.350450  0.350450  1
  Tb  Tb1  1  0.351904  0.351629  0.944007  1
  Tb  Tb2  1  0.351904  0.944007  0.351629  1
  Tb  Tb3  1  0.940136  0.352661  0.352661  1
  Tb  Tb4  1  0.808586  0.192029  0.192029  1
  Tb  Tb5  1  0.189580  0.810101  0.810101  1
  Tb  Tb6  1  0.188597  0.812053  0.189747  1
  Tb  Tb7  1  0.808809  0.192348  0.807720  1
  Tb  Tb8  1  0.188597  0.189747  0.812053  1
  Tb  Tb9  1  0.808809  0.807720  0.192348  1
  Tb  Tb10  1  0.934977  0.566107  0.566107  1
  Tb  Tb11  1  0.563953  0.935645  0.935645  1
  Y  Y12  1  0.564960  0.934640  0.564819  1
  Y  Y13  1  0.935287  0.564032  0.936173  1
  Y  Y14  1  0.564960  0.564819  0.934640  1
  Y  Y15  1  0.935287  0.936173  0.564032  1
  Mg  Mg16  1  0.268623  0.576851  0.576851  1
  In  In17  1  0.583137  0.583796  0.583796  1
  In  In18  1  0.581698  0.582991  0.252123  1
  In  In19  1  0.581698  0.252123  0.582991  1
  Pd  Pd20  1  0.144510  0.144344  0.144344  1
  Pd  Pd21  1  0.142344  0.143959  0.568557  1
  Pd  Pd22  1  0.142344  0.568557  0.143959  1
  Pd  Pd23  1  0.568843  0.143216  0.143216  1
