# generated using pymatgen
data_La5Sm3SnPd24
_symmetry_space_group_name_H-M   'P 1'
_cell_length_a   8.56246958
_cell_length_b   8.56246958
_cell_length_c   8.56225512
_cell_angle_alpha   89.98648732
_cell_angle_beta   90.01351268
_cell_angle_gamma   90.04013642
_symmetry_Int_Tables_number   1
_chemical_formula_structural   La5Sm3SnPd24
_chemical_formula_sum   'La5 Sm3 Sn1 Pd24'
_cell_volume   627.74912606
_cell_formula_units_Z   1
loop_
 _symmetry_equiv_pos_site_id
 _symmetry_equiv_pos_as_xyz
  1  'x, y, z'
loop_
 _atom_site_type_symbol
 _atom_site_label
 _atom_site_symmetry_multiplicity
 _atom_site_fract_x
 _atom_site_fract_y
 _atom_site_fract_z
 _atom_site_occupancy
  La  La0  1  0.252937  0.252945  0.252835  1
  La  La1  1  0.747207  0.747283  0.747329  1
  La  La2  1  0.747055  0.747063  0.252835  1
  La  La3  1  0.747298  0.252702  0.747231  1
  La  La4  1  0.252717  0.252793  0.747329  1
  Sm  Sm5  1  0.252408  0.747592  0.252502  1
  Sm  Sm6  1  0.252468  0.747532  0.747442  1
  Sm  Sm7  1  0.747692  0.252308  0.252315  1
  Sn  Sn8  1  0.000152  0.999848  0.000203  1
  Pd  Pd9  1  0.265646  0.501564  0.000085  1
  Pd  Pd10  1  0.734378  0.499458  0.001080  1
  Pd  Pd11  1  0.999126  0.265604  0.499161  1
  Pd  Pd12  1  0.500542  0.265622  0.001080  1
  Pd  Pd13  1  0.002052  0.734387  0.499853  1
  Pd  Pd14  1  0.498436  0.734354  0.000085  1
  Pd  Pd15  1  0.499861  0.999924  0.265649  1
  Pd  Pd16  1  0.265613  0.997948  0.499853  1
  Pd  Pd17  1  0.499160  0.998928  0.734373  1
  Pd  Pd18  1  0.734396  0.000874  0.499161  1
  Pd  Pd19  1  0.000076  0.500139  0.265649  1
  Pd  Pd20  1  0.001072  0.500840  0.734373  1
  Pd  Pd21  1  0.254767  0.502055  0.499921  1
  Pd  Pd22  1  0.745234  0.499085  0.498935  1
  Pd  Pd23  1  0.500915  0.254766  0.498935  1
  Pd  Pd24  1  0.497945  0.745233  0.499921  1
  Pd  Pd25  1  0.499936  0.500064  0.254727  1
  Pd  Pd26  1  0.498944  0.501056  0.745249  1
  Pd  Pd27  1  0.310209  0.997985  0.000047  1
  Pd  Pd28  1  0.689512  0.000903  0.001024  1
  Pd  Pd29  1  0.999097  0.310488  0.001024  1
  Pd  Pd30  1  0.002015  0.689791  0.000047  1
  Pd  Pd31  1  0.000081  0.999919  0.310202  1
  Pd  Pd32  1  0.001052  0.998948  0.689544  1
