# generated using pymatgen
data_Ho4Th6Ge20Ir3Rh5
_symmetry_space_group_name_H-M   'P 1'
_cell_length_a   13.12615551
_cell_length_b   13.12535851
_cell_length_c   4.39207300
_cell_angle_alpha   90.00000000
_cell_angle_beta   90.00000000
_cell_angle_gamma   89.96805590
_symmetry_Int_Tables_number   1
_chemical_formula_structural   Ho4Th6Ge20Ir3Rh5
_chemical_formula_sum   'Ho4 Th6 Ge20 Ir3 Rh5'
_cell_volume   756.69036174
_cell_formula_units_Z   1
loop_
 _symmetry_equiv_pos_site_id
 _symmetry_equiv_pos_as_xyz
  1  'x, y, z'
loop_
 _atom_site_type_symbol
 _atom_site_label
 _atom_site_symmetry_multiplicity
 _atom_site_fract_x
 _atom_site_fract_y
 _atom_site_fract_z
 _atom_site_occupancy
  Ho  Ho0  1  0.325018  0.824960  0.500000  1
  Ho  Ho1  1  0.824938  0.674682  0.500000  1
  Ho  Ho2  1  0.174998  0.325128  0.500000  1
  Ho  Ho3  1  0.674744  0.175093  0.500000  1
  Th  Th4  1  0.500061  0.500113  0.000000  1
  Th  Th5  1  0.000044  0.999925  0.000000  1
  Th  Th6  1  0.887297  0.387808  0.500000  1
  Th  Th7  1  0.387860  0.112693  0.500000  1
  Th  Th8  1  0.612427  0.887553  0.500000  1
  Th  Th9  1  0.112585  0.612161  0.500000  1
  Ge  Ge10  1  0.432892  0.933179  0.000000  1
  Ge  Ge11  1  0.933399  0.567653  0.000000  1
  Ge  Ge12  1  0.066645  0.432384  0.000000  1
  Ge  Ge13  1  0.567419  0.066735  0.000000  1
  Ge  Ge14  1  0.336641  0.300185  0.000000  1
  Ge  Ge15  1  0.662556  0.699744  0.000000  1
  Ge  Ge16  1  0.699862  0.336704  0.000000  1
  Ge  Ge17  1  0.300454  0.663286  0.000000  1
  Ge  Ge18  1  0.800614  0.837625  0.000000  1
  Ge  Ge19  1  0.837657  0.199284  0.000000  1
  Ge  Ge20  1  0.162345  0.800653  0.000000  1
  Ge  Ge21  1  0.199315  0.162279  0.000000  1
  Ge  Ge22  1  0.338583  0.496796  0.500000  1
  Ge  Ge23  1  0.661442  0.503010  0.500000  1
  Ge  Ge24  1  0.503115  0.338633  0.500000  1
  Ge  Ge25  1  0.497057  0.662318  0.500000  1
  Ge  Ge26  1  0.997082  0.837647  0.500000  1
  Ge  Ge27  1  0.837670  0.002925  0.500000  1
  Ge  Ge28  1  0.002926  0.162332  0.500000  1
  Ge  Ge29  1  0.162322  0.997042  0.500000  1
  Ir  Ir30  1  0.254955  0.477450  0.000000  1
  Ir  Ir31  1  0.745021  0.522572  0.000000  1
  Ir  Ir32  1  0.522617  0.255290  0.000000  1
  Rh  Rh33  1  0.477472  0.744225  0.000000  1
  Rh  Rh34  1  0.977368  0.755980  0.000000  1
  Rh  Rh35  1  0.755868  0.022580  0.000000  1
  Rh  Rh36  1  0.244125  0.977290  0.000000  1
  Rh  Rh37  1  0.022606  0.244084  0.000000  1
