# generated using pymatgen
data_K3Fe2(Co2As3)2
_symmetry_space_group_name_H-M   'P 1'
_cell_length_a   5.39007731
_cell_length_b   7.38379685
_cell_length_c   8.52225552
_cell_angle_alpha   110.26774915
_cell_angle_beta   108.38696903
_cell_angle_gamma   89.99718979
_symmetry_Int_Tables_number   1
_chemical_formula_structural   K3Fe2(Co2As3)2
_chemical_formula_sum   'K3 Fe2 Co4 As6'
_cell_volume   299.65375436
_cell_formula_units_Z   1
loop_
 _symmetry_equiv_pos_site_id
 _symmetry_equiv_pos_as_xyz
  1  'x, y, z'
loop_
 _atom_site_type_symbol
 _atom_site_label
 _atom_site_symmetry_multiplicity
 _atom_site_fract_x
 _atom_site_fract_y
 _atom_site_fract_z
 _atom_site_occupancy
  K  K0  1  0.998788  0.998234  0.999212  1
  K  K1  1  0.664758  0.001527  0.331481  1
  K  K2  1  0.336593  0.000263  0.669220  1
  Fe  Fe3  1  0.250111  0.499702  0.001062  1
  Fe  Fe4  1  0.916459  0.500389  0.332496  1
  Co  Co5  1  0.416620  0.500805  0.333762  1
  Co  Co6  1  0.082918  0.499663  0.666399  1
  Co  Co7  1  0.750243  0.499951  0.999886  1
  Co  Co8  1  0.583484  0.499400  0.666384  1
  As  As9  1  0.215475  0.310663  0.434425  1
  As  As10  1  0.888361  0.309944  0.772262  1
  As  As11  1  0.551566  0.308274  0.103067  1
  As  As12  1  0.782458  0.689731  0.561087  1
  As  As13  1  0.446993  0.688577  0.898317  1
  As  As14  1  0.115173  0.692878  0.230940  1
