# generated using pymatgen
data_Y9Er(IrRu)2
_symmetry_space_group_name_H-M   'P 1'
_cell_length_a   6.42068599
_cell_length_b   7.30092783
_cell_length_c   8.54238885
_cell_angle_alpha   96.63382469
_cell_angle_beta   112.07458795
_cell_angle_gamma   90.00000214
_symmetry_Int_Tables_number   1
_chemical_formula_structural   Y9Er(IrRu)2
_chemical_formula_sum   'Y9 Er1 Ir2 Ru2'
_cell_volume   368.19233350
_cell_formula_units_Z   1
loop_
 _symmetry_equiv_pos_site_id
 _symmetry_equiv_pos_as_xyz
  1  'x, y, z'
loop_
 _atom_site_type_symbol
 _atom_site_label
 _atom_site_symmetry_multiplicity
 _atom_site_fract_x
 _atom_site_fract_y
 _atom_site_fract_z
 _atom_site_occupancy
  Y  Y0  1  0.792971  0.582276  0.814466  1
  Y  Y1  1  0.978505  0.917724  0.185534  1
  Y  Y2  1  0.207789  0.413895  0.184115  1
  Y  Y3  1  0.023674  0.086105  0.815885  1
  Y  Y4  1  0.208344  0.682705  0.564073  1
  Y  Y5  1  0.644269  0.817295  0.435927  1
  Y  Y6  1  0.790499  0.314895  0.436140  1
  Y  Y7  1  0.354359  0.185105  0.563860  1
  Y  Y8  1  0.423960  0.750000  0.000000  1
  Er  Er9  1  0.574217  0.250000  0.000000  1
  Ir  Ir10  1  0.603196  0.924624  0.780203  1
  Ir  Ir11  1  0.822992  0.575376  0.219797  1
  Ru  Ru12  1  0.397159  0.075494  0.219094  1
  Ru  Ru13  1  0.178065  0.424506  0.780906  1
