# generated using pymatgen
data_Yb3ErTm4(B6Os)4
_symmetry_space_group_name_H-M   'P 1'
_cell_length_a   3.61814800
_cell_length_b   9.10276373
_cell_length_c   11.48995500
_cell_angle_alpha   89.93624934
_cell_angle_beta   90.00000000
_cell_angle_gamma   90.00000000
_symmetry_Int_Tables_number   1
_chemical_formula_structural   Yb3ErTm4(B6Os)4
_chemical_formula_sum   'Yb3 Er1 Tm4 B24 Os4'
_cell_volume   378.42311580
_cell_formula_units_Z   1
loop_
 _symmetry_equiv_pos_site_id
 _symmetry_equiv_pos_as_xyz
  1  'x, y, z'
loop_
 _atom_site_type_symbol
 _atom_site_label
 _atom_site_symmetry_multiplicity
 _atom_site_fract_x
 _atom_site_fract_y
 _atom_site_fract_z
 _atom_site_occupancy
  Yb  Yb0  1  0.000000  0.324343  0.414458  1
  Yb  Yb1  1  0.000000  0.675634  0.585185  1
  Yb  Yb2  1  0.000000  0.823106  0.086223  1
  Er  Er3  1  0.000000  0.176268  0.914919  1
  Tm  Tm4  1  0.000000  0.941677  0.368149  1
  Tm  Tm5  1  0.000000  0.057577  0.630252  1
  Tm  Tm6  1  0.000000  0.443338  0.131494  1
  Tm  Tm7  1  0.000000  0.558222  0.869154  1
  B  B8  1  0.500000  0.553296  0.433133  1
  B  B9  1  0.500000  0.446032  0.567728  1
  B  B10  1  0.500000  0.053792  0.066524  1
  B  B11  1  0.500000  0.946169  0.933463  1
  B  B12  1  0.500000  0.749004  0.417568  1
  B  B13  1  0.500000  0.250797  0.582521  1
  B  B14  1  0.500000  0.249366  0.081487  1
  B  B15  1  0.500000  0.751316  0.917984  1
  B  B16  1  0.500000  0.791158  0.264248  1
  B  B17  1  0.500000  0.208216  0.736055  1
  B  B18  1  0.500000  0.291466  0.234573  1
  B  B19  1  0.500000  0.709691  0.765063  1
  B  B20  1  0.500000  0.630890  0.185776  1
  B  B21  1  0.500000  0.368842  0.815380  1
  B  B22  1  0.500000  0.130962  0.313606  1
  B  B23  1  0.500000  0.869548  0.685247  1
  B  B24  1  0.500000  0.982517  0.210879  1
  B  B25  1  0.500000  0.017708  0.788324  1
  B  B26  1  0.500000  0.483109  0.288537  1
  B  B27  1  0.500000  0.516557  0.712231  1
  B  B28  1  0.500000  0.598829  0.027361  1
  B  B29  1  0.500000  0.400067  0.972533  1
  B  B30  1  0.500000  0.097055  0.472691  1
  B  B31  1  0.500000  0.902941  0.526403  1
  Os  Os32  1  0.000000  0.638687  0.320699  1
  Os  Os33  1  0.000000  0.359868  0.680945  1
  Os  Os34  1  0.000000  0.138646  0.178790  1
  Os  Os35  1  0.000000  0.863303  0.820417  1
