# generated using pymatgen
data_Nd17Y3(SiBi2)4
_symmetry_space_group_name_H-M   'P 1'
_cell_length_a   12.44084145
_cell_length_b   9.43565500
_cell_length_c   8.32212900
_cell_angle_alpha   90.00000000
_cell_angle_beta   89.94163501
_cell_angle_gamma   90.00000000
_symmetry_Int_Tables_number   1
_chemical_formula_structural   Nd17Y3(SiBi2)4
_chemical_formula_sum   'Nd17 Y3 Si4 Bi8'
_cell_volume   976.91331024
_cell_formula_units_Z   1
loop_
 _symmetry_equiv_pos_site_id
 _symmetry_equiv_pos_as_xyz
  1  'x, y, z'
loop_
 _atom_site_type_symbol
 _atom_site_label
 _atom_site_symmetry_multiplicity
 _atom_site_fract_x
 _atom_site_fract_y
 _atom_site_fract_z
 _atom_site_occupancy
  Nd  Nd0  1  0.063357  0.550386  0.818851  1
  Nd  Nd1  1  0.563988  0.949307  0.680781  1
  Nd  Nd2  1  0.936533  0.050286  0.181338  1
  Nd  Nd3  1  0.436269  0.450158  0.318618  1
  Nd  Nd4  1  0.936533  0.449714  0.181338  1
  Nd  Nd5  1  0.436269  0.049842  0.318618  1
  Nd  Nd6  1  0.063357  0.949614  0.818851  1
  Nd  Nd7  1  0.563988  0.550693  0.680781  1
  Nd  Nd8  1  0.499711  0.250000  0.959880  1
  Nd  Nd9  1  0.212414  0.750000  0.166655  1
  Nd  Nd10  1  0.713255  0.750000  0.334617  1
  Nd  Nd11  1  0.787323  0.250000  0.834119  1
  Nd  Nd12  1  0.286806  0.250000  0.666225  1
  Nd  Nd13  1  0.293978  0.750000  0.634401  1
  Nd  Nd14  1  0.794821  0.750000  0.865054  1
  Nd  Nd15  1  0.706558  0.250000  0.364683  1
  Nd  Nd16  1  0.204814  0.250000  0.135097  1
  Y  Y17  1  0.999965  0.750000  0.457229  1
  Y  Y18  1  0.499937  0.750000  0.042822  1
  Y  Y19  1  0.000075  0.250000  0.543027  1
  Si  Si20  1  0.479400  0.750000  0.410418  1
  Si  Si21  1  0.979904  0.750000  0.089523  1
  Si  Si22  1  0.520239  0.250000  0.584750  1
  Si  Si23  1  0.020094  0.250000  0.910140  1
  Bi  Bi24  1  0.327762  0.513207  0.931547  1
  Bi  Bi25  1  0.830048  0.989044  0.568059  1
  Bi  Bi26  1  0.672461  0.008286  0.069439  1
  Bi  Bi27  1  0.169934  0.489104  0.432045  1
  Bi  Bi28  1  0.672461  0.491714  0.069439  1
  Bi  Bi29  1  0.169934  0.010896  0.432045  1
  Bi  Bi30  1  0.327762  0.986793  0.931547  1
  Bi  Bi31  1  0.830048  0.510956  0.568059  1
