# generated using pymatgen
data_Sc4SBr6
_symmetry_space_group_name_H-M   'P 1'
_cell_length_a   3.80618900
_cell_length_b   12.54412000
_cell_length_c   13.10674000
_cell_angle_alpha   90.00000000
_cell_angle_beta   90.00000000
_cell_angle_gamma   90.00000000
_symmetry_Int_Tables_number   1
_chemical_formula_structural   Sc4SBr6
_chemical_formula_sum   'Sc8 S2 Br12'
_cell_volume   625.78512268
_cell_formula_units_Z   2
loop_
 _symmetry_equiv_pos_site_id
 _symmetry_equiv_pos_as_xyz
  1  'x, y, z'
loop_
 _atom_site_type_symbol
 _atom_site_label
 _atom_site_symmetry_multiplicity
 _atom_site_fract_x
 _atom_site_fract_y
 _atom_site_fract_z
 _atom_site_occupancy
  Sc  Sc0  1  0.000000  0.104451  0.080278  1
  Sc  Sc1  1  0.000000  0.895549  0.919722  1
  Sc  Sc2  1  0.000000  0.604451  0.419722  1
  Sc  Sc3  1  0.000000  0.395549  0.580278  1
  Sc  Sc4  1  0.500000  0.122457  0.853619  1
  Sc  Sc5  1  0.500000  0.877543  0.146381  1
  Sc  Sc6  1  0.500000  0.622457  0.646381  1
  Sc  Sc7  1  0.500000  0.377543  0.353619  1
  S  S8  1  0.500000  0.000000  0.000000  1
  S  S9  1  0.500000  0.500000  0.500000  1
  Br  Br10  1  0.500000  0.265497  0.675828  1
  Br  Br11  1  0.500000  0.734503  0.324172  1
  Br  Br12  1  0.500000  0.765497  0.824172  1
  Br  Br13  1  0.500000  0.234503  0.175828  1
  Br  Br14  1  0.000000  0.257167  0.928579  1
  Br  Br15  1  0.000000  0.742833  0.071421  1
  Br  Br16  1  0.000000  0.483827  0.243762  1
  Br  Br17  1  0.000000  0.516173  0.756238  1
  Br  Br18  1  0.000000  0.983827  0.256238  1
  Br  Br19  1  0.000000  0.016173  0.743762  1
  Br  Br20  1  0.000000  0.242833  0.428579  1
  Br  Br21  1  0.000000  0.757167  0.571421  1
