# generated using pymatgen
data_Nd13Y3(In3Ru)2
_symmetry_space_group_name_H-M   'P 1'
_cell_length_a   10.67467600
_cell_length_b   10.67467695
_cell_length_c   7.27425900
_cell_angle_alpha   90.00002684
_cell_angle_beta   89.99996780
_cell_angle_gamma   119.99997226
_symmetry_Int_Tables_number   1
_chemical_formula_structural   Nd13Y3(In3Ru)2
_chemical_formula_sum   'Nd13 Y3 In6 Ru2'
_cell_volume   717.84215082
_cell_formula_units_Z   1
loop_
 _symmetry_equiv_pos_site_id
 _symmetry_equiv_pos_as_xyz
  1  'x, y, z'
loop_
 _atom_site_type_symbol
 _atom_site_label
 _atom_site_symmetry_multiplicity
 _atom_site_fract_x
 _atom_site_fract_y
 _atom_site_fract_z
 _atom_site_occupancy
  Nd  Nd0  1  0.465321  0.534679  0.480589  1
  Nd  Nd1  1  0.069356  0.534679  0.480589  1
  Nd  Nd2  1  0.465321  0.930644  0.480589  1
  Nd  Nd3  1  0.534931  0.465069  0.979700  1
  Nd  Nd4  1  0.930138  0.465069  0.979700  1
  Nd  Nd5  1  0.534931  0.069862  0.979700  1
  Nd  Nd6  1  0.823747  0.176253  0.276831  1
  Nd  Nd7  1  0.352505  0.176253  0.276831  1
  Nd  Nd8  1  0.823747  0.647496  0.276831  1
  Nd  Nd9  1  0.175319  0.824681  0.775849  1
  Nd  Nd10  1  0.649362  0.824681  0.775849  1
  Nd  Nd11  1  0.175319  0.350638  0.775849  1
  Nd  Nd12  1  0.333333  0.666667  0.104474  1
  Y  Y13  1  0.666667  0.333333  0.601151  1
  Y  Y14  1  0.000000  0.000000  0.494847  1
  Y  Y15  1  0.000000  0.000000  0.995652  1
  In  In16  1  0.161570  0.838430  0.232273  1
  In  In17  1  0.676860  0.838430  0.232273  1
  In  In18  1  0.161570  0.323140  0.232272  1
  In  In19  1  0.836649  0.163351  0.731465  1
  In  In20  1  0.326701  0.163351  0.731465  1
  In  In21  1  0.836649  0.673299  0.731465  1
  Ru  Ru22  1  0.333333  0.666667  0.710507  1
  Ru  Ru23  1  0.666667  0.333333  0.207802  1
