# generated using pymatgen
data_Ho11Mg(Hg2Ir)4
_symmetry_space_group_name_H-M   'P 1'
_cell_length_a   12.95148200
_cell_length_b   12.95148263
_cell_length_c   3.75058900
_cell_angle_alpha   90.00000000
_cell_angle_beta   90.00000000
_cell_angle_gamma   114.70402145
_symmetry_Int_Tables_number   1
_chemical_formula_structural   Ho11Mg(Hg2Ir)4
_chemical_formula_sum   'Ho11 Mg1 Hg8 Ir4'
_cell_volume   571.54870977
_cell_formula_units_Z   1
loop_
 _symmetry_equiv_pos_site_id
 _symmetry_equiv_pos_as_xyz
  1  'x, y, z'
loop_
 _atom_site_type_symbol
 _atom_site_label
 _atom_site_symmetry_multiplicity
 _atom_site_fract_x
 _atom_site_fract_y
 _atom_site_fract_z
 _atom_site_occupancy
  Ho  Ho0  1  0.500000  0.500000  0.500000  1
  Ho  Ho1  1  0.792438  0.792438  0.500000  1
  Ho  Ho2  1  0.207562  0.207562  0.500000  1
  Ho  Ho3  1  0.588134  0.917214  0.500000  1
  Ho  Ho4  1  0.411866  0.082786  0.500000  1
  Ho  Ho5  1  0.917214  0.588134  0.500000  1
  Ho  Ho6  1  0.082786  0.411866  0.500000  1
  Ho  Ho7  1  0.134149  0.865851  0.500000  1
  Ho  Ho8  1  0.865851  0.134149  0.500000  1
  Ho  Ho9  1  0.333300  0.666700  0.500000  1
  Ho  Ho10  1  0.666700  0.333300  0.500000  1
  Mg  Mg11  1  0.000000  0.000000  0.000000  1
  Hg  Hg12  1  0.354581  0.869253  0.000000  1
  Hg  Hg13  1  0.645419  0.130747  0.000000  1
  Hg  Hg14  1  0.869253  0.354581  0.000000  1
  Hg  Hg15  1  0.130747  0.645419  0.000000  1
  Hg  Hg16  1  0.556422  0.710177  0.000000  1
  Hg  Hg17  1  0.443578  0.289823  0.000000  1
  Hg  Hg18  1  0.710177  0.556422  0.000000  1
  Hg  Hg19  1  0.289823  0.443578  0.000000  1
  Ir  Ir20  1  0.761990  0.950410  0.000000  1
  Ir  Ir21  1  0.238010  0.049590  0.000000  1
  Ir  Ir22  1  0.950410  0.761990  0.000000  1
  Ir  Ir23  1  0.049590  0.238010  0.000000  1
