# generated using pymatgen
data_Ce2As4Ir3
_symmetry_space_group_name_H-M   'P 1'
_cell_length_a   4.35364900
_cell_length_b   10.40630800
_cell_length_c   15.39735000
_cell_angle_alpha   90.00000000
_cell_angle_beta   90.00000000
_cell_angle_gamma   90.00000000
_symmetry_Int_Tables_number   1
_chemical_formula_structural   Ce2As4Ir3
_chemical_formula_sum   'Ce8 As16 Ir12'
_cell_volume   697.58329189
_cell_formula_units_Z   4
loop_
 _symmetry_equiv_pos_site_id
 _symmetry_equiv_pos_as_xyz
  1  'x, y, z'
loop_
 _atom_site_type_symbol
 _atom_site_label
 _atom_site_symmetry_multiplicity
 _atom_site_fract_x
 _atom_site_fract_y
 _atom_site_fract_z
 _atom_site_occupancy
  Ce  Ce0  1  0.250000  0.751568  0.504635  1
  Ce  Ce1  1  0.250000  0.748432  0.004635  1
  Ce  Ce2  1  0.750000  0.248432  0.495365  1
  Ce  Ce3  1  0.750000  0.251568  0.995365  1
  Ce  Ce4  1  0.250000  0.585989  0.750724  1
  Ce  Ce5  1  0.250000  0.914011  0.250724  1
  Ce  Ce6  1  0.750000  0.414011  0.249276  1
  Ce  Ce7  1  0.750000  0.085990  0.749276  1
  As  As8  1  0.250000  0.269329  0.649262  1
  As  As9  1  0.250000  0.230671  0.149262  1
  As  As10  1  0.750000  0.730671  0.350738  1
  As  As11  1  0.750000  0.769329  0.850738  1
  As  As12  1  0.250000  0.887828  0.711706  1
  As  As13  1  0.250000  0.612172  0.211706  1
  As  As14  1  0.750000  0.112172  0.288294  1
  As  As15  1  0.750000  0.387828  0.788294  1
  As  As16  1  0.250000  0.065103  0.894882  1
  As  As17  1  0.250000  0.434897  0.394882  1
  As  As18  1  0.750000  0.934897  0.105118  1
  As  As19  1  0.750000  0.565103  0.605118  1
  As  As20  1  0.250000  0.445317  0.931178  1
  As  As21  1  0.250000  0.054683  0.431178  1
  As  As22  1  0.750000  0.554683  0.068822  1
  As  As23  1  0.750000  0.945317  0.568822  1
  Ir  Ir24  1  0.250000  0.464265  0.557843  1
  Ir  Ir25  1  0.250000  0.035735  0.057843  1
  Ir  Ir26  1  0.750000  0.535735  0.442157  1
  Ir  Ir27  1  0.750000  0.964265  0.942157  1
  Ir  Ir28  1  0.250000  0.050980  0.591616  1
  Ir  Ir29  1  0.250000  0.449020  0.091616  1
  Ir  Ir30  1  0.750000  0.949020  0.408384  1
  Ir  Ir31  1  0.750000  0.550980  0.908384  1
  Ir  Ir32  1  0.250000  0.278037  0.816248  1
  Ir  Ir33  1  0.250000  0.221963  0.316248  1
  Ir  Ir34  1  0.750000  0.721963  0.183752  1
  Ir  Ir35  1  0.750000  0.778037  0.683752  1
