# generated using pymatgen
data_Tm13Th3Mg3CdIr4
_symmetry_space_group_name_H-M   'P 1'
_cell_length_a   9.66860384
_cell_length_b   9.67708305
_cell_length_c   9.67708400
_cell_angle_alpha   59.99999675
_cell_angle_beta   59.97098210
_cell_angle_gamma   59.97098116
_symmetry_Int_Tables_number   1
_chemical_formula_structural   Tm13Th3Mg3CdIr4
_chemical_formula_sum   'Tm13 Th3 Mg3 Cd1 Ir4'
_cell_volume   639.95157166
_cell_formula_units_Z   1
loop_
 _symmetry_equiv_pos_site_id
 _symmetry_equiv_pos_as_xyz
  1  'x, y, z'
loop_
 _atom_site_type_symbol
 _atom_site_label
 _atom_site_symmetry_multiplicity
 _atom_site_fract_x
 _atom_site_fract_y
 _atom_site_fract_z
 _atom_site_occupancy
  Tm  Tm0  1  0.202698  0.599101  0.599101  1
  Tm  Tm1  1  0.063049  0.437763  0.437763  1
  Tm  Tm2  1  0.436659  0.063529  0.063529  1
  Tm  Tm3  1  0.436659  0.063529  0.436282  1
  Tm  Tm4  1  0.063049  0.437763  0.061424  1
  Tm  Tm5  1  0.436659  0.436282  0.063529  1
  Tm  Tm6  1  0.063049  0.061424  0.437763  1
  Tm  Tm7  1  0.187307  0.814502  0.814502  1
  Tm  Tm8  1  0.816728  0.183311  0.183311  1
  Tm  Tm9  1  0.816728  0.183311  0.816650  1
  Tm  Tm10  1  0.187307  0.814502  0.183687  1
  Tm  Tm11  1  0.816728  0.816650  0.183311  1
  Tm  Tm12  1  0.187307  0.183687  0.814502  1
  Th  Th13  1  0.597328  0.600077  0.600077  1
  Th  Th14  1  0.597328  0.600077  0.202518  1
  Th  Th15  1  0.597328  0.202518  0.600077  1
  Mg  Mg16  1  0.831968  0.830017  0.830017  1
  Mg  Mg17  1  0.831968  0.830017  0.507997  1
  Mg  Mg18  1  0.831968  0.507997  0.830017  1
  Cd  Cd19  1  0.498639  0.833787  0.833787  1
  Ir  Ir20  1  0.391947  0.392165  0.392165  1
  Ir  Ir21  1  0.391947  0.392165  0.823722  1
  Ir  Ir22  1  0.391947  0.823722  0.392165  1
  Ir  Ir23  1  0.823701  0.392100  0.392100  1
