# generated using pymatgen
data_Dy4TcB12Ir
_symmetry_space_group_name_H-M   'P 1'
_cell_length_a   3.67351100
_cell_length_b   9.16462681
_cell_length_c   11.54938755
_cell_angle_alpha   89.73036176
_cell_angle_beta   90.00000000
_cell_angle_gamma   90.00000000
_symmetry_Int_Tables_number   1
_chemical_formula_structural   Dy4TcB12Ir
_chemical_formula_sum   'Dy8 Tc2 B24 Ir2'
_cell_volume   388.82150345
_cell_formula_units_Z   2
loop_
 _symmetry_equiv_pos_site_id
 _symmetry_equiv_pos_as_xyz
  1  'x, y, z'
loop_
 _atom_site_type_symbol
 _atom_site_label
 _atom_site_symmetry_multiplicity
 _atom_site_fract_x
 _atom_site_fract_y
 _atom_site_fract_z
 _atom_site_occupancy
  Dy  Dy0  1  0.000000  0.326861  0.417424  1
  Dy  Dy1  1  0.000000  0.673139  0.582576  1
  Dy  Dy2  1  0.000000  0.817566  0.090061  1
  Dy  Dy3  1  0.000000  0.182434  0.909939  1
  Dy  Dy4  1  0.000000  0.940913  0.374251  1
  Dy  Dy5  1  0.000000  0.059087  0.625749  1
  Dy  Dy6  1  0.000000  0.446434  0.128103  1
  Dy  Dy7  1  0.000000  0.553566  0.871897  1
  Tc  Tc8  1  0.000000  0.638305  0.320125  1
  Tc  Tc9  1  0.000000  0.361695  0.679875  1
  B  B10  1  0.500000  0.553179  0.432708  1
  B  B11  1  0.500000  0.446821  0.567292  1
  B  B12  1  0.500000  0.054058  0.066169  1
  B  B13  1  0.500000  0.945942  0.933831  1
  B  B14  1  0.500000  0.746769  0.419270  1
  B  B15  1  0.500000  0.253231  0.580730  1
  B  B16  1  0.500000  0.249028  0.078920  1
  B  B17  1  0.500000  0.750972  0.921080  1
  B  B18  1  0.500000  0.791657  0.265968  1
  B  B19  1  0.500000  0.208343  0.734032  1
  B  B20  1  0.500000  0.290513  0.233910  1
  B  B21  1  0.500000  0.709487  0.766090  1
  B  B22  1  0.500000  0.631932  0.185581  1
  B  B23  1  0.500000  0.368068  0.814419  1
  B  B24  1  0.500000  0.131846  0.315826  1
  B  B25  1  0.500000  0.868154  0.684174  1
  B  B26  1  0.500000  0.982606  0.212886  1
  B  B27  1  0.500000  0.017394  0.787114  1
  B  B28  1  0.500000  0.483237  0.287184  1
  B  B29  1  0.500000  0.516763  0.712816  1
  B  B30  1  0.500000  0.609079  0.029566  1
  B  B31  1  0.500000  0.390921  0.970434  1
  B  B32  1  0.500000  0.109074  0.469406  1
  B  B33  1  0.500000  0.890926  0.530594  1
  Ir  Ir34  1  0.000000  0.136424  0.177533  1
  Ir  Ir35  1  0.000000  0.863576  0.822467  1
