# generated using pymatgen
data_NdHo3Re15Si8Ru
_symmetry_space_group_name_H-M   'P 1'
_cell_length_a   4.12737500
_cell_length_b   7.31125973
_cell_length_c   15.35595256
_cell_angle_alpha   90.18715657
_cell_angle_beta   90.00000000
_cell_angle_gamma   90.00000000
_symmetry_Int_Tables_number   1
_chemical_formula_structural   NdHo3Re15Si8Ru
_chemical_formula_sum   'Nd1 Ho3 Re15 Si8 Ru1'
_cell_volume   463.38352191
_cell_formula_units_Z   1
loop_
 _symmetry_equiv_pos_site_id
 _symmetry_equiv_pos_as_xyz
  1  'x, y, z'
loop_
 _atom_site_type_symbol
 _atom_site_label
 _atom_site_symmetry_multiplicity
 _atom_site_fract_x
 _atom_site_fract_y
 _atom_site_fract_z
 _atom_site_occupancy
  Nd  Nd0  1  0.500000  0.923136  0.618142  1
  Ho  Ho1  1  0.000000  0.577458  0.119073  1
  Ho  Ho2  1  0.000000  0.420464  0.882565  1
  Ho  Ho3  1  0.500000  0.078424  0.379865  1
  Re  Re4  1  0.000000  0.142005  0.051314  1
  Re  Re5  1  0.000000  0.856649  0.950158  1
  Re  Re6  1  0.500000  0.364888  0.547935  1
  Re  Re7  1  0.000000  0.733629  0.321406  1
  Re  Re8  1  0.000000  0.269472  0.678716  1
  Re  Re9  1  0.500000  0.235745  0.177918  1
  Re  Re10  1  0.500000  0.763659  0.823535  1
  Re  Re11  1  0.000000  0.431065  0.415374  1
  Re  Re12  1  0.000000  0.568687  0.579009  1
  Re  Re13  1  0.500000  0.928563  0.083028  1
  Re  Re14  1  0.500000  0.069978  0.918892  1
  Re  Re15  1  0.000000  0.984487  0.205817  1
  Re  Re16  1  0.000000  0.012006  0.795119  1
  Re  Re17  1  0.500000  0.484918  0.295674  1
  Re  Re18  1  0.500000  0.508545  0.707150  1
  Si  Si19  1  0.000000  0.833665  0.474748  1
  Si  Si20  1  0.000000  0.170235  0.521390  1
  Si  Si21  1  0.500000  0.335459  0.022933  1
  Si  Si22  1  0.500000  0.663287  0.978275  1
  Si  Si23  1  0.000000  0.284056  0.272508  1
  Si  Si24  1  0.000000  0.706233  0.727708  1
  Si  Si25  1  0.500000  0.785658  0.227258  1
  Si  Si26  1  0.500000  0.212377  0.775802  1
  Ru  Ru27  1  0.500000  0.655249  0.448687  1
