# generated using pymatgen
data_La4ZrCdSn2
_symmetry_space_group_name_H-M   'P 1'
_cell_length_a   9.40885557
_cell_length_b   9.40885582
_cell_length_c   9.40885600
_cell_angle_alpha   95.90410078
_cell_angle_beta   95.90409481
_cell_angle_gamma   142.58660486
_symmetry_Int_Tables_number   1
_chemical_formula_structural   La4ZrCdSn2
_chemical_formula_sum   'La8 Zr2 Cd2 Sn4'
_cell_volume   479.32484804
_cell_formula_units_Z   2
loop_
 _symmetry_equiv_pos_site_id
 _symmetry_equiv_pos_as_xyz
  1  'x, y, z'
loop_
 _atom_site_type_symbol
 _atom_site_label
 _atom_site_symmetry_multiplicity
 _atom_site_fract_x
 _atom_site_fract_y
 _atom_site_fract_z
 _atom_site_occupancy
  La  La0  1  0.909023  0.229465  0.138488  1
  La  La1  1  0.229465  0.090977  0.320442  1
  La  La2  1  0.770535  0.909023  0.679558  1
  La  La3  1  0.090977  0.770535  0.861512  1
  La  La4  1  0.729465  0.409023  0.138488  1
  La  La5  1  0.270535  0.590977  0.861512  1
  La  La6  1  0.590977  0.729465  0.320442  1
  La  La7  1  0.409023  0.270535  0.679558  1
  Zr  Zr8  1  0.750000  0.250000  0.500000  1
  Zr  Zr9  1  0.250000  0.750000  0.500000  1
  Cd  Cd10  1  0.750000  0.750000  0.000000  1
  Cd  Cd11  1  0.250000  0.250000  0.000000  1
  Sn  Sn12  1  0.850692  0.649308  0.500000  1
  Sn  Sn13  1  0.649308  0.149308  0.798616  1
  Sn  Sn14  1  0.350692  0.850692  0.201384  1
  Sn  Sn15  1  0.149308  0.350692  0.500000  1
