# generated using pymatgen
data_Yb2Y3Sn3Cl
_symmetry_space_group_name_H-M   'P 1'
_cell_length_a   9.06195405
_cell_length_b   9.05138941
_cell_length_c   6.84481300
_cell_angle_alpha   90.00000000
_cell_angle_beta   90.00000000
_cell_angle_gamma   119.96144648
_symmetry_Int_Tables_number   1
_chemical_formula_structural   Yb2Y3Sn3Cl
_chemical_formula_sum   'Yb4 Y6 Sn6 Cl2'
_cell_volume   486.40486848
_cell_formula_units_Z   2
loop_
 _symmetry_equiv_pos_site_id
 _symmetry_equiv_pos_as_xyz
  1  'x, y, z'
loop_
 _atom_site_type_symbol
 _atom_site_label
 _atom_site_symmetry_multiplicity
 _atom_site_fract_x
 _atom_site_fract_y
 _atom_site_fract_z
 _atom_site_occupancy
  Yb  Yb0  1  0.253025  0.252594  0.750000  1
  Yb  Yb1  1  0.000000  0.747159  0.750000  1
  Yb  Yb2  1  0.746975  0.999568  0.750000  1
  Yb  Yb3  1  0.000000  0.254964  0.250000  1
  Y  Y4  1  0.332856  0.666015  0.502693  1
  Y  Y5  1  0.743217  0.742952  0.250000  1
  Y  Y6  1  0.667144  0.333157  0.502693  1
  Y  Y7  1  0.256783  0.999734  0.250000  1
  Y  Y8  1  0.332856  0.666015  0.997307  1
  Y  Y9  1  0.667144  0.333157  0.997307  1
  Sn  Sn10  1  0.601377  0.996405  0.250000  1
  Sn  Sn11  1  0.000000  0.397279  0.750000  1
  Sn  Sn12  1  0.395377  0.999924  0.750000  1
  Sn  Sn13  1  0.604623  0.604546  0.750000  1
  Sn  Sn14  1  0.000000  0.609354  0.250000  1
  Sn  Sn15  1  0.398623  0.395028  0.250000  1
  Cl  Cl16  1  0.000000  0.001075  0.002430  1
  Cl  Cl17  1  0.000000  0.001075  0.497570  1
