# generated using pymatgen
data_Y11TmInCo4Pt
_symmetry_space_group_name_H-M   'P 1'
_cell_length_a   8.35945616
_cell_length_b   8.36759365
_cell_length_c   8.35945684
_cell_angle_alpha   110.96951210
_cell_angle_beta   110.44147772
_cell_angle_gamma   106.99244755
_symmetry_Int_Tables_number   1
_chemical_formula_structural   Y11TmInCo4Pt
_chemical_formula_sum   'Y11 Tm1 In1 Co4 Pt1'
_cell_volume   449.70821467
_cell_formula_units_Z   1
loop_
 _symmetry_equiv_pos_site_id
 _symmetry_equiv_pos_as_xyz
  1  'x, y, z'
loop_
 _atom_site_type_symbol
 _atom_site_label
 _atom_site_symmetry_multiplicity
 _atom_site_fract_x
 _atom_site_fract_y
 _atom_site_fract_z
 _atom_site_occupancy
  Y  Y0  1  0.414936  0.215625  0.198206  1
  Y  Y1  1  0.586488  0.784773  0.803552  1
  Y  Y2  1  0.017419  0.215625  0.800689  1
  Y  Y3  1  0.981222  0.784773  0.198285  1
  Y  Y4  1  0.184534  0.289953  0.475903  1
  Y  Y5  1  0.814058  0.710239  0.523122  1
  Y  Y6  1  0.187117  0.710239  0.896182  1
  Y  Y7  1  0.814050  0.289953  0.105418  1
  Y  Y8  1  0.315466  0.619969  0.304503  1
  Y  Y9  1  0.685003  0.380345  0.695342  1
  Y  Y10  1  0.315260  0.010382  0.695123  1
  Tm  Tm11  1  0.684097  0.991647  0.307549  1
  In  In12  1  0.500157  0.500606  0.000448  1
  Co  Co13  1  0.382331  0.999265  0.379536  1
  Co  Co14  1  0.619730  0.999265  0.616934  1
  Co  Co15  1  0.109682  0.610163  0.500481  1
  Co  Co16  1  0.888090  0.387064  0.498974  1
  Pt  Pt17  1  0.000359  0.000112  0.999753  1
