# generated using pymatgen
data_Tb5ThAl18
_symmetry_space_group_name_H-M   'P 1'
_cell_length_a   14.57798950
_cell_length_b   14.57798968
_cell_length_c   14.57799008
_cell_angle_alpha   24.80538880
_cell_angle_beta   24.80538860
_cell_angle_gamma   24.80538458
_symmetry_Int_Tables_number   1
_chemical_formula_structural   Tb5ThAl18
_chemical_formula_sum   'Tb5 Th1 Al18'
_cell_volume   479.61365864
_cell_formula_units_Z   1
loop_
 _symmetry_equiv_pos_site_id
 _symmetry_equiv_pos_as_xyz
  1  'x, y, z'
loop_
 _atom_site_type_symbol
 _atom_site_label
 _atom_site_symmetry_multiplicity
 _atom_site_fract_x
 _atom_site_fract_y
 _atom_site_fract_z
 _atom_site_occupancy
  Tb  Tb0  1  0.999852  0.999852  0.999852  1
  Tb  Tb1  1  0.499878  0.499878  0.499878  1
  Tb  Tb2  1  0.108792  0.108792  0.108792  1
  Tb  Tb3  1  0.891332  0.891332  0.891332  1
  Tb  Tb4  1  0.391761  0.391761  0.391761  1
  Th  Th5  1  0.608559  0.608559  0.608559  1
  Al  Al6  1  0.930418  0.365453  0.365453  1
  Al  Al7  1  0.428610  0.868633  0.868633  1
  Al  Al8  1  0.365453  0.365453  0.930418  1
  Al  Al9  1  0.868633  0.868633  0.428610  1
  Al  Al10  1  0.365453  0.930418  0.365453  1
  Al  Al11  1  0.868633  0.428610  0.868633  1
  Al  Al12  1  0.572445  0.131514  0.131514  1
  Al  Al13  1  0.072371  0.631421  0.631421  1
  Al  Al14  1  0.131514  0.131514  0.572445  1
  Al  Al15  1  0.631421  0.631421  0.072371  1
  Al  Al16  1  0.131514  0.572445  0.131514  1
  Al  Al17  1  0.631421  0.072371  0.631421  1
  Al  Al18  1  0.499114  0.499114  0.004669  1
  Al  Al19  1  0.998707  0.998707  0.501630  1
  Al  Al20  1  0.499114  0.004669  0.499114  1
  Al  Al21  1  0.998707  0.501630  0.998707  1
  Al  Al22  1  0.004669  0.499114  0.499114  1
  Al  Al23  1  0.501630  0.998707  0.998707  1
