# generated using pymatgen
data_Tb4Dy3Tm(SiBr6)2
_symmetry_space_group_name_H-M   'P 1'
_cell_length_a   4.06328900
_cell_length_b   13.27780241
_cell_length_c   14.02342451
_cell_angle_alpha   90.18586950
_cell_angle_beta   90.00000000
_cell_angle_gamma   90.00000000
_symmetry_Int_Tables_number   1
_chemical_formula_structural   Tb4Dy3Tm(SiBr6)2
_chemical_formula_sum   'Tb4 Dy3 Tm1 Si2 Br12'
_cell_volume   756.58148605
_cell_formula_units_Z   1
loop_
 _symmetry_equiv_pos_site_id
 _symmetry_equiv_pos_as_xyz
  1  'x, y, z'
loop_
 _atom_site_type_symbol
 _atom_site_label
 _atom_site_symmetry_multiplicity
 _atom_site_fract_x
 _atom_site_fract_y
 _atom_site_fract_z
 _atom_site_occupancy
  Tb  Tb0  1  0.000000  0.118754  0.579278  1
  Tb  Tb1  1  0.000000  0.881990  0.421283  1
  Tb  Tb2  1  0.000000  0.617806  0.921695  1
  Tb  Tb3  1  0.000000  0.382331  0.078519  1
  Dy  Dy4  1  0.500000  0.118146  0.341429  1
  Dy  Dy5  1  0.500000  0.882007  0.658746  1
  Dy  Dy6  1  0.500000  0.617492  0.157860  1
  Tm  Tm7  1  0.500000  0.382207  0.841689  1
  Si  Si8  1  0.500000  0.000414  0.500314  1
  Si  Si9  1  0.500000  0.499206  0.998918  1
  Br  Br10  1  0.500000  0.244757  0.162772  1
  Br  Br11  1  0.500000  0.754898  0.836687  1
  Br  Br12  1  0.500000  0.744424  0.336465  1
  Br  Br13  1  0.500000  0.256915  0.666026  1
  Br  Br14  1  0.000000  0.255475  0.411411  1
  Br  Br15  1  0.000000  0.744576  0.588833  1
  Br  Br16  1  0.000000  0.755058  0.088956  1
  Br  Br17  1  0.000000  0.247934  0.907580  1
  Br  Br18  1  0.000000  0.002242  0.242729  1
  Br  Br19  1  0.000000  0.997877  0.757426  1
  Br  Br20  1  0.000000  0.502466  0.256970  1
  Br  Br21  1  0.000000  0.493024  0.744412  1
