# generated using pymatgen
data_YbLu3(Ta3B10)2
_symmetry_space_group_name_H-M   'P 1'
_cell_length_a   6.22653927
_cell_length_b   7.10132803
_cell_length_c   7.54536600
_cell_angle_alpha   94.52815074
_cell_angle_beta   101.95501447
_cell_angle_gamma   115.94816133
_symmetry_Int_Tables_number   1
_chemical_formula_structural   YbLu3(Ta3B10)2
_chemical_formula_sum   'Yb1 Lu3 Ta6 B20'
_cell_volume   287.98580714
_cell_formula_units_Z   1
loop_
 _symmetry_equiv_pos_site_id
 _symmetry_equiv_pos_as_xyz
  1  'x, y, z'
loop_
 _atom_site_type_symbol
 _atom_site_label
 _atom_site_symmetry_multiplicity
 _atom_site_fract_x
 _atom_site_fract_y
 _atom_site_fract_z
 _atom_site_occupancy
  Yb  Yb0  1  0.001031  0.002599  0.000022  1
  Lu  Lu1  1  0.499269  0.798362  0.399462  1
  Lu  Lu2  1  0.000648  0.400192  0.199719  1
  Lu  Lu3  1  0.498885  0.197844  0.600424  1
  Ta  Ta4  1  0.498771  0.000304  0.998604  1
  Ta  Ta5  1  0.997076  0.797534  0.398908  1
  Ta  Ta6  1  0.501350  0.599998  0.800304  1
  Ta  Ta7  1  0.501671  0.401151  0.199870  1
  Ta  Ta8  1  0.001250  0.200009  0.602178  1
  Ta  Ta9  1  0.999673  0.602072  0.800342  1
  B  B10  1  0.335319  0.236442  0.867440  1
  B  B11  1  0.334891  0.635407  0.062808  1
  B  B12  1  0.169164  0.369141  0.930843  1
  B  B13  1  0.334796  0.034728  0.265562  1
  B  B14  1  0.167367  0.767477  0.129184  1
  B  B15  1  0.835480  0.236359  0.864815  1
  B  B16  1  0.165108  0.164924  0.334912  1
  B  B17  1  0.830773  0.634135  0.063271  1
  B  B18  1  0.332636  0.432293  0.470360  1
  B  B19  1  0.666078  0.369479  0.931850  1
  B  B20  1  0.835280  0.033731  0.268304  1
  B  B21  1  0.665899  0.765551  0.130944  1
  B  B22  1  0.330808  0.831259  0.668384  1
  B  B23  1  0.165169  0.564452  0.536975  1
  B  B24  1  0.665106  0.165835  0.332960  1
  B  B25  1  0.834193  0.434273  0.468550  1
  B  B26  1  0.164132  0.963445  0.733242  1
  B  B27  1  0.834279  0.830787  0.668377  1
  B  B28  1  0.669400  0.566060  0.536224  1
  B  B29  1  0.664498  0.964153  0.735163  1
