# generated using pymatgen
data_Ta5TiAl4(IrC)2
_symmetry_space_group_name_H-M   'P 1'
_cell_length_a   8.28447249
_cell_length_b   8.28447167
_cell_length_c   8.29912090
_cell_angle_alpha   60.05294538
_cell_angle_beta   60.05294949
_cell_angle_gamma   60.10982113
_symmetry_Int_Tables_number   1
_chemical_formula_structural   Ta5TiAl4(IrC)2
_chemical_formula_sum   'Ta10 Ti2 Al8 Ir4 C4'
_cell_volume   403.41645379
_cell_formula_units_Z   2
loop_
 _symmetry_equiv_pos_site_id
 _symmetry_equiv_pos_as_xyz
  1  'x, y, z'
loop_
 _atom_site_type_symbol
 _atom_site_label
 _atom_site_symmetry_multiplicity
 _atom_site_fract_x
 _atom_site_fract_y
 _atom_site_fract_z
 _atom_site_occupancy
  Ta  Ta0  1  0.686053  0.312420  0.314371  1
  Ta  Ta1  1  0.311125  0.686767  0.312780  1
  Ta  Ta2  1  0.687989  0.686648  0.314672  1
  Ta  Ta3  1  0.312739  0.312204  0.685263  1
  Ta  Ta4  1  0.563352  0.562011  0.935328  1
  Ta  Ta5  1  0.936379  0.561208  0.564178  1
  Ta  Ta6  1  0.563233  0.938875  0.937220  1
  Ta  Ta7  1  0.937796  0.937261  0.564737  1
  Ta  Ta8  1  0.688792  0.313621  0.685822  1
  Ta  Ta9  1  0.937580  0.563947  0.935629  1
  Ti  Ti10  1  0.562417  0.935397  0.564065  1
  Ti  Ti11  1  0.314603  0.687583  0.685935  1
  Al  Al12  1  0.918354  0.915732  0.916829  1
  Al  Al13  1  0.999816  0.333285  0.332698  1
  Al  Al14  1  0.333492  0.997705  0.336945  1
  Al  Al15  1  0.333162  0.336453  0.996923  1
  Al  Al16  1  0.916715  0.250184  0.917302  1
  Al  Al17  1  0.913547  0.916838  0.253077  1
  Al  Al18  1  0.252295  0.916508  0.913055  1
  Al  Al19  1  0.334268  0.331646  0.333171  1
  Ir  Ir20  1  0.126107  0.123893  0.125000  1
  Ir  Ir21  1  0.624608  0.124916  0.124158  1
  Ir  Ir22  1  0.125084  0.625392  0.125842  1
  Ir  Ir23  1  0.123413  0.126587  0.625000  1
  C  C24  1  0.620492  0.629508  0.625000  1
  C  C25  1  0.127926  0.625639  0.625292  1
  C  C26  1  0.624361  0.122074  0.624708  1
  C  C27  1  0.624304  0.625696  0.125000  1
