# generated using pymatgen
data_PaIn(P2O7)2
_symmetry_space_group_name_H-M   'P 1'
_cell_length_a   8.74319586
_cell_length_b   5.19818438
_cell_length_c   7.26895900
_cell_angle_alpha   73.32847887
_cell_angle_beta   89.35858707
_cell_angle_gamma   90.18864336
_symmetry_Int_Tables_number   1
_chemical_formula_structural   PaIn(P2O7)2
_chemical_formula_sum   'Pa1 In1 P4 O14'
_cell_volume   316.45110609
_cell_formula_units_Z   1
loop_
 _symmetry_equiv_pos_site_id
 _symmetry_equiv_pos_as_xyz
  1  'x, y, z'
loop_
 _atom_site_type_symbol
 _atom_site_label
 _atom_site_symmetry_multiplicity
 _atom_site_fract_x
 _atom_site_fract_y
 _atom_site_fract_z
 _atom_site_occupancy
  Pa  Pa0  1  0.050357  0.794213  0.726516  1
  In  In1  1  0.549225  0.209415  0.272544  1
  P  P2  1  0.375763  0.605652  0.507709  1
  P  P3  1  0.297714  0.249944  0.892265  1
  P  P4  1  0.853798  0.387815  0.482593  1
  P  P5  1  0.773588  0.758143  0.113503  1
  O  O6  1  0.162966  0.437278  0.910311  1
  O  O7  1  0.228075  0.020065  0.822375  1
  O  O8  1  0.732962  0.005149  0.172145  1
  O  O9  1  0.388103  0.144136  0.070999  1
  O  O10  1  0.978065  0.167094  0.519293  1
  O  O11  1  0.693582  0.277752  0.496603  1
  O  O12  1  0.375035  0.427748  0.376007  1
  O  O13  1  0.645203  0.578918  0.084585  1
  O  O14  1  0.490947  0.830582  0.473267  1
  O  O15  1  0.409534  0.420194  0.726701  1
  O  O16  1  0.892749  0.578651  0.272276  1
  O  O17  1  0.881747  0.557357  0.623276  1
  O  O18  1  0.208453  0.710984  0.522667  1
  O  O19  1  0.884223  0.838910  0.934364  1
