# generated using pymatgen
data_Nb6Co6As
_symmetry_space_group_name_H-M   'P 1'
_cell_length_a   9.12483276
_cell_length_b   9.12483304
_cell_length_c   9.12483291
_cell_angle_alpha   31.28336938
_cell_angle_beta   31.28336784
_cell_angle_gamma   31.28336956
_symmetry_Int_Tables_number   1
_chemical_formula_structural   Nb6Co6As
_chemical_formula_sum   'Nb6 Co6 As1'
_cell_volume   181.81620278
_cell_formula_units_Z   1
loop_
 _symmetry_equiv_pos_site_id
 _symmetry_equiv_pos_as_xyz
  1  'x, y, z'
loop_
 _atom_site_type_symbol
 _atom_site_label
 _atom_site_symmetry_multiplicity
 _atom_site_fract_x
 _atom_site_fract_y
 _atom_site_fract_z
 _atom_site_occupancy
  Nb  Nb0  1  0.830451  0.830451  0.830451  1
  Nb  Nb1  1  0.169549  0.169549  0.169549  1
  Nb  Nb2  1  0.651639  0.651639  0.651639  1
  Nb  Nb3  1  0.348361  0.348361  0.348361  1
  Nb  Nb4  1  0.549768  0.549768  0.549768  1
  Nb  Nb5  1  0.450232  0.450232  0.450232  1
  Co  Co6  1  0.909253  0.412345  0.909253  1
  Co  Co7  1  0.909253  0.909253  0.412345  1
  Co  Co8  1  0.412345  0.909253  0.909253  1
  Co  Co9  1  0.090747  0.587655  0.090747  1
  Co  Co10  1  0.090747  0.090747  0.587655  1
  Co  Co11  1  0.587655  0.090747  0.090747  1
  As  As12  1  0.000000  0.000000  0.000000  1
