# generated using pymatgen
data_CdPtCl6
_symmetry_space_group_name_H-M   'P 1'
_cell_length_a   6.54260000
_cell_length_b   6.54259930
_cell_length_c   12.84038600
_cell_angle_alpha   90.00000000
_cell_angle_beta   90.00000000
_cell_angle_gamma   120.00000353
_symmetry_Int_Tables_number   1
_chemical_formula_structural   CdPtCl6
_chemical_formula_sum   'Cd2 Pt2 Cl12'
_cell_volume   476.00266905
_cell_formula_units_Z   2
loop_
 _symmetry_equiv_pos_site_id
 _symmetry_equiv_pos_as_xyz
  1  'x, y, z'
loop_
 _atom_site_type_symbol
 _atom_site_label
 _atom_site_symmetry_multiplicity
 _atom_site_fract_x
 _atom_site_fract_y
 _atom_site_fract_z
 _atom_site_occupancy
  Cd  Cd0  1  0.000000  0.000000  0.250000  1
  Cd  Cd1  1  0.000000  0.000000  0.750000  1
  Pt  Pt2  1  0.333333  0.666667  0.250000  1
  Pt  Pt3  1  0.666667  0.333333  0.750000  1
  Cl  Cl4  1  0.628878  0.956734  0.143337  1
  Cl  Cl5  1  0.043266  0.672145  0.143337  1
  Cl  Cl6  1  0.327855  0.371122  0.143337  1
  Cl  Cl7  1  0.043266  0.371122  0.356663  1
  Cl  Cl8  1  0.371122  0.327855  0.643337  1
  Cl  Cl9  1  0.672145  0.043266  0.643337  1
  Cl  Cl10  1  0.956734  0.628878  0.643337  1
  Cl  Cl11  1  0.672145  0.628878  0.856663  1
  Cl  Cl12  1  0.956734  0.327855  0.856663  1
  Cl  Cl13  1  0.371122  0.043266  0.856663  1
  Cl  Cl14  1  0.628878  0.672145  0.356663  1
  Cl  Cl15  1  0.327855  0.956734  0.356663  1
