# generated using pymatgen
data_Tm3CrFeCo7P6
_symmetry_space_group_name_H-M   'P 1'
_cell_length_a   3.66710000
_cell_length_b   10.53725000
_cell_length_c   12.09188600
_cell_angle_alpha   90.00000000
_cell_angle_beta   90.00000000
_cell_angle_gamma   90.00000000
_symmetry_Int_Tables_number   1
_chemical_formula_structural   Tm3CrFeCo7P6
_chemical_formula_sum   'Tm6 Cr2 Fe2 Co14 P12'
_cell_volume   467.24437436
_cell_formula_units_Z   2
loop_
 _symmetry_equiv_pos_site_id
 _symmetry_equiv_pos_as_xyz
  1  'x, y, z'
loop_
 _atom_site_type_symbol
 _atom_site_label
 _atom_site_symmetry_multiplicity
 _atom_site_fract_x
 _atom_site_fract_y
 _atom_site_fract_z
 _atom_site_occupancy
  Tm  Tm0  1  0.000000  0.500000  0.524159  1
  Tm  Tm1  1  0.500000  0.000000  0.475841  1
  Tm  Tm2  1  0.500000  0.819351  0.203106  1
  Tm  Tm3  1  0.500000  0.180649  0.203106  1
  Tm  Tm4  1  0.000000  0.680649  0.796894  1
  Tm  Tm5  1  0.000000  0.319351  0.796894  1
  Cr  Cr6  1  0.500000  0.500000  0.154158  1
  Cr  Cr7  1  0.000000  0.000000  0.845842  1
  Fe  Fe8  1  0.000000  0.500000  0.988163  1
  Fe  Fe9  1  0.500000  0.000000  0.011837  1
  Co  Co10  1  0.500000  0.500000  0.700701  1
  Co  Co11  1  0.000000  0.000000  0.299299  1
  Co  Co12  1  0.500000  0.331560  0.993335  1
  Co  Co13  1  0.500000  0.668440  0.993335  1
  Co  Co14  1  0.000000  0.168440  0.006665  1
  Co  Co15  1  0.000000  0.831560  0.006665  1
  Co  Co16  1  0.500000  0.296276  0.430769  1
  Co  Co17  1  0.500000  0.703724  0.430769  1
  Co  Co18  1  0.000000  0.203724  0.569231  1
  Co  Co19  1  0.000000  0.796276  0.569231  1
  Co  Co20  1  0.500000  0.878678  0.708172  1
  Co  Co21  1  0.500000  0.121322  0.708172  1
  Co  Co22  1  0.000000  0.621322  0.291828  1
  Co  Co23  1  0.000000  0.378678  0.291828  1
  P  P24  1  0.500000  0.500000  0.882729  1
  P  P25  1  0.000000  0.000000  0.117271  1
  P  P26  1  0.500000  0.500000  0.347059  1
  P  P27  1  0.000000  0.000000  0.652941  1
  P  P28  1  0.500000  0.312183  0.617078  1
  P  P29  1  0.500000  0.687817  0.617078  1
  P  P30  1  0.000000  0.187817  0.382922  1
  P  P31  1  0.000000  0.812183  0.382922  1
  P  P32  1  0.500000  0.846663  0.892731  1
  P  P33  1  0.500000  0.153337  0.892731  1
  P  P34  1  0.000000  0.653337  0.107269  1
  P  P35  1  0.000000  0.346663  0.107269  1
