# generated using pymatgen
data_Y5Pt2Rh
_symmetry_space_group_name_H-M   'P 1'
_cell_length_a   11.11367200
_cell_length_b   11.11367200
_cell_length_c   6.35909500
_cell_angle_alpha   90.00000000
_cell_angle_beta   90.00000000
_cell_angle_gamma   90.00000000
_symmetry_Int_Tables_number   1
_chemical_formula_structural   Y5Pt2Rh
_chemical_formula_sum   'Y20 Pt8 Rh4'
_cell_volume   785.43538595
_cell_formula_units_Z   4
loop_
 _symmetry_equiv_pos_site_id
 _symmetry_equiv_pos_as_xyz
  1  'x, y, z'
loop_
 _atom_site_type_symbol
 _atom_site_label
 _atom_site_symmetry_multiplicity
 _atom_site_fract_x
 _atom_site_fract_y
 _atom_site_fract_z
 _atom_site_occupancy
  Y  Y0  1  0.293741  0.088404  0.375211  1
  Y  Y1  1  0.293741  0.911596  0.875211  1
  Y  Y2  1  0.706259  0.088404  0.875211  1
  Y  Y3  1  0.706259  0.911596  0.375211  1
  Y  Y4  1  0.588404  0.793741  0.875211  1
  Y  Y5  1  0.588404  0.206259  0.375211  1
  Y  Y6  1  0.411596  0.793741  0.375211  1
  Y  Y7  1  0.411596  0.206259  0.875211  1
  Y  Y8  1  0.206259  0.411596  0.624789  1
  Y  Y9  1  0.206259  0.588404  0.124789  1
  Y  Y10  1  0.793741  0.411596  0.124789  1
  Y  Y11  1  0.793741  0.588404  0.624789  1
  Y  Y12  1  0.911596  0.706259  0.124789  1
  Y  Y13  1  0.911596  0.293741  0.624789  1
  Y  Y14  1  0.088404  0.706259  0.624789  1
  Y  Y15  1  0.088404  0.293741  0.124789  1
  Y  Y16  1  0.000000  0.000000  0.500000  1
  Y  Y17  1  0.000000  0.000000  0.000000  1
  Y  Y18  1  0.500000  0.500000  0.000000  1
  Y  Y19  1  0.500000  0.500000  0.500000  1
  Pt  Pt20  1  0.845682  0.154318  0.250000  1
  Pt  Pt21  1  0.845682  0.845682  0.750000  1
  Pt  Pt22  1  0.154318  0.154318  0.750000  1
  Pt  Pt23  1  0.154318  0.845682  0.250000  1
  Pt  Pt24  1  0.654318  0.345682  0.750000  1
  Pt  Pt25  1  0.654318  0.654318  0.250000  1
  Pt  Pt26  1  0.345682  0.345682  0.250000  1
  Pt  Pt27  1  0.345682  0.654318  0.750000  1
  Rh  Rh28  1  0.500000  0.000000  0.122166  1
  Rh  Rh29  1  0.500000  0.000000  0.622166  1
  Rh  Rh30  1  0.000000  0.500000  0.877834  1
  Rh  Rh31  1  0.000000  0.500000  0.377834  1
