# generated using pymatgen
data_Y8Ho7Th(CdPt)4
_symmetry_space_group_name_H-M   'P 1'
_cell_length_a   9.68937217
_cell_length_b   9.68937327
_cell_length_c   9.70070158
_cell_angle_alpha   60.17981273
_cell_angle_beta   60.17981537
_cell_angle_gamma   60.32207218
_symmetry_Int_Tables_number   1
_chemical_formula_structural   Y8Ho7Th(CdPt)4
_chemical_formula_sum   'Y8 Ho7 Th1 Cd4 Pt4'
_cell_volume   647.30089154
_cell_formula_units_Z   1
loop_
 _symmetry_equiv_pos_site_id
 _symmetry_equiv_pos_as_xyz
  1  'x, y, z'
loop_
 _atom_site_type_symbol
 _atom_site_label
 _atom_site_symmetry_multiplicity
 _atom_site_fract_x
 _atom_site_fract_y
 _atom_site_fract_z
 _atom_site_occupancy
  Y  Y0  1  0.188959  0.188959  0.812717  1
  Y  Y1  1  0.810733  0.810733  0.190504  1
  Y  Y2  1  0.936086  0.565678  0.565672  1
  Y  Y3  1  0.563636  0.936816  0.936798  1
  Y  Y4  1  0.565678  0.936086  0.565672  1
  Y  Y5  1  0.936816  0.563636  0.936798  1
  Y  Y6  1  0.565505  0.565505  0.936220  1
  Y  Y7  1  0.936978  0.936978  0.563462  1
  Ho  Ho8  1  0.353654  0.353654  0.939876  1
  Ho  Ho9  1  0.353419  0.939897  0.353649  1
  Ho  Ho10  1  0.939897  0.353419  0.353649  1
  Ho  Ho11  1  0.812884  0.188963  0.188969  1
  Ho  Ho12  1  0.190447  0.810764  0.810780  1
  Ho  Ho13  1  0.188963  0.812884  0.188969  1
  Ho  Ho14  1  0.810764  0.190447  0.810780  1
  Th  Th15  1  0.349727  0.349727  0.349587  1
  Cd  Cd16  1  0.581731  0.581731  0.581685  1
  Cd  Cd17  1  0.582600  0.582600  0.252893  1
  Cd  Cd18  1  0.582541  0.252935  0.582581  1
  Cd  Cd19  1  0.252935  0.582541  0.582581  1
  Pt  Pt20  1  0.143586  0.143586  0.146161  1
  Pt  Pt21  1  0.140080  0.140080  0.569836  1
  Pt  Pt22  1  0.142473  0.569907  0.140081  1
  Pt  Pt23  1  0.569907  0.142473  0.140081  1
