# generated using pymatgen
data_Dy2HoEr(CuP2)4
_symmetry_space_group_name_H-M   'P 1'
_cell_length_a   3.70118300
_cell_length_b   3.75006250
_cell_length_c   19.44878049
_cell_angle_alpha   89.99763719
_cell_angle_beta   90.00000000
_cell_angle_gamma   90.00000000
_symmetry_Int_Tables_number   1
_chemical_formula_structural   Dy2HoEr(CuP2)4
_chemical_formula_sum   'Dy2 Ho1 Er1 Cu4 P8'
_cell_volume   269.94260747
_cell_formula_units_Z   1
loop_
 _symmetry_equiv_pos_site_id
 _symmetry_equiv_pos_as_xyz
  1  'x, y, z'
loop_
 _atom_site_type_symbol
 _atom_site_label
 _atom_site_symmetry_multiplicity
 _atom_site_fract_x
 _atom_site_fract_y
 _atom_site_fract_z
 _atom_site_occupancy
  Dy  Dy0  1  0.250000  0.718241  0.382599  1
  Dy  Dy1  1  0.250000  0.781437  0.883488  1
  Ho  Ho2  1  0.750000  0.281938  0.617289  1
  Er  Er3  1  0.750000  0.218373  0.117302  1
  Cu  Cu4  1  0.250000  0.220510  0.249062  1
  Cu  Cu5  1  0.750000  0.781048  0.750510  1
  Cu  Cu6  1  0.250000  0.277060  0.749790  1
  Cu  Cu7  1  0.750000  0.721190  0.249015  1
  P  P8  1  0.750000  0.801682  0.501832  1
  P  P9  1  0.750000  0.698955  0.002574  1
  P  P10  1  0.250000  0.198428  0.498771  1
  P  P11  1  0.250000  0.301082  0.999631  1
  P  P12  1  0.250000  0.719016  0.170539  1
  P  P13  1  0.750000  0.219038  0.327601  1
  P  P14  1  0.750000  0.281320  0.828603  1
  P  P15  1  0.250000  0.780682  0.671394  1
