# generated using pymatgen
data_Np3TaSb5
_symmetry_space_group_name_H-M   'P 1'
_cell_length_a   9.23051600
_cell_length_b   9.23051533
_cell_length_c   6.09221000
_cell_angle_alpha   90.00000000
_cell_angle_beta   90.00000000
_cell_angle_gamma   120.00000955
_symmetry_Int_Tables_number   1
_chemical_formula_structural   Np3TaSb5
_chemical_formula_sum   'Np6 Ta2 Sb10'
_cell_volume   449.52865680
_cell_formula_units_Z   2
loop_
 _symmetry_equiv_pos_site_id
 _symmetry_equiv_pos_as_xyz
  1  'x, y, z'
loop_
 _atom_site_type_symbol
 _atom_site_label
 _atom_site_symmetry_multiplicity
 _atom_site_fract_x
 _atom_site_fract_y
 _atom_site_fract_z
 _atom_site_occupancy
  Np  Np0  1  0.614271  0.000000  0.750000  1
  Np  Np1  1  0.385729  0.000000  0.250000  1
  Np  Np2  1  0.000000  0.614271  0.750000  1
  Np  Np3  1  0.000000  0.385729  0.250000  1
  Np  Np4  1  0.385729  0.385729  0.750000  1
  Np  Np5  1  0.614271  0.614271  0.250000  1
  Ta  Ta6  1  0.000000  0.000000  0.500000  1
  Ta  Ta7  1  0.000000  0.000000  0.000000  1
  Sb  Sb8  1  0.265327  0.000000  0.750000  1
  Sb  Sb9  1  0.734673  0.000000  0.250000  1
  Sb  Sb10  1  0.000000  0.265327  0.750000  1
  Sb  Sb11  1  0.000000  0.734673  0.250000  1
  Sb  Sb12  1  0.734673  0.734673  0.750000  1
  Sb  Sb13  1  0.265327  0.265327  0.250000  1
  Sb  Sb14  1  0.333333  0.666667  0.500000  1
  Sb  Sb15  1  0.666667  0.333333  0.500000  1
  Sb  Sb16  1  0.666667  0.333333  0.000000  1
  Sb  Sb17  1  0.333333  0.666667  0.000000  1
