# generated using pymatgen
data_Lu19Mg(IrPt2)4
_symmetry_space_group_name_H-M   'P 1'
_cell_length_a   10.78260100
_cell_length_b   10.78260100
_cell_length_c   6.17197300
_cell_angle_alpha   90.00000000
_cell_angle_beta   90.00000000
_cell_angle_gamma   90.00000000
_symmetry_Int_Tables_number   1
_chemical_formula_structural   Lu19Mg(IrPt2)4
_chemical_formula_sum   'Lu19 Mg1 Ir4 Pt8'
_cell_volume   717.58125811
_cell_formula_units_Z   1
loop_
 _symmetry_equiv_pos_site_id
 _symmetry_equiv_pos_as_xyz
  1  'x, y, z'
loop_
 _atom_site_type_symbol
 _atom_site_label
 _atom_site_symmetry_multiplicity
 _atom_site_fract_x
 _atom_site_fract_y
 _atom_site_fract_z
 _atom_site_occupancy
  Lu  Lu0  1  0.288597  0.082817  0.373730  1
  Lu  Lu1  1  0.294724  0.911995  0.874703  1
  Lu  Lu2  1  0.705276  0.088005  0.874703  1
  Lu  Lu3  1  0.711403  0.917183  0.373730  1
  Lu  Lu4  1  0.588962  0.795228  0.873330  1
  Lu  Lu5  1  0.584776  0.204547  0.371842  1
  Lu  Lu6  1  0.415224  0.795453  0.371842  1
  Lu  Lu7  1  0.411038  0.204772  0.873330  1
  Lu  Lu8  1  0.204547  0.415224  0.628158  1
  Lu  Lu9  1  0.204772  0.588962  0.126670  1
  Lu  Lu10  1  0.795228  0.411038  0.126670  1
  Lu  Lu11  1  0.795453  0.584776  0.628158  1
  Lu  Lu12  1  0.911995  0.705276  0.125297  1
  Lu  Lu13  1  0.917183  0.288597  0.626270  1
  Lu  Lu14  1  0.082817  0.711403  0.626270  1
  Lu  Lu15  1  0.088005  0.294724  0.125297  1
  Lu  Lu16  1  0.000000  0.000000  0.000000  1
  Lu  Lu17  1  0.500000  0.500000  0.000000  1
  Lu  Lu18  1  0.500000  0.500000  0.500000  1
  Mg  Mg19  1  0.000000  0.000000  0.500000  1
  Ir  Ir20  1  0.500000  0.000000  0.121188  1
  Ir  Ir21  1  0.500000  0.000000  0.619776  1
  Ir  Ir22  1  0.000000  0.500000  0.878812  1
  Ir  Ir23  1  0.000000  0.500000  0.380224  1
  Pt  Pt24  1  0.846879  0.154791  0.248324  1
  Pt  Pt25  1  0.845209  0.846879  0.751676  1
  Pt  Pt26  1  0.154791  0.153121  0.751676  1
  Pt  Pt27  1  0.153121  0.845209  0.248324  1
  Pt  Pt28  1  0.655190  0.345969  0.746839  1
  Pt  Pt29  1  0.654031  0.655190  0.253161  1
  Pt  Pt30  1  0.345969  0.344810  0.253161  1
  Pt  Pt31  1  0.344810  0.654031  0.746839  1
