# generated using pymatgen
data_Zr10Si2BiPb5
_symmetry_space_group_name_H-M   'P 1'
_cell_length_a   8.82941428
_cell_length_b   8.82941458
_cell_length_c   5.95562200
_cell_angle_alpha   90.00000000
_cell_angle_beta   90.00000000
_cell_angle_gamma   119.88718043
_symmetry_Int_Tables_number   1
_chemical_formula_structural   Zr10Si2BiPb5
_chemical_formula_sum   'Zr10 Si2 Bi1 Pb5'
_cell_volume   402.54474802
_cell_formula_units_Z   1
loop_
 _symmetry_equiv_pos_site_id
 _symmetry_equiv_pos_as_xyz
  1  'x, y, z'
loop_
 _atom_site_type_symbol
 _atom_site_label
 _atom_site_symmetry_multiplicity
 _atom_site_fract_x
 _atom_site_fract_y
 _atom_site_fract_z
 _atom_site_occupancy
  Zr  Zr0  1  0.666594  0.333364  0.500435  1
  Zr  Zr1  1  0.333364  0.666594  0.500435  1
  Zr  Zr2  1  0.333364  0.666594  0.999565  1
  Zr  Zr3  1  0.666594  0.333364  0.999565  1
  Zr  Zr4  1  0.746258  0.746258  0.250000  1
  Zr  Zr5  1  0.253381  0.998927  0.250000  1
  Zr  Zr6  1  0.998927  0.253381  0.250000  1
  Zr  Zr7  1  0.254187  0.254187  0.750000  1
  Zr  Zr8  1  0.746103  0.000175  0.750000  1
  Zr  Zr9  1  0.000175  0.746103  0.750000  1
  Si  Si10  1  0.999851  0.999851  0.499788  1
  Si  Si11  1  0.999851  0.999851  0.000212  1
  Bi  Bi12  1  0.395709  0.395709  0.250000  1
  Pb  Pb13  1  0.605088  0.999792  0.250000  1
  Pb  Pb14  1  0.999792  0.605088  0.250000  1
  Pb  Pb15  1  0.606431  0.606431  0.750000  1
  Pb  Pb16  1  0.394671  0.999661  0.750000  1
  Pb  Pb17  1  0.999661  0.394671  0.750000  1
