# generated using pymatgen
data_Y5Sc3(P3Pd4)4
_symmetry_space_group_name_H-M   'P 1'
_cell_length_a   13.17626600
_cell_length_b   13.17626556
_cell_length_c   4.00683200
_cell_angle_alpha   90.00000000
_cell_angle_beta   90.00000000
_cell_angle_gamma   120.00000612
_symmetry_Int_Tables_number   1
_chemical_formula_structural   Y5Sc3(P3Pd4)4
_chemical_formula_sum   'Y5 Sc3 P12 Pd16'
_cell_volume   602.44365047
_cell_formula_units_Z   1
loop_
 _symmetry_equiv_pos_site_id
 _symmetry_equiv_pos_as_xyz
  1  'x, y, z'
loop_
 _atom_site_type_symbol
 _atom_site_label
 _atom_site_symmetry_multiplicity
 _atom_site_fract_x
 _atom_site_fract_y
 _atom_site_fract_z
 _atom_site_occupancy
  Y  Y0  1  0.666667  0.333333  0.000000  1
  Y  Y1  1  0.333333  0.666667  0.000000  1
  Y  Y2  1  0.812155  0.812155  0.500000  1
  Y  Y3  1  0.187845  0.000000  0.500000  1
  Y  Y4  1  0.000000  0.187845  0.500000  1
  Sc  Sc5  1  0.444801  0.444801  0.000000  1
  Sc  Sc6  1  0.555199  0.000000  0.000000  1
  Sc  Sc7  1  0.000000  0.555199  0.000000  1
  P  P8  1  0.687670  0.167198  0.500000  1
  P  P9  1  0.832802  0.520472  0.500000  1
  P  P10  1  0.479528  0.312330  0.500000  1
  P  P11  1  0.167198  0.687670  0.500000  1
  P  P12  1  0.520472  0.832802  0.500000  1
  P  P13  1  0.312330  0.479528  0.500000  1
  P  P14  1  0.174219  0.174219  0.000000  1
  P  P15  1  0.825781  0.000000  0.000000  1
  P  P16  1  0.000000  0.825781  0.000000  1
  P  P17  1  0.646115  0.646115  0.000000  1
  P  P18  1  0.353885  0.000000  0.000000  1
  P  P19  1  0.000000  0.353885  0.000000  1
  Pd  Pd20  1  0.870341  0.361579  0.500000  1
  Pd  Pd21  1  0.638421  0.508761  0.500000  1
  Pd  Pd22  1  0.491239  0.129659  0.500000  1
  Pd  Pd23  1  0.361579  0.870341  0.500000  1
  Pd  Pd24  1  0.508761  0.638421  0.500000  1
  Pd  Pd25  1  0.129659  0.491239  0.500000  1
  Pd  Pd26  1  0.806269  0.184559  0.000000  1
  Pd  Pd27  1  0.815441  0.621709  0.000000  1
  Pd  Pd28  1  0.378291  0.193731  0.000000  1
  Pd  Pd29  1  0.184559  0.806269  0.000000  1
  Pd  Pd30  1  0.621709  0.815441  0.000000  1
  Pd  Pd31  1  0.193731  0.378291  0.000000  1
  Pd  Pd32  1  0.275778  0.275778  0.500000  1
  Pd  Pd33  1  0.724222  0.000000  0.500000  1
  Pd  Pd34  1  0.000000  0.724222  0.500000  1
  Pd  Pd35  1  0.000000  0.000000  0.000000  1
