# generated using pymatgen
data_Tb5Dy(Lu2Pb3)2
_symmetry_space_group_name_H-M   'P 1'
_cell_length_a   6.54199200
_cell_length_b   9.03226122
_cell_length_c   9.03366952
_cell_angle_alpha   120.00319320
_cell_angle_beta   89.99903769
_cell_angle_gamma   90.00107958
_symmetry_Int_Tables_number   1
_chemical_formula_structural   Tb5Dy(Lu2Pb3)2
_chemical_formula_sum   'Tb5 Dy1 Lu4 Pb6'
_cell_volume   462.26110518
_cell_formula_units_Z   1
loop_
 _symmetry_equiv_pos_site_id
 _symmetry_equiv_pos_as_xyz
  1  'x, y, z'
loop_
 _atom_site_type_symbol
 _atom_site_label
 _atom_site_symmetry_multiplicity
 _atom_site_fract_x
 _atom_site_fract_y
 _atom_site_fract_z
 _atom_site_occupancy
  Tb  Tb0  1  0.749994  0.237730  0.999793  1
  Tb  Tb1  1  0.750013  0.762212  0.761880  1
  Tb  Tb2  1  0.750008  0.000076  0.238554  1
  Tb  Tb3  1  0.250008  0.762051  0.999955  1
  Tb  Tb4  1  0.250002  0.238085  0.238093  1
  Dy  Dy5  1  0.250001  0.999951  0.762070  1
  Lu  Lu6  1  0.499906  0.333353  0.666762  1
  Lu  Lu7  1  0.499896  0.666577  0.333123  1
  Lu  Lu8  1  0.000081  0.666616  0.333131  1
  Lu  Lu9  1  0.000092  0.333384  0.666766  1
  Pb  Pb10  1  0.749990  0.603332  0.999942  1
  Pb  Pb11  1  0.750011  0.396614  0.396531  1
  Pb  Pb12  1  0.750009  0.999957  0.603092  1
  Pb  Pb13  1  0.249979  0.395378  0.999128  1
  Pb  Pb14  1  0.250011  0.604698  0.603783  1
  Pb  Pb15  1  0.250000  0.999986  0.397395  1
