# generated using pymatgen
data_Sr2Cd3SnPd2
_symmetry_space_group_name_H-M   'P 1'
_cell_length_a   5.92242950
_cell_length_b   5.92242959
_cell_length_c   8.19261627
_cell_angle_alpha   90.36006189
_cell_angle_beta   89.63993984
_cell_angle_gamma   135.83682700
_symmetry_Int_Tables_number   1
_chemical_formula_structural   Sr2Cd3SnPd2
_chemical_formula_sum   'Sr2 Cd3 Sn1 Pd2'
_cell_volume   200.19850848
_cell_formula_units_Z   1
loop_
 _symmetry_equiv_pos_site_id
 _symmetry_equiv_pos_as_xyz
  1  'x, y, z'
loop_
 _atom_site_type_symbol
 _atom_site_label
 _atom_site_symmetry_multiplicity
 _atom_site_fract_x
 _atom_site_fract_y
 _atom_site_fract_z
 _atom_site_occupancy
  Sr  Sr0  1  0.937556  0.062444  0.244155  1
  Sr  Sr1  1  0.061829  0.938171  0.751970  1
  Cd  Cd2  1  0.355853  0.644147  0.560457  1
  Cd  Cd3  1  0.651627  0.348373  0.049119  1
  Cd  Cd4  1  0.348520  0.651480  0.947232  1
  Sn  Sn5  1  0.652988  0.347012  0.443449  1
  Pd  Pd6  1  0.216659  0.783341  0.260580  1
  Pd  Pd7  1  0.774968  0.225032  0.743038  1
