# generated using pymatgen
data_Gd7Dy(TeO6)4
_symmetry_space_group_name_H-M   'P 1'
_cell_length_a   5.37869149
_cell_length_b   9.24217911
_cell_length_c   10.13273285
_cell_angle_alpha   90.00762050
_cell_angle_beta   89.95372595
_cell_angle_gamma   89.98382175
_symmetry_Int_Tables_number   1
_chemical_formula_structural   Gd7Dy(TeO6)4
_chemical_formula_sum   'Gd7 Dy1 Te4 O24'
_cell_volume   503.70637289
_cell_formula_units_Z   1
loop_
 _symmetry_equiv_pos_site_id
 _symmetry_equiv_pos_as_xyz
  1  'x, y, z'
loop_
 _atom_site_type_symbol
 _atom_site_label
 _atom_site_symmetry_multiplicity
 _atom_site_fract_x
 _atom_site_fract_y
 _atom_site_fract_z
 _atom_site_occupancy
  Gd  Gd0  1  0.024408  0.396223  0.039649  1
  Gd  Gd1  1  0.034942  0.282448  0.636018  1
  Gd  Gd2  1  0.464497  0.717544  0.136462  1
  Gd  Gd3  1  0.474757  0.604837  0.539243  1
  Gd  Gd4  1  0.524544  0.103631  0.960404  1
  Gd  Gd5  1  0.535393  0.217114  0.363922  1
  Gd  Gd6  1  0.964821  0.782701  0.863553  1
  Dy  Dy7  1  0.976154  0.897114  0.460275  1
  Te  Te8  1  0.040508  0.004387  0.147261  1
  Te  Te9  1  0.459620  0.994638  0.645293  1
  Te  Te10  1  0.540691  0.495303  0.853670  1
  Te  Te11  1  0.958988  0.505573  0.354012  1
  O  O12  1  0.078120  0.656070  0.473002  1
  O  O13  1  0.171225  0.550357  0.206201  1
  O  O14  1  0.183718  0.860428  0.262661  1
  O  O15  1  0.184740  0.858917  0.675548  1
  O  O16  1  0.225675  0.386829  0.434354  1
  O  O17  1  0.249962  0.083317  0.506012  1
  O  O18  1  0.248301  0.913943  0.007860  1
  O  O19  1  0.274112  0.614132  0.933946  1
  O  O20  1  0.314367  0.140527  0.178500  1
  O  O21  1  0.314927  0.139120  0.759924  1
  O  O22  1  0.328757  0.449784  0.706096  1
  O  O23  1  0.420839  0.346595  0.973783  1
  O  O24  1  0.585796  0.846734  0.526020  1
  O  O25  1  0.670450  0.949453  0.793636  1
  O  O26  1  0.685316  0.639673  0.739256  1
  O  O27  1  0.684846  0.640714  0.321462  1
  O  O28  1  0.726125  0.113568  0.565396  1
  O  O29  1  0.751562  0.414751  0.493172  1
  O  O30  1  0.748286  0.585904  0.992874  1
  O  O31  1  0.774180  0.886077  0.066280  1
  O  O32  1  0.814313  0.359142  0.821662  1
  O  O33  1  0.814974  0.360529  0.239679  1
  O  O34  1  0.829459  0.048860  0.295908  1
  O  O35  1  0.920629  0.153062  0.027009  1
