# generated using pymatgen
data_Ho4Tm8In2Fe2Ru
_symmetry_space_group_name_H-M   'P 1'
_cell_length_a   8.28563395
_cell_length_b   8.28568179
_cell_length_c   8.28563268
_cell_angle_alpha   108.61299853
_cell_angle_beta   108.61355129
_cell_angle_gamma   111.20084835
_symmetry_Int_Tables_number   1
_chemical_formula_structural   Ho4Tm8In2Fe2Ru
_chemical_formula_sum   'Ho4 Tm8 In2 Fe2 Ru1'
_cell_volume   437.58362945
_cell_formula_units_Z   1
loop_
 _symmetry_equiv_pos_site_id
 _symmetry_equiv_pos_as_xyz
  1  'x, y, z'
loop_
 _atom_site_type_symbol
 _atom_site_label
 _atom_site_symmetry_multiplicity
 _atom_site_fract_x
 _atom_site_fract_y
 _atom_site_fract_z
 _atom_site_occupancy
  Ho  Ho0  1  0.306531  0.306529  0.613067  1
  Ho  Ho1  1  0.693469  0.693471  0.386933  1
  Ho  Ho2  1  0.306538  0.693471  0.000001  1
  Ho  Ho3  1  0.693462  0.306529  0.999999  1
  Tm  Tm4  1  0.430712  0.192622  0.238096  1
  Tm  Tm5  1  0.569288  0.807378  0.761904  1
  Tm  Tm6  1  0.954526  0.192622  0.761910  1
  Tm  Tm7  1  0.192623  0.954514  0.761890  1
  Tm  Tm8  1  0.045474  0.807378  0.238090  1
  Tm  Tm9  1  0.807377  0.045486  0.238110  1
  Tm  Tm10  1  0.192623  0.430729  0.238106  1
  Tm  Tm11  1  0.807377  0.569271  0.761894  1
  In  In12  1  0.500000  0.000000  0.500000  1
  In  In13  1  0.000000  0.500000  0.500000  1
  Fe  Fe14  1  0.385081  0.385078  0.999997  1
  Fe  Fe15  1  0.614919  0.614922  0.000003  1
  Ru  Ru16  1  0.000000  0.000000  0.000000  1
