# generated using pymatgen
data_Ta6Be15(Co3Cu)2
_symmetry_space_group_name_H-M   'P 1'
_cell_length_a   7.56395325
_cell_length_b   7.57237281
_cell_length_c   7.57237100
_cell_angle_alpha   60.00000354
_cell_angle_beta   59.96317512
_cell_angle_gamma   59.96318213
_symmetry_Int_Tables_number   1
_chemical_formula_structural   Ta6Be15(Co3Cu)2
_chemical_formula_sum   'Ta6 Be15 Co6 Cu2'
_cell_volume   306.51786208
_cell_formula_units_Z   1
loop_
 _symmetry_equiv_pos_site_id
 _symmetry_equiv_pos_as_xyz
  1  'x, y, z'
loop_
 _atom_site_type_symbol
 _atom_site_label
 _atom_site_symmetry_multiplicity
 _atom_site_fract_x
 _atom_site_fract_y
 _atom_site_fract_z
 _atom_site_occupancy
  Ta  Ta0  1  0.714177  0.295261  0.295261  1
  Ta  Ta1  1  0.285823  0.704739  0.704739  1
  Ta  Ta2  1  0.285823  0.704739  0.304700  1
  Ta  Ta3  1  0.714177  0.295261  0.695300  1
  Ta  Ta4  1  0.285823  0.304700  0.704739  1
  Ta  Ta5  1  0.714177  0.695300  0.295261  1
  Be  Be6  1  0.322462  0.329163  0.329163  1
  Be  Be7  1  0.677538  0.670837  0.670837  1
  Be  Be8  1  0.322462  0.329163  0.019210  1
  Be  Be9  1  0.322462  0.019210  0.329163  1
  Be  Be10  1  0.677538  0.670837  0.980790  1
  Be  Be11  1  0.677538  0.980790  0.670837  1
  Be  Be12  1  0.028915  0.323694  0.323694  1
  Be  Be13  1  0.971085  0.676306  0.676306  1
  Be  Be14  1  0.500000  0.000000  0.000000  1
  Be  Be15  1  0.000000  0.500000  0.500000  1
  Be  Be16  1  0.000000  0.500000  0.000000  1
  Be  Be17  1  0.500000  0.000000  0.500000  1
  Be  Be18  1  0.000000  0.000000  0.500000  1
  Be  Be19  1  0.500000  0.500000  0.000000  1
  Be  Be20  1  0.000000  0.000000  0.000000  1
  Co  Co21  1  0.124635  0.121233  0.121233  1
  Co  Co22  1  0.875365  0.878768  0.878767  1
  Co  Co23  1  0.124635  0.121233  0.632900  1
  Co  Co24  1  0.124635  0.632900  0.121232  1
  Co  Co25  1  0.875365  0.878768  0.367100  1
  Co  Co26  1  0.875365  0.367100  0.878767  1
  Cu  Cu27  1  0.632020  0.122660  0.122660  1
  Cu  Cu28  1  0.367980  0.877340  0.877340  1
