# generated using pymatgen
data_Ba4ErWO8
_symmetry_space_group_name_H-M   'P 1'
_cell_length_a   7.46823104
_cell_length_b   7.46823049
_cell_length_c   6.02548900
_cell_angle_alpha   90.00000000
_cell_angle_beta   90.00000000
_cell_angle_gamma   133.18234781
_symmetry_Int_Tables_number   1
_chemical_formula_structural   Ba4ErWO8
_chemical_formula_sum   'Ba4 Er1 W1 O8'
_cell_volume   245.05422964
_cell_formula_units_Z   1
loop_
 _symmetry_equiv_pos_site_id
 _symmetry_equiv_pos_as_xyz
  1  'x, y, z'
loop_
 _atom_site_type_symbol
 _atom_site_label
 _atom_site_symmetry_multiplicity
 _atom_site_fract_x
 _atom_site_fract_y
 _atom_site_fract_z
 _atom_site_occupancy
  Ba  Ba0  1  0.352059  0.647941  0.000000  1
  Ba  Ba1  1  0.851860  0.148140  0.500000  1
  Ba  Ba2  1  0.148140  0.851860  0.500000  1
  Ba  Ba3  1  0.647941  0.352059  0.000000  1
  Er  Er4  1  0.000000  0.000000  0.000000  1
  W  W5  1  0.500000  0.500000  0.500000  1
  O  O6  1  0.163714  0.836286  0.000000  1
  O  O7  1  0.652098  0.347902  0.500000  1
  O  O8  1  0.347902  0.652098  0.500000  1
  O  O9  1  0.836286  0.163714  0.000000  1
  O  O10  1  0.264446  0.264446  0.262713  1
  O  O11  1  0.735554  0.735554  0.737287  1
  O  O12  1  0.264446  0.264446  0.737287  1
  O  O13  1  0.735554  0.735554  0.262713  1
