# generated using pymatgen
data_La3Ce2Pb3Cl
_symmetry_space_group_name_H-M   'P 1'
_cell_length_a   9.59515100
_cell_length_b   9.59515167
_cell_length_c   6.84434800
_cell_angle_alpha   90.00000000
_cell_angle_beta   90.00000000
_cell_angle_gamma   120.00000115
_symmetry_Int_Tables_number   1
_chemical_formula_structural   La3Ce2Pb3Cl
_chemical_formula_sum   'La6 Ce4 Pb6 Cl2'
_cell_volume   545.71559799
_cell_formula_units_Z   2
loop_
 _symmetry_equiv_pos_site_id
 _symmetry_equiv_pos_as_xyz
  1  'x, y, z'
loop_
 _atom_site_type_symbol
 _atom_site_label
 _atom_site_symmetry_multiplicity
 _atom_site_fract_x
 _atom_site_fract_y
 _atom_site_fract_z
 _atom_site_occupancy
  La  La0  1  0.738796  0.000000  0.750000  1
  La  La1  1  0.000000  0.261204  0.250000  1
  La  La2  1  0.738796  0.738796  0.250000  1
  La  La3  1  0.261204  0.000000  0.250000  1
  La  La4  1  0.261204  0.261204  0.750000  1
  La  La5  1  0.000000  0.738796  0.750000  1
  Ce  Ce6  1  0.333333  0.666667  0.500000  1
  Ce  Ce7  1  0.333333  0.666667  0.000000  1
  Ce  Ce8  1  0.666667  0.333333  0.500000  1
  Ce  Ce9  1  0.666667  0.333333  0.000000  1
  Pb  Pb10  1  0.389952  0.000000  0.750000  1
  Pb  Pb11  1  0.610048  0.000000  0.250000  1
  Pb  Pb12  1  0.000000  0.610048  0.250000  1
  Pb  Pb13  1  0.610048  0.610048  0.750000  1
  Pb  Pb14  1  0.000000  0.389952  0.750000  1
  Pb  Pb15  1  0.389952  0.389952  0.250000  1
  Cl  Cl16  1  0.000000  0.000000  0.500000  1
  Cl  Cl17  1  0.000000  0.000000  0.000000  1
