# generated using pymatgen
data_Tb6MnCo16TcP12
_symmetry_space_group_name_H-M   'P 1'
_cell_length_a   3.70303500
_cell_length_b   10.53015800
_cell_length_c   12.21958700
_cell_angle_alpha   90.00000000
_cell_angle_beta   90.00000000
_cell_angle_gamma   90.00000000
_symmetry_Int_Tables_number   1
_chemical_formula_structural   Tb6MnCo16TcP12
_chemical_formula_sum   'Tb6 Mn1 Co16 Tc1 P12'
_cell_volume   476.48499882
_cell_formula_units_Z   1
loop_
 _symmetry_equiv_pos_site_id
 _symmetry_equiv_pos_as_xyz
  1  'x, y, z'
loop_
 _atom_site_type_symbol
 _atom_site_label
 _atom_site_symmetry_multiplicity
 _atom_site_fract_x
 _atom_site_fract_y
 _atom_site_fract_z
 _atom_site_occupancy
  Tb  Tb0  1  0.000000  0.500000  0.524133  1
  Tb  Tb1  1  0.500000  0.000000  0.478233  1
  Tb  Tb2  1  0.500000  0.817866  0.205817  1
  Tb  Tb3  1  0.500000  0.182134  0.205817  1
  Tb  Tb4  1  0.000000  0.682218  0.794748  1
  Tb  Tb5  1  0.000000  0.317782  0.794748  1
  Mn  Mn6  1  0.000000  0.000000  0.841586  1
  Co  Co7  1  0.500000  0.500000  0.702723  1
  Co  Co8  1  0.000000  0.000000  0.296954  1
  Co  Co9  1  0.000000  0.500000  0.987271  1
  Co  Co10  1  0.500000  0.000000  0.014310  1
  Co  Co11  1  0.500000  0.332029  0.990796  1
  Co  Co12  1  0.500000  0.667971  0.990796  1
  Co  Co13  1  0.000000  0.166761  0.005945  1
  Co  Co14  1  0.000000  0.833239  0.005945  1
  Co  Co15  1  0.500000  0.296544  0.430778  1
  Co  Co16  1  0.500000  0.703456  0.430778  1
  Co  Co17  1  0.000000  0.203305  0.569359  1
  Co  Co18  1  0.000000  0.796695  0.569359  1
  Co  Co19  1  0.500000  0.879153  0.709221  1
  Co  Co20  1  0.500000  0.120847  0.709221  1
  Co  Co21  1  0.000000  0.620398  0.292002  1
  Co  Co22  1  0.000000  0.379602  0.292002  1
  Tc  Tc23  1  0.500000  0.500000  0.156416  1
  P  P24  1  0.500000  0.500000  0.882020  1
  P  P25  1  0.000000  0.000000  0.116898  1
  P  P26  1  0.500000  0.500000  0.348047  1
  P  P27  1  0.000000  0.000000  0.656125  1
  P  P28  1  0.500000  0.310281  0.616111  1
  P  P29  1  0.500000  0.689719  0.616111  1
  P  P30  1  0.000000  0.189066  0.384573  1
  P  P31  1  0.000000  0.810934  0.384573  1
  P  P32  1  0.500000  0.849176  0.892162  1
  P  P33  1  0.500000  0.150824  0.892162  1
  P  P34  1  0.000000  0.655059  0.106133  1
  P  P35  1  0.000000  0.344941  0.106133  1
