# generated using pymatgen
data_TbDyNiB10
_symmetry_space_group_name_H-M   'P 1'
_cell_length_a   4.14757700
_cell_length_b   5.55911806
_cell_length_c   11.10228012
_cell_angle_alpha   89.98337889
_cell_angle_beta   90.00000000
_cell_angle_gamma   90.00000000
_symmetry_Int_Tables_number   1
_chemical_formula_structural   TbDyNiB10
_chemical_formula_sum   'Tb2 Dy2 Ni2 B20'
_cell_volume   255.98382080
_cell_formula_units_Z   2
loop_
 _symmetry_equiv_pos_site_id
 _symmetry_equiv_pos_as_xyz
  1  'x, y, z'
loop_
 _atom_site_type_symbol
 _atom_site_label
 _atom_site_symmetry_multiplicity
 _atom_site_fract_x
 _atom_site_fract_y
 _atom_site_fract_z
 _atom_site_occupancy
  Tb  Tb0  1  0.500000  0.313636  0.862425  1
  Tb  Tb1  1  0.500000  0.686364  0.137575  1
  Dy  Dy2  1  0.500000  0.186116  0.362610  1
  Dy  Dy3  1  0.500000  0.813884  0.637390  1
  Ni  Ni4  1  0.000000  0.000000  0.000000  1
  Ni  Ni5  1  0.000000  0.500000  0.500000  1
  B  B6  1  0.000000  0.374253  0.041101  1
  B  B7  1  0.000000  0.625747  0.958899  1
  B  B8  1  0.000000  0.125746  0.540854  1
  B  B9  1  0.000000  0.874254  0.459146  1
  B  B10  1  0.000000  0.341610  0.198672  1
  B  B11  1  0.000000  0.658390  0.801328  1
  B  B12  1  0.000000  0.158391  0.698305  1
  B  B13  1  0.000000  0.841609  0.301695  1
  B  B14  1  0.000000  0.030258  0.186765  1
  B  B15  1  0.000000  0.969742  0.813235  1
  B  B16  1  0.000000  0.469886  0.686494  1
  B  B17  1  0.000000  0.530114  0.313506  1
  B  B18  1  0.301470  0.201735  0.114724  1
  B  B19  1  0.698530  0.798265  0.885276  1
  B  B20  1  0.301470  0.798265  0.885276  1
  B  B21  1  0.698530  0.297936  0.614350  1
  B  B22  1  0.698530  0.201735  0.114724  1
  B  B23  1  0.301470  0.702064  0.385650  1
  B  B24  1  0.698530  0.702064  0.385650  1
  B  B25  1  0.301470  0.297936  0.614350  1
