# generated using pymatgen
data_NdSc(PaPt2)2
_symmetry_space_group_name_H-M   'P 1'
_cell_length_a   4.48570700
_cell_length_b   5.60514968
_cell_length_c   6.99753084
_cell_angle_alpha   92.36241525
_cell_angle_beta   90.00000000
_cell_angle_gamma   90.00000000
_symmetry_Int_Tables_number   1
_chemical_formula_structural   NdSc(PaPt2)2
_chemical_formula_sum   'Nd1 Sc1 Pa2 Pt4'
_cell_volume   175.78979836
_cell_formula_units_Z   1
loop_
 _symmetry_equiv_pos_site_id
 _symmetry_equiv_pos_as_xyz
  1  'x, y, z'
loop_
 _atom_site_type_symbol
 _atom_site_label
 _atom_site_symmetry_multiplicity
 _atom_site_fract_x
 _atom_site_fract_y
 _atom_site_fract_z
 _atom_site_occupancy
  Nd  Nd0  1  0.750000  0.843197  0.813537  1
  Sc  Sc1  1  0.750000  0.648128  0.321129  1
  Pa  Pa2  1  0.250000  0.359830  0.677931  1
  Pa  Pa3  1  0.250000  0.150524  0.187455  1
  Pt  Pt4  1  0.250000  0.836123  0.516423  1
  Pt  Pt5  1  0.250000  0.650655  0.078829  1
  Pt  Pt6  1  0.750000  0.178062  0.446261  1
  Pt  Pt7  1  0.750000  0.333483  0.958436  1
