# generated using pymatgen
data_SmHo4Sc3(Co4P3)4
_symmetry_space_group_name_H-M   'P 1'
_cell_length_a   12.24449400
_cell_length_b   12.24449289
_cell_length_c   3.72282900
_cell_angle_alpha   90.00000000
_cell_angle_beta   90.00000000
_cell_angle_gamma   120.00000841
_symmetry_Int_Tables_number   1
_chemical_formula_structural   SmHo4Sc3(Co4P3)4
_chemical_formula_sum   'Sm1 Ho4 Sc3 Co16 P12'
_cell_volume   483.37627353
_cell_formula_units_Z   1
loop_
 _symmetry_equiv_pos_site_id
 _symmetry_equiv_pos_as_xyz
  1  'x, y, z'
loop_
 _atom_site_type_symbol
 _atom_site_label
 _atom_site_symmetry_multiplicity
 _atom_site_fract_x
 _atom_site_fract_y
 _atom_site_fract_z
 _atom_site_occupancy
  Sm  Sm0  1  0.666667  0.333333  0.000000  1
  Ho  Ho1  1  0.333333  0.666667  0.000000  1
  Ho  Ho2  1  0.815771  0.815647  0.500000  1
  Ho  Ho3  1  0.184353  0.000124  0.500000  1
  Ho  Ho4  1  0.999876  0.184229  0.500000  1
  Sc  Sc5  1  0.439656  0.440200  0.000000  1
  Sc  Sc6  1  0.559800  0.999456  0.000000  1
  Sc  Sc7  1  0.000544  0.560344  0.000000  1
  Co  Co8  1  0.877299  0.354888  0.500000  1
  Co  Co9  1  0.645112  0.522411  0.500000  1
  Co  Co10  1  0.477589  0.122701  0.500000  1
  Co  Co11  1  0.355077  0.875117  0.500000  1
  Co  Co12  1  0.520040  0.644923  0.500000  1
  Co  Co13  1  0.124883  0.479960  0.500000  1
  Co  Co14  1  0.805589  0.178231  0.000000  1
  Co  Co15  1  0.821769  0.627358  0.000000  1
  Co  Co16  1  0.372642  0.194411  0.000000  1
  Co  Co17  1  0.179196  0.805120  0.000000  1
  Co  Co18  1  0.625923  0.820804  0.000000  1
  Co  Co19  1  0.194880  0.374077  0.000000  1
  Co  Co20  1  0.277432  0.278179  0.500000  1
  Co  Co21  1  0.721821  0.999253  0.500000  1
  Co  Co22  1  0.000747  0.722568  0.500000  1
  Co  Co23  1  0.000000  0.000000  0.000000  1
  P  P24  1  0.693531  0.169337  0.500000  1
  P  P25  1  0.830663  0.524194  0.500000  1
  P  P26  1  0.475806  0.306469  0.500000  1
  P  P27  1  0.171206  0.692442  0.500000  1
  P  P28  1  0.521237  0.828794  0.500000  1
  P  P29  1  0.307558  0.478763  0.500000  1
  P  P30  1  0.178579  0.179030  0.000000  1
  P  P31  1  0.820970  0.999550  0.000000  1
  P  P32  1  0.000450  0.821421  0.000000  1
  P  P33  1  0.645542  0.645506  0.000000  1
  P  P34  1  0.354494  0.000035  0.000000  1
  P  P35  1  0.999965  0.354458  0.000000  1
