# generated using pymatgen
data_Mg5Ni7(PRu)12
_symmetry_space_group_name_H-M   'P 1'
_cell_length_a   12.20609100
_cell_length_b   12.10633269
_cell_length_c   3.79789600
_cell_angle_alpha   90.00000000
_cell_angle_beta   90.00000000
_cell_angle_gamma   118.75186691
_symmetry_Int_Tables_number   1
_chemical_formula_structural   Mg5Ni7(PRu)12
_chemical_formula_sum   'Mg5 Ni7 P12 Ru12'
_cell_volume   492.02681527
_cell_formula_units_Z   1
loop_
 _symmetry_equiv_pos_site_id
 _symmetry_equiv_pos_as_xyz
  1  'x, y, z'
loop_
 _atom_site_type_symbol
 _atom_site_label
 _atom_site_symmetry_multiplicity
 _atom_site_fract_x
 _atom_site_fract_y
 _atom_site_fract_z
 _atom_site_occupancy
  Mg  Mg0  1  0.661065  0.328329  0.000000  1
  Mg  Mg1  1  0.337707  0.668683  0.000000  1
  Mg  Mg2  1  0.816584  0.001525  0.500000  1
  Mg  Mg3  1  0.184548  0.185975  0.500000  1
  Mg  Mg4  1  0.997231  0.818731  0.500000  1
  Ni  Ni5  1  0.631975  0.808387  0.000000  1
  Ni  Ni6  1  0.184689  0.369655  0.000000  1
  Ni  Ni7  1  0.364021  0.176945  0.000000  1
  Ni  Ni8  1  0.189530  0.825701  0.000000  1
  Ni  Ni9  1  0.807549  0.622334  0.000000  1
  Ni  Ni10  1  0.867774  0.515605  0.500000  1
  Ni  Ni11  1  0.996231  0.996843  0.000000  1
  P  P12  1  0.635927  0.999970  0.000000  1
  P  P13  1  0.366691  0.364999  0.000000  1
  P  P14  1  0.998803  0.641221  0.000000  1
  P  P15  1  0.681258  0.513798  0.500000  1
  P  P16  1  0.838015  0.317556  0.500000  1
  P  P17  1  0.320667  0.836901  0.500000  1
  P  P18  1  0.516855  0.673511  0.500000  1
  P  P19  1  0.170466  0.003386  0.000000  1
  P  P20  1  0.827599  0.826441  0.000000  1
  P  P21  1  0.004060  0.175031  0.000000  1
  P  P22  1  0.477518  0.155088  0.500000  1
  P  P23  1  0.163499  0.491877  0.500000  1
  Ru  Ru24  1  0.483562  0.347179  0.500000  1
  Ru  Ru25  1  0.643608  0.125725  0.500000  1
  Ru  Ru26  1  0.123371  0.658004  0.500000  1
  Ru  Ru27  1  0.348059  0.479251  0.500000  1
  Ru  Ru28  1  0.517098  0.863042  0.500000  1
  Ru  Ru29  1  0.725841  0.723702  0.500000  1
  Ru  Ru30  1  0.015633  0.285166  0.500000  1
  Ru  Ru31  1  0.443011  0.995047  0.000000  1
  Ru  Ru32  1  0.554070  0.550048  0.000000  1
  Ru  Ru33  1  0.008717  0.457094  0.000000  1
  Ru  Ru34  1  0.825808  0.197319  0.000000  1
  Ru  Ru35  1  0.270959  0.999931  0.500000  1
