# generated using pymatgen
data_Tb4Fe8Cu3(Ni3P4)3
_symmetry_space_group_name_H-M   'P 1'
_cell_length_a   3.74076700
_cell_length_b   10.31426390
_cell_length_c   11.97257799
_cell_angle_alpha   90.04719633
_cell_angle_beta   90.00000000
_cell_angle_gamma   90.00000000
_symmetry_Int_Tables_number   1
_chemical_formula_structural   Tb4Fe8Cu3(Ni3P4)3
_chemical_formula_sum   'Tb4 Fe8 Cu3 Ni9 P12'
_cell_volume   461.94090897
_cell_formula_units_Z   1
loop_
 _symmetry_equiv_pos_site_id
 _symmetry_equiv_pos_as_xyz
  1  'x, y, z'
loop_
 _atom_site_type_symbol
 _atom_site_label
 _atom_site_symmetry_multiplicity
 _atom_site_fract_x
 _atom_site_fract_y
 _atom_site_fract_z
 _atom_site_occupancy
  Tb  Tb0  1  0.250000  0.575684  0.704160  1
  Tb  Tb1  1  0.250000  0.923969  0.206214  1
  Tb  Tb2  1  0.750000  0.422562  0.295399  1
  Tb  Tb3  1  0.750000  0.076799  0.793997  1
  Fe  Fe4  1  0.250000  0.870856  0.702585  1
  Fe  Fe5  1  0.250000  0.629762  0.202254  1
  Fe  Fe6  1  0.750000  0.129641  0.298250  1
  Fe  Fe7  1  0.750000  0.370191  0.796051  1
  Fe  Fe8  1  0.250000  0.459719  0.932546  1
  Fe  Fe9  1  0.250000  0.039415  0.432860  1
  Fe  Fe10  1  0.750000  0.539501  0.066644  1
  Fe  Fe11  1  0.750000  0.961379  0.567538  1
  Cu  Cu12  1  0.250000  0.709087  0.991944  1
  Cu  Cu13  1  0.250000  0.790683  0.492458  1
  Cu  Cu14  1  0.750000  0.290886  0.007747  1
  Ni  Ni15  1  0.750000  0.212587  0.505331  1
  Ni  Ni16  1  0.250000  0.407685  0.484661  1
  Ni  Ni17  1  0.250000  0.092657  0.985479  1
  Ni  Ni18  1  0.750000  0.590998  0.514798  1
  Ni  Ni19  1  0.750000  0.908555  0.015214  1
  Ni  Ni20  1  0.250000  0.229530  0.170259  1
  Ni  Ni21  1  0.250000  0.270179  0.667537  1
  Ni  Ni22  1  0.750000  0.770613  0.832365  1
  Ni  Ni23  1  0.750000  0.728502  0.331999  1
  P  P24  1  0.250000  0.438551  0.114386  1
  P  P25  1  0.250000  0.063257  0.612804  1
  P  P26  1  0.750000  0.560687  0.885079  1
  P  P27  1  0.750000  0.938262  0.386269  1
  P  P28  1  0.250000  0.270011  0.855874  1
  P  P29  1  0.250000  0.229952  0.361815  1
  P  P30  1  0.750000  0.729683  0.143492  1
  P  P31  1  0.750000  0.770681  0.643271  1
  P  P32  1  0.250000  0.603683  0.389134  1
  P  P33  1  0.250000  0.896634  0.889273  1
  P  P34  1  0.750000  0.392567  0.608687  1
  P  P35  1  0.750000  0.104593  0.111625  1
