# generated using pymatgen
data_Dy8Y9Sc3Si15Rh
_symmetry_space_group_name_H-M   'P 1'
_cell_length_a   7.27908059
_cell_length_b   7.72265566
_cell_length_c   14.44471300
_cell_angle_alpha   90.00000000
_cell_angle_beta   90.00000000
_cell_angle_gamma   90.04061379
_symmetry_Int_Tables_number   1
_chemical_formula_structural   Dy8Y9Sc3Si15Rh
_chemical_formula_sum   'Dy8 Y9 Sc3 Si15 Rh1'
_cell_volume   811.99247929
_cell_formula_units_Z   1
loop_
 _symmetry_equiv_pos_site_id
 _symmetry_equiv_pos_as_xyz
  1  'x, y, z'
loop_
 _atom_site_type_symbol
 _atom_site_label
 _atom_site_symmetry_multiplicity
 _atom_site_fract_x
 _atom_site_fract_y
 _atom_site_fract_z
 _atom_site_occupancy
  Dy  Dy0  1  0.017653  0.184818  0.097664  1
  Dy  Dy1  1  0.982871  0.824150  0.906033  1
  Dy  Dy2  1  0.484431  0.684197  0.905964  1
  Dy  Dy3  1  0.982871  0.824150  0.593967  1
  Dy  Dy4  1  0.517936  0.316742  0.097782  1
  Dy  Dy5  1  0.017653  0.184818  0.402336  1
  Dy  Dy6  1  0.517936  0.316742  0.402218  1
  Dy  Dy7  1  0.484431  0.684197  0.594036  1
  Y  Y8  1  0.155418  0.524382  0.750000  1
  Y  Y9  1  0.315761  0.172879  0.626481  1
  Y  Y10  1  0.677010  0.823447  0.373061  1
  Y  Y11  1  0.175022  0.680243  0.373023  1
  Y  Y12  1  0.677010  0.823447  0.126939  1
  Y  Y13  1  0.829317  0.316550  0.626159  1
  Y  Y14  1  0.315761  0.172879  0.873519  1
  Y  Y15  1  0.829317  0.316550  0.873841  1
  Y  Y16  1  0.175022  0.680243  0.126977  1
  Sc  Sc17  1  0.839788  0.482064  0.250000  1
  Sc  Sc18  1  0.341127  0.019471  0.250000  1
  Sc  Sc19  1  0.667207  0.984980  0.750000  1
  Si  Si20  1  0.979198  0.910835  0.250000  1
  Si  Si21  1  0.479383  0.591841  0.250000  1
  Si  Si22  1  0.526816  0.400484  0.750000  1
  Si  Si23  1  0.292331  0.869078  0.750000  1
  Si  Si24  1  0.717137  0.136924  0.250000  1
  Si  Si25  1  0.218712  0.364639  0.250000  1
  Si  Si26  1  0.767574  0.632385  0.750000  1
  Si  Si27  1  0.155489  0.471662  0.536454  1
  Si  Si28  1  0.845865  0.528685  0.459513  1
  Si  Si29  1  0.346719  0.971997  0.458867  1
  Si  Si30  1  0.845865  0.528685  0.040487  1
  Si  Si31  1  0.652331  0.029038  0.538839  1
  Si  Si32  1  0.155489  0.471662  0.963546  1
  Si  Si33  1  0.652331  0.029038  0.961161  1
  Si  Si34  1  0.346719  0.971997  0.041133  1
  Rh  Rh35  1  0.014494  0.074097  0.750000  1
