# generated using pymatgen
data_Cs7RbCd4(Sn3Se8)4
_symmetry_space_group_name_H-M   'P 1'
_cell_length_a   8.15253444
_cell_length_b   13.59879137
_cell_length_c   18.98301265
_cell_angle_alpha   89.95033416
_cell_angle_beta   89.96483756
_cell_angle_gamma   90.01281165
_symmetry_Int_Tables_number   1
_chemical_formula_structural   Cs7RbCd4(Sn3Se8)4
_chemical_formula_sum   'Cs7 Rb1 Cd4 Sn12 Se32'
_cell_volume   2104.54314938
_cell_formula_units_Z   1
loop_
 _symmetry_equiv_pos_site_id
 _symmetry_equiv_pos_as_xyz
  1  'x, y, z'
loop_
 _atom_site_type_symbol
 _atom_site_label
 _atom_site_symmetry_multiplicity
 _atom_site_fract_x
 _atom_site_fract_y
 _atom_site_fract_z
 _atom_site_occupancy
  Cs  Cs0  1  0.750528  0.631443  0.051099  1
  Cs  Cs1  1  0.249442  0.131585  0.449001  1
  Cs  Cs2  1  0.250540  0.868621  0.948889  1
  Cs  Cs3  1  0.257282  0.196940  0.840149  1
  Cs  Cs4  1  0.242690  0.803078  0.340268  1
  Cs  Cs5  1  0.757326  0.302980  0.159983  1
  Cs  Cs6  1  0.742692  0.696614  0.659623  1
  Rb  Rb7  1  0.750230  0.366740  0.549949  1
  Cd  Cd8  1  0.517980  0.497848  0.846480  1
  Cd  Cd9  1  0.982336  0.501846  0.347169  1
  Cd  Cd10  1  0.017636  0.001868  0.153107  1
  Cd  Cd11  1  0.482804  0.998543  0.652943  1
  Sn  Sn12  1  0.487093  0.480180  0.347615  1
  Sn  Sn13  1  0.012886  0.519538  0.846870  1
  Sn  Sn14  1  0.986642  0.020146  0.652649  1
  Sn  Sn15  1  0.513056  0.980303  0.152899  1
  Sn  Sn16  1  0.268007  0.434586  0.015308  1
  Sn  Sn17  1  0.231492  0.565392  0.515460  1
  Sn  Sn18  1  0.768132  0.065458  0.984599  1
  Sn  Sn19  1  0.731998  0.934855  0.484709  1
  Sn  Sn20  1  0.264563  0.449550  0.677397  1
  Sn  Sn21  1  0.235569  0.550191  0.177652  1
  Sn  Sn22  1  0.764460  0.050680  0.322597  1
  Sn  Sn23  1  0.735461  0.949710  0.822432  1
  Se  Se24  1  0.525153  0.383686  0.729550  1
  Se  Se25  1  0.976669  0.616555  0.230992  1
  Se  Se26  1  0.023293  0.116753  0.268971  1
  Se  Se27  1  0.476890  0.883464  0.769004  1
  Se  Se28  1  0.006753  0.901459  0.761379  1
  Se  Se29  1  0.492965  0.098775  0.261531  1
  Se  Se30  1  0.507288  0.598432  0.238584  1
  Se  Se31  1  0.992530  0.401428  0.738073  1
  Se  Se32  1  0.733412  0.126489  0.656203  1
  Se  Se33  1  0.766873  0.874770  0.156955  1
  Se  Se34  1  0.233118  0.374793  0.342891  1
  Se  Se35  1  0.266974  0.624949  0.842945  1
  Se  Se36  1  0.236453  0.129956  0.648253  1
  Se  Se37  1  0.263709  0.870102  0.148232  1
  Se  Se38  1  0.736323  0.370031  0.354846  1
  Se  Se39  1  0.763758  0.629882  0.851761  1
  Se  Se40  1  0.029481  0.123471  0.040833  1
  Se  Se41  1  0.470578  0.876628  0.540959  1
  Se  Se42  1  0.529421  0.376540  0.958952  1
  Se  Se43  1  0.969628  0.622935  0.459480  1
  Se  Se44  1  0.001304  0.891702  0.549808  1
  Se  Se45  1  0.498579  0.108419  0.049718  1
  Se  Se46  1  0.501688  0.607923  0.450685  1
  Se  Se47  1  0.998622  0.391594  0.950234  1
  Se  Se48  1  0.231295  0.379637  0.549904  1
  Se  Se49  1  0.266281  0.620186  0.049937  1
  Se  Se50  1  0.733902  0.120658  0.450301  1
  Se  Se51  1  0.766218  0.879825  0.950125  1
  Se  Se52  1  0.237503  0.365298  0.142382  1
  Se  Se53  1  0.262496  0.634625  0.642323  1
  Se  Se54  1  0.737468  0.134709  0.857588  1
  Se  Se55  1  0.762529  0.865633  0.357756  1
