# generated using pymatgen
data_Y3Hf(Al3Rh)6
_symmetry_space_group_name_H-M   'P 1'
_cell_length_a   7.53340224
_cell_length_b   7.51715405
_cell_length_c   9.40259100
_cell_angle_alpha   90.00000000
_cell_angle_beta   90.00000000
_cell_angle_gamma   119.48933891
_symmetry_Int_Tables_number   1
_chemical_formula_structural   Y3Hf(Al3Rh)6
_chemical_formula_sum   'Y3 Hf1 Al18 Rh6'
_cell_volume   463.48388521
_cell_formula_units_Z   1
loop_
 _symmetry_equiv_pos_site_id
 _symmetry_equiv_pos_as_xyz
  1  'x, y, z'
loop_
 _atom_site_type_symbol
 _atom_site_label
 _atom_site_symmetry_multiplicity
 _atom_site_fract_x
 _atom_site_fract_y
 _atom_site_fract_z
 _atom_site_occupancy
  Y  Y0  1  0.006182  0.327563  0.750000  1
  Y  Y1  1  0.672007  0.995566  0.250000  1
  Y  Y2  1  0.328383  0.006469  0.750000  1
  Hf  Hf3  1  0.996192  0.672884  0.250000  1
  Al  Al4  1  0.125477  0.122608  0.250000  1
  Al  Al5  1  0.870982  0.869315  0.750000  1
  Al  Al6  1  0.000063  0.339162  0.079988  1
  Al  Al7  1  0.999467  0.664809  0.929387  1
  Al  Al8  1  0.999467  0.664809  0.570613  1
  Al  Al9  1  0.331908  0.997141  0.420074  1
  Al  Al10  1  0.000063  0.339162  0.420012  1
  Al  Al11  1  0.664329  0.998078  0.574941  1
  Al  Al12  1  0.664329  0.998078  0.925059  1
  Al  Al13  1  0.331908  0.997141  0.079926  1
  Al  Al14  1  0.333827  0.333847  0.546708  1
  Al  Al15  1  0.670002  0.667206  0.443317  1
  Al  Al16  1  0.670002  0.667206  0.056683  1
  Al  Al17  1  0.333827  0.333847  0.953292  1
  Al  Al18  1  0.335204  0.551079  0.250000  1
  Al  Al19  1  0.660768  0.451027  0.750000  1
  Al  Al20  1  0.556936  0.345223  0.250000  1
  Al  Al21  1  0.449635  0.658804  0.750000  1
  Rh  Rh22  1  0.672778  0.328439  0.001634  1
  Rh  Rh23  1  0.327679  0.672458  0.002122  1
  Rh  Rh24  1  0.327679  0.672458  0.497878  1
  Rh  Rh25  1  0.672778  0.328439  0.498366  1
  Rh  Rh26  1  0.999065  0.998588  0.001803  1
  Rh  Rh27  1  0.999065  0.998588  0.498197  1
