# generated using pymatgen
data_Zr6Zn15Pd8S
_symmetry_space_group_name_H-M   'P 1'
_cell_length_a   8.77244390
_cell_length_b   8.77074113
_cell_length_c   8.77194322
_cell_angle_alpha   60.00849396
_cell_angle_beta   59.99558102
_cell_angle_gamma   60.00363318
_symmetry_Int_Tables_number   1
_chemical_formula_structural   Zr6Zn15Pd8S
_chemical_formula_sum   'Zr6 Zn15 Pd8 S1'
_cell_volume   477.26874402
_cell_formula_units_Z   1
loop_
 _symmetry_equiv_pos_site_id
 _symmetry_equiv_pos_as_xyz
  1  'x, y, z'
loop_
 _atom_site_type_symbol
 _atom_site_label
 _atom_site_symmetry_multiplicity
 _atom_site_fract_x
 _atom_site_fract_y
 _atom_site_fract_z
 _atom_site_occupancy
  Zr  Zr0  1  0.712269  0.287728  0.287728  1
  Zr  Zr1  1  0.287733  0.712269  0.712270  1
  Zr  Zr2  1  0.287696  0.712300  0.287697  1
  Zr  Zr3  1  0.712301  0.287701  0.712304  1
  Zr  Zr4  1  0.287647  0.287646  0.712353  1
  Zr  Zr5  1  0.712357  0.712357  0.287646  1
  Zn  Zn6  1  0.499999  0.000000  0.000000  1
  Zn  Zn7  1  0.000000  0.500000  0.500000  1
  Zn  Zn8  1  0.999999  0.499999  0.000001  1
  Zn  Zn9  1  0.500000  0.000000  0.500000  1
  Zn  Zn10  1  0.999999  0.000000  0.500000  1
  Zn  Zn11  1  0.500000  0.499999  0.000001  1
  Zn  Zn12  1  0.332124  0.332034  0.332115  1
  Zn  Zn13  1  0.667875  0.667963  0.667886  1
  Zn  Zn14  1  0.332034  0.332130  0.003715  1
  Zn  Zn15  1  0.332114  0.003730  0.332122  1
  Zn  Zn16  1  0.667970  0.667874  0.996270  1
  Zn  Zn17  1  0.667884  0.996278  0.667875  1
  Zn  Zn18  1  0.003724  0.332117  0.332032  1
  Zn  Zn19  1  0.996280  0.667880  0.667968  1
  Zn  Zn20  1  0.999999  0.999997  0.000004  1
  Pd  Pd21  1  0.120824  0.120698  0.120701  1
  Pd  Pd22  1  0.879175  0.879303  0.879298  1
  Pd  Pd23  1  0.120717  0.120817  0.637774  1
  Pd  Pd24  1  0.120696  0.637772  0.120828  1
  Pd  Pd25  1  0.879280  0.879183  0.362232  1
  Pd  Pd26  1  0.879305  0.362224  0.879172  1
  Pd  Pd27  1  0.637769  0.120691  0.120721  1
  Pd  Pd28  1  0.362229  0.879312  0.879277  1
  S  S29  1  0.499999  0.499996  0.500010  1
