# generated using pymatgen
data_La7NdGaPd24
_symmetry_space_group_name_H-M   'P 1'
_cell_length_a   8.55593005
_cell_length_b   8.55593005
_cell_length_c   8.55593005
_cell_angle_alpha   90.00831690
_cell_angle_beta   90.00831690
_cell_angle_gamma   90.00831690
_symmetry_Int_Tables_number   1
_chemical_formula_structural   La7NdGaPd24
_chemical_formula_sum   'La7 Nd1 Ga1 Pd24'
_cell_volume   626.32776076
_cell_formula_units_Z   1
loop_
 _symmetry_equiv_pos_site_id
 _symmetry_equiv_pos_as_xyz
  1  'x, y, z'
loop_
 _atom_site_type_symbol
 _atom_site_label
 _atom_site_symmetry_multiplicity
 _atom_site_fract_x
 _atom_site_fract_y
 _atom_site_fract_z
 _atom_site_occupancy
  La  La0  1  0.251977  0.251977  0.748028  1
  La  La1  1  0.251977  0.748028  0.251977  1
  La  La2  1  0.748028  0.251977  0.251977  1
  La  La3  1  0.748130  0.748130  0.748130  1
  La  La4  1  0.748009  0.748009  0.251943  1
  La  La5  1  0.748009  0.251943  0.748009  1
  La  La6  1  0.251943  0.748009  0.748009  1
  Nd  Nd7  1  0.251612  0.251612  0.251612  1
  Ga  Ga8  1  0.000115  0.000115  0.000115  1
  Pd  Pd9  1  0.500072  0.500072  0.746440  1
  Pd  Pd10  1  0.499654  0.253574  0.499654  1
  Pd  Pd11  1  0.253574  0.499654  0.499654  1
  Pd  Pd12  1  0.499654  0.499654  0.253574  1
  Pd  Pd13  1  0.500072  0.746440  0.500072  1
  Pd  Pd14  1  0.746440  0.500072  0.500072  1
  Pd  Pd15  1  0.999952  0.999952  0.706297  1
  Pd  Pd16  1  0.000385  0.293654  0.000385  1
  Pd  Pd17  1  0.293654  0.000385  0.000385  1
  Pd  Pd18  1  0.000385  0.000385  0.293654  1
  Pd  Pd19  1  0.999952  0.706297  0.999952  1
  Pd  Pd20  1  0.706297  0.999952  0.999952  1
  Pd  Pd21  1  0.999943  0.500079  0.739298  1
  Pd  Pd22  1  0.499685  0.260723  0.000329  1
  Pd  Pd23  1  0.260723  0.000329  0.499685  1
  Pd  Pd24  1  0.000329  0.260723  0.499685  1
  Pd  Pd25  1  0.500079  0.999943  0.739298  1
  Pd  Pd26  1  0.260723  0.499685  0.000329  1
  Pd  Pd27  1  0.000329  0.499685  0.260723  1
  Pd  Pd28  1  0.500079  0.739298  0.999943  1
  Pd  Pd29  1  0.999943  0.739298  0.500079  1
  Pd  Pd30  1  0.499685  0.000329  0.260723  1
  Pd  Pd31  1  0.739298  0.999943  0.500079  1
  Pd  Pd32  1  0.739298  0.500079  0.999943  1
