# generated using pymatgen
data_Ho3Tm7Cd3Re
_symmetry_space_group_name_H-M   'P 1'
_cell_length_a   9.47265700
_cell_length_b   9.47265623
_cell_length_c   9.90000800
_cell_angle_alpha   90.00000000
_cell_angle_beta   90.00000000
_cell_angle_gamma   119.99999921
_symmetry_Int_Tables_number   1
_chemical_formula_structural   Ho3Tm7Cd3Re
_chemical_formula_sum   'Ho6 Tm14 Cd6 Re2'
_cell_volume   769.32486504
_cell_formula_units_Z   2
loop_
 _symmetry_equiv_pos_site_id
 _symmetry_equiv_pos_as_xyz
  1  'x, y, z'
loop_
 _atom_site_type_symbol
 _atom_site_label
 _atom_site_symmetry_multiplicity
 _atom_site_fract_x
 _atom_site_fract_y
 _atom_site_fract_z
 _atom_site_occupancy
  Ho  Ho0  1  0.537140  0.462860  0.250000  1
  Ho  Ho1  1  0.537140  0.074282  0.250000  1
  Ho  Ho2  1  0.925718  0.462860  0.250000  1
  Ho  Ho3  1  0.462860  0.537140  0.750000  1
  Ho  Ho4  1  0.462860  0.925718  0.750000  1
  Ho  Ho5  1  0.074282  0.537140  0.750000  1
  Tm  Tm6  1  0.000000  0.000000  0.500000  1
  Tm  Tm7  1  0.000000  0.000000  0.000000  1
  Tm  Tm8  1  0.210008  0.789992  0.443109  1
  Tm  Tm9  1  0.210008  0.420017  0.443109  1
  Tm  Tm10  1  0.579983  0.789992  0.443109  1
  Tm  Tm11  1  0.789992  0.210008  0.556891  1
  Tm  Tm12  1  0.789992  0.579983  0.556891  1
  Tm  Tm13  1  0.420017  0.210008  0.556891  1
  Tm  Tm14  1  0.789992  0.210008  0.943109  1
  Tm  Tm15  1  0.789992  0.579983  0.943109  1
  Tm  Tm16  1  0.420017  0.210008  0.943109  1
  Tm  Tm17  1  0.210008  0.789992  0.056891  1
  Tm  Tm18  1  0.210008  0.420017  0.056891  1
  Tm  Tm19  1  0.579983  0.789992  0.056891  1
  Cd  Cd20  1  0.886508  0.113492  0.250000  1
  Cd  Cd21  1  0.886508  0.773016  0.250000  1
  Cd  Cd22  1  0.226984  0.113492  0.250000  1
  Cd  Cd23  1  0.113492  0.886508  0.750000  1
  Cd  Cd24  1  0.113492  0.226984  0.750000  1
  Cd  Cd25  1  0.773016  0.886508  0.750000  1
  Re  Re26  1  0.333333  0.666667  0.250000  1
  Re  Re27  1  0.666667  0.333333  0.750000  1
