# generated using pymatgen
data_Nb4(CoSe4)3
_symmetry_space_group_name_H-M   'P 1'
_cell_length_a   7.37261487
_cell_length_b   7.37261507
_cell_length_c   19.31306358
_cell_angle_alpha   69.55920722
_cell_angle_beta   69.55920663
_cell_angle_gamma   26.65981853
_symmetry_Int_Tables_number   1
_chemical_formula_structural   Nb4(CoSe4)3
_chemical_formula_sum   'Nb4 Co3 Se12'
_cell_volume   439.64083991
_cell_formula_units_Z   1
loop_
 _symmetry_equiv_pos_site_id
 _symmetry_equiv_pos_as_xyz
  1  'x, y, z'
loop_
 _atom_site_type_symbol
 _atom_site_label
 _atom_site_symmetry_multiplicity
 _atom_site_fract_x
 _atom_site_fract_y
 _atom_site_fract_z
 _atom_site_occupancy
  Nb  Nb0  1  0.740370  0.740370  0.593391  1
  Nb  Nb1  1  0.259630  0.259630  0.406609  1
  Nb  Nb2  1  0.615744  0.615744  0.855042  1
  Nb  Nb3  1  0.384256  0.384256  0.144958  1
  Co  Co4  1  0.775951  0.775951  0.278977  1
  Co  Co5  1  0.224049  0.224049  0.721023  1
  Co  Co6  1  0.000000  0.000000  0.000000  1
  Se  Se7  1  0.866755  0.866755  0.451669  1
  Se  Se8  1  0.033612  0.033612  0.109453  1
  Se  Se9  1  0.798528  0.798528  0.769455  1
  Se  Se10  1  0.396681  0.396681  0.277236  1
  Se  Se11  1  0.173474  0.173474  0.934853  1
  Se  Se12  1  0.603319  0.603319  0.722764  1
  Se  Se13  1  0.133245  0.133245  0.548331  1
  Se  Se14  1  0.826526  0.826526  0.065147  1
  Se  Se15  1  0.365818  0.365818  0.610595  1
  Se  Se16  1  0.966388  0.966388  0.890547  1
  Se  Se17  1  0.201472  0.201472  0.230545  1
  Se  Se18  1  0.634182  0.634182  0.389405  1
