# generated using pymatgen
data_Sc4Si2B4RuRh9
_symmetry_space_group_name_H-M   'P 1'
_cell_length_a   9.23379577
_cell_length_b   9.23379577
_cell_length_c   3.07481000
_cell_angle_alpha   90.00000000
_cell_angle_beta   90.00000000
_cell_angle_gamma   90.26002730
_symmetry_Int_Tables_number   1
_chemical_formula_structural   Sc4Si2B4RuRh9
_chemical_formula_sum   'Sc4 Si2 B4 Ru1 Rh9'
_cell_volume   262.16477713
_cell_formula_units_Z   1
loop_
 _symmetry_equiv_pos_site_id
 _symmetry_equiv_pos_as_xyz
  1  'x, y, z'
loop_
 _atom_site_type_symbol
 _atom_site_label
 _atom_site_symmetry_multiplicity
 _atom_site_fract_x
 _atom_site_fract_y
 _atom_site_fract_z
 _atom_site_occupancy
  Sc  Sc0  1  0.672843  0.172842  0.000000  1
  Sc  Sc1  1  0.174489  0.325510  0.000000  1
  Sc  Sc2  1  0.825510  0.674490  0.000000  1
  Sc  Sc3  1  0.327157  0.827157  0.000000  1
  Si  Si4  1  0.000000  0.000000  0.000000  1
  Si  Si5  1  0.500000  0.500000  0.000000  1
  B  B6  1  0.377180  0.122821  0.000000  1
  B  B7  1  0.876124  0.376126  0.000000  1
  B  B8  1  0.123875  0.623874  0.000000  1
  B  B9  1  0.622820  0.877178  0.000000  1
  Ru  Ru10  1  0.500000  0.000000  0.500000  1
  Rh  Rh11  1  0.210304  0.071995  0.500000  1
  Rh  Rh12  1  0.928766  0.212194  0.500000  1
  Rh  Rh13  1  0.428005  0.289696  0.500000  1
  Rh  Rh14  1  0.712193  0.428766  0.500000  1
  Rh  Rh15  1  0.000000  0.500000  0.500000  1
  Rh  Rh16  1  0.287806  0.571233  0.500000  1
  Rh  Rh17  1  0.571994  0.710303  0.500000  1
  Rh  Rh18  1  0.071234  0.787805  0.500000  1
  Rh  Rh19  1  0.789695  0.928005  0.500000  1
