# generated using pymatgen
data_Nd16CdHg3Ir3Pt
_symmetry_space_group_name_H-M   'P 1'
_cell_length_a   9.94201880
_cell_length_b   9.95684907
_cell_length_c   9.95684916
_cell_angle_alpha   60.20885164
_cell_angle_beta   60.21173435
_cell_angle_gamma   60.21173723
_symmetry_Int_Tables_number   1
_chemical_formula_structural   Nd16CdHg3Ir3Pt
_chemical_formula_sum   'Nd16 Cd1 Hg3 Ir3 Pt1'
_cell_volume   700.27903900
_cell_formula_units_Z   1
loop_
 _symmetry_equiv_pos_site_id
 _symmetry_equiv_pos_as_xyz
  1  'x, y, z'
loop_
 _atom_site_type_symbol
 _atom_site_label
 _atom_site_symmetry_multiplicity
 _atom_site_fract_x
 _atom_site_fract_y
 _atom_site_fract_z
 _atom_site_occupancy
  Nd  Nd0  1  0.347988  0.347862  0.347862  1
  Nd  Nd1  1  0.352981  0.352623  0.948390  1
  Nd  Nd2  1  0.352981  0.948390  0.352623  1
  Nd  Nd3  1  0.946612  0.353319  0.353319  1
  Nd  Nd4  1  0.805302  0.190924  0.190924  1
  Nd  Nd5  1  0.187586  0.809609  0.809609  1
  Nd  Nd6  1  0.189843  0.806165  0.190500  1
  Nd  Nd7  1  0.808632  0.188832  0.808876  1
  Nd  Nd8  1  0.189843  0.190500  0.806165  1
  Nd  Nd9  1  0.808632  0.808876  0.188832  1
  Nd  Nd10  1  0.939792  0.562151  0.562151  1
  Nd  Nd11  1  0.560957  0.939348  0.939348  1
  Nd  Nd12  1  0.561319  0.940968  0.561946  1
  Nd  Nd13  1  0.938622  0.561227  0.939355  1
  Nd  Nd14  1  0.561319  0.561946  0.940968  1
  Nd  Nd15  1  0.938622  0.939355  0.561227  1
  Cd  Cd16  1  0.260372  0.579544  0.579544  1
  Hg  Hg17  1  0.582948  0.584978  0.584978  1
  Hg  Hg18  1  0.582889  0.585165  0.247134  1
  Hg  Hg19  1  0.582889  0.247134  0.585165  1
  Ir  Ir20  1  0.141571  0.141979  0.573750  1
  Ir  Ir21  1  0.141571  0.573750  0.141979  1
  Ir  Ir22  1  0.573797  0.141871  0.141871  1
  Pt  Pt23  1  0.142928  0.143481  0.143481  1
