# generated using pymatgen
data_Ca3As4Pd7
_symmetry_space_group_name_H-M   'P 1'
_cell_length_a   8.21900754
_cell_length_b   8.21900849
_cell_length_c   9.63051702
_cell_angle_alpha   55.82044727
_cell_angle_beta   55.82044349
_cell_angle_gamma   29.48712623
_symmetry_Int_Tables_number   1
_chemical_formula_structural   Ca3As4Pd7
_chemical_formula_sum   'Ca3 As4 Pd7'
_cell_volume   260.65135840
_cell_formula_units_Z   1
loop_
 _symmetry_equiv_pos_site_id
 _symmetry_equiv_pos_as_xyz
  1  'x, y, z'
loop_
 _atom_site_type_symbol
 _atom_site_label
 _atom_site_symmetry_multiplicity
 _atom_site_fract_x
 _atom_site_fract_y
 _atom_site_fract_z
 _atom_site_occupancy
  Ca  Ca0  1  0.673415  0.673415  0.828992  1
  Ca  Ca1  1  0.326585  0.326585  0.171008  1
  Ca  Ca2  1  0.000000  0.000000  0.500000  1
  As  As3  1  0.334731  0.334731  0.766191  1
  As  As4  1  0.665269  0.665269  0.233809  1
  As  As5  1  0.106189  0.106189  0.676936  1
  As  As6  1  0.893811  0.893811  0.323064  1
  Pd  Pd7  1  0.696148  0.696148  0.469077  1
  Pd  Pd8  1  0.510734  0.510734  0.216432  1
  Pd  Pd9  1  0.172768  0.172768  0.077180  1
  Pd  Pd10  1  0.303852  0.303852  0.530923  1
  Pd  Pd11  1  0.827232  0.827232  0.922820  1
  Pd  Pd12  1  0.000000  0.000000  0.000000  1
  Pd  Pd13  1  0.489266  0.489266  0.783568  1
