# generated using pymatgen
data_TbHo2Zn(Ga4Pd)2
_symmetry_space_group_name_H-M   'P 1'
_cell_length_a   8.14304952
_cell_length_b   8.14304942
_cell_length_c   8.14304918
_cell_angle_alpha   149.18134440
_cell_angle_beta   108.94311053
_cell_angle_gamma   79.43083490
_symmetry_Int_Tables_number   1
_chemical_formula_structural   TbHo2Zn(Ga4Pd)2
_chemical_formula_sum   'Tb1 Ho2 Zn1 Ga8 Pd2'
_cell_volume   256.53412435
_cell_formula_units_Z   1
loop_
 _symmetry_equiv_pos_site_id
 _symmetry_equiv_pos_as_xyz
  1  'x, y, z'
loop_
 _atom_site_type_symbol
 _atom_site_label
 _atom_site_symmetry_multiplicity
 _atom_site_fract_x
 _atom_site_fract_y
 _atom_site_fract_z
 _atom_site_occupancy
  Tb  Tb0  1  0.500000  0.500000  0.000000  1
  Ho  Ho1  1  0.200605  0.200605  0.000000  1
  Ho  Ho2  1  0.799395  0.799395  0.000000  1
  Zn  Zn3  1  0.000000  0.500000  0.500000  1
  Ga  Ga4  1  0.647819  0.363425  0.284394  1
  Ga  Ga5  1  0.352181  0.636575  0.715606  1
  Ga  Ga6  1  0.079031  0.363425  0.715606  1
  Ga  Ga7  1  0.920969  0.636575  0.284394  1
  Ga  Ga8  1  0.521976  0.156290  0.365686  1
  Ga  Ga9  1  0.478024  0.843710  0.634314  1
  Ga  Ga10  1  0.790604  0.156290  0.634314  1
  Ga  Ga11  1  0.209396  0.843710  0.365686  1
  Pd  Pd12  1  0.182890  0.000000  0.182890  1
  Pd  Pd13  1  0.817110  0.000000  0.817110  1
