# generated using pymatgen
data_Yb2MnB2Rh5
_symmetry_space_group_name_H-M   'P 1'
_cell_length_a   9.62040000
_cell_length_b   9.62040000
_cell_length_c   3.00782200
_cell_angle_alpha   90.00000000
_cell_angle_beta   90.00000000
_cell_angle_gamma   90.00000000
_symmetry_Int_Tables_number   1
_chemical_formula_structural   Yb2MnB2Rh5
_chemical_formula_sum   'Yb4 Mn2 B4 Rh10'
_cell_volume   278.38023098
_cell_formula_units_Z   2
loop_
 _symmetry_equiv_pos_site_id
 _symmetry_equiv_pos_as_xyz
  1  'x, y, z'
loop_
 _atom_site_type_symbol
 _atom_site_label
 _atom_site_symmetry_multiplicity
 _atom_site_fract_x
 _atom_site_fract_y
 _atom_site_fract_z
 _atom_site_occupancy
  Yb  Yb0  1  0.824179  0.324179  0.000000  1
  Yb  Yb1  1  0.324179  0.175821  0.000000  1
  Yb  Yb2  1  0.675821  0.824179  0.000000  1
  Yb  Yb3  1  0.175821  0.675821  0.000000  1
  Mn  Mn4  1  0.000000  0.000000  0.000000  1
  Mn  Mn5  1  0.500000  0.500000  0.000000  1
  B  B6  1  0.624046  0.124046  0.000000  1
  B  B7  1  0.124046  0.375954  0.000000  1
  B  B8  1  0.875954  0.624046  0.000000  1
  B  B9  1  0.375954  0.875954  0.000000  1
  Rh  Rh10  1  0.070168  0.220685  0.500000  1
  Rh  Rh11  1  0.220685  0.929832  0.500000  1
  Rh  Rh12  1  0.779315  0.070168  0.500000  1
  Rh  Rh13  1  0.929832  0.779315  0.500000  1
  Rh  Rh14  1  0.429832  0.720685  0.500000  1
  Rh  Rh15  1  0.570168  0.279315  0.500000  1
  Rh  Rh16  1  0.720685  0.570168  0.500000  1
  Rh  Rh17  1  0.279315  0.429832  0.500000  1
  Rh  Rh18  1  0.500000  0.000000  0.500000  1
  Rh  Rh19  1  0.000000  0.500000  0.500000  1
