# generated using pymatgen
data_DyY3Ho2Ta2O14
_symmetry_space_group_name_H-M   'P 1'
_cell_length_a   6.50127547
_cell_length_b   6.50504754
_cell_length_c   7.46375701
_cell_angle_alpha   89.97672449
_cell_angle_beta   89.97693318
_cell_angle_gamma   108.43567365
_symmetry_Int_Tables_number   1
_chemical_formula_structural   DyY3Ho2Ta2O14
_chemical_formula_sum   'Dy1 Y3 Ho2 Ta2 O14'
_cell_volume   299.45105964
_cell_formula_units_Z   1
loop_
 _symmetry_equiv_pos_site_id
 _symmetry_equiv_pos_as_xyz
  1  'x, y, z'
loop_
 _atom_site_type_symbol
 _atom_site_label
 _atom_site_symmetry_multiplicity
 _atom_site_fract_x
 _atom_site_fract_y
 _atom_site_fract_z
 _atom_site_occupancy
  Dy  Dy0  1  0.535330  0.000087  0.759113  1
  Y  Y1  1  0.461587  0.461010  0.000563  1
  Y  Y2  1  0.538985  0.538461  0.499436  1
  Y  Y3  1  0.000374  0.464960  0.740872  1
  Ho  Ho4  1  0.000255  0.535376  0.240662  1
  Ho  Ho5  1  0.464692  0.999734  0.259320  1
  Ta  Ta6  1  0.002186  0.002192  0.499365  1
  Ta  Ta7  1  0.997679  0.997630  0.000657  1
  O  O8  1  0.931849  0.067554  0.750019  1
  O  O9  1  0.639679  0.359643  0.749967  1
  O  O10  1  0.306934  0.048167  0.544523  1
  O  O11  1  0.951654  0.693434  0.956031  1
  O  O12  1  0.629620  0.370348  0.249995  1
  O  O13  1  0.917953  0.672000  0.522952  1
  O  O14  1  0.328343  0.081823  0.976521  1
  O  O15  1  0.081719  0.328104  0.025400  1
  O  O16  1  0.671770  0.918478  0.474898  1
  O  O17  1  0.371139  0.629128  0.749987  1
  O  O18  1  0.693998  0.954379  0.046791  1
  O  O19  1  0.045732  0.305793  0.452904  1
  O  O20  1  0.358720  0.641346  0.250007  1
  O  O21  1  0.069803  0.930351  0.250016  1
