# generated using pymatgen
data_YbCoTeO6
_symmetry_space_group_name_H-M   'P 1'
_cell_length_a   5.04018894
_cell_length_b   5.06496260
_cell_length_c   10.05401458
_cell_angle_alpha   90.10626015
_cell_angle_beta   89.94772041
_cell_angle_gamma   120.15583629
_symmetry_Int_Tables_number   1
_chemical_formula_structural   YbCoTeO6
_chemical_formula_sum   'Yb2 Co2 Te2 O12'
_cell_volume   221.92607626
_cell_formula_units_Z   2
loop_
 _symmetry_equiv_pos_site_id
 _symmetry_equiv_pos_as_xyz
  1  'x, y, z'
loop_
 _atom_site_type_symbol
 _atom_site_label
 _atom_site_symmetry_multiplicity
 _atom_site_fract_x
 _atom_site_fract_y
 _atom_site_fract_z
 _atom_site_occupancy
  Yb  Yb0  1  0.999923  0.999959  0.000010  1
  Yb  Yb1  1  0.999943  0.000011  0.499990  1
  Co  Co2  1  0.337456  0.668777  0.250000  1
  Co  Co3  1  0.662123  0.331054  0.749999  1
  Te  Te4  1  0.665085  0.332478  0.250001  1
  Te  Te5  1  0.334920  0.667469  0.750000  1
  O  O6  1  0.363427  0.992149  0.143850  1
  O  O7  1  0.627301  0.637946  0.144435  1
  O  O8  1  0.007100  0.369281  0.144836  1
  O  O9  1  0.007211  0.637920  0.355134  1
  O  O10  1  0.627150  0.989346  0.355621  1
  O  O11  1  0.363395  0.371117  0.356124  1
  O  O12  1  0.636379  0.628823  0.643787  1
  O  O13  1  0.373130  0.011099  0.644394  1
  O  O14  1  0.993010  0.362285  0.644894  1
  O  O15  1  0.992976  0.630714  0.855105  1
  O  O16  1  0.373113  0.362030  0.855605  1
  O  O17  1  0.636357  0.007540  0.856213  1
