# generated using pymatgen
data_Hf3BeAl3Pd2
_symmetry_space_group_name_H-M   'P 1'
_cell_length_a   6.60765600
_cell_length_b   6.60765554
_cell_length_c   4.00838200
_cell_angle_alpha   90.00000000
_cell_angle_beta   90.00000000
_cell_angle_gamma   119.99999230
_symmetry_Int_Tables_number   1
_chemical_formula_structural   Hf3BeAl3Pd2
_chemical_formula_sum   'Hf3 Be1 Al3 Pd2'
_cell_volume   151.56348706
_cell_formula_units_Z   1
loop_
 _symmetry_equiv_pos_site_id
 _symmetry_equiv_pos_as_xyz
  1  'x, y, z'
loop_
 _atom_site_type_symbol
 _atom_site_label
 _atom_site_symmetry_multiplicity
 _atom_site_fract_x
 _atom_site_fract_y
 _atom_site_fract_z
 _atom_site_occupancy
  Hf  Hf0  1  0.417429  0.989428  0.000000  1
  Hf  Hf1  1  0.010572  0.428000  0.000000  1
  Hf  Hf2  1  0.572000  0.582571  0.000000  1
  Be  Be3  1  0.333333  0.666667  0.500000  1
  Al  Al4  1  0.744512  0.991829  0.500000  1
  Al  Al5  1  0.008171  0.752682  0.500000  1
  Al  Al6  1  0.247318  0.255488  0.500000  1
  Pd  Pd7  1  0.666667  0.333333  0.500000  1
  Pd  Pd8  1  0.000000  0.000000  0.000000  1
