# generated using pymatgen
data_UZnCo2P
_symmetry_space_group_name_H-M   'P 1'
_cell_length_a   3.68235300
_cell_length_b   3.68235300
_cell_length_c   10.60430500
_cell_angle_alpha   90.00000000
_cell_angle_beta   90.00000000
_cell_angle_gamma   90.00000000
_symmetry_Int_Tables_number   1
_chemical_formula_structural   UZnCo2P
_chemical_formula_sum   'U2 Zn2 Co4 P2'
_cell_volume   143.79144495
_cell_formula_units_Z   2
loop_
 _symmetry_equiv_pos_site_id
 _symmetry_equiv_pos_as_xyz
  1  'x, y, z'
loop_
 _atom_site_type_symbol
 _atom_site_label
 _atom_site_symmetry_multiplicity
 _atom_site_fract_x
 _atom_site_fract_y
 _atom_site_fract_z
 _atom_site_occupancy
  U  U0  1  0.500000  0.000000  0.257861  1
  U  U1  1  0.000000  0.500000  0.742139  1
  Zn  Zn2  1  0.500000  0.500000  0.000000  1
  Zn  Zn3  1  0.000000  0.000000  0.000000  1
  Co  Co4  1  0.000000  0.500000  0.173448  1
  Co  Co5  1  0.500000  0.000000  0.826552  1
  Co  Co6  1  0.000000  0.000000  0.500000  1
  Co  Co7  1  0.500000  0.500000  0.500000  1
  P  P8  1  0.000000  0.500000  0.383546  1
  P  P9  1  0.500000  0.000000  0.616454  1
