# generated using pymatgen
data_LaPr3(GaRh)4
_symmetry_space_group_name_H-M   'P 1'
_cell_length_a   4.42781700
_cell_length_b   7.11953112
_cell_length_c   7.94355727
_cell_angle_alpha   89.67085173
_cell_angle_beta   90.00000000
_cell_angle_gamma   90.00000000
_symmetry_Int_Tables_number   1
_chemical_formula_structural   LaPr3(GaRh)4
_chemical_formula_sum   'La1 Pr3 Ga4 Rh4'
_cell_volume   250.40841582
_cell_formula_units_Z   1
loop_
 _symmetry_equiv_pos_site_id
 _symmetry_equiv_pos_as_xyz
  1  'x, y, z'
loop_
 _atom_site_type_symbol
 _atom_site_label
 _atom_site_symmetry_multiplicity
 _atom_site_fract_x
 _atom_site_fract_y
 _atom_site_fract_z
 _atom_site_occupancy
  La  La0  1  0.250000  0.026742  0.689773  1
  Pr  Pr1  1  0.250000  0.525386  0.808030  1
  Pr  Pr2  1  0.750000  0.974010  0.305433  1
  Pr  Pr3  1  0.750000  0.474655  0.192400  1
  Ga  Ga4  1  0.250000  0.160177  0.075551  1
  Ga  Ga5  1  0.250000  0.657179  0.425786  1
  Ga  Ga6  1  0.750000  0.838143  0.926770  1
  Ga  Ga7  1  0.750000  0.344556  0.573208  1
  Rh  Rh8  1  0.250000  0.279084  0.399164  1
  Rh  Rh9  1  0.250000  0.780398  0.102993  1
  Rh  Rh10  1  0.750000  0.721461  0.603401  1
  Rh  Rh11  1  0.750000  0.218210  0.897490  1
