# generated using pymatgen
data_SrCdGa2Au3
_symmetry_space_group_name_H-M   'P 1'
_cell_length_a   4.48517400
_cell_length_b   7.74918700
_cell_length_c   8.84979500
_cell_angle_alpha   90.00000000
_cell_angle_beta   90.00000000
_cell_angle_gamma   90.00000000
_symmetry_Int_Tables_number   1
_chemical_formula_structural   SrCdGa2Au3
_chemical_formula_sum   'Sr2 Cd2 Ga4 Au6'
_cell_volume   307.58747560
_cell_formula_units_Z   2
loop_
 _symmetry_equiv_pos_site_id
 _symmetry_equiv_pos_as_xyz
  1  'x, y, z'
loop_
 _atom_site_type_symbol
 _atom_site_label
 _atom_site_symmetry_multiplicity
 _atom_site_fract_x
 _atom_site_fract_y
 _atom_site_fract_z
 _atom_site_occupancy
  Sr  Sr0  1  0.500000  0.000000  0.737794  1
  Sr  Sr1  1  0.000000  0.500000  0.262206  1
  Cd  Cd2  1  0.000000  0.000000  0.364745  1
  Cd  Cd3  1  0.500000  0.500000  0.635255  1
  Ga  Ga4  1  0.000000  0.315434  0.890938  1
  Ga  Ga5  1  0.500000  0.184566  0.109062  1
  Ga  Ga6  1  0.000000  0.684566  0.890938  1
  Ga  Ga7  1  0.500000  0.815434  0.109062  1
  Au  Au8  1  0.000000  0.730919  0.602139  1
  Au  Au9  1  0.500000  0.769081  0.397861  1
  Au  Au10  1  0.500000  0.500000  0.968706  1
  Au  Au11  1  0.000000  0.000000  0.031294  1
  Au  Au12  1  0.500000  0.230919  0.397861  1
  Au  Au13  1  0.000000  0.269081  0.602139  1
