# generated using pymatgen
data_Lu2Al2NiRu
_symmetry_space_group_name_H-M   'P 1'
_cell_length_a   4.05502900
_cell_length_b   6.71466700
_cell_length_c   7.85326400
_cell_angle_alpha   90.00000000
_cell_angle_beta   90.00000000
_cell_angle_gamma   90.00000000
_symmetry_Int_Tables_number   1
_chemical_formula_structural   Lu2Al2NiRu
_chemical_formula_sum   'Lu4 Al4 Ni2 Ru2'
_cell_volume   213.83000262
_cell_formula_units_Z   2
loop_
 _symmetry_equiv_pos_site_id
 _symmetry_equiv_pos_as_xyz
  1  'x, y, z'
loop_
 _atom_site_type_symbol
 _atom_site_label
 _atom_site_symmetry_multiplicity
 _atom_site_fract_x
 _atom_site_fract_y
 _atom_site_fract_z
 _atom_site_occupancy
  Lu  Lu0  1  0.250000  0.031068  0.822028  1
  Lu  Lu1  1  0.250000  0.531068  0.677972  1
  Lu  Lu2  1  0.750000  0.966587  0.175920  1
  Lu  Lu3  1  0.750000  0.466587  0.324080  1
  Al  Al4  1  0.250000  0.140790  0.447226  1
  Al  Al5  1  0.250000  0.640790  0.052774  1
  Al  Al6  1  0.750000  0.862905  0.561811  1
  Al  Al7  1  0.750000  0.362905  0.938189  1
  Ni  Ni8  1  0.750000  0.233169  0.631472  1
  Ni  Ni9  1  0.750000  0.733169  0.868528  1
  Ru  Ru10  1  0.250000  0.765482  0.375019  1
  Ru  Ru11  1  0.250000  0.265482  0.124981  1
