# generated using pymatgen
data_Ba4Li2Mo2O11
_symmetry_space_group_name_H-M   'P 1'
_cell_length_a   5.88170202
_cell_length_b   5.88170171
_cell_length_c   8.43128600
_cell_angle_alpha   90.00000000
_cell_angle_beta   90.00000000
_cell_angle_gamma   90.75695614
_symmetry_Int_Tables_number   1
_chemical_formula_structural   Ba4Li2Mo2O11
_chemical_formula_sum   'Ba4 Li2 Mo2 O11'
_cell_volume   291.64996794
_cell_formula_units_Z   1
loop_
 _symmetry_equiv_pos_site_id
 _symmetry_equiv_pos_as_xyz
  1  'x, y, z'
loop_
 _atom_site_type_symbol
 _atom_site_label
 _atom_site_symmetry_multiplicity
 _atom_site_fract_x
 _atom_site_fract_y
 _atom_site_fract_z
 _atom_site_occupancy
  Ba  Ba0  1  0.011855  0.481411  0.274823  1
  Ba  Ba1  1  0.011855  0.481411  0.725177  1
  Ba  Ba2  1  0.518589  0.988145  0.274823  1
  Ba  Ba3  1  0.518589  0.988145  0.725177  1
  Li  Li4  1  0.505521  0.494479  0.500000  1
  Li  Li5  1  0.958823  0.041177  0.000000  1
  Mo  Mo6  1  0.514050  0.485950  0.000000  1
  Mo  Mo7  1  0.016544  0.983456  0.500000  1
  O  O8  1  0.247608  0.752391  0.500000  1
  O  O9  1  0.780894  0.219106  0.500000  1
  O  O10  1  0.774697  0.753885  0.500000  1
  O  O11  1  0.246115  0.225303  0.500000  1
  O  O12  1  0.018081  0.981919  0.262709  1
  O  O13  1  0.018081  0.981919  0.737291  1
  O  O14  1  0.500230  0.499770  0.771457  1
  O  O15  1  0.500230  0.499770  0.228543  1
  O  O16  1  0.733080  0.266920  0.000000  1
  O  O17  1  0.624559  0.785665  0.000000  1
  O  O18  1  0.214335  0.375441  0.000000  1
