# generated using pymatgen
data_Tb7Dy3(Si2Ir)2
_symmetry_space_group_name_H-M   'P 1'
_cell_length_a   7.55585409
_cell_length_b   8.76328544
_cell_length_c   11.95801247
_cell_angle_alpha   89.96793825
_cell_angle_beta   89.99802201
_cell_angle_gamma   90.01721165
_symmetry_Int_Tables_number   1
_chemical_formula_structural   Tb7Dy3(Si2Ir)2
_chemical_formula_sum   'Tb14 Dy6 Si8 Ir4'
_cell_volume   791.78894644
_cell_formula_units_Z   2
loop_
 _symmetry_equiv_pos_site_id
 _symmetry_equiv_pos_as_xyz
  1  'x, y, z'
loop_
 _atom_site_type_symbol
 _atom_site_label
 _atom_site_symmetry_multiplicity
 _atom_site_fract_x
 _atom_site_fract_y
 _atom_site_fract_z
 _atom_site_occupancy
  Tb  Tb0  1  0.671704  0.749886  0.720017  1
  Tb  Tb1  1  0.328296  0.250114  0.279983  1
  Tb  Tb2  1  0.171509  0.250035  0.780179  1
  Tb  Tb3  1  0.828491  0.749965  0.219821  1
  Tb  Tb4  1  0.147705  0.749977  0.796589  1
  Tb  Tb5  1  0.852295  0.250023  0.203411  1
  Tb  Tb6  1  0.647913  0.250192  0.703622  1
  Tb  Tb7  1  0.352087  0.749808  0.296378  1
  Tb  Tb8  1  0.535807  0.750032  0.997785  1
  Tb  Tb9  1  0.464193  0.249968  0.002215  1
  Tb  Tb10  1  0.035579  0.250079  0.502167  1
  Tb  Tb11  1  0.964421  0.749921  0.497833  1
  Tb  Tb12  1  0.682368  0.033607  0.422432  1
  Tb  Tb13  1  0.317632  0.966393  0.577568  1
  Dy  Dy14  1  0.817932  0.466346  0.922416  1
  Dy  Dy15  1  0.182068  0.533654  0.077584  1
  Dy  Dy16  1  0.318047  0.533629  0.577579  1
  Dy  Dy17  1  0.182072  0.966330  0.077578  1
  Dy  Dy18  1  0.681953  0.466371  0.422421  1
  Dy  Dy19  1  0.817928  0.033670  0.922422  1
  Si  Si20  1  0.940051  0.004106  0.669706  1
  Si  Si21  1  0.059949  0.995894  0.330294  1
  Si  Si22  1  0.440310  0.996013  0.830474  1
  Si  Si23  1  0.059755  0.504024  0.330367  1
  Si  Si24  1  0.559690  0.003987  0.169526  1
  Si  Si25  1  0.940245  0.495976  0.669633  1
  Si  Si26  1  0.559745  0.495973  0.169626  1
  Si  Si27  1  0.440255  0.504027  0.830374  1
  Ir  Ir28  1  0.930230  0.750000  0.989686  1
  Ir  Ir29  1  0.069770  0.250000  0.010314  1
  Ir  Ir30  1  0.429985  0.250422  0.510453  1
  Ir  Ir31  1  0.570015  0.749578  0.489547  1
