# generated using pymatgen
data_Sr6SmFe(BO3)6
_symmetry_space_group_name_H-M   'P 1'
_cell_length_a   7.81108417
_cell_length_b   7.81108396
_cell_length_c   7.81108407
_cell_angle_alpha   105.29766948
_cell_angle_beta   105.29766106
_cell_angle_gamma   105.29766806
_symmetry_Int_Tables_number   1
_chemical_formula_structural   Sr6SmFe(BO3)6
_chemical_formula_sum   'Sr6 Sm1 Fe1 B6 O18'
_cell_volume   413.94991060
_cell_formula_units_Z   1
loop_
 _symmetry_equiv_pos_site_id
 _symmetry_equiv_pos_as_xyz
  1  'x, y, z'
loop_
 _atom_site_type_symbol
 _atom_site_label
 _atom_site_symmetry_multiplicity
 _atom_site_fract_x
 _atom_site_fract_y
 _atom_site_fract_z
 _atom_site_occupancy
  Sr  Sr0  1  0.648299  0.267644  0.162555  1
  Sr  Sr1  1  0.162555  0.648299  0.267644  1
  Sr  Sr2  1  0.732355  0.837446  0.351701  1
  Sr  Sr3  1  0.267645  0.162554  0.648299  1
  Sr  Sr4  1  0.837446  0.351701  0.732356  1
  Sr  Sr5  1  0.351701  0.732356  0.837445  1
  Sm  Sm6  1  0.000000  0.000000  0.000000  1
  Fe  Fe7  1  0.500000  0.500000  0.500000  1
  B  B8  1  0.298531  0.381307  0.047641  1
  B  B9  1  0.381306  0.047641  0.298531  1
  B  B10  1  0.047641  0.298531  0.381306  1
  B  B11  1  0.952359  0.701470  0.618694  1
  B  B12  1  0.618694  0.952360  0.701469  1
  B  B13  1  0.701470  0.618694  0.952360  1
  O  O14  1  0.720825  0.809873  0.015888  1
  O  O15  1  0.803730  0.545760  0.066250  1
  O  O16  1  0.984112  0.279175  0.190125  1
  O  O17  1  0.454239  0.933750  0.196269  1
  O  O18  1  0.431421  0.500576  0.228497  1
  O  O19  1  0.190126  0.984112  0.279174  1
  O  O20  1  0.500575  0.228497  0.431421  1
  O  O21  1  0.933750  0.196269  0.454240  1
  O  O22  1  0.228497  0.431421  0.500576  1
  O  O23  1  0.771503  0.568579  0.499425  1
  O  O24  1  0.066250  0.803730  0.545760  1
  O  O25  1  0.499425  0.771503  0.568579  1
  O  O26  1  0.809873  0.015887  0.720825  1
  O  O27  1  0.568579  0.499425  0.771504  1
  O  O28  1  0.545760  0.066250  0.803731  1
  O  O29  1  0.015887  0.720824  0.809874  1
  O  O30  1  0.196269  0.454239  0.933750  1
  O  O31  1  0.279175  0.190126  0.984112  1
