# generated using pymatgen
data_ErHf2Al7Pd2
_symmetry_space_group_name_H-M   'P 1'
_cell_length_a   8.98713205
_cell_length_b   8.98713237
_cell_length_c   8.98713185
_cell_angle_alpha   34.58040319
_cell_angle_beta   34.58040191
_cell_angle_gamma   34.58039612
_symmetry_Int_Tables_number   1
_chemical_formula_structural   ErHf2Al7Pd2
_chemical_formula_sum   'Er1 Hf2 Al7 Pd2'
_cell_volume   208.62865587
_cell_formula_units_Z   1
loop_
 _symmetry_equiv_pos_site_id
 _symmetry_equiv_pos_as_xyz
  1  'x, y, z'
loop_
 _atom_site_type_symbol
 _atom_site_label
 _atom_site_symmetry_multiplicity
 _atom_site_fract_x
 _atom_site_fract_y
 _atom_site_fract_z
 _atom_site_occupancy
  Er  Er0  1  0.000000  0.000000  0.000000  1
  Hf  Hf1  1  0.145083  0.145083  0.145083  1
  Hf  Hf2  1  0.854917  0.854917  0.854917  1
  Al  Al3  1  0.586422  0.586422  0.076238  1
  Al  Al4  1  0.923763  0.413577  0.413579  1
  Al  Al5  1  0.413577  0.923763  0.413579  1
  Al  Al6  1  0.500000  0.500000  0.500000  1
  Al  Al7  1  0.586423  0.076237  0.586421  1
  Al  Al8  1  0.076237  0.586423  0.586421  1
  Al  Al9  1  0.413578  0.413578  0.923762  1
  Pd  Pd10  1  0.334923  0.334923  0.334923  1
  Pd  Pd11  1  0.665078  0.665078  0.665078  1
