# generated using pymatgen
data_NdHo4Hf3(Co4P3)4
_symmetry_space_group_name_H-M   'P 1'
_cell_length_a   12.30123900
_cell_length_b   12.30123748
_cell_length_c   3.71214400
_cell_angle_alpha   90.00000000
_cell_angle_beta   90.00000000
_cell_angle_gamma   120.00000141
_symmetry_Int_Tables_number   1
_chemical_formula_structural   NdHo4Hf3(Co4P3)4
_chemical_formula_sum   'Nd1 Ho4 Hf3 Co16 P12'
_cell_volume   486.46668040
_cell_formula_units_Z   1
loop_
 _symmetry_equiv_pos_site_id
 _symmetry_equiv_pos_as_xyz
  1  'x, y, z'
loop_
 _atom_site_type_symbol
 _atom_site_label
 _atom_site_symmetry_multiplicity
 _atom_site_fract_x
 _atom_site_fract_y
 _atom_site_fract_z
 _atom_site_occupancy
  Nd  Nd0  1  0.666667  0.333333  0.000000  1
  Ho  Ho1  1  0.333333  0.666667  0.000000  1
  Ho  Ho2  1  0.817721  0.817690  0.500000  1
  Ho  Ho3  1  0.182310  0.000031  0.500000  1
  Ho  Ho4  1  0.999969  0.182279  0.500000  1
  Hf  Hf5  1  0.440348  0.441839  0.000000  1
  Hf  Hf6  1  0.558161  0.998509  0.000000  1
  Hf  Hf7  1  0.001491  0.559652  0.000000  1
  Co  Co8  1  0.878812  0.355232  0.500000  1
  Co  Co9  1  0.644768  0.523580  0.500000  1
  Co  Co10  1  0.476420  0.121188  0.500000  1
  Co  Co11  1  0.355780  0.874512  0.500000  1
  Co  Co12  1  0.518733  0.644220  0.500000  1
  Co  Co13  1  0.125488  0.481267  0.500000  1
  Co  Co14  1  0.805451  0.176521  0.000000  1
  Co  Co15  1  0.823479  0.628929  0.000000  1
  Co  Co16  1  0.371071  0.194549  0.000000  1
  Co  Co17  1  0.178394  0.804943  0.000000  1
  Co  Co18  1  0.626548  0.821606  0.000000  1
  Co  Co19  1  0.195057  0.373452  0.000000  1
  Co  Co20  1  0.276887  0.278222  0.500000  1
  Co  Co21  1  0.721778  0.998665  0.500000  1
  Co  Co22  1  0.001335  0.723113  0.500000  1
  Co  Co23  1  0.000000  0.000000  0.000000  1
  P  P24  1  0.694193  0.168239  0.500000  1
  P  P25  1  0.831761  0.525954  0.500000  1
  P  P26  1  0.474046  0.305807  0.500000  1
  P  P27  1  0.172014  0.692848  0.500000  1
  P  P28  1  0.520834  0.827986  0.500000  1
  P  P29  1  0.307152  0.479166  0.500000  1
  P  P30  1  0.176948  0.177667  0.000000  1
  P  P31  1  0.822333  0.999281  0.000000  1
  P  P32  1  0.000719  0.823052  0.000000  1
  P  P33  1  0.648468  0.648336  0.000000  1
  P  P34  1  0.351664  0.000132  0.000000  1
  P  P35  1  0.999868  0.351532  0.000000  1
