# generated using pymatgen
data_Li3Yb4ZnPt4
_symmetry_space_group_name_H-M   'P 1'
_cell_length_a   4.14681700
_cell_length_b   6.93212521
_cell_length_c   8.18836054
_cell_angle_alpha   90.43950325
_cell_angle_beta   90.00000000
_cell_angle_gamma   90.00000000
_symmetry_Int_Tables_number   1
_chemical_formula_structural   Li3Yb4ZnPt4
_chemical_formula_sum   'Li3 Yb4 Zn1 Pt4'
_cell_volume   235.37777216
_cell_formula_units_Z   1
loop_
 _symmetry_equiv_pos_site_id
 _symmetry_equiv_pos_as_xyz
  1  'x, y, z'
loop_
 _atom_site_type_symbol
 _atom_site_label
 _atom_site_symmetry_multiplicity
 _atom_site_fract_x
 _atom_site_fract_y
 _atom_site_fract_z
 _atom_site_occupancy
  Li  Li0  1  0.250000  0.634591  0.562357  1
  Li  Li1  1  0.250000  0.138708  0.938641  1
  Li  Li2  1  0.750000  0.362667  0.441875  1
  Yb  Yb3  1  0.750000  0.469967  0.819075  1
  Yb  Yb4  1  0.250000  0.031287  0.314480  1
  Yb  Yb5  1  0.750000  0.964797  0.682202  1
  Yb  Yb6  1  0.250000  0.536216  0.181852  1
  Zn  Zn7  1  0.750000  0.861604  0.062539  1
  Pt  Pt8  1  0.250000  0.763757  0.881716  1
  Pt  Pt9  1  0.250000  0.256949  0.623042  1
  Pt  Pt10  1  0.750000  0.741132  0.370441  1
  Pt  Pt11  1  0.750000  0.238325  0.121781  1
