# generated using pymatgen
data_Yb2Er8Tl7InPt4
_symmetry_space_group_name_H-M   'P 1'
_cell_length_a   3.60125800
_cell_length_b   8.25638909
_cell_length_c   18.39521052
_cell_angle_alpha   90.11220241
_cell_angle_beta   90.00000000
_cell_angle_gamma   90.00000000
_symmetry_Int_Tables_number   1
_chemical_formula_structural   Yb2Er8Tl7InPt4
_chemical_formula_sum   'Yb2 Er8 Tl7 In1 Pt4'
_cell_volume   546.95086964
_cell_formula_units_Z   1
loop_
 _symmetry_equiv_pos_site_id
 _symmetry_equiv_pos_as_xyz
  1  'x, y, z'
loop_
 _atom_site_type_symbol
 _atom_site_label
 _atom_site_symmetry_multiplicity
 _atom_site_fract_x
 _atom_site_fract_y
 _atom_site_fract_z
 _atom_site_occupancy
  Yb  Yb0  1  0.000000  0.999675  0.000080  1
  Yb  Yb1  1  0.000000  0.501093  0.500451  1
  Er  Er2  1  0.000000  0.118098  0.411201  1
  Er  Er3  1  0.000000  0.882902  0.588055  1
  Er  Er4  1  0.000000  0.382928  0.910258  1
  Er  Er5  1  0.000000  0.616257  0.089520  1
  Er  Er6  1  0.000000  0.243999  0.220682  1
  Er  Er7  1  0.000000  0.755679  0.780038  1
  Er  Er8  1  0.000000  0.254731  0.719545  1
  Er  Er9  1  0.000000  0.743276  0.280062  1
  Tl  Tl10  1  0.500000  0.426828  0.354751  1
  Tl  Tl11  1  0.500000  0.578048  0.646342  1
  Tl  Tl12  1  0.500000  0.076410  0.853581  1
  Tl  Tl13  1  0.500000  0.923571  0.146713  1
  Tl  Tl14  1  0.500000  0.293760  0.063784  1
  Tl  Tl15  1  0.500000  0.705130  0.936370  1
  Tl  Tl16  1  0.500000  0.205893  0.563726  1
  In  In17  1  0.500000  0.797644  0.433977  1
  Pt  Pt18  1  0.500000  0.021436  0.303220  1
  Pt  Pt19  1  0.500000  0.974575  0.697925  1
  Pt  Pt20  1  0.500000  0.474642  0.801362  1
  Pt  Pt21  1  0.500000  0.523425  0.198357  1
