# generated using pymatgen
data_Zr6V(Fe8Si3)2
_symmetry_space_group_name_H-M   'P 1'
_cell_length_a   8.13371627
_cell_length_b   8.13371588
_cell_length_c   8.13371700
_cell_angle_alpha   59.99999951
_cell_angle_beta   60.00000112
_cell_angle_gamma   59.99999679
_symmetry_Int_Tables_number   1
_chemical_formula_structural   Zr6V(Fe8Si3)2
_chemical_formula_sum   'Zr6 V1 Fe16 Si6'
_cell_volume   380.49772829
_cell_formula_units_Z   1
loop_
 _symmetry_equiv_pos_site_id
 _symmetry_equiv_pos_as_xyz
  1  'x, y, z'
loop_
 _atom_site_type_symbol
 _atom_site_label
 _atom_site_symmetry_multiplicity
 _atom_site_fract_x
 _atom_site_fract_y
 _atom_site_fract_z
 _atom_site_occupancy
  Zr  Zr0  1  0.709735  0.709735  0.290265  1
  Zr  Zr1  1  0.290265  0.709735  0.290265  1
  Zr  Zr2  1  0.709735  0.290265  0.290265  1
  Zr  Zr3  1  0.290265  0.290265  0.709735  1
  Zr  Zr4  1  0.709735  0.290265  0.709735  1
  Zr  Zr5  1  0.290265  0.709735  0.709735  1
  V  V6  1  0.000000  0.000000  0.000000  1
  Fe  Fe7  1  0.877525  0.877525  0.367426  1
  Fe  Fe8  1  0.877525  0.367426  0.877525  1
  Fe  Fe9  1  0.367426  0.877525  0.877525  1
  Fe  Fe10  1  0.877525  0.877525  0.877525  1
  Fe  Fe11  1  0.122475  0.122475  0.632574  1
  Fe  Fe12  1  0.122475  0.632574  0.122475  1
  Fe  Fe13  1  0.632574  0.122475  0.122475  1
  Fe  Fe14  1  0.122475  0.122475  0.122475  1
  Fe  Fe15  1  0.676472  0.676472  0.970584  1
  Fe  Fe16  1  0.676472  0.970584  0.676472  1
  Fe  Fe17  1  0.970584  0.676472  0.676472  1
  Fe  Fe18  1  0.676472  0.676472  0.676472  1
  Fe  Fe19  1  0.323528  0.323528  0.029416  1
  Fe  Fe20  1  0.323528  0.029416  0.323528  1
  Fe  Fe21  1  0.029416  0.323528  0.323528  1
  Fe  Fe22  1  0.323528  0.323528  0.323528  1
  Si  Si23  1  0.000000  0.000000  0.500000  1
  Si  Si24  1  0.500000  0.000000  0.500000  1
  Si  Si25  1  0.000000  0.500000  0.500000  1
  Si  Si26  1  0.500000  0.500000  0.000000  1
  Si  Si27  1  0.000000  0.500000  0.000000  1
  Si  Si28  1  0.500000  0.000000  0.000000  1
