# generated using pymatgen
data_Zr2P2IrRu
_symmetry_space_group_name_H-M   'P 1'
_cell_length_a   3.86669000
_cell_length_b   6.54291200
_cell_length_c   7.39275100
_cell_angle_alpha   90.00000000
_cell_angle_beta   90.00000000
_cell_angle_gamma   90.00000000
_symmetry_Int_Tables_number   1
_chemical_formula_structural   Zr2P2IrRu
_chemical_formula_sum   'Zr4 P4 Ir2 Ru2'
_cell_volume   187.03225633
_cell_formula_units_Z   2
loop_
 _symmetry_equiv_pos_site_id
 _symmetry_equiv_pos_as_xyz
  1  'x, y, z'
loop_
 _atom_site_type_symbol
 _atom_site_label
 _atom_site_symmetry_multiplicity
 _atom_site_fract_x
 _atom_site_fract_y
 _atom_site_fract_z
 _atom_site_occupancy
  Zr  Zr0  1  0.750000  0.523353  0.322060  1
  Zr  Zr1  1  0.250000  0.978746  0.821556  1
  Zr  Zr2  1  0.750000  0.023353  0.177940  1
  Zr  Zr3  1  0.250000  0.478746  0.678444  1
  P  P4  1  0.250000  0.731897  0.116466  1
  P  P5  1  0.250000  0.231897  0.383534  1
  P  P6  1  0.750000  0.271522  0.874046  1
  P  P7  1  0.750000  0.771522  0.625954  1
  Ir  Ir8  1  0.250000  0.349526  0.062168  1
  Ir  Ir9  1  0.250000  0.849526  0.437832  1
  Ru  Ru10  1  0.750000  0.144955  0.557787  1
  Ru  Ru11  1  0.750000  0.644955  0.942213  1
