# generated using pymatgen
data_TbDy5TcBi2
_symmetry_space_group_name_H-M   'P 1'
_cell_length_a   8.33028400
_cell_length_b   8.33063599
_cell_length_c   4.28723100
_cell_angle_alpha   90.00000000
_cell_angle_beta   90.00000000
_cell_angle_gamma   119.99860233
_symmetry_Int_Tables_number   1
_chemical_formula_structural   TbDy5TcBi2
_chemical_formula_sum   'Tb1 Dy5 Tc1 Bi2'
_cell_volume   257.66272663
_cell_formula_units_Z   1
loop_
 _symmetry_equiv_pos_site_id
 _symmetry_equiv_pos_as_xyz
  1  'x, y, z'
loop_
 _atom_site_type_symbol
 _atom_site_label
 _atom_site_symmetry_multiplicity
 _atom_site_fract_x
 _atom_site_fract_y
 _atom_site_fract_z
 _atom_site_occupancy
  Tb  Tb0  1  0.607161  0.000000  0.000000  1
  Dy  Dy1  1  0.232863  0.000000  0.500000  1
  Dy  Dy2  1  0.000074  0.232906  0.500000  1
  Dy  Dy3  1  0.767169  0.767094  0.500000  1
  Dy  Dy4  1  0.999982  0.607260  0.000000  1
  Dy  Dy5  1  0.392721  0.392740  0.000000  1
  Tc  Tc6  1  0.000101  0.000000  0.000000  1
  Bi  Bi7  1  0.333259  0.666589  0.500000  1
  Bi  Bi8  1  0.666670  0.333411  0.500000  1
