# generated using pymatgen
data_Hf18ReMo6WSe2
_symmetry_space_group_name_H-M   'P 1'
_cell_length_a   8.73177200
_cell_length_b   8.73177118
_cell_length_c   8.64505800
_cell_angle_alpha   90.00000000
_cell_angle_beta   90.00000000
_cell_angle_gamma   119.99999554
_symmetry_Int_Tables_number   1
_chemical_formula_structural   Hf18ReMo6WSe2
_chemical_formula_sum   'Hf18 Re1 Mo6 W1 Se2'
_cell_volume   570.82540810
_cell_formula_units_Z   1
loop_
 _symmetry_equiv_pos_site_id
 _symmetry_equiv_pos_as_xyz
  1  'x, y, z'
loop_
 _atom_site_type_symbol
 _atom_site_label
 _atom_site_symmetry_multiplicity
 _atom_site_fract_x
 _atom_site_fract_y
 _atom_site_fract_z
 _atom_site_occupancy
  Hf  Hf0  1  0.541838  0.083676  0.249298  1
  Hf  Hf1  1  0.458162  0.916324  0.750702  1
  Hf  Hf2  1  0.916324  0.458162  0.249298  1
  Hf  Hf3  1  0.083676  0.541838  0.750702  1
  Hf  Hf4  1  0.541838  0.458162  0.249298  1
  Hf  Hf5  1  0.458162  0.541838  0.750702  1
  Hf  Hf6  1  0.193147  0.386292  0.046861  1
  Hf  Hf7  1  0.806853  0.613708  0.953139  1
  Hf  Hf8  1  0.613708  0.806853  0.046861  1
  Hf  Hf9  1  0.805711  0.611423  0.546133  1
  Hf  Hf10  1  0.386292  0.193147  0.953139  1
  Hf  Hf11  1  0.194289  0.388577  0.453867  1
  Hf  Hf12  1  0.193147  0.806853  0.046861  1
  Hf  Hf13  1  0.388577  0.194289  0.546133  1
  Hf  Hf14  1  0.806853  0.193147  0.953139  1
  Hf  Hf15  1  0.611423  0.805711  0.453867  1
  Hf  Hf16  1  0.805711  0.194289  0.546133  1
  Hf  Hf17  1  0.194289  0.805711  0.453867  1
  Re  Re18  1  0.000000  0.000000  0.000000  1
  Mo  Mo19  1  0.890032  0.780067  0.250309  1
  Mo  Mo20  1  0.109968  0.219933  0.749691  1
  Mo  Mo21  1  0.219933  0.109968  0.250309  1
  Mo  Mo22  1  0.780067  0.890032  0.749691  1
  Mo  Mo23  1  0.890032  0.109968  0.250309  1
  Mo  Mo24  1  0.109968  0.890032  0.749691  1
  W  W25  1  0.000000  0.000000  0.500000  1
  Se  Se26  1  0.333333  0.666667  0.249081  1
  Se  Se27  1  0.666667  0.333333  0.750919  1
