# generated using pymatgen
data_Li2PrNdRh2
_symmetry_space_group_name_H-M   'P 1'
_cell_length_a   4.03547700
_cell_length_b   7.12384791
_cell_length_c   8.64988171
_cell_angle_alpha   90.24076242
_cell_angle_beta   90.00000000
_cell_angle_gamma   90.00000000
_symmetry_Int_Tables_number   1
_chemical_formula_structural   Li2PrNdRh2
_chemical_formula_sum   'Li4 Pr2 Nd2 Rh4'
_cell_volume   248.66567976
_cell_formula_units_Z   2
loop_
 _symmetry_equiv_pos_site_id
 _symmetry_equiv_pos_as_xyz
  1  'x, y, z'
loop_
 _atom_site_type_symbol
 _atom_site_label
 _atom_site_symmetry_multiplicity
 _atom_site_fract_x
 _atom_site_fract_y
 _atom_site_fract_z
 _atom_site_occupancy
  Li  Li0  1  0.750000  0.620790  0.550978  1
  Li  Li1  1  0.250000  0.379210  0.449022  1
  Li  Li2  1  0.250000  0.876503  0.051004  1
  Li  Li3  1  0.750000  0.123497  0.948996  1
  Pr  Pr4  1  0.750000  0.050585  0.321269  1
  Pr  Pr5  1  0.250000  0.949415  0.678731  1
  Nd  Nd6  1  0.250000  0.449932  0.822179  1
  Nd  Nd7  1  0.750000  0.550068  0.177821  1
  Rh  Rh8  1  0.750000  0.737833  0.866655  1
  Rh  Rh9  1  0.250000  0.262167  0.133345  1
  Rh  Rh10  1  0.250000  0.758700  0.365811  1
  Rh  Rh11  1  0.750000  0.241300  0.634189  1
