# generated using pymatgen
data_LuMg(AlPt)2
_symmetry_space_group_name_H-M   'P 1'
_cell_length_a   4.21710900
_cell_length_b   6.72042000
_cell_length_c   7.70035300
_cell_angle_alpha   90.00000000
_cell_angle_beta   90.00000000
_cell_angle_gamma   90.00000000
_symmetry_Int_Tables_number   1
_chemical_formula_structural   LuMg(AlPt)2
_chemical_formula_sum   'Lu2 Mg2 Al4 Pt4'
_cell_volume   218.23373051
_cell_formula_units_Z   2
loop_
 _symmetry_equiv_pos_site_id
 _symmetry_equiv_pos_as_xyz
  1  'x, y, z'
loop_
 _atom_site_type_symbol
 _atom_site_label
 _atom_site_symmetry_multiplicity
 _atom_site_fract_x
 _atom_site_fract_y
 _atom_site_fract_z
 _atom_site_occupancy
  Lu  Lu0  1  0.750000  0.973150  0.330084  1
  Lu  Lu1  1  0.750000  0.473150  0.169916  1
  Mg  Mg2  1  0.250000  0.026511  0.674012  1
  Mg  Mg3  1  0.250000  0.526511  0.825988  1
  Al  Al4  1  0.250000  0.142565  0.051928  1
  Al  Al5  1  0.250000  0.642565  0.448072  1
  Al  Al6  1  0.750000  0.859315  0.936402  1
  Al  Al7  1  0.750000  0.359315  0.563598  1
  Pt  Pt8  1  0.250000  0.270590  0.372680  1
  Pt  Pt9  1  0.250000  0.770590  0.127320  1
  Pt  Pt10  1  0.750000  0.727869  0.627407  1
  Pt  Pt11  1  0.750000  0.227869  0.872593  1
