# generated using pymatgen
data_YbY2Tm(B6Os)2
_symmetry_space_group_name_H-M   'P 1'
_cell_length_a   3.64040600
_cell_length_b   9.14190698
_cell_length_c   11.53912707
_cell_angle_alpha   89.87501995
_cell_angle_beta   90.00000000
_cell_angle_gamma   90.00000000
_symmetry_Int_Tables_number   1
_chemical_formula_structural   YbY2Tm(B6Os)2
_chemical_formula_sum   'Yb2 Y4 Tm2 B24 Os4'
_cell_volume   384.02415476
_cell_formula_units_Z   2
loop_
 _symmetry_equiv_pos_site_id
 _symmetry_equiv_pos_as_xyz
  1  'x, y, z'
loop_
 _atom_site_type_symbol
 _atom_site_label
 _atom_site_symmetry_multiplicity
 _atom_site_fract_x
 _atom_site_fract_y
 _atom_site_fract_z
 _atom_site_occupancy
  Yb  Yb0  1  0.000000  0.324785  0.414412  1
  Yb  Yb1  1  0.000000  0.675215  0.585588  1
  Y  Y2  1  0.000000  0.821377  0.086168  1
  Y  Y3  1  0.000000  0.178623  0.913832  1
  Y  Y4  1  0.000000  0.942149  0.370364  1
  Y  Y5  1  0.000000  0.057851  0.629637  1
  Tm  Tm6  1  0.000000  0.442995  0.129950  1
  Tm  Tm7  1  0.000000  0.557005  0.870049  1
  B  B8  1  0.500000  0.553609  0.432373  1
  B  B9  1  0.500000  0.446391  0.567627  1
  B  B10  1  0.500000  0.053974  0.066804  1
  B  B11  1  0.500000  0.946026  0.933196  1
  B  B12  1  0.500000  0.747117  0.417861  1
  B  B13  1  0.500000  0.252883  0.582139  1
  B  B14  1  0.500000  0.249256  0.081434  1
  B  B15  1  0.500000  0.750744  0.918566  1
  B  B16  1  0.500000  0.790180  0.264657  1
  B  B17  1  0.500000  0.209820  0.735343  1
  B  B18  1  0.500000  0.291079  0.234070  1
  B  B19  1  0.500000  0.708920  0.765930  1
  B  B20  1  0.500000  0.630269  0.185022  1
  B  B21  1  0.500000  0.369731  0.814978  1
  B  B22  1  0.500000  0.131576  0.313518  1
  B  B23  1  0.500000  0.868424  0.686482  1
  B  B24  1  0.500000  0.983580  0.211362  1
  B  B25  1  0.500000  0.016420  0.788638  1
  B  B26  1  0.500000  0.483008  0.287582  1
  B  B27  1  0.500000  0.516992  0.712418  1
  B  B28  1  0.500000  0.601895  0.028130  1
  B  B29  1  0.500000  0.398105  0.971870  1
  B  B30  1  0.500000  0.100547  0.472176  1
  B  B31  1  0.500000  0.899453  0.527824  1
  Os  Os32  1  0.000000  0.638268  0.318644  1
  Os  Os33  1  0.000000  0.361732  0.681356  1
  Os  Os34  1  0.000000  0.138129  0.177589  1
  Os  Os35  1  0.000000  0.861871  0.822411  1
