# generated using pymatgen
data_Lu12Tc3AgHg
_symmetry_space_group_name_H-M   'P 1'
_cell_length_a   8.24274524
_cell_length_b   8.24274495
_cell_length_c   8.24274500
_cell_angle_alpha   111.20703755
_cell_angle_beta   107.29862162
_cell_angle_gamma   109.93226301
_symmetry_Int_Tables_number   1
_chemical_formula_structural   Lu12Tc3AgHg
_chemical_formula_sum   'Lu12 Tc3 Ag1 Hg1'
_cell_volume   430.59736187
_cell_formula_units_Z   1
loop_
 _symmetry_equiv_pos_site_id
 _symmetry_equiv_pos_as_xyz
  1  'x, y, z'
loop_
 _atom_site_type_symbol
 _atom_site_label
 _atom_site_symmetry_multiplicity
 _atom_site_fract_x
 _atom_site_fract_y
 _atom_site_fract_z
 _atom_site_occupancy
  Lu  Lu0  1  0.309044  0.307360  0.616405  1
  Lu  Lu1  1  0.690956  0.692640  0.383595  1
  Lu  Lu2  1  0.690956  0.307360  0.998317  1
  Lu  Lu3  1  0.309044  0.692640  0.001683  1
  Lu  Lu4  1  0.190462  0.442237  0.251775  1
  Lu  Lu5  1  0.809538  0.557763  0.748225  1
  Lu  Lu6  1  0.190462  0.938685  0.748225  1
  Lu  Lu7  1  0.952246  0.186947  0.765300  1
  Lu  Lu8  1  0.809538  0.061315  0.251775  1
  Lu  Lu9  1  0.047754  0.813053  0.234700  1
  Lu  Lu10  1  0.421647  0.186947  0.234700  1
  Lu  Lu11  1  0.578353  0.813053  0.765300  1
  Tc  Tc12  1  0.365142  0.365142  0.000000  1
  Tc  Tc13  1  0.634858  0.634858  0.000000  1
  Tc  Tc14  1  0.000000  0.000000  0.000000  1
  Ag  Ag15  1  0.000000  0.500000  0.500000  1
  Hg  Hg16  1  0.500000  0.000000  0.500000  1
