# generated using pymatgen
data_La4TbGdIn6O18
_symmetry_space_group_name_H-M   'P 1'
_cell_length_a   6.56926300
_cell_length_b   6.56926393
_cell_length_c   12.51787800
_cell_angle_alpha   90.00000000
_cell_angle_beta   90.00000000
_cell_angle_gamma   119.99999030
_symmetry_Int_Tables_number   1
_chemical_formula_structural   La4TbGdIn6O18
_chemical_formula_sum   'La4 Tb1 Gd1 In6 O18'
_cell_volume   467.83719629
_cell_formula_units_Z   1
loop_
 _symmetry_equiv_pos_site_id
 _symmetry_equiv_pos_as_xyz
  1  'x, y, z'
loop_
 _atom_site_type_symbol
 _atom_site_label
 _atom_site_symmetry_multiplicity
 _atom_site_fract_x
 _atom_site_fract_y
 _atom_site_fract_z
 _atom_site_occupancy
  La  La0  1  0.666667  0.333333  0.964151  1
  La  La1  1  0.333333  0.666667  0.464066  1
  La  La2  1  0.666667  0.333333  0.464066  1
  La  La3  1  0.333333  0.666667  0.964151  1
  Tb  Tb4  1  0.000000  0.000000  0.997436  1
  Gd  Gd5  1  0.000000  0.000000  0.497321  1
  In  In6  1  0.669893  0.669893  0.727626  1
  In  In7  1  0.000000  0.330107  0.727626  1
  In  In8  1  0.330207  0.330207  0.227349  1
  In  In9  1  0.000000  0.669793  0.227349  1
  In  In10  1  0.330107  0.000000  0.727626  1
  In  In11  1  0.669793  0.000000  0.227349  1
  O  O12  1  0.702478  0.702478  0.896364  1
  O  O13  1  0.000000  0.297522  0.896364  1
  O  O14  1  0.299153  0.299153  0.395906  1
  O  O15  1  0.000000  0.700847  0.395906  1
  O  O16  1  0.297522  0.000000  0.896364  1
  O  O17  1  0.700847  0.000000  0.395906  1
  O  O18  1  0.651410  0.651410  0.559201  1
  O  O19  1  0.000000  0.348590  0.559201  1
  O  O20  1  0.346923  0.346923  0.059052  1
  O  O21  1  0.000000  0.653077  0.059052  1
  O  O22  1  0.348590  0.000000  0.559201  1
  O  O23  1  0.653077  0.000000  0.059052  1
  O  O24  1  0.000000  0.000000  0.696876  1
  O  O25  1  0.000000  0.000000  0.196112  1
  O  O26  1  0.666667  0.333333  0.747769  1
  O  O27  1  0.333333  0.666667  0.247788  1
  O  O28  1  0.666667  0.333333  0.247788  1
  O  O29  1  0.333333  0.666667  0.747769  1
