# generated using pymatgen
data_DyHoSc2(ReB6)2
_symmetry_space_group_name_H-M   'P 1'
_cell_length_a   3.58306700
_cell_length_b   9.00333800
_cell_length_c   11.37791600
_cell_angle_alpha   89.99918482
_cell_angle_beta   90.00000000
_cell_angle_gamma   90.00000000
_symmetry_Int_Tables_number   1
_chemical_formula_structural   DyHoSc2(ReB6)2
_chemical_formula_sum   'Dy2 Ho2 Sc4 Re4 B24'
_cell_volume   367.04660115
_cell_formula_units_Z   2
loop_
 _symmetry_equiv_pos_site_id
 _symmetry_equiv_pos_as_xyz
  1  'x, y, z'
loop_
 _atom_site_type_symbol
 _atom_site_label
 _atom_site_symmetry_multiplicity
 _atom_site_fract_x
 _atom_site_fract_y
 _atom_site_fract_z
 _atom_site_occupancy
  Dy  Dy0  1  0.000000  0.321828  0.414003  1
  Dy  Dy1  1  0.000000  0.678172  0.585997  1
  Ho  Ho2  1  0.000000  0.821787  0.085951  1
  Ho  Ho3  1  0.000000  0.178213  0.914049  1
  Sc  Sc4  1  0.000000  0.944111  0.370190  1
  Sc  Sc5  1  0.000000  0.055889  0.629810  1
  Sc  Sc6  1  0.000000  0.444143  0.129646  1
  Sc  Sc7  1  0.000000  0.555857  0.870354  1
  Re  Re8  1  0.000000  0.640826  0.318302  1
  Re  Re9  1  0.000000  0.359174  0.681698  1
  Re  Re10  1  0.000000  0.140572  0.181426  1
  Re  Re11  1  0.000000  0.859428  0.818574  1
  B  B12  1  0.500000  0.554440  0.432541  1
  B  B13  1  0.500000  0.445560  0.567459  1
  B  B14  1  0.500000  0.054310  0.067251  1
  B  B15  1  0.500000  0.945690  0.932749  1
  B  B16  1  0.500000  0.754641  0.418453  1
  B  B17  1  0.500000  0.245359  0.581547  1
  B  B18  1  0.500000  0.254549  0.081329  1
  B  B19  1  0.500000  0.745451  0.918671  1
  B  B20  1  0.500000  0.795294  0.264624  1
  B  B21  1  0.500000  0.204706  0.735376  1
  B  B22  1  0.500000  0.295275  0.235036  1
  B  B23  1  0.500000  0.704725  0.764964  1
  B  B24  1  0.500000  0.629355  0.182870  1
  B  B25  1  0.500000  0.370645  0.817130  1
  B  B26  1  0.500000  0.129153  0.316867  1
  B  B27  1  0.500000  0.870847  0.683133  1
  B  B28  1  0.500000  0.981358  0.213544  1
  B  B29  1  0.500000  0.018642  0.786456  1
  B  B30  1  0.500000  0.481512  0.286144  1
  B  B31  1  0.500000  0.518488  0.713856  1
  B  B32  1  0.500000  0.595668  0.026153  1
  B  B33  1  0.500000  0.404332  0.973847  1
  B  B34  1  0.500000  0.095372  0.473924  1
  B  B35  1  0.500000  0.904628  0.526076  1
