# generated using pymatgen
data_Dy5Hf2P12Ir16Ru
_symmetry_space_group_name_H-M   'P 1'
_cell_length_a   12.69186400
_cell_length_b   12.87097175
_cell_length_c   3.97689800
_cell_angle_alpha   90.00000000
_cell_angle_beta   90.00000000
_cell_angle_gamma   119.54073229
_symmetry_Int_Tables_number   1
_chemical_formula_structural   Dy5Hf2P12Ir16Ru
_chemical_formula_sum   'Dy5 Hf2 P12 Ir16 Ru1'
_cell_volume   565.20129762
_cell_formula_units_Z   1
loop_
 _symmetry_equiv_pos_site_id
 _symmetry_equiv_pos_as_xyz
  1  'x, y, z'
loop_
 _atom_site_type_symbol
 _atom_site_label
 _atom_site_symmetry_multiplicity
 _atom_site_fract_x
 _atom_site_fract_y
 _atom_site_fract_z
 _atom_site_occupancy
  Dy  Dy0  1  0.331194  0.663543  0.500000  1
  Dy  Dy1  1  0.667653  0.336457  0.500000  1
  Dy  Dy2  1  0.000923  0.815926  0.000000  1
  Dy  Dy3  1  0.184997  0.184074  0.000000  1
  Dy  Dy4  1  0.812008  0.000000  0.000000  1
  Hf  Hf5  1  0.997689  0.446655  0.500000  1
  Hf  Hf6  1  0.551034  0.553345  0.500000  1
  P  P7  1  0.005458  0.651473  0.500000  1
  P  P8  1  0.353985  0.348527  0.500000  1
  P  P9  1  0.640900  0.000000  0.500000  1
  P  P10  1  0.515340  0.686990  0.000000  1
  P  P11  1  0.312767  0.827751  0.000000  1
  P  P12  1  0.165228  0.481163  0.000000  1
  P  P13  1  0.485016  0.172249  0.000000  1
  P  P14  1  0.684065  0.518837  0.000000  1
  P  P15  1  0.828350  0.313010  0.000000  1
  P  P16  1  0.998739  0.173513  0.500000  1
  P  P17  1  0.825226  0.826487  0.500000  1
  P  P18  1  0.181336  0.000000  0.500000  1
  Ir  Ir19  1  0.507233  0.866530  0.000000  1
  Ir  Ir20  1  0.128231  0.643199  0.000000  1
  Ir  Ir21  1  0.356242  0.495895  0.000000  1
  Ir  Ir22  1  0.485033  0.356801  0.000000  1
  Ir  Ir23  1  0.860349  0.504105  0.000000  1
  Ir  Ir24  1  0.640706  0.133470  0.000000  1
  Ir  Ir25  1  0.997290  0.279352  0.000000  1
  Ir  Ir26  1  0.717938  0.720648  0.000000  1
  Ir  Ir27  1  0.290404  0.000000  0.000000  1
  Ir  Ir28  1  0.624603  0.807768  0.500000  1
  Ir  Ir29  1  0.203088  0.825509  0.500000  1
  Ir  Ir30  1  0.177774  0.367388  0.500000  1
  Ir  Ir31  1  0.377579  0.174491  0.500000  1
  Ir  Ir32  1  0.810385  0.632612  0.500000  1
  Ir  Ir33  1  0.816835  0.192232  0.500000  1
  Ir  Ir34  1  0.003799  0.000000  0.500000  1
  Ru  Ru35  1  0.460601  0.000000  0.500000  1
