# generated using pymatgen
data_TiAlIr3S8
_symmetry_space_group_name_H-M   'P 1'
_cell_length_a   6.87854652
_cell_length_b   6.87854616
_cell_length_c   6.87854600
_cell_angle_alpha   62.88924532
_cell_angle_beta   62.88924688
_cell_angle_gamma   62.88924147
_symmetry_Int_Tables_number   1
_chemical_formula_structural   TiAlIr3S8
_chemical_formula_sum   'Ti1 Al1 Ir3 S8'
_cell_volume   244.90477509
_cell_formula_units_Z   1
loop_
 _symmetry_equiv_pos_site_id
 _symmetry_equiv_pos_as_xyz
  1  'x, y, z'
loop_
 _atom_site_type_symbol
 _atom_site_label
 _atom_site_symmetry_multiplicity
 _atom_site_fract_x
 _atom_site_fract_y
 _atom_site_fract_z
 _atom_site_occupancy
  Ti  Ti0  1  0.593323  0.593323  0.593323  1
  Al  Al1  1  0.012073  0.012073  0.012073  1
  Ir  Ir2  1  0.625720  0.625720  0.139553  1
  Ir  Ir3  1  0.625720  0.139553  0.625720  1
  Ir  Ir4  1  0.139553  0.625720  0.625720  1
  S  S5  1  0.366687  0.366687  0.871892  1
  S  S6  1  0.366687  0.871892  0.366687  1
  S  S7  1  0.871892  0.366687  0.366687  1
  S  S8  1  0.389307  0.389307  0.389307  1
  S  S9  1  0.862753  0.862753  0.413405  1
  S  S10  1  0.862753  0.413405  0.862753  1
  S  S11  1  0.413405  0.862753  0.862753  1
  S  S12  1  0.870124  0.870124  0.870124  1
