# generated using pymatgen
data_Dy3Y5(Ti3Si4)4
_symmetry_space_group_name_H-M   'P 1'
_cell_length_a   7.06255003
_cell_length_b   7.06263101
_cell_length_c   12.97618503
_cell_angle_alpha   89.99947968
_cell_angle_beta   90.00767873
_cell_angle_gamma   90.00627915
_symmetry_Int_Tables_number   1
_chemical_formula_structural   Dy3Y5(Ti3Si4)4
_chemical_formula_sum   'Dy3 Y5 Ti12 Si16'
_cell_volume   647.25449794
_cell_formula_units_Z   1
loop_
 _symmetry_equiv_pos_site_id
 _symmetry_equiv_pos_as_xyz
  1  'x, y, z'
loop_
 _atom_site_type_symbol
 _atom_site_label
 _atom_site_symmetry_multiplicity
 _atom_site_fract_x
 _atom_site_fract_y
 _atom_site_fract_z
 _atom_site_occupancy
  Dy  Dy0  1  0.502440  0.159729  0.216605  1
  Dy  Dy1  1  0.497505  0.840318  0.716532  1
  Dy  Dy2  1  0.340399  0.002456  0.466583  1
  Y  Y3  1  0.997482  0.659729  0.033364  1
  Y  Y4  1  0.002634  0.340205  0.533341  1
  Y  Y5  1  0.659710  0.997429  0.966639  1
  Y  Y6  1  0.159817  0.502633  0.783346  1
  Y  Y7  1  0.840177  0.497339  0.283343  1
  Ti  Ti8  1  0.347955  0.508570  0.373400  1
  Ti  Ti9  1  0.847750  0.991354  0.376475  1
  Ti  Ti10  1  0.008648  0.152155  0.123429  1
  Ti  Ti11  1  0.991449  0.847877  0.623400  1
  Ti  Ti12  1  0.508705  0.347778  0.626487  1
  Ti  Ti13  1  0.152203  0.008685  0.876489  1
  Ti  Ti14  1  0.672881  0.673142  0.500045  1
  Ti  Ti15  1  0.826885  0.172962  0.750006  1
  Ti  Ti16  1  0.173220  0.827089  0.250069  1
  Ti  Ti17  1  0.326872  0.326826  0.000097  1
  Ti  Ti18  1  0.491311  0.652097  0.126519  1
  Ti  Ti19  1  0.652080  0.491455  0.873415  1
  Si  Si20  1  0.047297  0.709485  0.435161  1
  Si  Si21  1  0.952924  0.290567  0.935153  1
  Si  Si22  1  0.709036  0.047003  0.564953  1
  Si  Si23  1  0.209533  0.452660  0.185177  1
  Si  Si24  1  0.790446  0.547285  0.685139  1
  Si  Si25  1  0.452790  0.209217  0.814826  1
  Si  Si26  1  0.546958  0.790877  0.314973  1
  Si  Si27  1  0.290727  0.953025  0.064955  1
  Si  Si28  1  0.797411  0.870206  0.184816  1
  Si  Si29  1  0.297709  0.630317  0.565206  1
  Si  Si30  1  0.702396  0.369822  0.065296  1
  Si  Si31  1  0.629711  0.297407  0.434788  1
  Si  Si32  1  0.370039  0.702564  0.934769  1
  Si  Si33  1  0.130340  0.202361  0.315216  1
  Si  Si34  1  0.202666  0.129742  0.684823  1
  Si  Si35  1  0.869894  0.797634  0.815164  1
