# generated using pymatgen
data_Nd5Tm3(Si3Pt)4
_symmetry_space_group_name_H-M   'P 1'
_cell_length_a   8.18612500
_cell_length_b   8.18612457
_cell_length_c   8.34955100
_cell_angle_alpha   90.00000000
_cell_angle_beta   90.00000000
_cell_angle_gamma   119.99999770
_symmetry_Int_Tables_number   1
_chemical_formula_structural   Nd5Tm3(Si3Pt)4
_chemical_formula_sum   'Nd5 Tm3 Si12 Pt4'
_cell_volume   484.56326231
_cell_formula_units_Z   1
loop_
 _symmetry_equiv_pos_site_id
 _symmetry_equiv_pos_as_xyz
  1  'x, y, z'
loop_
 _atom_site_type_symbol
 _atom_site_label
 _atom_site_symmetry_multiplicity
 _atom_site_fract_x
 _atom_site_fract_y
 _atom_site_fract_z
 _atom_site_occupancy
  Nd  Nd0  1  0.500100  0.499900  0.250000  1
  Nd  Nd1  1  0.999799  0.499900  0.250000  1
  Nd  Nd2  1  0.500100  0.000201  0.250000  1
  Nd  Nd3  1  0.000000  0.000000  0.750000  1
  Nd  Nd4  1  0.000000  0.000000  0.250000  1
  Tm  Tm5  1  0.499827  0.500173  0.750000  1
  Tm  Tm6  1  0.000346  0.500173  0.750000  1
  Tm  Tm7  1  0.499827  0.999654  0.750000  1
  Si  Si8  1  0.833790  0.166210  0.995122  1
  Si  Si9  1  0.166204  0.833796  0.995986  1
  Si  Si10  1  0.332420  0.166210  0.995122  1
  Si  Si11  1  0.166204  0.833796  0.504014  1
  Si  Si12  1  0.667592  0.833796  0.995986  1
  Si  Si13  1  0.833790  0.166210  0.504878  1
  Si  Si14  1  0.833790  0.667580  0.995122  1
  Si  Si15  1  0.667592  0.833796  0.504014  1
  Si  Si16  1  0.166204  0.332408  0.995986  1
  Si  Si17  1  0.332420  0.166210  0.504878  1
  Si  Si18  1  0.166204  0.332408  0.504014  1
  Si  Si19  1  0.833790  0.667580  0.504878  1
  Pt  Pt20  1  0.666667  0.333333  0.981792  1
  Pt  Pt21  1  0.333333  0.666667  0.982053  1
  Pt  Pt22  1  0.333333  0.666667  0.517947  1
  Pt  Pt23  1  0.666667  0.333333  0.518208  1
