# generated using pymatgen
data_Er6Al23SiOs8
_symmetry_space_group_name_H-M   'P 1'
_cell_length_a   8.75369500
_cell_length_b   8.75369504
_cell_length_c   9.61734700
_cell_angle_alpha   90.00000000
_cell_angle_beta   90.00000000
_cell_angle_gamma   120.00000364
_symmetry_Int_Tables_number   1
_chemical_formula_structural   Er6Al23SiOs8
_chemical_formula_sum   'Er6 Al23 Si1 Os8'
_cell_volume   638.21752410
_cell_formula_units_Z   1
loop_
 _symmetry_equiv_pos_site_id
 _symmetry_equiv_pos_as_xyz
  1  'x, y, z'
loop_
 _atom_site_type_symbol
 _atom_site_label
 _atom_site_symmetry_multiplicity
 _atom_site_fract_x
 _atom_site_fract_y
 _atom_site_fract_z
 _atom_site_occupancy
  Er  Er0  1  0.195403  0.390806  0.249617  1
  Er  Er1  1  0.805598  0.611194  0.751112  1
  Er  Er2  1  0.609194  0.804597  0.249617  1
  Er  Er3  1  0.388806  0.194402  0.751112  1
  Er  Er4  1  0.195403  0.804597  0.249617  1
  Er  Er5  1  0.805598  0.194402  0.751112  1
  Al  Al6  1  0.666667  0.333333  0.979307  1
  Al  Al7  1  0.666667  0.333333  0.523586  1
  Al  Al8  1  0.333333  0.666667  0.477405  1
  Al  Al9  1  0.163592  0.327184  0.575162  1
  Al  Al10  1  0.836085  0.672170  0.424037  1
  Al  Al11  1  0.672816  0.836408  0.575162  1
  Al  Al12  1  0.836179  0.672358  0.075264  1
  Al  Al13  1  0.327830  0.163915  0.424037  1
  Al  Al14  1  0.164874  0.329749  0.922535  1
  Al  Al15  1  0.163592  0.836408  0.575162  1
  Al  Al16  1  0.327642  0.163821  0.075264  1
  Al  Al17  1  0.836085  0.163915  0.424037  1
  Al  Al18  1  0.670251  0.835126  0.922535  1
  Al  Al19  1  0.836179  0.163821  0.075264  1
  Al  Al20  1  0.164874  0.835126  0.922535  1
  Al  Al21  1  0.562141  0.124283  0.248595  1
  Al  Al22  1  0.437504  0.875008  0.748166  1
  Al  Al23  1  0.875717  0.437859  0.248595  1
  Al  Al24  1  0.124992  0.562496  0.748166  1
  Al  Al25  1  0.562141  0.437859  0.248595  1
  Al  Al26  1  0.437504  0.562496  0.748166  1
  Al  Al27  1  0.000000  0.000000  0.249274  1
  Al  Al28  1  0.000000  0.000000  0.749133  1
  Si  Si29  1  0.333333  0.666667  0.041118  1
  Os  Os30  1  0.495822  0.991644  0.000710  1
  Os  Os31  1  0.008356  0.504178  0.000710  1
  Os  Os32  1  0.500294  0.000588  0.498750  1
  Os  Os33  1  0.495822  0.504178  0.000710  1
  Os  Os34  1  0.999412  0.499706  0.498750  1
  Os  Os35  1  0.500294  0.499706  0.498750  1
  Os  Os36  1  0.000000  0.000000  0.999319  1
  Os  Os37  1  0.000000  0.000000  0.499017  1
