# generated using pymatgen
data_YEr7(LuIn5)4
_symmetry_space_group_name_H-M   'P 1'
_cell_length_a   6.45907898
_cell_length_b   10.37340866
_cell_length_c   12.20041236
_cell_angle_alpha   89.96671803
_cell_angle_beta   89.96463648
_cell_angle_gamma   89.99912376
_symmetry_Int_Tables_number   1
_chemical_formula_structural   YEr7(LuIn5)4
_chemical_formula_sum   'Y1 Er7 Lu4 In20'
_cell_volume   817.45985914
_cell_formula_units_Z   1
loop_
 _symmetry_equiv_pos_site_id
 _symmetry_equiv_pos_as_xyz
  1  'x, y, z'
loop_
 _atom_site_type_symbol
 _atom_site_label
 _atom_site_symmetry_multiplicity
 _atom_site_fract_x
 _atom_site_fract_y
 _atom_site_fract_z
 _atom_site_occupancy
  Y  Y0  1  0.608816  0.494419  0.642346  1
  Er  Er1  1  0.891663  0.494367  0.141963  1
  Er  Er2  1  0.608308  0.005577  0.641870  1
  Er  Er3  1  0.108382  0.994338  0.858115  1
  Er  Er4  1  0.391400  0.505648  0.357548  1
  Er  Er5  1  0.108449  0.505647  0.858136  1
  Er  Er6  1  0.391577  0.994416  0.357975  1
  Er  Er7  1  0.891639  0.005703  0.141915  1
  Lu  Lu8  1  0.348046  0.750026  0.055606  1
  Lu  Lu9  1  0.151382  0.749931  0.555502  1
  Lu  Lu10  1  0.651838  0.250144  0.944422  1
  Lu  Lu11  1  0.848257  0.249731  0.444240  1
  In  In12  1  0.614810  0.750710  0.504613  1
  In  In13  1  0.884909  0.750084  0.005518  1
  In  In14  1  0.384608  0.249863  0.494476  1
  In  In15  1  0.115124  0.249996  0.994613  1
  In  In16  1  0.649082  0.750029  0.245192  1
  In  In17  1  0.851617  0.750523  0.745777  1
  In  In18  1  0.350552  0.249574  0.754953  1
  In  In19  1  0.149099  0.249909  0.254618  1
  In  In20  1  0.129184  0.750101  0.285213  1
  In  In21  1  0.370798  0.750078  0.785139  1
  In  In22  1  0.871842  0.249211  0.715177  1
  In  In23  1  0.629158  0.249960  0.214888  1
  In  In24  1  0.875788  0.543032  0.401037  1
  In  In25  1  0.624190  0.957045  0.901363  1
  In  In26  1  0.124071  0.042886  0.598624  1
  In  In27  1  0.375719  0.456969  0.098712  1
  In  In28  1  0.123667  0.456836  0.598466  1
  In  In29  1  0.375773  0.042973  0.098700  1
  In  In30  1  0.876058  0.957057  0.401171  1
  In  In31  1  0.624195  0.543219  0.902108  1
