# generated using pymatgen
data_Y5LuAl18(Si3Os4)2
_symmetry_space_group_name_H-M   'P 1'
_cell_length_a   8.70293700
_cell_length_b   8.67903285
_cell_length_c   9.53596400
_cell_angle_alpha   90.00000000
_cell_angle_beta   90.00000000
_cell_angle_gamma   120.09114766
_symmetry_Int_Tables_number   1
_chemical_formula_structural   Y5LuAl18(Si3Os4)2
_chemical_formula_sum   'Y5 Lu1 Al18 Si6 Os8'
_cell_volume   623.20766931
_cell_formula_units_Z   1
loop_
 _symmetry_equiv_pos_site_id
 _symmetry_equiv_pos_as_xyz
  1  'x, y, z'
loop_
 _atom_site_type_symbol
 _atom_site_label
 _atom_site_symmetry_multiplicity
 _atom_site_fract_x
 _atom_site_fract_y
 _atom_site_fract_z
 _atom_site_occupancy
  Y  Y0  1  0.806863  0.613726  0.750000  1
  Y  Y1  1  0.610586  0.807551  0.250000  1
  Y  Y2  1  0.389224  0.191971  0.750000  1
  Y  Y3  1  0.196965  0.807551  0.250000  1
  Y  Y4  1  0.802748  0.191971  0.750000  1
  Lu  Lu5  1  0.195129  0.390258  0.250000  1
  Al  Al6  1  0.165035  0.330068  0.577300  1
  Al  Al7  1  0.834864  0.669729  0.421456  1
  Al  Al8  1  0.670097  0.834377  0.576373  1
  Al  Al9  1  0.834864  0.669729  0.078544  1
  Al  Al10  1  0.329162  0.165639  0.422835  1
  Al  Al11  1  0.165035  0.330068  0.922700  1
  Al  Al12  1  0.164280  0.834377  0.576373  1
  Al  Al13  1  0.329162  0.165639  0.077165  1
  Al  Al14  1  0.836476  0.165639  0.422835  1
  Al  Al15  1  0.670097  0.834377  0.923627  1
  Al  Al16  1  0.836476  0.165639  0.077165  1
  Al  Al17  1  0.164280  0.834377  0.923627  1
  Al  Al18  1  0.873092  0.432662  0.250000  1
  Al  Al19  1  0.127496  0.566775  0.750000  1
  Al  Al20  1  0.559570  0.432662  0.250000  1
  Al  Al21  1  0.439279  0.566775  0.750000  1
  Al  Al22  1  0.000963  0.001927  0.250000  1
  Al  Al23  1  0.000516  0.001032  0.750000  1
  Si  Si24  1  0.331523  0.663048  0.039693  1
  Si  Si25  1  0.667871  0.335739  0.961653  1
  Si  Si26  1  0.667871  0.335739  0.538347  1
  Si  Si27  1  0.331523  0.663048  0.460307  1
  Si  Si28  1  0.563627  0.127253  0.250000  1
  Si  Si29  1  0.436389  0.872777  0.750000  1
  Os  Os30  1  0.499874  0.999747  0.000082  1
  Os  Os31  1  0.000410  0.499669  0.000651  1
  Os  Os32  1  0.499874  0.999747  0.499918  1
  Os  Os33  1  0.499260  0.499669  0.000651  1
  Os  Os34  1  0.000410  0.499669  0.499349  1
  Os  Os35  1  0.499260  0.499669  0.499349  1
  Os  Os36  1  0.999927  0.999853  0.000002  1
  Os  Os37  1  0.999927  0.999853  0.499998  1
