# generated using pymatgen
data_Dy5Zr2P12Ir8Rh9
_symmetry_space_group_name_H-M   'P 1'
_cell_length_a   12.70877937
_cell_length_b   12.89766772
_cell_length_c   3.95803100
_cell_angle_alpha   90.00000000
_cell_angle_beta   90.00000000
_cell_angle_gamma   119.58676286
_symmetry_Int_Tables_number   1
_chemical_formula_structural   Dy5Zr2P12Ir8Rh9
_chemical_formula_sum   'Dy5 Zr2 P12 Ir8 Rh9'
_cell_volume   564.18073538
_cell_formula_units_Z   1
loop_
 _symmetry_equiv_pos_site_id
 _symmetry_equiv_pos_as_xyz
  1  'x, y, z'
loop_
 _atom_site_type_symbol
 _atom_site_label
 _atom_site_symmetry_multiplicity
 _atom_site_fract_x
 _atom_site_fract_y
 _atom_site_fract_z
 _atom_site_occupancy
  Dy  Dy0  1  0.329735  0.661483  0.500000  1
  Dy  Dy1  1  0.667975  0.338215  0.500000  1
  Dy  Dy2  1  0.000238  0.813676  0.000000  1
  Dy  Dy3  1  0.186012  0.185673  0.000000  1
  Dy  Dy4  1  0.810641  0.000706  0.000000  1
  Zr  Zr5  1  0.999171  0.446655  0.500000  1
  Zr  Zr6  1  0.552198  0.554989  0.500000  1
  P  P7  1  0.004848  0.649740  0.500000  1
  P  P8  1  0.355740  0.350074  0.500000  1
  P  P9  1  0.639442  0.999543  0.500000  1
  P  P10  1  0.514998  0.686472  0.000000  1
  P  P11  1  0.312535  0.828011  0.000000  1
  P  P12  1  0.165773  0.481471  0.000000  1
  P  P13  1  0.483803  0.171518  0.000000  1
  P  P14  1  0.683202  0.518763  0.000000  1
  P  P15  1  0.829052  0.314027  0.000000  1
  P  P16  1  0.998480  0.173848  0.500000  1
  P  P17  1  0.825231  0.825778  0.500000  1
  P  P18  1  0.182661  0.998111  0.500000  1
  Ir  Ir19  1  0.481475  0.354272  0.000000  1
  Ir  Ir20  1  0.861392  0.506748  0.000000  1
  Ir  Ir21  1  0.641896  0.135855  0.000000  1
  Ir  Ir22  1  0.997504  0.275924  0.000000  1
  Ir  Ir23  1  0.721564  0.724518  0.000000  1
  Ir  Ir24  1  0.287747  0.999834  0.000000  1
  Ir  Ir25  1  0.816482  0.191596  0.500000  1
  Ir  Ir26  1  0.005246  0.000520  0.500000  1
  Rh  Rh27  1  0.506845  0.864943  0.000000  1
  Rh  Rh28  1  0.126143  0.646243  0.000000  1
  Rh  Rh29  1  0.354664  0.490495  0.000000  1
  Rh  Rh30  1  0.460867  0.002544  0.500000  1
  Rh  Rh31  1  0.625398  0.808907  0.500000  1
  Rh  Rh32  1  0.204678  0.824416  0.500000  1
  Rh  Rh33  1  0.178105  0.367935  0.500000  1
  Rh  Rh34  1  0.378850  0.174540  0.500000  1
  Rh  Rh35  1  0.809415  0.631955  0.500000  1
