# generated using pymatgen
data_Gd12InTc3Ag
_symmetry_space_group_name_H-M   'P 1'
_cell_length_a   8.51396903
_cell_length_b   8.51396731
_cell_length_c   8.51396800
_cell_angle_alpha   111.98047486
_cell_angle_beta   107.61023118
_cell_angle_gamma   108.85469680
_symmetry_Int_Tables_number   1
_chemical_formula_structural   Gd12InTc3Ag
_chemical_formula_sum   'Gd12 In1 Tc3 Ag1'
_cell_volume   474.34797908
_cell_formula_units_Z   1
loop_
 _symmetry_equiv_pos_site_id
 _symmetry_equiv_pos_as_xyz
  1  'x, y, z'
loop_
 _atom_site_type_symbol
 _atom_site_label
 _atom_site_symmetry_multiplicity
 _atom_site_fract_x
 _atom_site_fract_y
 _atom_site_fract_z
 _atom_site_occupancy
  Gd  Gd0  1  0.187709  0.443327  0.255618  1
  Gd  Gd1  1  0.812291  0.556673  0.744382  1
  Gd  Gd2  1  0.187930  0.931993  0.744063  1
  Gd  Gd3  1  0.946651  0.183063  0.763429  1
  Gd  Gd4  1  0.812070  0.068007  0.255937  1
  Gd  Gd5  1  0.053349  0.816937  0.236571  1
  Gd  Gd6  1  0.419634  0.183063  0.236414  1
  Gd  Gd7  1  0.580366  0.816937  0.763586  1
  Gd  Gd8  1  0.321990  0.318192  0.640250  1
  Gd  Gd9  1  0.678010  0.681808  0.359750  1
  Gd  Gd10  1  0.677943  0.318192  0.996203  1
  Gd  Gd11  1  0.322057  0.681808  0.003797  1
  In  In12  1  0.500000  0.000000  0.500000  1
  Tc  Tc13  1  0.336947  0.336966  0.000019  1
  Tc  Tc14  1  0.663053  0.663034  0.999981  1
  Tc  Tc15  1  0.000000  0.000000  0.000000  1
  Ag  Ag16  1  0.000000  0.500000  0.500000  1
