# generated using pymatgen
data_CdB3Ir4
_symmetry_space_group_name_H-M   'P 1'
_cell_length_a   2.83341300
_cell_length_b   2.86437800
_cell_length_c   24.46613000
_cell_angle_alpha   90.00000000
_cell_angle_beta   90.00000000
_cell_angle_gamma   90.00000000
_symmetry_Int_Tables_number   1
_chemical_formula_structural   CdB3Ir4
_chemical_formula_sum   'Cd2 B6 Ir8'
_cell_volume   198.56627586
_cell_formula_units_Z   2
loop_
 _symmetry_equiv_pos_site_id
 _symmetry_equiv_pos_as_xyz
  1  'x, y, z'
loop_
 _atom_site_type_symbol
 _atom_site_label
 _atom_site_symmetry_multiplicity
 _atom_site_fract_x
 _atom_site_fract_y
 _atom_site_fract_z
 _atom_site_occupancy
  Cd  Cd0  1  0.500000  0.000000  0.500000  1
  Cd  Cd1  1  0.000000  0.000000  0.000000  1
  B  B2  1  0.500000  0.000000  0.370929  1
  B  B3  1  0.000000  0.000000  0.127118  1
  B  B4  1  0.000000  0.000000  0.872882  1
  B  B5  1  0.000000  0.500000  0.239782  1
  B  B6  1  0.000000  0.500000  0.760218  1
  B  B7  1  0.500000  0.000000  0.629071  1
  Ir  Ir8  1  0.500000  0.500000  0.908431  1
  Ir  Ir9  1  0.500000  0.000000  0.198376  1
  Ir  Ir10  1  0.000000  0.000000  0.696263  1
  Ir  Ir11  1  0.500000  0.000000  0.801624  1
  Ir  Ir12  1  0.500000  0.500000  0.091569  1
  Ir  Ir13  1  0.000000  0.000000  0.303737  1
  Ir  Ir14  1  0.000000  0.500000  0.408325  1
  Ir  Ir15  1  0.000000  0.500000  0.591675  1
