# generated using pymatgen
data_YbHo(Al5Os)4
_symmetry_space_group_name_H-M   'P 1'
_cell_length_a   6.87876883
_cell_length_b   6.87876918
_cell_length_c   9.15467700
_cell_angle_alpha   90.00000000
_cell_angle_beta   90.00000000
_cell_angle_gamma   96.40112290
_symmetry_Int_Tables_number   1
_chemical_formula_structural   YbHo(Al5Os)4
_chemical_formula_sum   'Yb1 Ho1 Al20 Os4'
_cell_volume   430.47555561
_cell_formula_units_Z   1
loop_
 _symmetry_equiv_pos_site_id
 _symmetry_equiv_pos_as_xyz
  1  'x, y, z'
loop_
 _atom_site_type_symbol
 _atom_site_label
 _atom_site_symmetry_multiplicity
 _atom_site_fract_x
 _atom_site_fract_y
 _atom_site_fract_z
 _atom_site_occupancy
  Yb  Yb0  1  0.373061  0.626939  0.250000  1
  Ho  Ho1  1  0.628710  0.371290  0.750000  1
  Al  Al2  1  0.281462  0.018384  0.750000  1
  Al  Al3  1  0.021531  0.283017  0.250000  1
  Al  Al4  1  0.716983  0.978469  0.250000  1
  Al  Al5  1  0.981616  0.718538  0.750000  1
  Al  Al6  1  0.876293  0.123707  0.950533  1
  Al  Al7  1  0.123862  0.876138  0.042631  1
  Al  Al8  1  0.876293  0.123707  0.549467  1
  Al  Al9  1  0.123862  0.876138  0.457369  1
  Al  Al10  1  0.646054  0.918042  0.750000  1
  Al  Al11  1  0.914056  0.644169  0.250000  1
  Al  Al12  1  0.355831  0.085944  0.250000  1
  Al  Al13  1  0.081958  0.353946  0.750000  1
  Al  Al14  1  0.345221  0.654779  0.898843  1
  Al  Al15  1  0.658485  0.341515  0.101497  1
  Al  Al16  1  0.345221  0.654779  0.601157  1
  Al  Al17  1  0.658485  0.341515  0.398503  1
  Al  Al18  1  0.723119  0.725130  0.999352  1
  Al  Al19  1  0.723119  0.725130  0.500648  1
  Al  Al20  1  0.274870  0.276881  0.999352  1
  Al  Al21  1  0.274870  0.276881  0.500648  1
  Os  Os22  1  0.499465  0.001947  0.999686  1
  Os  Os23  1  0.998053  0.500535  0.999686  1
  Os  Os24  1  0.499465  0.001947  0.500314  1
  Os  Os25  1  0.998053  0.500535  0.500314  1
