# generated using pymatgen
data_Re2TeBr12
_symmetry_space_group_name_H-M   'P 1'
_cell_length_a   12.68768100
_cell_length_b   9.16936653
_cell_length_c   10.50456018
_cell_angle_alpha   85.01190098
_cell_angle_beta   90.00000000
_cell_angle_gamma   90.00000000
_symmetry_Int_Tables_number   1
_chemical_formula_structural   Re2TeBr12
_chemical_formula_sum   'Re4 Te2 Br24'
_cell_volume   1217.45121287
_cell_formula_units_Z   2
loop_
 _symmetry_equiv_pos_site_id
 _symmetry_equiv_pos_as_xyz
  1  'x, y, z'
loop_
 _atom_site_type_symbol
 _atom_site_label
 _atom_site_symmetry_multiplicity
 _atom_site_fract_x
 _atom_site_fract_y
 _atom_site_fract_z
 _atom_site_occupancy
  Re  Re0  1  0.250000  0.125621  0.622901  1
  Re  Re1  1  0.750000  0.672329  0.594047  1
  Re  Re2  1  0.750000  0.874379  0.377099  1
  Re  Re3  1  0.250000  0.327671  0.405953  1
  Te  Te4  1  0.250000  0.840530  0.914244  1
  Te  Te5  1  0.750000  0.159470  0.085756  1
  Br  Br6  1  0.889077  0.657586  0.757109  1
  Br  Br7  1  0.598976  0.170975  0.925510  1
  Br  Br8  1  0.250000  0.594359  0.416513  1
  Br  Br9  1  0.110923  0.342414  0.242891  1
  Br  Br10  1  0.110995  0.932837  0.682375  1
  Br  Br11  1  0.750000  0.405641  0.583487  1
  Br  Br12  1  0.396725  0.309663  0.580355  1
  Br  Br13  1  0.098976  0.829025  0.074490  1
  Br  Br14  1  0.401024  0.829025  0.074490  1
  Br  Br15  1  0.250000  0.570289  0.876725  1
  Br  Br16  1  0.250000  0.181613  0.855656  1
  Br  Br17  1  0.896725  0.690337  0.419645  1
  Br  Br18  1  0.389077  0.342414  0.242891  1
  Br  Br19  1  0.750000  0.429711  0.123275  1
  Br  Br20  1  0.389005  0.932837  0.682375  1
  Br  Br21  1  0.103275  0.309663  0.580355  1
  Br  Br22  1  0.750000  0.818387  0.144344  1
  Br  Br23  1  0.250000  0.044115  0.399440  1
  Br  Br24  1  0.610995  0.067163  0.317625  1
  Br  Br25  1  0.901024  0.170975  0.925510  1
  Br  Br26  1  0.750000  0.955885  0.600560  1
  Br  Br27  1  0.603275  0.690337  0.419645  1
  Br  Br28  1  0.610923  0.657586  0.757109  1
  Br  Br29  1  0.889005  0.067163  0.317625  1
