# generated using pymatgen
data_Hf9ZnRe3Mo
_symmetry_space_group_name_H-M   'P 1'
_cell_length_a   8.54748300
_cell_length_b   8.66604492
_cell_length_c   8.66604400
_cell_angle_alpha   120.00010642
_cell_angle_beta   90.00000000
_cell_angle_gamma   90.00000000
_symmetry_Int_Tables_number   1
_chemical_formula_structural   Hf9ZnRe3Mo
_chemical_formula_sum   'Hf18 Zn2 Re6 Mo2'
_cell_volume   555.91736117
_cell_formula_units_Z   2
loop_
 _symmetry_equiv_pos_site_id
 _symmetry_equiv_pos_as_xyz
  1  'x, y, z'
loop_
 _atom_site_type_symbol
 _atom_site_label
 _atom_site_symmetry_multiplicity
 _atom_site_fract_x
 _atom_site_fract_y
 _atom_site_fract_z
 _atom_site_occupancy
  Hf  Hf0  1  0.549605  0.805469  0.610945  1
  Hf  Hf1  1  0.549610  0.805470  0.194530  1
  Hf  Hf2  1  0.549605  0.389055  0.194531  1
  Hf  Hf3  1  0.450395  0.194531  0.389055  1
  Hf  Hf4  1  0.450390  0.194530  0.805470  1
  Hf  Hf5  1  0.450395  0.610945  0.805469  1
  Hf  Hf6  1  0.049605  0.194531  0.389055  1
  Hf  Hf7  1  0.049610  0.194530  0.805470  1
  Hf  Hf8  1  0.049605  0.610945  0.805469  1
  Hf  Hf9  1  0.950395  0.805469  0.610945  1
  Hf  Hf10  1  0.950390  0.805470  0.194530  1
  Hf  Hf11  1  0.950395  0.389055  0.194531  1
  Hf  Hf12  1  0.750000  0.459841  0.919679  1
  Hf  Hf13  1  0.750000  0.459839  0.540161  1
  Hf  Hf14  1  0.750000  0.080321  0.540159  1
  Hf  Hf15  1  0.250000  0.540159  0.080321  1
  Hf  Hf16  1  0.250000  0.540161  0.459839  1
  Hf  Hf17  1  0.250000  0.919679  0.459841  1
  Zn  Zn18  1  0.750000  0.666672  0.333328  1
  Zn  Zn19  1  0.250000  0.333328  0.666672  1
  Re  Re20  1  0.750000  0.111263  0.222520  1
  Re  Re21  1  0.750000  0.111263  0.888737  1
  Re  Re22  1  0.750000  0.777480  0.888737  1
  Re  Re23  1  0.250000  0.888737  0.777480  1
  Re  Re24  1  0.250000  0.888737  0.111263  1
  Re  Re25  1  0.250000  0.222520  0.111263  1
  Mo  Mo26  1  0.500000  0.000000  0.000000  1
  Mo  Mo27  1  0.000000  0.000000  0.000000  1
