# generated using pymatgen
data_LiPr2Si(PPd4)5
_symmetry_space_group_name_H-M   'P 1'
_cell_length_a   8.69519186
_cell_length_b   8.69488949
_cell_length_c   8.69488901
_cell_angle_alpha   60.00229712
_cell_angle_beta   59.99884630
_cell_angle_gamma   59.99884286
_symmetry_Int_Tables_number   1
_chemical_formula_structural   LiPr2Si(PPd4)5
_chemical_formula_sum   'Li1 Pr2 Si1 P5 Pd20'
_cell_volume   464.82794996
_cell_formula_units_Z   1
loop_
 _symmetry_equiv_pos_site_id
 _symmetry_equiv_pos_as_xyz
  1  'x, y, z'
loop_
 _atom_site_type_symbol
 _atom_site_label
 _atom_site_symmetry_multiplicity
 _atom_site_fract_x
 _atom_site_fract_y
 _atom_site_fract_z
 _atom_site_occupancy
  Li  Li0  1  0.999837  0.000163  0.000163  1
  Pr  Pr1  1  0.250195  0.249805  0.249805  1
  Pr  Pr2  1  0.750195  0.749805  0.749805  1
  Si  Si3  1  0.739119  0.260881  0.260881  1
  P  P4  1  0.259884  0.740116  0.740116  1
  P  P5  1  0.260716  0.739284  0.259761  1
  P  P6  1  0.740239  0.259761  0.739284  1
  P  P7  1  0.260716  0.259761  0.739284  1
  P  P8  1  0.740239  0.739284  0.259761  1
  Pd  Pd9  1  0.385643  0.386915  0.386915  1
  Pd  Pd10  1  0.613271  0.613334  0.613334  1
  Pd  Pd11  1  0.386666  0.386729  0.839940  1
  Pd  Pd12  1  0.386666  0.839940  0.386729  1
  Pd  Pd13  1  0.613085  0.614357  0.159471  1
  Pd  Pd14  1  0.613085  0.159471  0.614357  1
  Pd  Pd15  1  0.840529  0.386915  0.386915  1
  Pd  Pd16  1  0.160060  0.613334  0.613334  1
  Pd  Pd17  1  0.344185  0.000394  0.000394  1
  Pd  Pd18  1  0.655027  0.000394  0.000394  1
  Pd  Pd19  1  0.999606  0.344973  0.655815  1
  Pd  Pd20  1  0.999606  0.655815  0.344973  1
  Pd  Pd21  1  0.001483  0.345637  0.998517  1
  Pd  Pd22  1  0.654363  0.998517  0.345637  1
  Pd  Pd23  1  0.999847  0.654978  0.000153  1
  Pd  Pd24  1  0.345022  0.000153  0.654978  1
  Pd  Pd25  1  0.001483  0.998517  0.345637  1
  Pd  Pd26  1  0.999847  0.000153  0.654978  1
  Pd  Pd27  1  0.654363  0.345637  0.998517  1
  Pd  Pd28  1  0.345022  0.654978  0.000153  1
