# generated using pymatgen
data_Tm6ZrCo14(NiP4)3
_symmetry_space_group_name_H-M   'P 1'
_cell_length_a   3.69367200
_cell_length_b   10.52474500
_cell_length_c   12.24499500
_cell_angle_alpha   90.00000000
_cell_angle_beta   90.00000000
_cell_angle_gamma   90.00000000
_symmetry_Int_Tables_number   1
_chemical_formula_structural   Tm6ZrCo14(NiP4)3
_chemical_formula_sum   'Tm6 Zr1 Co14 Ni3 P12'
_cell_volume   476.02364079
_cell_formula_units_Z   1
loop_
 _symmetry_equiv_pos_site_id
 _symmetry_equiv_pos_as_xyz
  1  'x, y, z'
loop_
 _atom_site_type_symbol
 _atom_site_label
 _atom_site_symmetry_multiplicity
 _atom_site_fract_x
 _atom_site_fract_y
 _atom_site_fract_z
 _atom_site_occupancy
  Tm  Tm0  1  0.000000  0.500000  0.528398  1
  Tm  Tm1  1  0.500000  0.000000  0.477834  1
  Tm  Tm2  1  0.500000  0.819611  0.207562  1
  Tm  Tm3  1  0.500000  0.180389  0.207562  1
  Tm  Tm4  1  0.000000  0.682528  0.796129  1
  Tm  Tm5  1  0.000000  0.317472  0.796129  1
  Zr  Zr6  1  0.500000  0.500000  0.155433  1
  Co  Co7  1  0.000000  0.500000  0.983767  1
  Co  Co8  1  0.500000  0.000000  0.014396  1
  Co  Co9  1  0.500000  0.327522  0.988124  1
  Co  Co10  1  0.500000  0.672478  0.988124  1
  Co  Co11  1  0.000000  0.161574  0.000876  1
  Co  Co12  1  0.000000  0.838426  0.000876  1
  Co  Co13  1  0.500000  0.295626  0.435139  1
  Co  Co14  1  0.500000  0.704374  0.435139  1
  Co  Co15  1  0.000000  0.200459  0.569573  1
  Co  Co16  1  0.000000  0.799541  0.569573  1
  Co  Co17  1  0.500000  0.878664  0.707472  1
  Co  Co18  1  0.500000  0.121336  0.707472  1
  Co  Co19  1  0.000000  0.623953  0.297063  1
  Co  Co20  1  0.000000  0.376047  0.297063  1
  Ni  Ni21  1  0.000000  0.000000  0.835526  1
  Ni  Ni22  1  0.500000  0.500000  0.702504  1
  Ni  Ni23  1  0.000000  0.000000  0.296961  1
  P  P24  1  0.500000  0.500000  0.881097  1
  P  P25  1  0.000000  0.000000  0.116880  1
  P  P26  1  0.500000  0.500000  0.363614  1
  P  P27  1  0.000000  0.000000  0.651747  1
  P  P28  1  0.500000  0.310042  0.618133  1
  P  P29  1  0.500000  0.689958  0.618133  1
  P  P30  1  0.000000  0.188211  0.386554  1
  P  P31  1  0.000000  0.811789  0.386554  1
  P  P32  1  0.500000  0.850538  0.888360  1
  P  P33  1  0.500000  0.149462  0.888360  1
  P  P34  1  0.000000  0.665906  0.100936  1
  P  P35  1  0.000000  0.334094  0.100936  1
