# generated using pymatgen
data_Sr2TiFe5(PO4)6
_symmetry_space_group_name_H-M   'P 1'
_cell_length_a   6.62008662
_cell_length_b   9.28520218
_cell_length_c   9.30489906
_cell_angle_alpha   94.91004190
_cell_angle_beta   111.02031271
_cell_angle_gamma   110.69757422
_symmetry_Int_Tables_number   1
_chemical_formula_structural   Sr2TiFe5(PO4)6
_chemical_formula_sum   'Sr2 Ti1 Fe5 P6 O24'
_cell_volume   484.44509601
_cell_formula_units_Z   1
loop_
 _symmetry_equiv_pos_site_id
 _symmetry_equiv_pos_as_xyz
  1  'x, y, z'
loop_
 _atom_site_type_symbol
 _atom_site_label
 _atom_site_symmetry_multiplicity
 _atom_site_fract_x
 _atom_site_fract_y
 _atom_site_fract_z
 _atom_site_occupancy
  Sr  Sr0  1  0.402227  0.748884  0.251115  1
  Sr  Sr1  1  0.597774  0.251117  0.748886  1
  Ti  Ti2  1  0.000000  0.000000  0.000000  1
  Fe  Fe3  1  0.502702  0.382231  0.118090  1
  Fe  Fe4  1  0.997604  0.118084  0.382229  1
  Fe  Fe5  1  0.000000  0.500001  0.500001  1
  Fe  Fe6  1  0.002396  0.881914  0.617770  1
  Fe  Fe7  1  0.497296  0.617768  0.881908  1
  P  P8  1  0.999456  0.322652  0.174798  1
  P  P9  1  0.904108  0.753924  0.246090  1
  P  P10  1  0.497977  0.174794  0.322645  1
  P  P11  1  0.502021  0.825205  0.677353  1
  P  P12  1  0.095893  0.246077  0.753911  1
  P  P13  1  0.000544  0.677346  0.825201  1
  O  O14  1  0.774462  0.341848  0.070394  1
  O  O15  1  0.644548  0.634878  0.133619  1
  O  O16  1  0.334581  0.132403  0.135206  1
  O  O17  1  0.933022  0.135217  0.132427  1
  O  O18  1  0.218119  0.422266  0.147978  1
  O  O19  1  0.020935  0.853213  0.146795  1
  O  O20  1  0.056663  0.670087  0.329921  1
  O  O21  1  0.637751  0.070376  0.341833  1
  O  O22  1  0.647198  0.355659  0.353351  1
  O  O23  1  0.061826  0.353378  0.355680  1
  O  O24  1  0.875993  0.866395  0.365112  1
  O  O25  1  0.352114  0.148000  0.422276  1
  O  O26  1  0.647886  0.852001  0.577724  1
  O  O27  1  0.124007  0.133605  0.634888  1
  O  O28  1  0.938175  0.646623  0.644321  1
  O  O29  1  0.352803  0.644342  0.646650  1
  O  O30  1  0.362249  0.929624  0.658167  1
  O  O31  1  0.943338  0.329914  0.670080  1
  O  O32  1  0.979066  0.146788  0.853206  1
  O  O33  1  0.781881  0.577734  0.852023  1
  O  O34  1  0.066978  0.864784  0.867574  1
  O  O35  1  0.665419  0.867598  0.864795  1
  O  O36  1  0.355452  0.365122  0.866381  1
  O  O37  1  0.225538  0.658152  0.929606  1
