# generated using pymatgen
data_Er3Th2Al2Ru3
_symmetry_space_group_name_H-M   'P 1'
_cell_length_a   8.35326095
_cell_length_b   8.39708115
_cell_length_c   8.39719557
_cell_angle_alpha   109.34254160
_cell_angle_beta   109.12750493
_cell_angle_gamma   109.58463852
_symmetry_Int_Tables_number   1
_chemical_formula_structural   Er3Th2Al2Ru3
_chemical_formula_sum   'Er6 Th4 Al4 Ru6'
_cell_volume   455.40815362
_cell_formula_units_Z   2
loop_
 _symmetry_equiv_pos_site_id
 _symmetry_equiv_pos_as_xyz
  1  'x, y, z'
loop_
 _atom_site_type_symbol
 _atom_site_label
 _atom_site_symmetry_multiplicity
 _atom_site_fract_x
 _atom_site_fract_y
 _atom_site_fract_z
 _atom_site_occupancy
  Er  Er0  1  0.067140  0.753526  0.818727  1
  Er  Er1  1  0.815593  0.066550  0.750116  1
  Er  Er2  1  0.216242  0.217520  0.213366  1
  Er  Er3  1  0.499991  0.994768  0.280088  1
  Er  Er4  1  0.278392  0.501069  0.996488  1
  Er  Er5  1  0.998590  0.283232  0.507371  1
  Th  Th6  1  0.248094  0.686420  0.440125  1
  Th  Th7  1  0.754276  0.812419  0.061289  1
  Th  Th8  1  0.441149  0.249307  0.687906  1
  Th  Th9  1  0.690364  0.439394  0.249491  1
  Al  Al10  1  0.498840  0.999973  0.907474  1
  Al  Al11  1  0.603209  0.601557  0.596886  1
  Al  Al12  1  0.908569  0.495395  0.993382  1
  Al  Al13  1  0.997313  0.908218  0.507890  1
  Ru  Ru14  1  0.255457  0.132890  0.869502  1
  Ru  Ru15  1  0.736899  0.368544  0.621197  1
  Ru  Ru16  1  0.869684  0.253109  0.132911  1
  Ru  Ru17  1  0.120537  0.868242  0.251844  1
  Ru  Ru18  1  0.619401  0.737815  0.363716  1
  Ru  Ru19  1  0.380265  0.630052  0.750232  1
