# generated using pymatgen
data_Sm8Hf11Si16Pd
_symmetry_space_group_name_H-M   'P 1'
_cell_length_a   7.35031589
_cell_length_b   7.35031594
_cell_length_c   13.38861976
_cell_angle_alpha   89.76118833
_cell_angle_beta   90.23881296
_cell_angle_gamma   89.77875911
_symmetry_Int_Tables_number   1
_chemical_formula_structural   Sm8Hf11Si16Pd
_chemical_formula_sum   'Sm8 Hf11 Si16 Pd1'
_cell_volume   723.33088085
_cell_formula_units_Z   1
loop_
 _symmetry_equiv_pos_site_id
 _symmetry_equiv_pos_as_xyz
  1  'x, y, z'
loop_
 _atom_site_type_symbol
 _atom_site_label
 _atom_site_symmetry_multiplicity
 _atom_site_fract_x
 _atom_site_fract_y
 _atom_site_fract_z
 _atom_site_occupancy
  Sm  Sm0  1  0.997892  0.344527  0.210633  1
  Sm  Sm1  1  0.005386  0.654613  0.716796  1
  Sm  Sm2  1  0.156349  0.494313  0.464723  1
  Sm  Sm3  1  0.499535  0.848262  0.032864  1
  Sm  Sm4  1  0.848262  0.499535  0.967136  1
  Sm  Sm5  1  0.494313  0.156349  0.535277  1
  Sm  Sm6  1  0.344527  0.997892  0.789367  1
  Sm  Sm7  1  0.654613  0.005386  0.283204  1
  Hf  Hf8  1  0.824706  0.824706  0.500000  1
  Hf  Hf9  1  0.321892  0.676821  0.248777  1
  Hf  Hf10  1  0.676821  0.321892  0.751223  1
  Hf  Hf11  1  0.146748  0.994766  0.373244  1
  Hf  Hf12  1  0.855648  0.004654  0.878696  1
  Hf  Hf13  1  0.504762  0.647619  0.626219  1
  Hf  Hf14  1  0.353799  0.491721  0.878220  1
  Hf  Hf15  1  0.491721  0.353799  0.121780  1
  Hf  Hf16  1  0.647619  0.504762  0.373781  1
  Hf  Hf17  1  0.994766  0.146748  0.626756  1
  Hf  Hf18  1  0.004654  0.855648  0.121304  1
  Si  Si19  1  0.361652  0.296142  0.314435  1
  Si  Si20  1  0.637202  0.704446  0.818429  1
  Si  Si21  1  0.206464  0.863268  0.567301  1
  Si  Si22  1  0.132298  0.781777  0.930720  1
  Si  Si23  1  0.781777  0.132298  0.069280  1
  Si  Si24  1  0.863268  0.206464  0.432699  1
  Si  Si25  1  0.296142  0.361652  0.685565  1
  Si  Si26  1  0.704446  0.637202  0.181571  1
  Si  Si27  1  0.290694  0.054866  0.185733  1
  Si  Si28  1  0.706930  0.949916  0.686758  1
  Si  Si29  1  0.449991  0.793518  0.435129  1
  Si  Si30  1  0.211119  0.561991  0.063872  1
  Si  Si31  1  0.561991  0.211119  0.936128  1
  Si  Si32  1  0.793518  0.449991  0.564871  1
  Si  Si33  1  0.054866  0.290694  0.814267  1
  Si  Si34  1  0.949916  0.706930  0.313242  1
  Pd  Pd35  1  0.173711  0.173711  0.000000  1
