# generated using pymatgen
data_Rb2Zr3(ScS5)2
_symmetry_space_group_name_H-M   'P 1'
_cell_length_a   6.32418218
_cell_length_b   10.74813490
_cell_length_c   8.63244700
_cell_angle_alpha   58.96207309
_cell_angle_beta   68.52754947
_cell_angle_gamma   89.97246292
_symmetry_Int_Tables_number   1
_chemical_formula_structural   Rb2Zr3(ScS5)2
_chemical_formula_sum   'Rb2 Zr3 Sc2 S10'
_cell_volume   454.64133937
_cell_formula_units_Z   1
loop_
 _symmetry_equiv_pos_site_id
 _symmetry_equiv_pos_as_xyz
  1  'x, y, z'
loop_
 _atom_site_type_symbol
 _atom_site_label
 _atom_site_symmetry_multiplicity
 _atom_site_fract_x
 _atom_site_fract_y
 _atom_site_fract_z
 _atom_site_occupancy
  Rb  Rb0  1  0.787972  0.076256  0.424653  1
  Rb  Rb1  1  0.012041  0.524234  0.975479  1
  Zr  Zr2  1  0.395341  0.792604  0.207185  1
  Zr  Zr3  1  0.601914  0.207778  0.799264  1
  Zr  Zr4  1  0.999503  0.999000  0.997721  1
  Sc  Sc5  1  0.799617  0.598503  0.403105  1
  Sc  Sc6  1  0.203052  0.401455  0.593047  1
  S  S7  1  0.993131  0.835732  0.349167  1
  S  S8  1  0.589766  0.036839  0.150873  1
  S  S9  1  0.188988  0.237008  0.951103  1
  S  S10  1  0.790271  0.436754  0.750440  1
  S  S11  1  0.395757  0.637962  0.545310  1
  S  S12  1  0.404876  0.962868  0.853853  1
  S  S13  1  0.007599  0.162119  0.651570  1
  S  S14  1  0.610742  0.360429  0.451846  1
  S  S15  1  0.211964  0.563759  0.248030  1
  S  S16  1  0.807468  0.766701  0.047352  1
