# generated using pymatgen
data_Tb6ScTi3Al12Rh7
_symmetry_space_group_name_H-M   'P 1'
_cell_length_a   9.02263687
_cell_length_b   9.02263604
_cell_length_c   9.04423338
_cell_angle_alpha   60.07896114
_cell_angle_beta   60.07896239
_cell_angle_gamma   60.00000609
_symmetry_Int_Tables_number   1
_chemical_formula_structural   Tb6ScTi3Al12Rh7
_chemical_formula_sum   'Tb6 Sc1 Ti3 Al12 Rh7'
_cell_volume   521.24392242
_cell_formula_units_Z   1
loop_
 _symmetry_equiv_pos_site_id
 _symmetry_equiv_pos_as_xyz
  1  'x, y, z'
loop_
 _atom_site_type_symbol
 _atom_site_label
 _atom_site_symmetry_multiplicity
 _atom_site_fract_x
 _atom_site_fract_y
 _atom_site_fract_z
 _atom_site_occupancy
  Tb  Tb0  1  0.702622  0.702622  0.295830  1
  Tb  Tb1  1  0.298926  0.702622  0.295830  1
  Tb  Tb2  1  0.702622  0.298926  0.295830  1
  Tb  Tb3  1  0.295489  0.295489  0.703839  1
  Tb  Tb4  1  0.705182  0.295489  0.703839  1
  Tb  Tb5  1  0.295489  0.705182  0.703839  1
  Sc  Sc6  1  0.882189  0.882189  0.353431  1
  Ti  Ti7  1  0.880693  0.357249  0.881363  1
  Ti  Ti8  1  0.357249  0.880693  0.881363  1
  Ti  Ti9  1  0.880693  0.880693  0.881363  1
  Al  Al10  1  0.119567  0.119567  0.641299  1
  Al  Al11  1  0.120800  0.642033  0.116367  1
  Al  Al12  1  0.642033  0.120800  0.116367  1
  Al  Al13  1  0.120800  0.120800  0.116367  1
  Al  Al14  1  0.670846  0.670846  0.987461  1
  Al  Al15  1  0.669450  0.987666  0.673432  1
  Al  Al16  1  0.987666  0.669450  0.673432  1
  Al  Al17  1  0.669450  0.669450  0.673432  1
  Al  Al18  1  0.328334  0.328334  0.014997  1
  Al  Al19  1  0.327891  0.016338  0.327879  1
  Al  Al20  1  0.016338  0.327891  0.327879  1
  Al  Al21  1  0.327891  0.327891  0.327879  1
  Rh  Rh22  1  0.003529  0.003529  0.989411  1
  Rh  Rh23  1  0.999363  0.999363  0.506404  1
  Rh  Rh24  1  0.494870  0.999363  0.506404  1
  Rh  Rh25  1  0.999363  0.494870  0.506404  1
  Rh  Rh26  1  0.500964  0.500964  0.999352  1
  Rh  Rh27  1  0.998721  0.500964  0.999352  1
  Rh  Rh28  1  0.500964  0.998721  0.999352  1
