# generated using pymatgen
data_Dy12Ho7LuPb16
_symmetry_space_group_name_H-M   'P 1'
_cell_length_a   8.19043500
_cell_length_b   8.27402786
_cell_length_c   15.61501100
_cell_angle_alpha   90.00009702
_cell_angle_beta   90.00204139
_cell_angle_gamma   89.95194481
_symmetry_Int_Tables_number   1
_chemical_formula_structural   Dy12Ho7LuPb16
_chemical_formula_sum   'Dy12 Ho7 Lu1 Pb16'
_cell_volume   1058.19593436
_cell_formula_units_Z   1
loop_
 _symmetry_equiv_pos_site_id
 _symmetry_equiv_pos_as_xyz
  1  'x, y, z'
loop_
 _atom_site_type_symbol
 _atom_site_label
 _atom_site_symmetry_multiplicity
 _atom_site_fract_x
 _atom_site_fract_y
 _atom_site_fract_z
 _atom_site_occupancy
  Dy  Dy0  1  0.623339  0.158792  0.120933  1
  Dy  Dy1  1  0.123385  0.341191  0.379233  1
  Dy  Dy2  1  0.376208  0.840949  0.620932  1
  Dy  Dy3  1  0.877270  0.658373  0.878996  1
  Dy  Dy4  1  0.535701  0.323894  0.899821  1
  Dy  Dy5  1  0.036232  0.176810  0.600131  1
  Dy  Dy6  1  0.464037  0.676393  0.399929  1
  Dy  Dy7  1  0.963949  0.823620  0.100205  1
  Dy  Dy8  1  0.464013  0.676361  0.100054  1
  Dy  Dy9  1  0.963923  0.823651  0.399820  1
  Dy  Dy10  1  0.535731  0.323928  0.600157  1
  Dy  Dy11  1  0.036254  0.176780  0.899887  1
  Ho  Ho12  1  0.376175  0.840982  0.879077  1
  Ho  Ho13  1  0.877242  0.658335  0.620991  1
  Ho  Ho14  1  0.623372  0.158757  0.379078  1
  Ho  Ho15  1  0.123419  0.341229  0.120763  1
  Ho  Ho16  1  0.708361  0.996012  0.749993  1
  Ho  Ho17  1  0.791558  0.495986  0.250006  1
  Ho  Ho18  1  0.291569  0.004195  0.249993  1
  Lu  Lu19  1  0.208822  0.504431  0.750003  1
  Pb  Pb20  1  0.281007  0.033121  0.042754  1
  Pb  Pb21  1  0.780960  0.466768  0.457256  1
  Pb  Pb22  1  0.719020  0.966849  0.542911  1
  Pb  Pb23  1  0.218992  0.532936  0.956482  1
  Pb  Pb24  1  0.718922  0.966846  0.957030  1
  Pb  Pb25  1  0.218882  0.532932  0.543569  1
  Pb  Pb26  1  0.281114  0.033115  0.457193  1
  Pb  Pb27  1  0.781064  0.466767  0.042805  1
  Pb  Pb28  1  0.570715  0.625426  0.750002  1
  Pb  Pb29  1  0.072384  0.873021  0.749993  1
  Pb  Pb30  1  0.427878  0.373867  0.250006  1
  Pb  Pb31  1  0.927875  0.126221  0.249998  1
  Pb  Pb32  1  0.347110  0.155190  0.750014  1
  Pb  Pb33  1  0.847707  0.346655  0.749980  1
  Pb  Pb34  1  0.652859  0.846277  0.250020  1
  Pb  Pb35  1  0.152946  0.653337  0.249985  1
