# generated using pymatgen
data_Tb4Tm8TcRu3
_symmetry_space_group_name_H-M   'P 1'
_cell_length_a   6.28517513
_cell_length_b   7.29681405
_cell_length_c   9.04207200
_cell_angle_alpha   90.00000000
_cell_angle_beta   90.00000000
_cell_angle_gamma   90.00533813
_symmetry_Int_Tables_number   1
_chemical_formula_structural   Tb4Tm8TcRu3
_chemical_formula_sum   'Tb4 Tm8 Tc1 Ru3'
_cell_volume   414.68528150
_cell_formula_units_Z   1
loop_
 _symmetry_equiv_pos_site_id
 _symmetry_equiv_pos_as_xyz
  1  'x, y, z'
loop_
 _atom_site_type_symbol
 _atom_site_label
 _atom_site_symmetry_multiplicity
 _atom_site_fract_x
 _atom_site_fract_y
 _atom_site_fract_z
 _atom_site_occupancy
  Tb  Tb0  1  0.629430  0.040797  0.250000  1
  Tb  Tb1  1  0.368237  0.957319  0.750000  1
  Tb  Tb2  1  0.131745  0.457553  0.750000  1
  Tb  Tb3  1  0.874078  0.542075  0.250000  1
  Tm  Tm4  1  0.165900  0.175719  0.064914  1
  Tm  Tm5  1  0.833056  0.824028  0.935307  1
  Tm  Tm6  1  0.664524  0.325292  0.936490  1
  Tm  Tm7  1  0.833056  0.824028  0.564693  1
  Tm  Tm8  1  0.333279  0.675717  0.064643  1
  Tm  Tm9  1  0.165900  0.175719  0.435086  1
  Tm  Tm10  1  0.333279  0.675717  0.435357  1
  Tm  Tm11  1  0.664524  0.325292  0.563510  1
  Tc  Tc12  1  0.461353  0.384540  0.250000  1
  Ru  Ru13  1  0.542246  0.616869  0.750000  1
  Ru  Ru14  1  0.958474  0.115050  0.750000  1
  Ru  Ru15  1  0.040920  0.884283  0.250000  1
