# generated using pymatgen
data_Zn2Cd2P6SeN12
_symmetry_space_group_name_H-M   'P 1'
_cell_length_a   7.29870866
_cell_length_b   7.32306529
_cell_length_c   7.29870963
_cell_angle_alpha   109.60361235
_cell_angle_beta   109.07096895
_cell_angle_gamma   109.60361339
_symmetry_Int_Tables_number   1
_chemical_formula_structural   Zn2Cd2P6SeN12
_chemical_formula_sum   'Zn2 Cd2 P6 Se1 N12'
_cell_volume   300.79991582
_cell_formula_units_Z   1
loop_
 _symmetry_equiv_pos_site_id
 _symmetry_equiv_pos_as_xyz
  1  'x, y, z'
loop_
 _atom_site_type_symbol
 _atom_site_label
 _atom_site_symmetry_multiplicity
 _atom_site_fract_x
 _atom_site_fract_y
 _atom_site_fract_z
 _atom_site_occupancy
  Zn  Zn0  1  0.629625  0.000000  0.003677  1
  Zn  Zn1  1  0.003677  0.000000  0.629625  1
  Cd  Cd2  1  0.006318  0.687560  0.006318  1
  Cd  Cd3  1  0.318757  0.312440  0.318757  1
  P  P4  1  0.255897  0.751316  0.507776  1
  P  P5  1  0.756461  0.248684  0.504582  1
  P  P6  1  0.753797  0.500000  0.253797  1
  P  P7  1  0.253797  0.500000  0.753797  1
  P  P8  1  0.507776  0.751316  0.255897  1
  P  P9  1  0.504582  0.248684  0.756461  1
  Se  Se10  1  0.954298  0.000000  0.954298  1
  N  N11  1  0.716897  0.276824  0.280760  1
  N  N12  1  0.290476  0.722397  0.290476  1
  N  N13  1  0.289833  0.566966  0.570817  1
  N  N14  1  0.570817  0.566966  0.289833  1
  N  N15  1  0.440072  0.723176  0.003935  1
  N  N16  1  0.003935  0.723176  0.440072  1
  N  N17  1  0.568078  0.277603  0.568078  1
  N  N18  1  0.732255  0.000000  0.435173  1
  N  N19  1  0.435173  0.000000  0.732255  1
  N  N20  1  0.722867  0.433034  0.003851  1
  N  N21  1  0.280760  0.276824  0.716897  1
  N  N22  1  0.003851  0.433034  0.722867  1
