# generated using pymatgen
data_Nb3Co4ReB4
_symmetry_space_group_name_H-M   'P 1'
_cell_length_a   3.29486200
_cell_length_b   5.81790974
_cell_length_c   6.73784594
_cell_angle_alpha   89.41491753
_cell_angle_beta   90.00000000
_cell_angle_gamma   90.00000000
_symmetry_Int_Tables_number   1
_chemical_formula_structural   Nb3Co4ReB4
_chemical_formula_sum   'Nb3 Co4 Re1 B4'
_cell_volume   129.15244767
_cell_formula_units_Z   1
loop_
 _symmetry_equiv_pos_site_id
 _symmetry_equiv_pos_as_xyz
  1  'x, y, z'
loop_
 _atom_site_type_symbol
 _atom_site_label
 _atom_site_symmetry_multiplicity
 _atom_site_fract_x
 _atom_site_fract_y
 _atom_site_fract_z
 _atom_site_occupancy
  Nb  Nb0  1  0.250000  0.527610  0.678212  1
  Nb  Nb1  1  0.750000  0.474067  0.318999  1
  Nb  Nb2  1  0.250000  0.025704  0.824626  1
  Co  Co3  1  0.750000  0.859805  0.555755  1
  Co  Co4  1  0.250000  0.145460  0.441435  1
  Co  Co5  1  0.750000  0.352510  0.942844  1
  Co  Co6  1  0.250000  0.642612  0.058555  1
  Re  Re7  1  0.750000  0.973965  0.175701  1
  B  B8  1  0.250000  0.262147  0.125916  1
  B  B9  1  0.750000  0.724963  0.890625  1
  B  B10  1  0.250000  0.782479  0.369462  1
  B  B11  1  0.750000  0.228677  0.617869  1
