# generated using pymatgen
data_Tb19YIr11Ru
_symmetry_space_group_name_H-M   'P 1'
_cell_length_a   10.93168804
_cell_length_b   10.93122205
_cell_length_c   6.42613703
_cell_angle_alpha   89.99192528
_cell_angle_beta   89.99366933
_cell_angle_gamma   90.00698128
_symmetry_Int_Tables_number   1
_chemical_formula_structural   Tb19YIr11Ru
_chemical_formula_sum   'Tb19 Y1 Ir11 Ru1'
_cell_volume   767.90220998
_cell_formula_units_Z   1
loop_
 _symmetry_equiv_pos_site_id
 _symmetry_equiv_pos_as_xyz
  1  'x, y, z'
loop_
 _atom_site_type_symbol
 _atom_site_label
 _atom_site_symmetry_multiplicity
 _atom_site_fract_x
 _atom_site_fract_y
 _atom_site_fract_z
 _atom_site_occupancy
  Tb  Tb0  1  0.292399  0.087285  0.377455  1
  Tb  Tb1  1  0.292722  0.912669  0.880208  1
  Tb  Tb2  1  0.707291  0.087345  0.880215  1
  Tb  Tb3  1  0.707619  0.912731  0.377506  1
  Tb  Tb4  1  0.587340  0.792717  0.880203  1
  Tb  Tb5  1  0.587255  0.207622  0.377515  1
  Tb  Tb6  1  0.412739  0.792368  0.377494  1
  Tb  Tb7  1  0.412643  0.207279  0.880242  1
  Tb  Tb8  1  0.208953  0.411627  0.621316  1
  Tb  Tb9  1  0.208938  0.588179  0.121066  1
  Tb  Tb10  1  0.791074  0.411769  0.121092  1
  Tb  Tb11  1  0.791014  0.588341  0.621344  1
  Tb  Tb12  1  0.911789  0.708927  0.121070  1
  Tb  Tb13  1  0.911676  0.291030  0.621293  1
  Tb  Tb14  1  0.088367  0.708985  0.621359  1
  Tb  Tb15  1  0.999998  0.000013  0.499251  1
  Tb  Tb16  1  0.000018  0.000040  0.999259  1
  Tb  Tb17  1  0.499986  0.499979  0.999251  1
  Tb  Tb18  1  0.500005  0.500013  0.499282  1
  Y  Y19  1  0.088216  0.291030  0.121103  1
  Ir  Ir20  1  0.846945  0.153802  0.249992  1
  Ir  Ir21  1  0.847015  0.846500  0.749790  1
  Ir  Ir22  1  0.152976  0.153444  0.749679  1
  Ir  Ir23  1  0.153027  0.846162  0.250002  1
  Ir  Ir24  1  0.653486  0.347027  0.749767  1
  Ir  Ir25  1  0.653830  0.653047  0.249984  1
  Ir  Ir26  1  0.346223  0.346964  0.250036  1
  Ir  Ir27  1  0.346513  0.652973  0.749774  1
  Ir  Ir28  1  0.500008  0.000003  0.624582  1
  Ir  Ir29  1  0.999956  0.500067  0.876462  1
  Ir  Ir30  1  0.999979  0.500061  0.376767  1
  Ru  Ru31  1  0.499997  0.999999  0.125636  1
