# generated using pymatgen
data_Ti13Al10Ir7
_symmetry_space_group_name_H-M   'P 1'
_cell_length_a   8.74701025
_cell_length_b   8.74700905
_cell_length_c   8.74701004
_cell_angle_alpha   59.83525076
_cell_angle_beta   59.83524539
_cell_angle_gamma   59.83526180
_symmetry_Int_Tables_number   1
_chemical_formula_structural   Ti13Al10Ir7
_chemical_formula_sum   'Ti13 Al10 Ir7'
_cell_volume   471.45140027
_cell_formula_units_Z   1
loop_
 _symmetry_equiv_pos_site_id
 _symmetry_equiv_pos_as_xyz
  1  'x, y, z'
loop_
 _atom_site_type_symbol
 _atom_site_label
 _atom_site_symmetry_multiplicity
 _atom_site_fract_x
 _atom_site_fract_y
 _atom_site_fract_z
 _atom_site_occupancy
  Ti  Ti0  1  0.214467  0.214467  0.785308  1
  Ti  Ti1  1  0.785308  0.214467  0.214467  1
  Ti  Ti2  1  0.214467  0.785308  0.214467  1
  Ti  Ti3  1  0.793339  0.793339  0.194467  1
  Ti  Ti4  1  0.194467  0.793339  0.793339  1
  Ti  Ti5  1  0.793339  0.194467  0.793339  1
  Ti  Ti6  1  0.377434  0.377434  0.377434  1
  Ti  Ti7  1  0.378269  0.868585  0.378269  1
  Ti  Ti8  1  0.868585  0.378269  0.378269  1
  Ti  Ti9  1  0.378269  0.378269  0.868585  1
  Ti  Ti10  1  0.843355  0.471515  0.843355  1
  Ti  Ti11  1  0.471515  0.843355  0.843355  1
  Ti  Ti12  1  0.843355  0.843355  0.471515  1
  Al  Al13  1  0.151640  0.151640  0.151640  1
  Al  Al14  1  0.154849  0.539222  0.154849  1
  Al  Al15  1  0.539222  0.154849  0.154849  1
  Al  Al16  1  0.154849  0.154849  0.539222  1
  Al  Al17  1  0.619511  0.619511  0.619511  1
  Al  Al18  1  0.620718  0.141304  0.620718  1
  Al  Al19  1  0.141304  0.620718  0.620718  1
  Al  Al20  1  0.620718  0.620718  0.141304  1
  Al  Al21  1  0.831882  0.831882  0.831882  1
  Al  Al22  1  0.003431  0.003431  0.003431  1
  Ir  Ir23  1  0.003690  0.003690  0.498039  1
  Ir  Ir24  1  0.498039  0.003690  0.003690  1
  Ir  Ir25  1  0.003690  0.498039  0.003690  1
  Ir  Ir26  1  0.499125  0.499125  0.001755  1
  Ir  Ir27  1  0.001755  0.499125  0.499125  1
  Ir  Ir28  1  0.499125  0.001755  0.499125  1
  Ir  Ir29  1  0.500283  0.500283  0.500283  1
