# generated using pymatgen
data_NaMn(PSe3)2
_symmetry_space_group_name_H-M   'P 1'
_cell_length_a   6.50776000
_cell_length_b   6.50775958
_cell_length_c   14.79033700
_cell_angle_alpha   90.00000000
_cell_angle_beta   90.00000000
_cell_angle_gamma   120.00000212
_symmetry_Int_Tables_number   1
_chemical_formula_structural   NaMn(PSe3)2
_chemical_formula_sum   'Na2 Mn2 P4 Se12'
_cell_volume   542.46499740
_cell_formula_units_Z   2
loop_
 _symmetry_equiv_pos_site_id
 _symmetry_equiv_pos_as_xyz
  1  'x, y, z'
loop_
 _atom_site_type_symbol
 _atom_site_label
 _atom_site_symmetry_multiplicity
 _atom_site_fract_x
 _atom_site_fract_y
 _atom_site_fract_z
 _atom_site_occupancy
  Na  Na0  1  0.333333  0.666667  0.750000  1
  Na  Na1  1  0.666667  0.333333  0.250000  1
  Mn  Mn2  1  0.000000  0.000000  0.750000  1
  Mn  Mn3  1  0.000000  0.000000  0.250000  1
  P  P4  1  0.666667  0.333333  0.825948  1
  P  P5  1  0.666667  0.333333  0.674052  1
  P  P6  1  0.333333  0.666667  0.174052  1
  P  P7  1  0.333333  0.666667  0.325948  1
  Se  Se8  1  0.689173  0.962888  0.132441  1
  Se  Se9  1  0.726283  0.037112  0.632441  1
  Se  Se10  1  0.037112  0.310827  0.367559  1
  Se  Se11  1  0.962888  0.273717  0.867559  1
  Se  Se12  1  0.273717  0.962888  0.367559  1
  Se  Se13  1  0.310827  0.037112  0.867559  1
  Se  Se14  1  0.726283  0.689173  0.867559  1
  Se  Se15  1  0.037112  0.726283  0.132441  1
  Se  Se16  1  0.962888  0.689173  0.632441  1
  Se  Se17  1  0.273717  0.310827  0.132441  1
  Se  Se18  1  0.310827  0.273717  0.632441  1
  Se  Se19  1  0.689173  0.726283  0.367559  1
