# generated using pymatgen
data_MgZr2MnCo8
_symmetry_space_group_name_H-M   'P 1'
_cell_length_a   4.82747761
_cell_length_b   4.82747787
_cell_length_c   8.34650308
_cell_angle_alpha   106.80957927
_cell_angle_beta   73.19042101
_cell_angle_gamma   119.99999842
_symmetry_Int_Tables_number   1
_chemical_formula_structural   MgZr2MnCo8
_chemical_formula_sum   'Mg1 Zr2 Mn1 Co8'
_cell_volume   158.78234662
_cell_formula_units_Z   1
loop_
 _symmetry_equiv_pos_site_id
 _symmetry_equiv_pos_as_xyz
  1  'x, y, z'
loop_
 _atom_site_type_symbol
 _atom_site_label
 _atom_site_symmetry_multiplicity
 _atom_site_fract_x
 _atom_site_fract_y
 _atom_site_fract_z
 _atom_site_occupancy
  Mg  Mg0  1  0.375187  0.624813  0.874439  1
  Zr  Zr1  1  0.998000  0.002000  0.005998  1
  Zr  Zr2  1  0.501689  0.498311  0.494932  1
  Mn  Mn3  1  0.873845  0.126155  0.378466  1
  Co  Co4  1  0.436643  0.563357  0.189308  1
  Co  Co5  1  0.937421  0.062579  0.685292  1
  Co  Co6  1  0.436643  0.062595  0.189308  1
  Co  Co7  1  0.937421  0.560135  0.685292  1
  Co  Co8  1  0.188008  0.811992  0.435976  1
  Co  Co9  1  0.687871  0.312129  0.936389  1
  Co  Co10  1  0.937405  0.563357  0.189308  1
  Co  Co11  1  0.439865  0.062579  0.685292  1
