# generated using pymatgen
data_Er5TlOs2
_symmetry_space_group_name_H-M   'P 1'
_cell_length_a   8.73784581
_cell_length_b   8.73784549
_cell_length_c   8.74488037
_cell_angle_alpha   127.93952736
_cell_angle_beta   127.92750048
_cell_angle_gamma   76.67446319
_symmetry_Int_Tables_number   1
_chemical_formula_structural   Er5TlOs2
_chemical_formula_sum   'Er10 Tl2 Os4'
_cell_volume   403.51653060
_cell_formula_units_Z   2
loop_
 _symmetry_equiv_pos_site_id
 _symmetry_equiv_pos_as_xyz
  1  'x, y, z'
loop_
 _atom_site_type_symbol
 _atom_site_label
 _atom_site_symmetry_multiplicity
 _atom_site_fract_x
 _atom_site_fract_y
 _atom_site_fract_z
 _atom_site_occupancy
  Er  Er0  1  0.000000  0.000000  0.000000  1
  Er  Er1  1  0.500000  0.500000  0.000000  1
  Er  Er2  1  0.791227  0.291213  0.821441  1
  Er  Er3  1  0.208773  0.708787  0.178559  1
  Er  Er4  1  0.469771  0.969785  0.178559  1
  Er  Er5  1  0.291279  0.469597  0.500088  1
  Er  Er6  1  0.030491  0.208810  0.500088  1
  Er  Er7  1  0.530229  0.030215  0.821441  1
  Er  Er8  1  0.708721  0.530403  0.499912  1
  Er  Er9  1  0.969509  0.791190  0.499912  1
  Tl  Tl10  1  0.249764  0.249764  0.000000  1
  Tl  Tl11  1  0.750236  0.750236  0.000000  1
  Os  Os12  1  0.138145  0.638478  0.776621  1
  Os  Os13  1  0.861855  0.361522  0.223379  1
  Os  Os14  1  0.638733  0.861600  0.500333  1
  Os  Os15  1  0.361267  0.138400  0.499667  1
