# generated using pymatgen
data_PrThInNi2
_symmetry_space_group_name_H-M   'P 1'
_cell_length_a   7.67123658
_cell_length_b   7.67123658
_cell_length_c   3.70896300
_cell_angle_alpha   90.00000000
_cell_angle_beta   90.00000000
_cell_angle_gamma   92.38938798
_symmetry_Int_Tables_number   1
_chemical_formula_structural   PrThInNi2
_chemical_formula_sum   'Pr2 Th2 In2 Ni4'
_cell_volume   218.07480916
_cell_formula_units_Z   2
loop_
 _symmetry_equiv_pos_site_id
 _symmetry_equiv_pos_as_xyz
  1  'x, y, z'
loop_
 _atom_site_type_symbol
 _atom_site_label
 _atom_site_symmetry_multiplicity
 _atom_site_fract_x
 _atom_site_fract_y
 _atom_site_fract_z
 _atom_site_occupancy
  Pr  Pr0  1  0.173998  0.326002  0.500000  1
  Pr  Pr1  1  0.826002  0.673998  0.500000  1
  Th  Th2  1  0.674547  0.174547  0.500000  1
  Th  Th3  1  0.325453  0.825453  0.500000  1
  In  In4  1  0.500000  0.500000  0.000000  1
  In  In5  1  0.000000  0.000000  0.000000  1
  Ni  Ni6  1  0.130574  0.630574  0.000000  1
  Ni  Ni7  1  0.869426  0.369426  0.000000  1
  Ni  Ni8  1  0.616336  0.883664  0.000000  1
  Ni  Ni9  1  0.383664  0.116336  0.000000  1
