# generated using pymatgen
data_Li4MgPtO6
_symmetry_space_group_name_H-M   'P 1'
_cell_length_a   5.16636306
_cell_length_b   5.16636658
_cell_length_c   5.12817289
_cell_angle_alpha   99.76155003
_cell_angle_beta   99.76142788
_cell_angle_gamma   120.03934049
_symmetry_Int_Tables_number   1
_chemical_formula_structural   Li4MgPtO6
_chemical_formula_sum   'Li4 Mg1 Pt1 O6'
_cell_volume   111.46355274
_cell_formula_units_Z   1
loop_
 _symmetry_equiv_pos_site_id
 _symmetry_equiv_pos_as_xyz
  1  'x, y, z'
loop_
 _atom_site_type_symbol
 _atom_site_label
 _atom_site_symmetry_multiplicity
 _atom_site_fract_x
 _atom_site_fract_y
 _atom_site_fract_z
 _atom_site_occupancy
  Li  Li0  1  0.499540  0.500459  0.000000  1
  Li  Li1  1  0.005142  0.994858  0.499997  1
  Li  Li2  1  0.658240  0.341759  0.500002  1
  Li  Li3  1  0.339075  0.660919  0.499998  1
  Mg  Mg4  1  0.833932  0.166069  0.000000  1
  Pt  Pt5  1  0.166951  0.833050  0.000001  1
  O  O6  1  0.931038  0.592099  0.233829  1
  O  O7  1  0.565229  0.919588  0.237573  1
  O  O8  1  0.239460  0.226946  0.237802  1
  O  O9  1  0.773057  0.760541  0.762199  1
  O  O10  1  0.080413  0.434771  0.762427  1
  O  O11  1  0.407904  0.068964  0.766174  1
