# generated using pymatgen
data_Nd6Er10Cd4TcPd3
_symmetry_space_group_name_H-M   'P 1'
_cell_length_a   9.78155493
_cell_length_b   9.78155450
_cell_length_c   9.78155536
_cell_angle_alpha   59.44606316
_cell_angle_beta   59.44606521
_cell_angle_gamma   59.44606868
_symmetry_Int_Tables_number   1
_chemical_formula_structural   Nd6Er10Cd4TcPd3
_chemical_formula_sum   'Nd6 Er10 Cd4 Tc1 Pd3'
_cell_volume   653.43276961
_cell_formula_units_Z   1
loop_
 _symmetry_equiv_pos_site_id
 _symmetry_equiv_pos_as_xyz
  1  'x, y, z'
loop_
 _atom_site_type_symbol
 _atom_site_label
 _atom_site_symmetry_multiplicity
 _atom_site_fract_x
 _atom_site_fract_y
 _atom_site_fract_z
 _atom_site_occupancy
  Nd  Nd0  1  0.936493  0.562799  0.562799  1
  Nd  Nd1  1  0.554016  0.940090  0.940090  1
  Nd  Nd2  1  0.562799  0.936493  0.562799  1
  Nd  Nd3  1  0.940090  0.554016  0.940090  1
  Nd  Nd4  1  0.562799  0.562799  0.936493  1
  Nd  Nd5  1  0.940090  0.940090  0.554016  1
  Er  Er6  1  0.352600  0.352600  0.352600  1
  Er  Er7  1  0.349129  0.349129  0.951028  1
  Er  Er8  1  0.349129  0.951028  0.349129  1
  Er  Er9  1  0.951028  0.349129  0.349129  1
  Er  Er10  1  0.819033  0.185199  0.185199  1
  Er  Er11  1  0.184601  0.812280  0.812280  1
  Er  Er12  1  0.185199  0.819033  0.185199  1
  Er  Er13  1  0.812280  0.184601  0.812280  1
  Er  Er14  1  0.185199  0.185199  0.819033  1
  Er  Er15  1  0.812280  0.812280  0.184601  1
  Cd  Cd16  1  0.578907  0.578907  0.578907  1
  Cd  Cd17  1  0.579292  0.579292  0.259693  1
  Cd  Cd18  1  0.579292  0.259693  0.579292  1
  Cd  Cd19  1  0.259693  0.579292  0.579292  1
  Tc  Tc20  1  0.144203  0.144203  0.144203  1
  Pd  Pd21  1  0.145111  0.145111  0.571625  1
  Pd  Pd22  1  0.145111  0.571625  0.145111  1
  Pd  Pd23  1  0.571625  0.145111  0.145111  1
