# generated using pymatgen
data_Er2Tm2BBr6
_symmetry_space_group_name_H-M   'P 1'
_cell_length_a   3.91488200
_cell_length_b   13.04032200
_cell_length_c   13.50391600
_cell_angle_alpha   90.00000000
_cell_angle_beta   90.00000000
_cell_angle_gamma   90.00000000
_symmetry_Int_Tables_number   1
_chemical_formula_structural   Er2Tm2BBr6
_chemical_formula_sum   'Er4 Tm4 B2 Br12'
_cell_volume   689.39276225
_cell_formula_units_Z   2
loop_
 _symmetry_equiv_pos_site_id
 _symmetry_equiv_pos_as_xyz
  1  'x, y, z'
loop_
 _atom_site_type_symbol
 _atom_site_label
 _atom_site_symmetry_multiplicity
 _atom_site_fract_x
 _atom_site_fract_y
 _atom_site_fract_z
 _atom_site_occupancy
  Er  Er0  1  0.500000  0.122011  0.856576  1
  Er  Er1  1  0.500000  0.877989  0.143424  1
  Er  Er2  1  0.500000  0.622011  0.643424  1
  Er  Er3  1  0.500000  0.377989  0.356576  1
  Tm  Tm4  1  0.000000  0.100352  0.079710  1
  Tm  Tm5  1  0.000000  0.899648  0.920290  1
  Tm  Tm6  1  0.000000  0.600352  0.420290  1
  Tm  Tm7  1  0.000000  0.399648  0.579710  1
  B  B8  1  0.500000  0.000000  0.000000  1
  B  B9  1  0.500000  0.500000  0.500000  1
  Br  Br10  1  0.500000  0.268411  0.681782  1
  Br  Br11  1  0.500000  0.731589  0.318218  1
  Br  Br12  1  0.500000  0.768411  0.818218  1
  Br  Br13  1  0.500000  0.231589  0.181782  1
  Br  Br14  1  0.000000  0.260835  0.931275  1
  Br  Br15  1  0.000000  0.739165  0.068725  1
  Br  Br16  1  0.000000  0.480733  0.239489  1
  Br  Br17  1  0.000000  0.519267  0.760511  1
  Br  Br18  1  0.000000  0.980733  0.260511  1
  Br  Br19  1  0.000000  0.019267  0.739489  1
  Br  Br20  1  0.000000  0.239165  0.431275  1
  Br  Br21  1  0.000000  0.760835  0.568725  1
