# generated using pymatgen
data_GdYEr4Ta2O14
_symmetry_space_group_name_H-M   'P 1'
_cell_length_a   6.43282590
_cell_length_b   6.43282771
_cell_length_c   7.49725725
_cell_angle_alpha   89.97610646
_cell_angle_beta   90.02389250
_cell_angle_gamma   109.25736535
_symmetry_Int_Tables_number   1
_chemical_formula_structural   GdYEr4Ta2O14
_chemical_formula_sum   'Gd1 Y1 Er4 Ta2 O14'
_cell_volume   292.88661216
_cell_formula_units_Z   1
loop_
 _symmetry_equiv_pos_site_id
 _symmetry_equiv_pos_as_xyz
  1  'x, y, z'
loop_
 _atom_site_type_symbol
 _atom_site_label
 _atom_site_symmetry_multiplicity
 _atom_site_fract_x
 _atom_site_fract_y
 _atom_site_fract_z
 _atom_site_occupancy
  Gd  Gd0  1  0.500000  0.500000  0.500000  1
  Y  Y1  1  0.500000  0.500000  0.000000  1
  Er  Er2  1  0.534141  0.000903  0.751104  1
  Er  Er3  1  0.000903  0.534141  0.248896  1
  Er  Er4  1  0.465859  0.999097  0.248896  1
  Er  Er5  1  0.999097  0.465859  0.751104  1
  Ta  Ta6  1  0.000000  0.000000  0.500000  1
  Ta  Ta7  1  0.000000  0.000000  0.000000  1
  O  O8  1  0.677314  0.929484  0.466369  1
  O  O9  1  0.929484  0.677314  0.533631  1
  O  O10  1  0.677556  0.928905  0.033426  1
  O  O11  1  0.928905  0.677556  0.966574  1
  O  O12  1  0.322686  0.070516  0.533631  1
  O  O13  1  0.070516  0.322686  0.466369  1
  O  O14  1  0.322444  0.071095  0.966574  1
  O  O15  1  0.071095  0.322444  0.033426  1
  O  O16  1  0.931753  0.068247  0.750018  1
  O  O17  1  0.068247  0.931753  0.249982  1
  O  O18  1  0.367801  0.632199  0.752886  1
  O  O19  1  0.632199  0.367801  0.247114  1
  O  O20  1  0.640274  0.359726  0.752319  1
  O  O21  1  0.359726  0.640274  0.247681  1
