# generated using pymatgen
data_Cs2SbBr3F2
_symmetry_space_group_name_H-M   'P 1'
_cell_length_a   14.50601561
_cell_length_b   8.15855195
_cell_length_c   8.21624417
_cell_angle_alpha   59.64024541
_cell_angle_beta   84.62885206
_cell_angle_gamma   79.15223216
_symmetry_Int_Tables_number   1
_chemical_formula_structural   Cs2SbBr3F2
_chemical_formula_sum   'Cs6 Sb3 Br9 F6'
_cell_volume   824.03937878
_cell_formula_units_Z   3
loop_
 _symmetry_equiv_pos_site_id
 _symmetry_equiv_pos_as_xyz
  1  'x, y, z'
loop_
 _atom_site_type_symbol
 _atom_site_label
 _atom_site_symmetry_multiplicity
 _atom_site_fract_x
 _atom_site_fract_y
 _atom_site_fract_z
 _atom_site_occupancy
  Cs  Cs0  1  0.316081  0.896711  0.001660  1
  Cs  Cs1  1  0.906041  0.364226  0.331616  1
  Cs  Cs2  1  0.311058  0.228195  0.336366  1
  Cs  Cs3  1  0.688942  0.771805  0.663634  1
  Cs  Cs4  1  0.093959  0.635774  0.668384  1
  Cs  Cs5  1  0.683919  0.103289  0.998340  1
  Sb  Sb6  1  0.000000  0.000000  0.000000  1
  Sb  Sb7  1  0.607475  0.464378  0.334008  1
  Sb  Sb8  1  0.392525  0.535622  0.665992  1
  Br  Br9  1  0.500000  0.500000  0.000000  1
  Br  Br10  1  0.114772  0.636919  0.114444  1
  Br  Br11  1  0.113677  0.078332  0.207617  1
  Br  Br12  1  0.499131  0.849779  0.328245  1
  Br  Br13  1  0.886752  0.826630  0.324943  1
  Br  Br14  1  0.113248  0.173369  0.675057  1
  Br  Br15  1  0.500869  0.150222  0.671755  1
  Br  Br16  1  0.886323  0.921668  0.792383  1
  Br  Br17  1  0.885228  0.363081  0.885556  1
  F  F18  1  0.692087  0.633168  0.139001  1
  F  F19  1  0.692532  0.238572  0.338862  1
  F  F20  1  0.311208  0.561767  0.466841  1
  F  F21  1  0.688792  0.438232  0.533159  1
  F  F22  1  0.307468  0.761429  0.661138  1
  F  F23  1  0.307913  0.366833  0.860999  1
