# generated using pymatgen
data_Y6Tm10Cd3Co4Ag
_symmetry_space_group_name_H-M   'P 1'
_cell_length_a   9.39303700
_cell_length_b   9.39303696
_cell_length_c   9.39303727
_cell_angle_alpha   59.92140850
_cell_angle_beta   59.92140606
_cell_angle_gamma   59.92141450
_symmetry_Int_Tables_number   1
_chemical_formula_structural   Y6Tm10Cd3Co4Ag
_chemical_formula_sum   'Y6 Tm10 Cd3 Co4 Ag1'
_cell_volume   584.96273026
_cell_formula_units_Z   1
loop_
 _symmetry_equiv_pos_site_id
 _symmetry_equiv_pos_as_xyz
  1  'x, y, z'
loop_
 _atom_site_type_symbol
 _atom_site_label
 _atom_site_symmetry_multiplicity
 _atom_site_fract_x
 _atom_site_fract_y
 _atom_site_fract_z
 _atom_site_occupancy
  Y  Y0  1  0.938197  0.559532  0.559532  1
  Y  Y1  1  0.559954  0.938549  0.938549  1
  Y  Y2  1  0.559532  0.938197  0.559532  1
  Y  Y3  1  0.938549  0.559954  0.938549  1
  Y  Y4  1  0.559532  0.559532  0.938197  1
  Y  Y5  1  0.938549  0.938549  0.559954  1
  Tm  Tm6  1  0.346753  0.346753  0.346753  1
  Tm  Tm7  1  0.346863  0.346863  0.960638  1
  Tm  Tm8  1  0.346863  0.960638  0.346863  1
  Tm  Tm9  1  0.960638  0.346863  0.346863  1
  Tm  Tm10  1  0.812255  0.187145  0.187145  1
  Tm  Tm11  1  0.185967  0.812350  0.812350  1
  Tm  Tm12  1  0.187145  0.812255  0.187145  1
  Tm  Tm13  1  0.812350  0.185967  0.812350  1
  Tm  Tm14  1  0.187145  0.187145  0.812255  1
  Tm  Tm15  1  0.812350  0.812350  0.185967  1
  Cd  Cd16  1  0.581088  0.581088  0.260335  1
  Cd  Cd17  1  0.581088  0.260335  0.581088  1
  Cd  Cd18  1  0.260335  0.581088  0.581088  1
  Co  Co19  1  0.141346  0.141346  0.141346  1
  Co  Co20  1  0.142467  0.142467  0.576450  1
  Co  Co21  1  0.142467  0.576450  0.142467  1
  Co  Co22  1  0.576450  0.142467  0.142467  1
  Ag  Ag23  1  0.582117  0.582117  0.582117  1
