# generated using pymatgen
data_Y5Tm5(In2Pd)4
_symmetry_space_group_name_H-M   'P 1'
_cell_length_a   3.62943000
_cell_length_b   8.13391838
_cell_length_c   18.21938600
_cell_angle_alpha   89.89608602
_cell_angle_beta   90.00000000
_cell_angle_gamma   90.00000000
_symmetry_Int_Tables_number   1
_chemical_formula_structural   Y5Tm5(In2Pd)4
_chemical_formula_sum   'Y5 Tm5 In8 Pd4'
_cell_volume   537.86248921
_cell_formula_units_Z   1
loop_
 _symmetry_equiv_pos_site_id
 _symmetry_equiv_pos_as_xyz
  1  'x, y, z'
loop_
 _atom_site_type_symbol
 _atom_site_label
 _atom_site_symmetry_multiplicity
 _atom_site_fract_x
 _atom_site_fract_y
 _atom_site_fract_z
 _atom_site_occupancy
  Y  Y0  1  0.000000  0.500428  0.499777  1
  Y  Y1  1  0.000000  0.999688  0.999996  1
  Y  Y2  1  0.000000  0.738793  0.281879  1
  Y  Y3  1  0.000000  0.261540  0.717572  1
  Y  Y4  1  0.000000  0.761652  0.782454  1
  Tm  Tm5  1  0.000000  0.239352  0.218616  1
  Tm  Tm6  1  0.000000  0.616696  0.084602  1
  Tm  Tm7  1  0.000000  0.382226  0.916123  1
  Tm  Tm8  1  0.000000  0.882551  0.583912  1
  Tm  Tm9  1  0.000000  0.117859  0.415431  1
  In  In10  1  0.500000  0.704611  0.934465  1
  In  In11  1  0.500000  0.293436  0.066955  1
  In  In12  1  0.500000  0.795642  0.433591  1
  In  In13  1  0.500000  0.205129  0.565778  1
  In  In14  1  0.500000  0.583408  0.650980  1
  In  In15  1  0.500000  0.417017  0.348999  1
  In  In16  1  0.500000  0.919041  0.150589  1
  In  In17  1  0.500000  0.083106  0.849305  1
  Pd  Pd18  1  0.500000  0.520098  0.194753  1
  Pd  Pd19  1  0.500000  0.474780  0.805679  1
  Pd  Pd20  1  0.500000  0.974773  0.694264  1
  Pd  Pd21  1  0.500000  0.028178  0.304280  1
