# generated using pymatgen
data_La8Al2CoOs
_symmetry_space_group_name_H-M   'P 1'
_cell_length_a   9.93361021
_cell_length_b   9.79470503
_cell_length_c   9.93361135
_cell_angle_alpha   60.46149814
_cell_angle_beta   60.51533701
_cell_angle_gamma   60.46149764
_symmetry_Int_Tables_number   1
_chemical_formula_structural   La8Al2CoOs
_chemical_formula_sum   'La16 Al4 Co2 Os2'
_cell_volume   690.83041959
_cell_formula_units_Z   2
loop_
 _symmetry_equiv_pos_site_id
 _symmetry_equiv_pos_as_xyz
  1  'x, y, z'
loop_
 _atom_site_type_symbol
 _atom_site_label
 _atom_site_symmetry_multiplicity
 _atom_site_fract_x
 _atom_site_fract_y
 _atom_site_fract_z
 _atom_site_occupancy
  La  La0  1  0.934075  0.946242  0.557567  1
  La  La1  1  0.565410  0.934590  0.565410  1
  La  La2  1  0.557567  0.946242  0.934075  1
  La  La3  1  0.688960  0.699407  0.302217  1
  La  La4  1  0.157412  0.147797  0.546992  1
  La  La5  1  0.302217  0.699407  0.688960  1
  La  La6  1  0.155493  0.147036  0.155493  1
  La  La7  1  0.546992  0.147797  0.157412  1
  La  La8  1  0.302810  0.697190  0.302810  1
  La  La9  1  0.302217  0.309415  0.688960  1
  La  La10  1  0.691764  0.308236  0.691764  1
  La  La11  1  0.934075  0.562115  0.557567  1
  La  La12  1  0.557567  0.562115  0.934075  1
  La  La13  1  0.155493  0.541978  0.155493  1
  La  La14  1  0.688960  0.309415  0.302217  1
  La  La15  1  0.943201  0.556799  0.943201  1
  Al  Al16  1  0.221509  0.925619  0.927254  1
  Al  Al17  1  0.927355  0.925427  0.927355  1
  Al  Al18  1  0.927254  0.925619  0.221509  1
  Al  Al19  1  0.927355  0.219861  0.927355  1
  Co  Co20  1  0.365644  0.912572  0.365644  1
  Co  Co21  1  0.365644  0.356138  0.365644  1
  Os  Os22  1  0.917267  0.359490  0.363753  1
  Os  Os23  1  0.363753  0.359490  0.917267  1
