# generated using pymatgen
data_K8SnBi4Pb3
_symmetry_space_group_name_H-M   'P 1'
_cell_length_a   6.71286846
_cell_length_b   6.89571100
_cell_length_c   13.85309612
_cell_angle_alpha   90.00000000
_cell_angle_beta   90.46964434
_cell_angle_gamma   90.00000000
_symmetry_Int_Tables_number   1
_chemical_formula_structural   K8SnBi4Pb3
_chemical_formula_sum   'K8 Sn1 Bi4 Pb3'
_cell_volume   641.23828983
_cell_formula_units_Z   1
loop_
 _symmetry_equiv_pos_site_id
 _symmetry_equiv_pos_as_xyz
  1  'x, y, z'
loop_
 _atom_site_type_symbol
 _atom_site_label
 _atom_site_symmetry_multiplicity
 _atom_site_fract_x
 _atom_site_fract_y
 _atom_site_fract_z
 _atom_site_occupancy
  K  K0  1  0.746172  0.392710  0.666853  1
  K  K1  1  0.250641  0.603399  0.334369  1
  K  K2  1  0.749359  0.603399  0.165631  1
  K  K3  1  0.252240  0.160424  0.510048  1
  K  K4  1  0.251034  0.840972  0.007247  1
  K  K5  1  0.748966  0.840972  0.492753  1
  K  K6  1  0.747760  0.160424  0.989952  1
  K  K7  1  0.253828  0.392710  0.833147  1
  Sn  Sn8  1  0.500000  0.903120  0.750000  1
  Bi  Bi9  1  0.247482  0.345629  0.103168  1
  Bi  Bi10  1  0.257410  0.658209  0.605540  1
  Bi  Bi11  1  0.742590  0.658209  0.894460  1
  Bi  Bi12  1  0.752518  0.345629  0.396832  1
  Pb  Pb13  1  0.500000  0.092762  0.250000  1
  Pb  Pb14  1  0.000000  0.095269  0.250000  1
  Pb  Pb15  1  0.000000  0.906164  0.750000  1
