# generated using pymatgen
data_Hf2Sn2Rh3
_symmetry_space_group_name_H-M   'P 1'
_cell_length_a   7.83415335
_cell_length_b   7.83415304
_cell_length_c   7.83415372
_cell_angle_alpha   33.67631582
_cell_angle_beta   33.67632256
_cell_angle_gamma   33.67631193
_symmetry_Int_Tables_number   1
_chemical_formula_structural   Hf2Sn2Rh3
_chemical_formula_sum   'Hf2 Sn2 Rh3'
_cell_volume   131.70678328
_cell_formula_units_Z   1
loop_
 _symmetry_equiv_pos_site_id
 _symmetry_equiv_pos_as_xyz
  1  'x, y, z'
loop_
 _atom_site_type_symbol
 _atom_site_label
 _atom_site_symmetry_multiplicity
 _atom_site_fract_x
 _atom_site_fract_y
 _atom_site_fract_z
 _atom_site_occupancy
  Hf  Hf0  1  0.753878  0.753878  0.753878  1
  Hf  Hf1  1  0.247210  0.247210  0.247210  1
  Sn  Sn2  1  0.995516  0.995516  0.995516  1
  Sn  Sn3  1  0.503524  0.503524  0.503524  1
  Rh  Rh4  1  0.123372  0.123372  0.123372  1
  Rh  Rh5  1  0.626622  0.626622  0.626622  1
  Rh  Rh6  1  0.374880  0.374880  0.374880  1
