# generated using pymatgen
data_Cs2NaNpF6
_symmetry_space_group_name_H-M   'P 1'
_cell_length_a   6.59971898
_cell_length_b   6.59972013
_cell_length_c   6.59971900
_cell_angle_alpha   60.00000067
_cell_angle_beta   59.99999489
_cell_angle_gamma   59.99999948
_symmetry_Int_Tables_number   1
_chemical_formula_structural   Cs2NaNpF6
_chemical_formula_sum   'Cs2 Na1 Np1 F6'
_cell_volume   203.26443323
_cell_formula_units_Z   1
loop_
 _symmetry_equiv_pos_site_id
 _symmetry_equiv_pos_as_xyz
  1  'x, y, z'
loop_
 _atom_site_type_symbol
 _atom_site_label
 _atom_site_symmetry_multiplicity
 _atom_site_fract_x
 _atom_site_fract_y
 _atom_site_fract_z
 _atom_site_occupancy
  Cs  Cs0  1  0.750000  0.750000  0.750000  1
  Cs  Cs1  1  0.250000  0.250000  0.250000  1
  Na  Na2  1  0.000000  0.000000  0.000000  1
  Np  Np3  1  0.500000  0.500000  0.500000  1
  F  F4  1  0.745446  0.254554  0.254554  1
  F  F5  1  0.745446  0.254554  0.745446  1
  F  F6  1  0.254554  0.745446  0.254554  1
  F  F7  1  0.254554  0.254554  0.745446  1
  F  F8  1  0.745446  0.745446  0.254554  1
  F  F9  1  0.254554  0.745446  0.745446  1
