# generated using pymatgen
data_RbVPdSe4
_symmetry_space_group_name_H-M   'P 1'
_cell_length_a   8.71051483
_cell_length_b   8.71051507
_cell_length_c   8.71051549
_cell_angle_alpha   117.89079569
_cell_angle_beta   117.89079693
_cell_angle_gamma   93.69380168
_symmetry_Int_Tables_number   1
_chemical_formula_structural   RbVPdSe4
_chemical_formula_sum   'Rb2 V2 Pd2 Se8'
_cell_volume   481.13921957
_cell_formula_units_Z   2
loop_
 _symmetry_equiv_pos_site_id
 _symmetry_equiv_pos_as_xyz
  1  'x, y, z'
loop_
 _atom_site_type_symbol
 _atom_site_label
 _atom_site_symmetry_multiplicity
 _atom_site_fract_x
 _atom_site_fract_y
 _atom_site_fract_z
 _atom_site_occupancy
  Rb  Rb0  1  0.250000  0.250000  0.000000  1
  Rb  Rb1  1  0.750000  0.750000  0.000000  1
  V  V2  1  0.750000  0.250000  0.500000  1
  V  V3  1  0.250000  0.750000  0.500000  1
  Pd  Pd4  1  0.500000  0.000000  0.500000  1
  Pd  Pd5  1  0.000000  0.500000  0.500000  1
  Se  Se6  1  0.216331  0.716330  0.206590  1
  Se  Se7  1  0.490259  0.990259  0.206590  1
  Se  Se8  1  0.009740  0.216330  0.500000  1
  Se  Se9  1  0.283669  0.490260  0.500000  1
  Se  Se10  1  0.716330  0.509740  0.500000  1
  Se  Se11  1  0.990259  0.783669  0.500000  1
  Se  Se12  1  0.509740  0.009740  0.793409  1
  Se  Se13  1  0.783669  0.283669  0.793409  1
