# generated using pymatgen
data_NiIr3O8
_symmetry_space_group_name_H-M   'P 1'
_cell_length_a   5.53013704
_cell_length_b   5.52958505
_cell_length_c   4.56069840
_cell_angle_alpha   89.49148187
_cell_angle_beta   89.49299184
_cell_angle_gamma   69.72322039
_symmetry_Int_Tables_number   1
_chemical_formula_structural   NiIr3O8
_chemical_formula_sum   'Ni1 Ir3 O8'
_cell_volume   130.81300934
_cell_formula_units_Z   1
loop_
 _symmetry_equiv_pos_site_id
 _symmetry_equiv_pos_as_xyz
  1  'x, y, z'
loop_
 _atom_site_type_symbol
 _atom_site_label
 _atom_site_symmetry_multiplicity
 _atom_site_fract_x
 _atom_site_fract_y
 _atom_site_fract_z
 _atom_site_occupancy
  Ni  Ni0  1  0.250125  0.250127  0.500863  1
  Ir  Ir1  1  0.249956  0.749952  0.999918  1
  Ir  Ir2  1  0.749953  0.249956  0.999920  1
  Ir  Ir3  1  0.750012  0.750013  0.499945  1
  O  O4  1  0.404095  0.404054  0.820586  1
  O  O5  1  0.593957  0.593919  0.196210  1
  O  O6  1  0.893891  0.407761  0.695962  1
  O  O7  1  0.407761  0.893916  0.695921  1
  O  O8  1  0.092187  0.606099  0.303948  1
  O  O9  1  0.606123  0.092188  0.303909  1
  O  O10  1  0.095979  0.096015  0.178986  1
  O  O11  1  0.905962  0.906001  0.803832  1
