# generated using pymatgen
data_DyThS3
_symmetry_space_group_name_H-M   'P 1'
_cell_length_a   3.93941100
_cell_length_b   10.51119600
_cell_length_c   10.74629800
_cell_angle_alpha   90.00000000
_cell_angle_beta   90.00000000
_cell_angle_gamma   90.00000000
_symmetry_Int_Tables_number   1
_chemical_formula_structural   DyThS3
_chemical_formula_sum   'Dy4 Th4 S12'
_cell_volume   444.98186019
_cell_formula_units_Z   4
loop_
 _symmetry_equiv_pos_site_id
 _symmetry_equiv_pos_as_xyz
  1  'x, y, z'
loop_
 _atom_site_type_symbol
 _atom_site_label
 _atom_site_symmetry_multiplicity
 _atom_site_fract_x
 _atom_site_fract_y
 _atom_site_fract_z
 _atom_site_occupancy
  Dy  Dy0  1  0.250000  0.184950  0.486146  1
  Dy  Dy1  1  0.750000  0.815050  0.513854  1
  Dy  Dy2  1  0.750000  0.684950  0.013854  1
  Dy  Dy3  1  0.250000  0.315050  0.986146  1
  Th  Th4  1  0.250000  0.997951  0.803462  1
  Th  Th5  1  0.750000  0.002049  0.196538  1
  Th  Th6  1  0.750000  0.497951  0.696538  1
  Th  Th7  1  0.250000  0.502049  0.303462  1
  S  S8  1  0.250000  0.296049  0.727260  1
  S  S9  1  0.750000  0.703951  0.272740  1
  S  S10  1  0.750000  0.796049  0.772740  1
  S  S11  1  0.250000  0.203951  0.227260  1
  S  S12  1  0.250000  0.943672  0.382545  1
  S  S13  1  0.750000  0.056328  0.617455  1
  S  S14  1  0.750000  0.443672  0.117455  1
  S  S15  1  0.250000  0.556328  0.882545  1
  S  S16  1  0.250000  0.870573  0.047049  1
  S  S17  1  0.750000  0.129427  0.952951  1
  S  S18  1  0.750000  0.370573  0.452951  1
  S  S19  1  0.250000  0.629427  0.547049  1
