# generated using pymatgen
data_Tb2Ho3Bi2Ru
_symmetry_space_group_name_H-M   'P 1'
_cell_length_a   7.98060300
_cell_length_b   9.01288200
_cell_length_c   12.45286100
_cell_angle_alpha   90.00000000
_cell_angle_beta   90.00000000
_cell_angle_gamma   90.00000000
_symmetry_Int_Tables_number   1
_chemical_formula_structural   Tb2Ho3Bi2Ru
_chemical_formula_sum   'Tb8 Ho12 Bi8 Ru4'
_cell_volume   895.71228912
_cell_formula_units_Z   4
loop_
 _symmetry_equiv_pos_site_id
 _symmetry_equiv_pos_as_xyz
  1  'x, y, z'
loop_
 _atom_site_type_symbol
 _atom_site_label
 _atom_site_symmetry_multiplicity
 _atom_site_fract_x
 _atom_site_fract_y
 _atom_site_fract_z
 _atom_site_occupancy
  Tb  Tb0  1  0.343662  0.750000  0.707030  1
  Tb  Tb1  1  0.656338  0.250000  0.292970  1
  Tb  Tb2  1  0.843662  0.250000  0.792970  1
  Tb  Tb3  1  0.156338  0.750000  0.207030  1
  Tb  Tb4  1  0.878078  0.750000  0.807657  1
  Tb  Tb5  1  0.121922  0.250000  0.192343  1
  Tb  Tb6  1  0.378078  0.250000  0.692343  1
  Tb  Tb7  1  0.621922  0.750000  0.307657  1
  Ho  Ho8  1  0.675692  0.541972  0.564030  1
  Ho  Ho9  1  0.324308  0.458028  0.435970  1
  Ho  Ho10  1  0.175692  0.458028  0.935970  1
  Ho  Ho11  1  0.324308  0.041972  0.435970  1
  Ho  Ho12  1  0.824308  0.541972  0.064030  1
  Ho  Ho13  1  0.675692  0.958028  0.564030  1
  Ho  Ho14  1  0.824308  0.958028  0.064030  1
  Ho  Ho15  1  0.175692  0.041972  0.935970  1
  Ho  Ho16  1  0.054573  0.750000  0.495625  1
  Ho  Ho17  1  0.945427  0.250000  0.504375  1
  Ho  Ho18  1  0.554573  0.250000  0.004375  1
  Ho  Ho19  1  0.445427  0.750000  0.995625  1
  Bi  Bi20  1  0.570643  0.507458  0.828641  1
  Bi  Bi21  1  0.429357  0.492542  0.171359  1
  Bi  Bi22  1  0.070643  0.492542  0.671359  1
  Bi  Bi23  1  0.429357  0.007458  0.171359  1
  Bi  Bi24  1  0.929357  0.507458  0.328641  1
  Bi  Bi25  1  0.570643  0.992542  0.828641  1
  Bi  Bi26  1  0.929357  0.992542  0.328641  1
  Bi  Bi27  1  0.070643  0.007458  0.671359  1
  Ru  Ru28  1  0.073784  0.750000  0.989229  1
  Ru  Ru29  1  0.926216  0.250000  0.010771  1
  Ru  Ru30  1  0.573784  0.250000  0.510771  1
  Ru  Ru31  1  0.426216  0.750000  0.489229  1
