# generated using pymatgen
data_Dy5BeP11Ir19
_symmetry_space_group_name_H-M   'P 1'
_cell_length_a   12.70065753
_cell_length_b   12.66407040
_cell_length_c   3.96725400
_cell_angle_alpha   90.00000000
_cell_angle_beta   90.00000000
_cell_angle_gamma   120.19357616
_symmetry_Int_Tables_number   1
_chemical_formula_structural   Dy5BeP11Ir19
_chemical_formula_sum   'Dy5 Be1 P11 Ir19'
_cell_volume   551.53073019
_cell_formula_units_Z   1
loop_
 _symmetry_equiv_pos_site_id
 _symmetry_equiv_pos_as_xyz
  1  'x, y, z'
loop_
 _atom_site_type_symbol
 _atom_site_label
 _atom_site_symmetry_multiplicity
 _atom_site_fract_x
 _atom_site_fract_y
 _atom_site_fract_z
 _atom_site_occupancy
  Dy  Dy0  1  0.344502  0.667363  0.500000  1
  Dy  Dy1  1  0.666999  0.333509  0.500000  1
  Dy  Dy2  1  0.998484  0.816334  0.000000  1
  Dy  Dy3  1  0.183275  0.184158  0.000000  1
  Dy  Dy4  1  0.810578  0.994656  0.000000  1
  Be  Be5  1  0.520177  0.685321  0.000000  1
  P  P6  1  0.001133  0.643693  0.500000  1
  P  P7  1  0.360471  0.364002  0.500000  1
  P  P8  1  0.638739  0.994721  0.500000  1
  P  P9  1  0.315426  0.828123  0.000000  1
  P  P10  1  0.174182  0.484391  0.000000  1
  P  P11  1  0.482678  0.174154  0.000000  1
  P  P12  1  0.689605  0.517298  0.000000  1
  P  P13  1  0.828413  0.311110  0.000000  1
  P  P14  1  0.996724  0.176593  0.500000  1
  P  P15  1  0.818642  0.818384  0.500000  1
  P  P16  1  0.178198  0.999270  0.500000  1
  Ir  Ir17  1  0.510445  0.869835  0.000000  1
  Ir  Ir18  1  0.133054  0.638962  0.000000  1
  Ir  Ir19  1  0.356246  0.484561  0.000000  1
  Ir  Ir20  1  0.492569  0.364457  0.000000  1
  Ir  Ir21  1  0.869424  0.507223  0.000000  1
  Ir  Ir22  1  0.637820  0.134125  0.000000  1
  Ir  Ir23  1  0.000554  0.462657  0.500000  1
  Ir  Ir24  1  0.536288  0.552743  0.500000  1
  Ir  Ir25  1  0.461362  0.001142  0.500000  1
  Ir  Ir26  1  0.999015  0.284485  0.000000  1
  Ir  Ir27  1  0.713474  0.712155  0.000000  1
  Ir  Ir28  1  0.285564  0.999739  0.000000  1
  Ir  Ir29  1  0.625622  0.804741  0.500000  1
  Ir  Ir30  1  0.196783  0.819046  0.500000  1
  Ir  Ir31  1  0.176960  0.375002  0.500000  1
  Ir  Ir32  1  0.375203  0.182027  0.500000  1
  Ir  Ir33  1  0.805258  0.621940  0.500000  1
  Ir  Ir34  1  0.816545  0.192708  0.500000  1
  Ir  Ir35  1  0.999590  0.999373  0.500000  1
