# generated using pymatgen
data_LaNd2Dy(MoO4)6
_symmetry_space_group_name_H-M   'P 1'
_cell_length_a   7.62629576
_cell_length_b   7.62629577
_cell_length_c   10.93296202
_cell_angle_alpha   89.80836942
_cell_angle_beta   90.19162919
_cell_angle_gamma   89.96745867
_symmetry_Int_Tables_number   1
_chemical_formula_structural   LaNd2Dy(MoO4)6
_chemical_formula_sum   'La1 Nd2 Dy1 Mo6 O24'
_cell_volume   635.85808385
_cell_formula_units_Z   1
loop_
 _symmetry_equiv_pos_site_id
 _symmetry_equiv_pos_as_xyz
  1  'x, y, z'
loop_
 _atom_site_type_symbol
 _atom_site_label
 _atom_site_symmetry_multiplicity
 _atom_site_fract_x
 _atom_site_fract_y
 _atom_site_fract_z
 _atom_site_occupancy
  La  La0  1  0.685815  0.814185  0.259225  1
  Nd  Nd1  1  0.189638  0.688956  0.738210  1
  Nd  Nd2  1  0.811044  0.310362  0.738210  1
  Dy  Dy3  1  0.307232  0.192768  0.265194  1
  Mo  Mo4  1  0.209646  0.706893  0.354529  1
  Mo  Mo5  1  0.793107  0.290354  0.354529  1
  Mo  Mo6  1  0.708309  0.791691  0.647335  1
  Mo  Mo7  1  0.291036  0.208964  0.638735  1
  Mo  Mo8  1  0.007919  0.006068  0.002046  1
  Mo  Mo9  1  0.493932  0.492081  0.002046  1
  O  O10  1  0.002609  0.220973  0.298460  1
  O  O11  1  0.000675  0.766796  0.295242  1
  O  O12  1  0.226360  0.000429  0.697349  1
  O  O13  1  0.500590  0.725543  0.705840  1
  O  O14  1  0.774457  0.999410  0.705840  1
  O  O15  1  0.499571  0.273640  0.697349  1
  O  O16  1  0.279027  0.497391  0.298460  1
  O  O17  1  0.733204  0.499325  0.295242  1
  O  O18  1  0.187525  0.052894  0.103165  1
  O  O19  1  0.815658  0.962046  0.090836  1
  O  O20  1  0.056739  0.819320  0.908835  1
  O  O21  1  0.309545  0.533503  0.904273  1
  O  O22  1  0.966497  0.190455  0.904273  1
  O  O23  1  0.680680  0.443261  0.908835  1
  O  O24  1  0.447106  0.312475  0.103165  1
  O  O25  1  0.537954  0.684342  0.090836  1
  O  O26  1  0.620580  0.135606  0.308756  1
  O  O27  1  0.364394  0.879420  0.308756  1
  O  O28  1  0.127925  0.372075  0.685540  1
  O  O29  1  0.872299  0.627701  0.693707  1
  O  O30  1  0.197602  0.696703  0.517251  1
  O  O31  1  0.803297  0.302398  0.517251  1
  O  O32  1  0.695968  0.804032  0.484899  1
  O  O33  1  0.302059  0.197941  0.475774  1
