# generated using pymatgen
data_MnCo7Bi16(SO7)8
_symmetry_space_group_name_H-M   'P 1'
_cell_length_a   5.50730180
_cell_length_b   14.57316220
_cell_length_c   16.06959498
_cell_angle_alpha   89.71007673
_cell_angle_beta   89.99939357
_cell_angle_gamma   89.93793938
_symmetry_Int_Tables_number   1
_chemical_formula_structural   MnCo7Bi16(SO7)8
_chemical_formula_sum   'Mn1 Co7 Bi16 S8 O56'
_cell_volume   1289.70918150
_cell_formula_units_Z   1
loop_
 _symmetry_equiv_pos_site_id
 _symmetry_equiv_pos_as_xyz
  1  'x, y, z'
loop_
 _atom_site_type_symbol
 _atom_site_label
 _atom_site_symmetry_multiplicity
 _atom_site_fract_x
 _atom_site_fract_y
 _atom_site_fract_z
 _atom_site_occupancy
  Mn  Mn0  1  0.721274  0.021751  0.324888  1
  Co  Co1  1  0.224556  0.485605  0.673494  1
  Co  Co2  1  0.276377  0.513736  0.173129  1
  Co  Co3  1  0.776204  0.985998  0.826609  1
  Co  Co4  1  0.276038  0.985420  0.673930  1
  Co  Co5  1  0.776562  0.514744  0.326570  1
  Co  Co6  1  0.724310  0.485676  0.826880  1
  Co  Co7  1  0.223466  0.011212  0.171313  1
  Bi  Bi8  1  0.720003  0.880479  0.155626  1
  Bi  Bi9  1  0.219387  0.617351  0.843314  1
  Bi  Bi10  1  0.280475  0.383699  0.344832  1
  Bi  Bi11  1  0.779766  0.117524  0.655982  1
  Bi  Bi12  1  0.280129  0.117929  0.843173  1
  Bi  Bi13  1  0.780965  0.382250  0.156908  1
  Bi  Bi14  1  0.719677  0.617755  0.656419  1
  Bi  Bi15  1  0.219119  0.881370  0.343534  1
  Bi  Bi16  1  0.751137  0.083138  0.018281  1
  Bi  Bi17  1  0.251966  0.415888  0.981240  1
  Bi  Bi18  1  0.248729  0.584607  0.481333  1
  Bi  Bi19  1  0.748859  0.915702  0.519397  1
  Bi  Bi20  1  0.248064  0.915898  0.980250  1
  Bi  Bi21  1  0.747952  0.583340  0.018624  1
  Bi  Bi22  1  0.753043  0.417189  0.519357  1
  Bi  Bi23  1  0.250597  0.082285  0.481709  1
  S  S24  1  0.797561  0.209335  0.393928  1
  S  S25  1  0.300938  0.294225  0.607556  1
  S  S26  1  0.199444  0.704991  0.106584  1
  S  S27  1  0.699891  0.793826  0.892120  1
  S  S28  1  0.199802  0.793526  0.608548  1
  S  S29  1  0.699814  0.706675  0.392058  1
  S  S30  1  0.800523  0.294194  0.892635  1
  S  S31  1  0.300783  0.204592  0.108212  1
  O  O32  1  0.480946  0.980411  0.082000  1
  O  O33  1  0.980540  0.518085  0.916693  1
  O  O34  1  0.520087  0.483011  0.416788  1
  O  O35  1  0.018421  0.017816  0.584360  1
  O  O36  1  0.519647  0.018542  0.915913  1
  O  O37  1  0.019576  0.481084  0.083614  1
  O  O38  1  0.480594  0.518777  0.583663  1
  O  O39  1  0.985397  0.980837  0.418279  1
  O  O40  1  0.967723  0.968769  0.077800  1
  O  O41  1  0.469125  0.529631  0.920870  1
  O  O42  1  0.032184  0.471646  0.421112  1
  O  O43  1  0.530835  0.029408  0.579235  1
  O  O44  1  0.031083  0.030241  0.920384  1
  O  O45  1  0.530900  0.469395  0.079246  1
  O  O46  1  0.969668  0.530520  0.579278  1
  O  O47  1  0.470008  0.969699  0.421009  1
  O  O48  1  0.973978  0.950795  0.247326  1
  O  O49  1  0.471626  0.546371  0.750968  1
  O  O50  1  0.029712  0.453588  0.251373  1
  O  O51  1  0.528624  0.046668  0.748809  1
  O  O52  1  0.029076  0.046889  0.750984  1
  O  O53  1  0.529608  0.453677  0.249365  1
  O  O54  1  0.971494  0.546205  0.749113  1
  O  O55  1  0.467417  0.950800  0.248440  1
  O  O56  1  0.753879  0.308792  0.375180  1
  O  O57  1  0.237340  0.196546  0.627029  1
  O  O58  1  0.262673  0.802715  0.124848  1
  O  O59  1  0.763379  0.696268  0.872498  1
  O  O60  1  0.263747  0.695979  0.628831  1
  O  O61  1  0.764451  0.804394  0.372814  1
  O  O62  1  0.738177  0.196573  0.873179  1
  O  O63  1  0.236625  0.302070  0.127835  1
  O  O64  1  0.812705  0.194201  0.485646  1
  O  O65  1  0.312157  0.308649  0.515534  1
  O  O66  1  0.187529  0.690394  0.014743  1
  O  O67  1  0.688124  0.806691  0.984156  1
  O  O68  1  0.188583  0.806672  0.516430  1
  O  O69  1  0.689089  0.692225  0.484069  1
  O  O70  1  0.811591  0.307573  0.984629  1
  O  O71  1  0.312726  0.191679  0.016137  1
  O  O72  1  0.587907  0.154569  0.359274  1
  O  O73  1  0.105349  0.355698  0.643178  1
  O  O74  1  0.395646  0.643930  0.142812  1
  O  O75  1  0.895728  0.855539  0.856776  1
  O  O76  1  0.394908  0.855231  0.643733  1
  O  O77  1  0.894248  0.645228  0.356004  1
  O  O78  1  0.604155  0.355516  0.856894  1
  O  O79  1  0.105357  0.142559  0.143384  1
  O  O80  1  0.025120  0.178274  0.352856  1
  O  O81  1  0.538408  0.317437  0.645997  1
  O  O82  1  0.962312  0.681619  0.145462  1
  O  O83  1  0.462744  0.817810  0.853542  1
  O  O84  1  0.962007  0.817102  0.646728  1
  O  O85  1  0.461509  0.684151  0.353835  1
  O  O86  1  0.037769  0.318295  0.854190  1
  O  O87  1  0.538382  0.180840  0.146720  1
