# generated using pymatgen
data_Tb7Dy9In4NiIr3
_symmetry_space_group_name_H-M   'P 1'
_cell_length_a   9.62481023
_cell_length_b   9.62940226
_cell_length_c   9.62689495
_cell_angle_alpha   60.47839544
_cell_angle_beta   60.51770928
_cell_angle_gamma   60.49929462
_symmetry_Int_Tables_number   1
_chemical_formula_structural   Tb7Dy9In4NiIr3
_chemical_formula_sum   'Tb7 Dy9 In4 Ni1 Ir3'
_cell_volume   638.01044249
_cell_formula_units_Z   1
loop_
 _symmetry_equiv_pos_site_id
 _symmetry_equiv_pos_as_xyz
  1  'x, y, z'
loop_
 _atom_site_type_symbol
 _atom_site_label
 _atom_site_symmetry_multiplicity
 _atom_site_fract_x
 _atom_site_fract_y
 _atom_site_fract_z
 _atom_site_occupancy
  Tb  Tb0  1  0.689187  0.314753  0.689424  1
  Tb  Tb1  1  0.689479  0.689444  0.314222  1
  Tb  Tb2  1  0.690119  0.311156  0.310606  1
  Tb  Tb3  1  0.313209  0.689523  0.689781  1
  Tb  Tb4  1  0.559321  0.941547  0.559215  1
  Tb  Tb5  1  0.700442  0.100231  0.099717  1
  Tb  Tb6  1  0.559540  0.940217  0.940628  1
  Dy  Dy7  1  0.099991  0.700127  0.099430  1
  Dy  Dy8  1  0.941907  0.940226  0.559109  1
  Dy  Dy9  1  0.941529  0.559187  0.940275  1
  Dy  Dy10  1  0.308861  0.691292  0.310260  1
  Dy  Dy11  1  0.942892  0.558619  0.558683  1
  Dy  Dy12  1  0.308672  0.310617  0.691333  1
  Dy  Dy13  1  0.096687  0.097624  0.097538  1
  Dy  Dy14  1  0.559113  0.558969  0.941946  1
  Dy  Dy15  1  0.099467  0.099412  0.700563  1
  In  In16  1  0.332113  0.332527  0.332310  1
  In  In17  1  0.003309  0.332753  0.332791  1
  In  In18  1  0.332479  0.002893  0.332726  1
  In  In19  1  0.332430  0.332838  0.002875  1
  Ni  Ni20  1  0.892238  0.890983  0.890873  1
  Ir  Ir21  1  0.891832  0.889300  0.325179  1
  Ir  Ir22  1  0.324235  0.890064  0.891081  1
  Ir  Ir23  1  0.890946  0.325700  0.889433  1
