# generated using pymatgen
data_Zr19Si16W
_symmetry_space_group_name_H-M   'P 1'
_cell_length_a   7.12789007
_cell_length_b   7.12789007
_cell_length_c   13.00982993
_cell_angle_alpha   89.93342345
_cell_angle_beta   90.06657645
_cell_angle_gamma   89.98758939
_symmetry_Int_Tables_number   1
_chemical_formula_structural   Zr19Si16W
_chemical_formula_sum   'Zr19 Si16 W1'
_cell_volume   660.98713832
_cell_formula_units_Z   1
loop_
 _symmetry_equiv_pos_site_id
 _symmetry_equiv_pos_as_xyz
  1  'x, y, z'
loop_
 _atom_site_type_symbol
 _atom_site_label
 _atom_site_symmetry_multiplicity
 _atom_site_fract_x
 _atom_site_fract_y
 _atom_site_fract_z
 _atom_site_occupancy
  Zr  Zr0  1  0.356258  0.503833  0.379272  1
  Zr  Zr1  1  0.853965  0.998380  0.374165  1
  Zr  Zr2  1  0.001425  0.145861  0.127613  1
  Zr  Zr3  1  0.998380  0.853965  0.625835  1
  Zr  Zr4  1  0.644361  0.499314  0.874371  1
  Zr  Zr5  1  0.503833  0.356258  0.620728  1
  Zr  Zr6  1  0.499314  0.644361  0.125629  1
  Zr  Zr7  1  0.145861  0.001425  0.872387  1
  Zr  Zr8  1  0.998683  0.650174  0.035646  1
  Zr  Zr9  1  0.999974  0.348727  0.534164  1
  Zr  Zr10  1  0.650174  0.998683  0.964354  1
  Zr  Zr11  1  0.149750  0.502664  0.783112  1
  Zr  Zr12  1  0.849122  0.499225  0.286270  1
  Zr  Zr13  1  0.502664  0.149750  0.216888  1
  Zr  Zr14  1  0.499225  0.849122  0.713730  1
  Zr  Zr15  1  0.348727  0.999974  0.465836  1
  Zr  Zr16  1  0.823712  0.176890  0.748116  1
  Zr  Zr17  1  0.176890  0.823712  0.251884  1
  Zr  Zr18  1  0.323705  0.323705  0.000000  1
  Si  Si19  1  0.043875  0.697786  0.438210  1
  Si  Si20  1  0.947820  0.300656  0.937253  1
  Si  Si21  1  0.697786  0.043875  0.561790  1
  Si  Si22  1  0.199554  0.448077  0.188515  1
  Si  Si23  1  0.796856  0.555610  0.682994  1
  Si  Si24  1  0.448077  0.199554  0.811485  1
  Si  Si25  1  0.555610  0.796856  0.317006  1
  Si  Si26  1  0.300656  0.947820  0.062747  1
  Si  Si27  1  0.853360  0.795036  0.821918  1
  Si  Si28  1  0.148414  0.205081  0.323130  1
  Si  Si29  1  0.795036  0.853360  0.178082  1
  Si  Si30  1  0.298070  0.647822  0.572734  1
  Si  Si31  1  0.704947  0.353336  0.071803  1
  Si  Si32  1  0.647822  0.298070  0.427266  1
  Si  Si33  1  0.353336  0.704947  0.928197  1
  Si  Si34  1  0.205081  0.148414  0.676870  1
  W  W35  1  0.677679  0.677679  0.500000  1
