# generated using pymatgen
data_Tm5Al2PbO
_symmetry_space_group_name_H-M   'P 1'
_cell_length_a   8.84004661
_cell_length_b   8.84004711
_cell_length_c   8.84004700
_cell_angle_alpha   127.57332795
_cell_angle_beta   127.57332230
_cell_angle_gamma   77.31724915
_symmetry_Int_Tables_number   1
_chemical_formula_structural   Tm5Al2PbO
_chemical_formula_sum   'Tm10 Al4 Pb2 O2'
_cell_volume   421.01025195
_cell_formula_units_Z   2
loop_
 _symmetry_equiv_pos_site_id
 _symmetry_equiv_pos_as_xyz
  1  'x, y, z'
loop_
 _atom_site_type_symbol
 _atom_site_label
 _atom_site_symmetry_multiplicity
 _atom_site_fract_x
 _atom_site_fract_y
 _atom_site_fract_z
 _atom_site_occupancy
  Tm  Tm0  1  0.496818  0.302468  0.500000  1
  Tm  Tm1  1  0.802468  0.996818  0.500000  1
  Tm  Tm2  1  0.996818  0.496818  0.194351  1
  Tm  Tm3  1  0.302468  0.802468  0.805649  1
  Tm  Tm4  1  0.505589  0.700047  0.500000  1
  Tm  Tm5  1  0.200047  0.005589  0.500000  1
  Tm  Tm6  1  0.005589  0.505589  0.805542  1
  Tm  Tm7  1  0.700047  0.200047  0.194458  1
  Tm  Tm8  1  0.501352  0.501352  0.000000  1
  Tm  Tm9  1  0.001352  0.001352  0.000000  1
  Al  Al10  1  0.130237  0.372202  0.500000  1
  Al  Al11  1  0.872202  0.630237  0.500000  1
  Al  Al12  1  0.630237  0.130237  0.758034  1
  Al  Al13  1  0.372202  0.872202  0.241966  1
  Pb  Pb14  1  0.751527  0.751527  0.000000  1
  Pb  Pb15  1  0.251527  0.251527  0.000000  1
  O  O16  1  0.751180  0.251180  0.500000  1
  O  O17  1  0.251180  0.751180  0.500000  1
