# generated using pymatgen
data_Ho2Th3Ge10IrRh3
_symmetry_space_group_name_H-M   'P 1'
_cell_length_a   13.12939564
_cell_length_b   13.13513668
_cell_length_c   4.38723500
_cell_angle_alpha   90.00000000
_cell_angle_beta   90.00000000
_cell_angle_gamma   89.86839516
_symmetry_Int_Tables_number   1
_chemical_formula_structural   Ho2Th3Ge10IrRh3
_chemical_formula_sum   'Ho4 Th6 Ge20 Ir2 Rh6'
_cell_volume   756.60478568
_cell_formula_units_Z   2
loop_
 _symmetry_equiv_pos_site_id
 _symmetry_equiv_pos_as_xyz
  1  'x, y, z'
loop_
 _atom_site_type_symbol
 _atom_site_label
 _atom_site_symmetry_multiplicity
 _atom_site_fract_x
 _atom_site_fract_y
 _atom_site_fract_z
 _atom_site_occupancy
  Ho  Ho0  1  0.324458  0.824409  0.500000  1
  Ho  Ho1  1  0.824691  0.675363  0.500000  1
  Ho  Ho2  1  0.175309  0.324637  0.500000  1
  Ho  Ho3  1  0.675542  0.175591  0.500000  1
  Th  Th4  1  0.500000  0.500000  0.000000  1
  Th  Th5  1  0.000000  0.000000  0.000000  1
  Th  Th6  1  0.886998  0.389186  0.500000  1
  Th  Th7  1  0.388093  0.111972  0.500000  1
  Th  Th8  1  0.611907  0.888028  0.500000  1
  Th  Th9  1  0.113002  0.610814  0.500000  1
  Ge  Ge10  1  0.433091  0.932844  0.000000  1
  Ge  Ge11  1  0.934006  0.568510  0.000000  1
  Ge  Ge12  1  0.065994  0.431490  0.000000  1
  Ge  Ge13  1  0.566909  0.067156  0.000000  1
  Ge  Ge14  1  0.337599  0.299601  0.000000  1
  Ge  Ge15  1  0.662401  0.700399  0.000000  1
  Ge  Ge16  1  0.700616  0.337003  0.000000  1
  Ge  Ge17  1  0.299384  0.662997  0.000000  1
  Ge  Ge18  1  0.799974  0.838616  0.000000  1
  Ge  Ge19  1  0.838304  0.199622  0.000000  1
  Ge  Ge20  1  0.161696  0.800378  0.000000  1
  Ge  Ge21  1  0.200026  0.161384  0.000000  1
  Ge  Ge22  1  0.338595  0.495812  0.500000  1
  Ge  Ge23  1  0.661405  0.504188  0.500000  1
  Ge  Ge24  1  0.502949  0.337481  0.500000  1
  Ge  Ge25  1  0.497051  0.662519  0.500000  1
  Ge  Ge26  1  0.997859  0.837230  0.500000  1
  Ge  Ge27  1  0.837398  0.002723  0.500000  1
  Ge  Ge28  1  0.002141  0.162770  0.500000  1
  Ge  Ge29  1  0.162602  0.997277  0.500000  1
  Ir  Ir30  1  0.254453  0.476707  0.000000  1
  Ir  Ir31  1  0.745547  0.523293  0.000000  1
  Rh  Rh32  1  0.523468  0.256260  0.000000  1
  Rh  Rh33  1  0.476532  0.743740  0.000000  1
  Rh  Rh34  1  0.976417  0.756365  0.000000  1
  Rh  Rh35  1  0.755778  0.023695  0.000000  1
  Rh  Rh36  1  0.244222  0.976305  0.000000  1
  Rh  Rh37  1  0.023583  0.243635  0.000000  1
