# generated using pymatgen
data_CsUF5
_symmetry_space_group_name_H-M   'P 1'
_cell_length_a   8.41234430
_cell_length_b   8.41234433
_cell_length_c   8.73268100
_cell_angle_alpha   90.00000000
_cell_angle_beta   90.00000000
_cell_angle_gamma   117.73013199
_symmetry_Int_Tables_number   1
_chemical_formula_structural   CsUF5
_chemical_formula_sum   'Cs4 U4 F20'
_cell_volume   547.01354416
_cell_formula_units_Z   4
loop_
 _symmetry_equiv_pos_site_id
 _symmetry_equiv_pos_as_xyz
  1  'x, y, z'
loop_
 _atom_site_type_symbol
 _atom_site_label
 _atom_site_symmetry_multiplicity
 _atom_site_fract_x
 _atom_site_fract_y
 _atom_site_fract_z
 _atom_site_occupancy
  Cs  Cs0  1  0.703756  0.296244  0.500000  1
  Cs  Cs1  1  0.203756  0.796244  0.000000  1
  Cs  Cs2  1  0.296244  0.703756  0.500000  1
  Cs  Cs3  1  0.796244  0.203756  0.000000  1
  U  U4  1  0.337951  0.337951  0.839564  1
  U  U5  1  0.662049  0.662049  0.160436  1
  U  U6  1  0.162049  0.162049  0.339564  1
  U  U7  1  0.837951  0.837951  0.660436  1
  F  F8  1  0.291317  0.291317  0.563574  1
  F  F9  1  0.708683  0.708683  0.436426  1
  F  F10  1  0.208683  0.208683  0.063574  1
  F  F11  1  0.791317  0.791317  0.936426  1
  F  F12  1  0.062274  0.062274  0.792226  1
  F  F13  1  0.937726  0.937726  0.207774  1
  F  F14  1  0.437726  0.437726  0.292226  1
  F  F15  1  0.562274  0.562274  0.707774  1
  F  F16  1  0.589106  0.410894  0.000000  1
  F  F17  1  0.089106  0.910894  0.500000  1
  F  F18  1  0.410894  0.589106  0.000000  1
  F  F19  1  0.910894  0.089106  0.500000  1
  F  F20  1  0.439150  0.146044  0.798118  1
  F  F21  1  0.853956  0.560850  0.201882  1
  F  F22  1  0.353956  0.060850  0.298118  1
  F  F23  1  0.939150  0.646044  0.701882  1
  F  F24  1  0.560850  0.853956  0.201882  1
  F  F25  1  0.146044  0.439150  0.798118  1
  F  F26  1  0.646044  0.939150  0.701882  1
  F  F27  1  0.060850  0.353956  0.298118  1
