# generated using pymatgen
data_Y6Ho3ErSn6
_symmetry_space_group_name_H-M   'P 1'
_cell_length_a   8.96350900
_cell_length_b   8.96350918
_cell_length_c   6.53398400
_cell_angle_alpha   90.00000000
_cell_angle_beta   90.00000000
_cell_angle_gamma   119.99999564
_symmetry_Int_Tables_number   1
_chemical_formula_structural   Y6Ho3ErSn6
_chemical_formula_sum   'Y6 Ho3 Er1 Sn6'
_cell_volume   454.63706989
_cell_formula_units_Z   1
loop_
 _symmetry_equiv_pos_site_id
 _symmetry_equiv_pos_as_xyz
  1  'x, y, z'
loop_
 _atom_site_type_symbol
 _atom_site_label
 _atom_site_symmetry_multiplicity
 _atom_site_fract_x
 _atom_site_fract_y
 _atom_site_fract_z
 _atom_site_occupancy
  Y  Y0  1  0.000009  0.760290  0.749994  1
  Y  Y1  1  0.000009  0.239720  0.250006  1
  Y  Y2  1  0.760280  0.760290  0.250006  1
  Y  Y3  1  0.760280  0.999991  0.749994  1
  Y  Y4  1  0.239710  0.239720  0.749994  1
  Y  Y5  1  0.239710  0.999991  0.250006  1
  Ho  Ho6  1  0.666667  0.333333  0.000000  1
  Ho  Ho7  1  0.666667  0.333333  0.500000  1
  Ho  Ho8  1  0.333333  0.666667  0.000000  1
  Er  Er9  1  0.333333  0.666667  0.500000  1
  Sn  Sn10  1  0.395857  0.999968  0.749977  1
  Sn  Sn11  1  0.395857  0.395889  0.250023  1
  Sn  Sn12  1  0.000032  0.604143  0.250023  1
  Sn  Sn13  1  0.000032  0.395889  0.749977  1
  Sn  Sn14  1  0.604111  0.604143  0.749977  1
  Sn  Sn15  1  0.604111  0.999968  0.250023  1
