# generated using pymatgen
data_Nd3PaAl17GaIr6
_symmetry_space_group_name_H-M   'P 1'
_cell_length_a   7.61536809
_cell_length_b   7.60465633
_cell_length_c   9.54154500
_cell_angle_alpha   90.00000000
_cell_angle_beta   90.00000000
_cell_angle_gamma   119.43908069
_symmetry_Int_Tables_number   1
_chemical_formula_structural   Nd3PaAl17GaIr6
_chemical_formula_sum   'Nd3 Pa1 Al17 Ga1 Ir6'
_cell_volume   481.22357844
_cell_formula_units_Z   1
loop_
 _symmetry_equiv_pos_site_id
 _symmetry_equiv_pos_as_xyz
  1  'x, y, z'
loop_
 _atom_site_type_symbol
 _atom_site_label
 _atom_site_symmetry_multiplicity
 _atom_site_fract_x
 _atom_site_fract_y
 _atom_site_fract_z
 _atom_site_occupancy
  Nd  Nd0  1  0.005552  0.326389  0.750000  1
  Nd  Nd1  1  0.672138  0.994726  0.250000  1
  Nd  Nd2  1  0.326617  0.005024  0.750000  1
  Pa  Pa3  1  0.996370  0.673593  0.250000  1
  Al  Al4  1  0.134889  0.132509  0.250000  1
  Al  Al5  1  0.002230  0.334611  0.075559  1
  Al  Al6  1  0.997176  0.663865  0.926019  1
  Al  Al7  1  0.997176  0.663865  0.573981  1
  Al  Al8  1  0.338212  0.004170  0.424375  1
  Al  Al9  1  0.002230  0.334611  0.424441  1
  Al  Al10  1  0.664488  0.997773  0.572867  1
  Al  Al11  1  0.664488  0.997773  0.927133  1
  Al  Al12  1  0.338212  0.004170  0.075625  1
  Al  Al13  1  0.334527  0.334480  0.548600  1
  Al  Al14  1  0.663515  0.664754  0.447317  1
  Al  Al15  1  0.663515  0.664754  0.052683  1
  Al  Al16  1  0.334527  0.334480  0.951400  1
  Al  Al17  1  0.336941  0.546133  0.250000  1
  Al  Al18  1  0.660824  0.451501  0.750000  1
  Al  Al19  1  0.548575  0.344859  0.250000  1
  Al  Al20  1  0.451814  0.661520  0.750000  1
  Ga  Ga21  1  0.864902  0.865556  0.750000  1
  Ir  Ir22  1  0.673863  0.331748  0.002831  1
  Ir  Ir23  1  0.327017  0.671698  0.002924  1
  Ir  Ir24  1  0.327017  0.671698  0.497076  1
  Ir  Ir25  1  0.673863  0.331748  0.497169  1
  Ir  Ir26  1  0.999663  0.995997  0.007111  1
  Ir  Ir27  1  0.999663  0.995997  0.492889  1
