# generated using pymatgen
data_BaNpNiSe3
_symmetry_space_group_name_H-M   'P 1'
_cell_length_a   4.14529104
_cell_length_b   7.32473826
_cell_length_c   10.58072895
_cell_angle_alpha   89.97077612
_cell_angle_beta   89.81276399
_cell_angle_gamma   73.53522060
_symmetry_Int_Tables_number   1
_chemical_formula_structural   BaNpNiSe3
_chemical_formula_sum   'Ba2 Np2 Ni2 Se6'
_cell_volume   308.08909148
_cell_formula_units_Z   2
loop_
 _symmetry_equiv_pos_site_id
 _symmetry_equiv_pos_as_xyz
  1  'x, y, z'
loop_
 _atom_site_type_symbol
 _atom_site_label
 _atom_site_symmetry_multiplicity
 _atom_site_fract_x
 _atom_site_fract_y
 _atom_site_fract_z
 _atom_site_occupancy
  Ba  Ba0  1  0.257213  0.485952  0.249904  1
  Ba  Ba1  1  0.742805  0.514062  0.750095  1
  Np  Np2  1  0.999979  0.999990  0.000008  1
  Np  Np3  1  0.999995  0.999991  0.499991  1
  Ni  Ni4  1  0.529133  0.942428  0.249934  1
  Ni  Ni5  1  0.470856  0.057564  0.750074  1
  Se  Se6  1  0.632604  0.734973  0.066880  1
  Se  Se7  1  0.935537  0.128631  0.249884  1
  Se  Se8  1  0.633212  0.734679  0.432928  1
  Se  Se9  1  0.366781  0.265301  0.567052  1
  Se  Se10  1  0.064476  0.871416  0.750113  1
  Se  Se11  1  0.367393  0.265011  0.933137  1
