# generated using pymatgen
data_Ca10Cd2CuPd3
_symmetry_space_group_name_H-M   'P 1'
_cell_length_a   9.24343166
_cell_length_b   9.24343102
_cell_length_c   9.21275352
_cell_angle_alpha   128.87115564
_cell_angle_beta   128.87115484
_cell_angle_gamma   75.46467927
_symmetry_Int_Tables_number   1
_chemical_formula_structural   Ca10Cd2CuPd3
_chemical_formula_sum   'Ca10 Cd2 Cu1 Pd3'
_cell_volume   463.69021805
_cell_formula_units_Z   1
loop_
 _symmetry_equiv_pos_site_id
 _symmetry_equiv_pos_as_xyz
  1  'x, y, z'
loop_
 _atom_site_type_symbol
 _atom_site_label
 _atom_site_symmetry_multiplicity
 _atom_site_fract_x
 _atom_site_fract_y
 _atom_site_fract_z
 _atom_site_occupancy
  Ca  Ca0  1  0.530145  0.030145  0.831176  1
  Ca  Ca1  1  0.197102  0.697102  0.163809  1
  Ca  Ca2  1  0.034403  0.196498  0.502554  1
  Ca  Ca3  1  0.696498  0.534403  0.502554  1
  Ca  Ca4  1  0.466707  0.966707  0.163809  1
  Ca  Ca5  1  0.801031  0.301031  0.831176  1
  Ca  Ca6  1  0.968151  0.806057  0.502554  1
  Ca  Ca7  1  0.306057  0.468151  0.502554  1
  Ca  Ca8  1  0.497272  0.500674  0.997946  1
  Ca  Ca9  1  0.000674  0.997272  0.997946  1
  Cd  Cd10  1  0.250600  0.250600  0.001199  1
  Cd  Cd11  1  0.750600  0.750600  0.001199  1
  Cu  Cu12  1  0.882120  0.382120  0.264240  1
  Pd  Pd13  1  0.627093  0.872843  0.499936  1
  Pd  Pd14  1  0.372843  0.127093  0.499936  1
  Pd  Pd15  1  0.118706  0.618706  0.737411  1
