# generated using pymatgen
data_CaNdPaIr3
_symmetry_space_group_name_H-M   'P 1'
_cell_length_a   5.41206491
_cell_length_b   5.89007793
_cell_length_c   5.89007600
_cell_angle_alpha   59.99999960
_cell_angle_beta   57.03259723
_cell_angle_gamma   57.03258865
_symmetry_Int_Tables_number   1
_chemical_formula_structural   CaNdPaIr3
_chemical_formula_sum   'Ca1 Nd1 Pa1 Ir3'
_cell_volume   126.49670714
_cell_formula_units_Z   1
loop_
 _symmetry_equiv_pos_site_id
 _symmetry_equiv_pos_as_xyz
  1  'x, y, z'
loop_
 _atom_site_type_symbol
 _atom_site_label
 _atom_site_symmetry_multiplicity
 _atom_site_fract_x
 _atom_site_fract_y
 _atom_site_fract_z
 _atom_site_occupancy
  Ca  Ca0  1  0.746027  0.751324  0.751324  1
  Nd  Nd1  1  0.486826  0.504392  0.504392  1
  Pa  Pa2  1  0.628733  0.123756  0.123756  1
  Ir  Ir3  1  0.129471  0.624128  0.123200  1
  Ir  Ir4  1  0.129471  0.123200  0.624128  1
  Ir  Ir5  1  0.129471  0.123200  0.123200  1
