# generated using pymatgen
data_Dy(TaSe2)4
_symmetry_space_group_name_H-M   'P 1'
_cell_length_a   7.01875300
_cell_length_b   7.01875204
_cell_length_c   14.34337700
_cell_angle_alpha   90.00000000
_cell_angle_beta   90.00000000
_cell_angle_gamma   120.00000925
_symmetry_Int_Tables_number   1
_chemical_formula_structural   Dy(TaSe2)4
_chemical_formula_sum   'Dy2 Ta8 Se16'
_cell_volume   611.93016696
_cell_formula_units_Z   2
loop_
 _symmetry_equiv_pos_site_id
 _symmetry_equiv_pos_as_xyz
  1  'x, y, z'
loop_
 _atom_site_type_symbol
 _atom_site_label
 _atom_site_symmetry_multiplicity
 _atom_site_fract_x
 _atom_site_fract_y
 _atom_site_fract_z
 _atom_site_occupancy
  Dy  Dy0  1  0.000000  0.000000  0.500000  1
  Dy  Dy1  1  0.000000  0.000000  0.000000  1
  Ta  Ta2  1  0.507256  0.492744  0.750000  1
  Ta  Ta3  1  0.014511  0.507256  0.250000  1
  Ta  Ta4  1  0.492744  0.985489  0.250000  1
  Ta  Ta5  1  0.507256  0.014511  0.750000  1
  Ta  Ta6  1  0.985489  0.492744  0.750000  1
  Ta  Ta7  1  0.492744  0.507256  0.250000  1
  Ta  Ta8  1  0.000000  0.000000  0.750000  1
  Ta  Ta9  1  0.000000  0.000000  0.250000  1
  Se  Se10  1  0.829977  0.170023  0.365005  1
  Se  Se11  1  0.829977  0.659954  0.365005  1
  Se  Se12  1  0.340046  0.170023  0.365005  1
  Se  Se13  1  0.659954  0.829977  0.865005  1
  Se  Se14  1  0.170023  0.340046  0.634995  1
  Se  Se15  1  0.170023  0.829977  0.865005  1
  Se  Se16  1  0.170023  0.340046  0.865005  1
  Se  Se17  1  0.829977  0.170023  0.134995  1
  Se  Se18  1  0.340046  0.170023  0.134995  1
  Se  Se19  1  0.659954  0.829977  0.634995  1
  Se  Se20  1  0.333333  0.666667  0.129766  1
  Se  Se21  1  0.666667  0.333333  0.629766  1
  Se  Se22  1  0.666667  0.333333  0.870234  1
  Se  Se23  1  0.333333  0.666667  0.370234  1
  Se  Se24  1  0.829977  0.659954  0.134995  1
  Se  Se25  1  0.170023  0.829977  0.634995  1
