# generated using pymatgen
data_Na2U3(Ga2I9)2
_symmetry_space_group_name_H-M   'P 1'
_cell_length_a   8.15203152
_cell_length_b   8.85015255
_cell_length_c   19.80129571
_cell_angle_alpha   94.00924913
_cell_angle_beta   90.35304366
_cell_angle_gamma   117.61677357
_symmetry_Int_Tables_number   1
_chemical_formula_structural   Na2U3(Ga2I9)2
_chemical_formula_sum   'Na2 U3 Ga4 I18'
_cell_volume   1261.53466133
_cell_formula_units_Z   1
loop_
 _symmetry_equiv_pos_site_id
 _symmetry_equiv_pos_as_xyz
  1  'x, y, z'
loop_
 _atom_site_type_symbol
 _atom_site_label
 _atom_site_symmetry_multiplicity
 _atom_site_fract_x
 _atom_site_fract_y
 _atom_site_fract_z
 _atom_site_occupancy
  Na  Na0  1  0.238408  0.477351  0.439529  1
  Na  Na1  1  0.566877  0.140520  0.105111  1
  U  U2  1  0.004454  0.999010  0.999942  1
  U  U3  1  0.329817  0.667733  0.667128  1
  U  U4  1  0.666117  0.332190  0.332960  1
  Ga  Ga5  1  0.667493  0.324707  0.838373  1
  Ga  Ga6  1  0.765524  0.526596  0.557225  1
  Ga  Ga7  1  0.911383  0.815268  0.775127  1
  Ga  Ga8  1  0.096259  0.192739  0.225035  1
  I  I9  1  0.632387  0.982955  0.744366  1
  I  I10  1  0.802438  0.207462  0.968809  1
  I  I11  1  0.221925  0.117555  0.872639  1
  I  I12  1  0.106229  0.565273  0.792417  1
  I  I13  1  0.538097  0.469580  0.700974  1
  I  I14  1  0.960869  0.645617  0.415382  1
  I  I15  1  0.710596  0.690083  0.916139  1
  I  I16  1  0.126665  0.863757  0.632010  1
  I  I17  1  0.556486  0.769080  0.541758  1
  I  I18  1  0.443638  0.225500  0.458857  1
  I  I19  1  0.872630  0.136506  0.367316  1
  I  I20  1  0.293905  0.313188  0.082081  1
  I  I21  1  0.037878  0.354450  0.586021  1
  I  I22  1  0.458924  0.529309  0.299872  1
  I  I23  1  0.890696  0.437984  0.207912  1
  I  I24  1  0.776361  0.895163  0.124399  1
  I  I25  1  0.206636  0.806566  0.032463  1
  I  I26  1  0.370644  0.020527  0.252817  1
