# generated using pymatgen
data_Ho12CuNi4Bi
_symmetry_space_group_name_H-M   'P 1'
_cell_length_a   8.32174571
_cell_length_b   8.32134088
_cell_length_c   8.32174480
_cell_angle_alpha   112.58167669
_cell_angle_beta   109.10903817
_cell_angle_gamma   106.77809847
_symmetry_Int_Tables_number   1
_chemical_formula_structural   Ho12CuNi4Bi
_chemical_formula_sum   'Ho12 Cu1 Ni4 Bi1'
_cell_volume   442.43901078
_cell_formula_units_Z   1
loop_
 _symmetry_equiv_pos_site_id
 _symmetry_equiv_pos_as_xyz
  1  'x, y, z'
loop_
 _atom_site_type_symbol
 _atom_site_label
 _atom_site_symmetry_multiplicity
 _atom_site_fract_x
 _atom_site_fract_y
 _atom_site_fract_z
 _atom_site_occupancy
  Ho  Ho0  1  0.413770  0.217562  0.196229  1
  Ho  Ho1  1  0.586230  0.782438  0.803771  1
  Ho  Ho2  1  0.021333  0.217562  0.803793  1
  Ho  Ho3  1  0.978667  0.782438  0.196207  1
  Ho  Ho4  1  0.177884  0.290118  0.467964  1
  Ho  Ho5  1  0.822116  0.709882  0.532036  1
  Ho  Ho6  1  0.177846  0.709882  0.887766  1
  Ho  Ho7  1  0.822154  0.290118  0.112234  1
  Ho  Ho8  1  0.321672  0.631798  0.310127  1
  Ho  Ho9  1  0.678328  0.368202  0.689873  1
  Ho  Ho10  1  0.321593  0.011444  0.689851  1
  Ho  Ho11  1  0.678407  0.988556  0.310149  1
  Cu  Cu12  1  0.000000  0.000000  0.000000  1
  Ni  Ni13  1  0.356312  0.000000  0.356312  1
  Ni  Ni14  1  0.643688  0.000000  0.643688  1
  Ni  Ni15  1  0.124361  0.624351  0.499990  1
  Ni  Ni16  1  0.875639  0.375649  0.500010  1
  Bi  Bi17  1  0.500000  0.500000  0.000000  1
