# generated using pymatgen
data_Sm2Al20OsRh3
_symmetry_space_group_name_H-M   'P 1'
_cell_length_a   6.87341543
_cell_length_b   6.86886851
_cell_length_c   9.18946441
_cell_angle_alpha   90.12119054
_cell_angle_beta   90.17086143
_cell_angle_gamma   97.30037754
_symmetry_Int_Tables_number   1
_chemical_formula_structural   Sm2Al20OsRh3
_chemical_formula_sum   'Sm2 Al20 Os1 Rh3'
_cell_volume   430.33808481
_cell_formula_units_Z   1
loop_
 _symmetry_equiv_pos_site_id
 _symmetry_equiv_pos_as_xyz
  1  'x, y, z'
loop_
 _atom_site_type_symbol
 _atom_site_label
 _atom_site_symmetry_multiplicity
 _atom_site_fract_x
 _atom_site_fract_y
 _atom_site_fract_z
 _atom_site_occupancy
  Sm  Sm0  1  0.870634  0.126820  0.750198  1
  Sm  Sm1  1  0.129366  0.873180  0.249802  1
  Al  Al2  1  0.621235  0.376557  0.547994  1
  Al  Al3  1  0.378765  0.623443  0.452006  1
  Al  Al4  1  0.378338  0.622176  0.049577  1
  Al  Al5  1  0.621662  0.377824  0.950423  1
  Al  Al6  1  0.221984  0.221626  0.499542  1
  Al  Al7  1  0.778016  0.778374  0.500458  1
  Al  Al8  1  0.776249  0.776456  0.999665  1
  Al  Al9  1  0.223751  0.223544  0.000335  1
  Al  Al10  1  0.843460  0.156924  0.103918  1
  Al  Al11  1  0.156540  0.843076  0.896082  1
  Al  Al12  1  0.156546  0.844186  0.602820  1
  Al  Al13  1  0.843454  0.155814  0.397180  1
  Al  Al14  1  0.857233  0.590800  0.749578  1
  Al  Al15  1  0.142767  0.409200  0.250422  1
  Al  Al16  1  0.408923  0.142305  0.749639  1
  Al  Al17  1  0.591077  0.857695  0.250361  1
  Al  Al18  1  0.225489  0.481267  0.749853  1
  Al  Al19  1  0.774511  0.518733  0.250147  1
  Al  Al20  1  0.518245  0.776046  0.746938  1
  Al  Al21  1  0.481755  0.223954  0.253062  1
  Os  Os22  1  0.500000  0.000000  0.500000  1
  Rh  Rh23  1  0.000000  0.500000  0.500000  1
  Rh  Rh24  1  0.000000  0.500000  0.000000  1
  Rh  Rh25  1  0.500000  0.000000  0.000000  1
