# generated using pymatgen
data_LiLa2C3O
_symmetry_space_group_name_H-M   'P 1'
_cell_length_a   7.07768000
_cell_length_b   7.07768000
_cell_length_c   3.98897700
_cell_angle_alpha   90.00000000
_cell_angle_beta   90.00000000
_cell_angle_gamma   90.00000000
_symmetry_Int_Tables_number   1
_chemical_formula_structural   LiLa2C3O
_chemical_formula_sum   'Li2 La4 C6 O2'
_cell_volume   199.82203548
_cell_formula_units_Z   2
loop_
 _symmetry_equiv_pos_site_id
 _symmetry_equiv_pos_as_xyz
  1  'x, y, z'
loop_
 _atom_site_type_symbol
 _atom_site_label
 _atom_site_symmetry_multiplicity
 _atom_site_fract_x
 _atom_site_fract_y
 _atom_site_fract_z
 _atom_site_occupancy
  Li  Li0  1  0.500000  0.500000  0.000000  1
  Li  Li1  1  0.000000  0.000000  0.000000  1
  La  La2  1  0.683738  0.183738  0.500000  1
  La  La3  1  0.316262  0.816262  0.500000  1
  La  La4  1  0.183738  0.316262  0.500000  1
  La  La5  1  0.816262  0.683738  0.500000  1
  C  C6  1  0.132237  0.632237  0.000000  1
  C  C7  1  0.867763  0.367763  0.000000  1
  C  C8  1  0.632237  0.867763  0.000000  1
  C  C9  1  0.367763  0.132237  0.000000  1
  C  C10  1  0.500000  0.000000  0.000000  1
  C  C11  1  0.000000  0.500000  0.000000  1
  O  O12  1  0.500000  0.500000  0.500000  1
  O  O13  1  0.000000  0.000000  0.500000  1
