# generated using pymatgen
data_Tm2B(IrRh2)2
_symmetry_space_group_name_H-M   'P 1'
_cell_length_a   5.79723775
_cell_length_b   5.79723724
_cell_length_c   5.77209800
_cell_angle_alpha   60.14333274
_cell_angle_beta   60.14333562
_cell_angle_gamma   59.93990380
_symmetry_Int_Tables_number   1
_chemical_formula_structural   Tm2B(IrRh2)2
_chemical_formula_sum   'Tm2 B1 Ir2 Rh4'
_cell_volume   137.40416787
_cell_formula_units_Z   1
loop_
 _symmetry_equiv_pos_site_id
 _symmetry_equiv_pos_as_xyz
  1  'x, y, z'
loop_
 _atom_site_type_symbol
 _atom_site_label
 _atom_site_symmetry_multiplicity
 _atom_site_fract_x
 _atom_site_fract_y
 _atom_site_fract_z
 _atom_site_occupancy
  Tm  Tm0  1  0.750256  0.750256  0.749785  1
  Tm  Tm1  1  0.249744  0.249744  0.250296  1
  B  B2  1  0.000000  0.000000  0.998809  1
  Ir  Ir3  1  0.740686  0.259314  0.742272  1
  Ir  Ir4  1  0.259314  0.740686  0.742272  1
  Rh  Rh5  1  0.741565  0.741565  0.258862  1
  Rh  Rh6  1  0.257998  0.742002  0.257856  1
  Rh  Rh7  1  0.742002  0.257998  0.257856  1
  Rh  Rh8  1  0.258435  0.258435  0.741991  1
