# generated using pymatgen
data_Rb3PO4F
_symmetry_space_group_name_H-M   'P 1'
_cell_length_a   8.02543307
_cell_length_b   8.02543337
_cell_length_c   8.02543383
_cell_angle_alpha   122.42270654
_cell_angle_beta   122.42271369
_cell_angle_gamma   85.85258839
_symmetry_Int_Tables_number   1
_chemical_formula_structural   Rb3PO4F
_chemical_formula_sum   'Rb6 P2 O8 F2'
_cell_volume   351.11560137
_cell_formula_units_Z   2
loop_
 _symmetry_equiv_pos_site_id
 _symmetry_equiv_pos_as_xyz
  1  'x, y, z'
loop_
 _atom_site_type_symbol
 _atom_site_label
 _atom_site_symmetry_multiplicity
 _atom_site_fract_x
 _atom_site_fract_y
 _atom_site_fract_z
 _atom_site_occupancy
  Rb  Rb0  1  0.192223  0.692223  0.884447  1
  Rb  Rb1  1  0.750000  0.750000  0.000000  1
  Rb  Rb2  1  0.307777  0.192223  0.500000  1
  Rb  Rb3  1  0.807777  0.307777  0.115553  1
  Rb  Rb4  1  0.692223  0.807777  0.500000  1
  Rb  Rb5  1  0.250000  0.250000  0.000000  1
  P  P6  1  0.750000  0.250000  0.500000  1
  P  P7  1  0.250000  0.750000  0.500000  1
  O  O8  1  0.057014  0.784370  0.500000  1
  O  O9  1  0.442986  0.942986  0.727356  1
  O  O10  1  0.784370  0.284370  0.727356  1
  O  O11  1  0.215630  0.715630  0.272644  1
  O  O12  1  0.284370  0.557014  0.500000  1
  O  O13  1  0.557014  0.057014  0.272644  1
  O  O14  1  0.715630  0.442986  0.500000  1
  O  O15  1  0.942986  0.215630  0.500000  1
  F  F16  1  0.500000  0.500000  0.000000  1
  F  F17  1  0.000000  0.000000  0.000000  1
