# generated using pymatgen
data_Dy2YLu5Au4
_symmetry_space_group_name_H-M   'P 1'
_cell_length_a   4.84257700
_cell_length_b   7.09979070
_cell_length_c   8.80343329
_cell_angle_alpha   89.59074256
_cell_angle_beta   90.00000000
_cell_angle_gamma   90.00000000
_symmetry_Int_Tables_number   1
_chemical_formula_structural   Dy2YLu5Au4
_chemical_formula_sum   'Dy2 Y1 Lu5 Au4'
_cell_volume   302.66561149
_cell_formula_units_Z   1
loop_
 _symmetry_equiv_pos_site_id
 _symmetry_equiv_pos_as_xyz
  1  'x, y, z'
loop_
 _atom_site_type_symbol
 _atom_site_label
 _atom_site_symmetry_multiplicity
 _atom_site_fract_x
 _atom_site_fract_y
 _atom_site_fract_z
 _atom_site_occupancy
  Dy  Dy0  1  0.250000  0.984277  0.322671  1
  Dy  Dy1  1  0.750000  0.015486  0.676808  1
  Y  Y2  1  0.750000  0.516636  0.821921  1
  Lu  Lu3  1  0.250000  0.852761  0.923716  1
  Lu  Lu4  1  0.250000  0.351554  0.576904  1
  Lu  Lu5  1  0.750000  0.148971  0.078415  1
  Lu  Lu6  1  0.750000  0.647820  0.419972  1
  Lu  Lu7  1  0.250000  0.483641  0.175982  1
  Au  Au8  1  0.250000  0.252874  0.902180  1
  Au  Au9  1  0.250000  0.750080  0.602596  1
  Au  Au10  1  0.750000  0.748094  0.101625  1
  Au  Au11  1  0.750000  0.247806  0.397210  1
