# generated using pymatgen
data_ThCu3NiAu
_symmetry_space_group_name_H-M   'P 1'
_cell_length_a   5.10165392
_cell_length_b   5.10165469
_cell_length_c   5.10165486
_cell_angle_alpha   59.99179942
_cell_angle_beta   59.99178862
_cell_angle_gamma   59.99178978
_symmetry_Int_Tables_number   1
_chemical_formula_structural   ThCu3NiAu
_chemical_formula_sum   'Th1 Cu3 Ni1 Au1'
_cell_volume   93.87226648
_cell_formula_units_Z   1
loop_
 _symmetry_equiv_pos_site_id
 _symmetry_equiv_pos_as_xyz
  1  'x, y, z'
loop_
 _atom_site_type_symbol
 _atom_site_label
 _atom_site_symmetry_multiplicity
 _atom_site_fract_x
 _atom_site_fract_y
 _atom_site_fract_z
 _atom_site_occupancy
  Th  Th0  1  0.998986  0.998986  0.998986  1
  Cu  Cu1  1  0.623967  0.623967  0.129838  1
  Cu  Cu2  1  0.623967  0.129838  0.623967  1
  Cu  Cu3  1  0.129838  0.623967  0.623967  1
  Ni  Ni4  1  0.624685  0.624685  0.624685  1
  Au  Au5  1  0.248559  0.248559  0.248559  1
