# generated using pymatgen
data_CaLuSc3Ni9As7
_symmetry_space_group_name_H-M   'P 1'
_cell_length_a   3.87610400
_cell_length_b   9.74027634
_cell_length_c   9.74027500
_cell_angle_alpha   119.99999115
_cell_angle_beta   90.00000000
_cell_angle_gamma   90.00000000
_symmetry_Int_Tables_number   1
_chemical_formula_structural   CaLuSc3Ni9As7
_chemical_formula_sum   'Ca1 Lu1 Sc3 Ni9 As7'
_cell_volume   318.47004436
_cell_formula_units_Z   1
loop_
 _symmetry_equiv_pos_site_id
 _symmetry_equiv_pos_as_xyz
  1  'x, y, z'
loop_
 _atom_site_type_symbol
 _atom_site_label
 _atom_site_symmetry_multiplicity
 _atom_site_fract_x
 _atom_site_fract_y
 _atom_site_fract_z
 _atom_site_occupancy
  Ca  Ca0  1  0.500000  0.333333  0.666667  1
  Lu  Lu1  1  0.000000  0.666667  0.333333  1
  Sc  Sc2  1  0.500000  0.769881  0.887400  1
  Sc  Sc3  1  0.500000  0.117519  0.230119  1
  Sc  Sc4  1  0.500000  0.112600  0.882481  1
  Ni  Ni5  1  0.000000  0.580402  0.937592  1
  Ni  Ni6  1  0.000000  0.357189  0.419598  1
  Ni  Ni7  1  0.000000  0.062408  0.642811  1
  Ni  Ni8  1  0.000000  0.872039  0.157827  1
  Ni  Ni9  1  0.000000  0.285788  0.127961  1
  Ni  Ni10  1  0.000000  0.842173  0.714212  1
  Ni  Ni11  1  0.500000  0.943481  0.386879  1
  Ni  Ni12  1  0.500000  0.443398  0.056519  1
  Ni  Ni13  1  0.500000  0.613121  0.556602  1
  As  As14  1  0.500000  0.711118  0.129470  1
  As  As15  1  0.500000  0.418353  0.288882  1
  As  As16  1  0.500000  0.870530  0.581647  1
  As  As17  1  0.000000  0.000000  0.000000  1
  As  As18  1  0.000000  0.576046  0.681760  1
  As  As19  1  0.000000  0.105713  0.423954  1
  As  As20  1  0.000000  0.318240  0.894287  1
