# generated using pymatgen
data_LiSb12(RuPt)2
_symmetry_space_group_name_H-M   'P 1'
_cell_length_a   8.19348335
_cell_length_b   8.19902729
_cell_length_c   8.19348471
_cell_angle_alpha   109.53305142
_cell_angle_beta   109.34758172
_cell_angle_gamma   109.50562433
_symmetry_Int_Tables_number   1
_chemical_formula_structural   LiSb12(RuPt)2
_chemical_formula_sum   'Li1 Sb12 Ru2 Pt2'
_cell_volume   423.86100620
_cell_formula_units_Z   1
loop_
 _symmetry_equiv_pos_site_id
 _symmetry_equiv_pos_as_xyz
  1  'x, y, z'
loop_
 _atom_site_type_symbol
 _atom_site_label
 _atom_site_symmetry_multiplicity
 _atom_site_fract_x
 _atom_site_fract_y
 _atom_site_fract_z
 _atom_site_occupancy
  Li  Li0  1  0.000000  0.000000  0.000000  1
  Sb  Sb1  1  0.156736  0.491843  0.335106  1
  Sb  Sb2  1  0.505970  0.655389  0.841102  1
  Sb  Sb3  1  0.335347  0.841158  0.185568  1
  Sb  Sb4  1  0.814287  0.655389  0.149419  1
  Sb  Sb5  1  0.655590  0.841158  0.505810  1
  Sb  Sb6  1  0.185713  0.344611  0.850581  1
  Sb  Sb7  1  0.664653  0.158842  0.814432  1
  Sb  Sb8  1  0.344410  0.158842  0.494190  1
  Sb  Sb9  1  0.494030  0.344611  0.158898  1
  Sb  Sb10  1  0.843264  0.508157  0.664894  1
  Sb  Sb11  1  0.848631  0.192884  0.344251  1
  Sb  Sb12  1  0.151369  0.807116  0.655749  1
  Ru  Ru13  1  0.500000  0.500000  0.500000  1
  Ru  Ru14  1  0.000000  0.500000  0.000000  1
  Pt  Pt15  1  0.500000  0.000000  0.000000  1
  Pt  Pt16  1  0.000000  0.000000  0.500000  1
