# generated using pymatgen
data_Y5Sc5(Si5Rh2)4
_symmetry_space_group_name_H-M   'P 1'
_cell_length_a   12.53360800
_cell_length_b   12.53360800
_cell_length_c   4.14035000
_cell_angle_alpha   90.00000000
_cell_angle_beta   90.00000000
_cell_angle_gamma   90.00000000
_symmetry_Int_Tables_number   1
_chemical_formula_structural   Y5Sc5(Si5Rh2)4
_chemical_formula_sum   'Y5 Sc5 Si20 Rh8'
_cell_volume   650.41308609
_cell_formula_units_Z   1
loop_
 _symmetry_equiv_pos_site_id
 _symmetry_equiv_pos_as_xyz
  1  'x, y, z'
loop_
 _atom_site_type_symbol
 _atom_site_label
 _atom_site_symmetry_multiplicity
 _atom_site_fract_x
 _atom_site_fract_y
 _atom_site_fract_z
 _atom_site_occupancy
  Y  Y0  1  0.000000  0.000000  0.000000  1
  Y  Y1  1  0.884688  0.385982  0.500000  1
  Y  Y2  1  0.115312  0.614018  0.500000  1
  Y  Y3  1  0.385982  0.115312  0.500000  1
  Y  Y4  1  0.614018  0.884688  0.500000  1
  Sc  Sc5  1  0.500000  0.500000  0.000000  1
  Sc  Sc6  1  0.673075  0.174974  0.500000  1
  Sc  Sc7  1  0.326925  0.825026  0.500000  1
  Sc  Sc8  1  0.174974  0.326925  0.500000  1
  Sc  Sc9  1  0.825026  0.673075  0.500000  1
  Si  Si10  1  0.566438  0.068247  0.000000  1
  Si  Si11  1  0.433562  0.931753  0.000000  1
  Si  Si12  1  0.068247  0.433562  0.000000  1
  Si  Si13  1  0.931753  0.566438  0.000000  1
  Si  Si14  1  0.664620  0.698802  0.000000  1
  Si  Si15  1  0.335380  0.301198  0.000000  1
  Si  Si16  1  0.165139  0.800550  0.000000  1
  Si  Si17  1  0.834861  0.199450  0.000000  1
  Si  Si18  1  0.301198  0.664620  0.000000  1
  Si  Si19  1  0.698802  0.335380  0.000000  1
  Si  Si20  1  0.199450  0.165139  0.000000  1
  Si  Si21  1  0.800550  0.834861  0.000000  1
  Si  Si22  1  0.651554  0.506604  0.500000  1
  Si  Si23  1  0.348446  0.493396  0.500000  1
  Si  Si24  1  0.158667  0.993956  0.500000  1
  Si  Si25  1  0.841333  0.006044  0.500000  1
  Si  Si26  1  0.493396  0.651554  0.500000  1
  Si  Si27  1  0.506604  0.348446  0.500000  1
  Si  Si28  1  0.006044  0.158667  0.500000  1
  Si  Si29  1  0.993956  0.841333  0.500000  1
  Rh  Rh30  1  0.742734  0.520233  0.000000  1
  Rh  Rh31  1  0.257266  0.479767  0.000000  1
  Rh  Rh32  1  0.246521  0.979419  0.000000  1
  Rh  Rh33  1  0.753479  0.020581  0.000000  1
  Rh  Rh34  1  0.479767  0.742734  0.000000  1
  Rh  Rh35  1  0.520233  0.257266  0.000000  1
  Rh  Rh36  1  0.020581  0.246521  0.000000  1
  Rh  Rh37  1  0.979419  0.753479  0.000000  1
