# generated using pymatgen
data_Dy7CoI12
_symmetry_space_group_name_H-M   'P 1'
_cell_length_a   9.72933870
_cell_length_b   9.72933918
_cell_length_c   9.72933998
_cell_angle_alpha   106.94486666
_cell_angle_beta   106.94486366
_cell_angle_gamma   106.94487159
_symmetry_Int_Tables_number   1
_chemical_formula_structural   Dy7CoI12
_chemical_formula_sum   'Dy7 Co1 I12'
_cell_volume   768.15130521
_cell_formula_units_Z   1
loop_
 _symmetry_equiv_pos_site_id
 _symmetry_equiv_pos_as_xyz
  1  'x, y, z'
loop_
 _atom_site_type_symbol
 _atom_site_label
 _atom_site_symmetry_multiplicity
 _atom_site_fract_x
 _atom_site_fract_y
 _atom_site_fract_z
 _atom_site_occupancy
  Dy  Dy0  1  0.977118  0.907369  0.711804  1
  Dy  Dy1  1  0.022882  0.092631  0.288196  1
  Dy  Dy2  1  0.092631  0.288196  0.022882  1
  Dy  Dy3  1  0.288196  0.022882  0.092631  1
  Dy  Dy4  1  0.500000  0.500000  0.500000  1
  Dy  Dy5  1  0.907369  0.711804  0.977118  1
  Dy  Dy6  1  0.711804  0.977118  0.907369  1
  Co  Co7  1  0.000000  0.000000  0.000000  1
  I  I8  1  0.534755  0.612397  0.839029  1
  I  I9  1  0.465245  0.387603  0.160971  1
  I  I10  1  0.321366  0.926882  0.774386  1
  I  I11  1  0.387603  0.160971  0.465245  1
  I  I12  1  0.926882  0.774386  0.321366  1
  I  I13  1  0.678634  0.073118  0.225614  1
  I  I14  1  0.073118  0.225614  0.678634  1
  I  I15  1  0.774386  0.321366  0.926882  1
  I  I16  1  0.225614  0.678634  0.073118  1
  I  I17  1  0.839029  0.534755  0.612397  1
  I  I18  1  0.160971  0.465245  0.387603  1
  I  I19  1  0.612397  0.839029  0.534755  1
