# generated using pymatgen
data_Th14(TcNi)3
_symmetry_space_group_name_H-M   'P 1'
_cell_length_a   9.90172100
_cell_length_b   9.90171995
_cell_length_c   6.24584800
_cell_angle_alpha   90.00000000
_cell_angle_beta   90.00000000
_cell_angle_gamma   120.00000018
_symmetry_Int_Tables_number   1
_chemical_formula_structural   Th14(TcNi)3
_chemical_formula_sum   'Th14 Tc3 Ni3'
_cell_volume   530.32654501
_cell_formula_units_Z   1
loop_
 _symmetry_equiv_pos_site_id
 _symmetry_equiv_pos_as_xyz
  1  'x, y, z'
loop_
 _atom_site_type_symbol
 _atom_site_label
 _atom_site_symmetry_multiplicity
 _atom_site_fract_x
 _atom_site_fract_y
 _atom_site_fract_z
 _atom_site_occupancy
  Th  Th0  1  0.666667  0.333333  0.581744  1
  Th  Th1  1  0.333333  0.666667  0.035834  1
  Th  Th2  1  0.874500  0.748999  0.752025  1
  Th  Th3  1  0.251001  0.125500  0.752025  1
  Th  Th4  1  0.874500  0.125500  0.752025  1
  Th  Th5  1  0.124659  0.249319  0.252846  1
  Th  Th6  1  0.750681  0.875341  0.252846  1
  Th  Th7  1  0.124659  0.875341  0.252846  1
  Th  Th8  1  0.458202  0.916405  0.540434  1
  Th  Th9  1  0.083595  0.541798  0.540434  1
  Th  Th10  1  0.458202  0.541798  0.540434  1
  Th  Th11  1  0.540447  0.080893  0.043135  1
  Th  Th12  1  0.919107  0.459553  0.043135  1
  Th  Th13  1  0.540447  0.459553  0.043135  1
  Tc  Tc14  1  0.182393  0.364786  0.796617  1
  Tc  Tc15  1  0.635214  0.817607  0.796617  1
  Tc  Tc16  1  0.182393  0.817607  0.796617  1
  Ni  Ni17  1  0.811637  0.623272  0.303253  1
  Ni  Ni18  1  0.376728  0.188363  0.303253  1
  Ni  Ni19  1  0.811637  0.188363  0.303253  1
