# generated using pymatgen
data_Pa8Zn8PdRh7
_symmetry_space_group_name_H-M   'P 1'
_cell_length_a   3.85679100
_cell_length_b   7.34072272
_cell_length_c   16.28541455
_cell_angle_alpha   90.45922329
_cell_angle_beta   90.00000000
_cell_angle_gamma   90.00000000
_symmetry_Int_Tables_number   1
_chemical_formula_structural   Pa8Zn8PdRh7
_chemical_formula_sum   'Pa8 Zn8 Pd1 Rh7'
_cell_volume   461.05187619
_cell_formula_units_Z   1
loop_
 _symmetry_equiv_pos_site_id
 _symmetry_equiv_pos_as_xyz
  1  'x, y, z'
loop_
 _atom_site_type_symbol
 _atom_site_label
 _atom_site_symmetry_multiplicity
 _atom_site_fract_x
 _atom_site_fract_y
 _atom_site_fract_z
 _atom_site_occupancy
  Pa  Pa0  1  0.250000  0.166365  0.941495  1
  Pa  Pa1  1  0.250000  0.658635  0.563433  1
  Pa  Pa2  1  0.750000  0.333151  0.442320  1
  Pa  Pa3  1  0.750000  0.951820  0.281249  1
  Pa  Pa4  1  0.750000  0.833517  0.058257  1
  Pa  Pa5  1  0.750000  0.447085  0.215534  1
  Pa  Pa6  1  0.250000  0.053202  0.716540  1
  Pa  Pa7  1  0.250000  0.552959  0.785309  1
  Zn  Zn8  1  0.750000  0.001108  0.561791  1
  Zn  Zn9  1  0.250000  0.616432  0.344573  1
  Zn  Zn10  1  0.750000  0.381526  0.655971  1
  Zn  Zn11  1  0.250000  0.498574  0.061160  1
  Zn  Zn12  1  0.750000  0.501415  0.939111  1
  Zn  Zn13  1  0.250000  0.997874  0.438639  1
  Zn  Zn14  1  0.250000  0.117601  0.153155  1
  Zn  Zn15  1  0.750000  0.883469  0.845712  1
  Pd  Pd16  1  0.750000  0.747641  0.435840  1
  Rh  Rh17  1  0.250000  0.244091  0.313524  1
  Rh  Rh18  1  0.750000  0.253523  0.814118  1
  Rh  Rh19  1  0.750000  0.755093  0.685621  1
  Rh  Rh20  1  0.250000  0.257783  0.560497  1
  Rh  Rh21  1  0.250000  0.747053  0.186343  1
  Rh  Rh22  1  0.750000  0.241469  0.059496  1
  Rh  Rh23  1  0.250000  0.758612  0.940312  1
