# generated using pymatgen
data_DyFe2P3IrRu2
_symmetry_space_group_name_H-M   'P 1'
_cell_length_a   3.82755300
_cell_length_b   10.58155200
_cell_length_c   12.11867500
_cell_angle_alpha   90.00000000
_cell_angle_beta   90.00000000
_cell_angle_gamma   90.00000000
_symmetry_Int_Tables_number   1
_chemical_formula_structural   DyFe2P3IrRu2
_chemical_formula_sum   'Dy4 Fe8 P12 Ir4 Ru8'
_cell_volume   490.82392294
_cell_formula_units_Z   4
loop_
 _symmetry_equiv_pos_site_id
 _symmetry_equiv_pos_as_xyz
  1  'x, y, z'
loop_
 _atom_site_type_symbol
 _atom_site_label
 _atom_site_symmetry_multiplicity
 _atom_site_fract_x
 _atom_site_fract_y
 _atom_site_fract_z
 _atom_site_occupancy
  Dy  Dy0  1  0.250000  0.579668  0.707733  1
  Dy  Dy1  1  0.250000  0.920332  0.207733  1
  Dy  Dy2  1  0.750000  0.420332  0.292267  1
  Dy  Dy3  1  0.750000  0.079668  0.792267  1
  Fe  Fe4  1  0.250000  0.880408  0.700496  1
  Fe  Fe5  1  0.250000  0.619592  0.200496  1
  Fe  Fe6  1  0.750000  0.119592  0.299504  1
  Fe  Fe7  1  0.750000  0.380408  0.799504  1
  Fe  Fe8  1  0.250000  0.461539  0.935837  1
  Fe  Fe9  1  0.250000  0.038461  0.435837  1
  Fe  Fe10  1  0.750000  0.538461  0.064163  1
  Fe  Fe11  1  0.750000  0.961539  0.564163  1
  P  P12  1  0.250000  0.437951  0.113202  1
  P  P13  1  0.250000  0.062049  0.613202  1
  P  P14  1  0.750000  0.562049  0.886798  1
  P  P15  1  0.750000  0.937951  0.386798  1
  P  P16  1  0.250000  0.272111  0.869623  1
  P  P17  1  0.250000  0.227889  0.369623  1
  P  P18  1  0.750000  0.727889  0.130377  1
  P  P19  1  0.750000  0.772111  0.630377  1
  P  P20  1  0.250000  0.600836  0.389361  1
  P  P21  1  0.250000  0.899164  0.889361  1
  P  P22  1  0.750000  0.399164  0.610639  1
  P  P23  1  0.750000  0.100836  0.110639  1
  Ir  Ir24  1  0.250000  0.233222  0.178279  1
  Ir  Ir25  1  0.250000  0.266778  0.678279  1
  Ir  Ir26  1  0.750000  0.766778  0.821721  1
  Ir  Ir27  1  0.750000  0.733222  0.321721  1
  Ru  Ru28  1  0.250000  0.704943  0.988430  1
  Ru  Ru29  1  0.250000  0.795057  0.488430  1
  Ru  Ru30  1  0.750000  0.295057  0.011570  1
  Ru  Ru31  1  0.750000  0.204943  0.511570  1
  Ru  Ru32  1  0.250000  0.404350  0.485436  1
  Ru  Ru33  1  0.250000  0.095650  0.985436  1
  Ru  Ru34  1  0.750000  0.595650  0.514564  1
  Ru  Ru35  1  0.750000  0.904350  0.014564  1
