# generated using pymatgen
data_Ba4RhAu
_symmetry_space_group_name_H-M   'P 1'
_cell_length_a   7.62538284
_cell_length_b   7.62538284
_cell_length_c   4.75725500
_cell_angle_alpha   90.00000000
_cell_angle_beta   90.00000000
_cell_angle_gamma   89.66366576
_symmetry_Int_Tables_number   1
_chemical_formula_structural   Ba4RhAu
_chemical_formula_sum   'Ba4 Rh1 Au1'
_cell_volume   276.61278846
_cell_formula_units_Z   1
loop_
 _symmetry_equiv_pos_site_id
 _symmetry_equiv_pos_as_xyz
  1  'x, y, z'
loop_
 _atom_site_type_symbol
 _atom_site_label
 _atom_site_symmetry_multiplicity
 _atom_site_fract_x
 _atom_site_fract_y
 _atom_site_fract_z
 _atom_site_occupancy
  Ba  Ba0  1  0.308426  0.308426  0.000000  1
  Ba  Ba1  1  0.691574  0.691574  0.000000  1
  Ba  Ba2  1  0.786245  0.213755  0.499999  1
  Ba  Ba3  1  0.213755  0.786245  0.499999  1
  Rh  Rh4  1  0.500001  0.500001  0.499999  1
  Au  Au5  1  0.000000  0.000000  0.000000  1
