# generated using pymatgen
data_Ca3YbSc6(Si5Ir2)4
_symmetry_space_group_name_H-M   'P 1'
_cell_length_a   12.55643918
_cell_length_b   12.55643905
_cell_length_c   4.15890300
_cell_angle_alpha   90.00000000
_cell_angle_beta   90.00000000
_cell_angle_gamma   89.95813392
_symmetry_Int_Tables_number   1
_chemical_formula_structural   Ca3YbSc6(Si5Ir2)4
_chemical_formula_sum   'Ca3 Yb1 Sc6 Si20 Ir8'
_cell_volume   655.70978599
_cell_formula_units_Z   1
loop_
 _symmetry_equiv_pos_site_id
 _symmetry_equiv_pos_as_xyz
  1  'x, y, z'
loop_
 _atom_site_type_symbol
 _atom_site_label
 _atom_site_symmetry_multiplicity
 _atom_site_fract_x
 _atom_site_fract_y
 _atom_site_fract_z
 _atom_site_occupancy
  Ca  Ca0  1  0.884424  0.384424  0.500000  1
  Ca  Ca1  1  0.615688  0.884332  0.500000  1
  Ca  Ca2  1  0.384332  0.115688  0.500000  1
  Yb  Yb3  1  0.115704  0.615704  0.500000  1
  Sc  Sc4  1  0.672874  0.172874  0.500000  1
  Sc  Sc5  1  0.326977  0.826977  0.500000  1
  Sc  Sc6  1  0.172740  0.327311  0.500000  1
  Sc  Sc7  1  0.827311  0.672740  0.500000  1
  Sc  Sc8  1  0.000015  0.999924  0.000000  1
  Sc  Sc9  1  0.499924  0.500015  0.000000  1
  Si  Si10  1  0.568665  0.068665  0.000000  1
  Si  Si11  1  0.431317  0.931317  0.000000  1
  Si  Si12  1  0.068709  0.431657  0.000000  1
  Si  Si13  1  0.931657  0.568709  0.000000  1
  Si  Si14  1  0.200343  0.165584  0.000000  1
  Si  Si15  1  0.799634  0.834397  0.000000  1
  Si  Si16  1  0.165659  0.799379  0.000000  1
  Si  Si17  1  0.700345  0.334460  0.000000  1
  Si  Si18  1  0.834460  0.200345  0.000000  1
  Si  Si19  1  0.299379  0.665659  0.000000  1
  Si  Si20  1  0.665584  0.700343  0.000000  1
  Si  Si21  1  0.334397  0.299634  0.000000  1
  Si  Si22  1  0.008106  0.149271  0.500000  1
  Si  Si23  1  0.992271  0.850423  0.500000  1
  Si  Si24  1  0.149221  0.991622  0.500000  1
  Si  Si25  1  0.508123  0.350783  0.500000  1
  Si  Si26  1  0.850783  0.008123  0.500000  1
  Si  Si27  1  0.491622  0.649221  0.500000  1
  Si  Si28  1  0.649271  0.508106  0.500000  1
  Si  Si29  1  0.350423  0.492271  0.500000  1
  Ir  Ir30  1  0.021425  0.242427  0.000000  1
  Ir  Ir31  1  0.978720  0.757414  0.000000  1
  Ir  Ir32  1  0.242403  0.978590  0.000000  1
  Ir  Ir33  1  0.521506  0.257561  0.000000  1
  Ir  Ir34  1  0.757561  0.021506  0.000000  1
  Ir  Ir35  1  0.478590  0.742403  0.000000  1
  Ir  Ir36  1  0.742427  0.521425  0.000000  1
  Ir  Ir37  1  0.257414  0.478720  0.000000  1
