# generated using pymatgen
data_YbDyCu2(Ni3B)2
_symmetry_space_group_name_H-M   'P 1'
_cell_length_a   5.00898000
_cell_length_b   5.00943077
_cell_length_c   6.86470200
_cell_angle_alpha   90.00000000
_cell_angle_beta   90.00000000
_cell_angle_gamma   119.99701019
_symmetry_Int_Tables_number   1
_chemical_formula_structural   YbDyCu2(Ni3B)2
_chemical_formula_sum   'Yb1 Dy1 Cu2 Ni6 B2'
_cell_volume   149.17741618
_cell_formula_units_Z   1
loop_
 _symmetry_equiv_pos_site_id
 _symmetry_equiv_pos_as_xyz
  1  'x, y, z'
loop_
 _atom_site_type_symbol
 _atom_site_label
 _atom_site_symmetry_multiplicity
 _atom_site_fract_x
 _atom_site_fract_y
 _atom_site_fract_z
 _atom_site_occupancy
  Yb  Yb0  1  0.500000  0.000000  0.500000  1
  Dy  Dy1  1  0.500000  0.000000  0.000000  1
  Cu  Cu2  1  0.833308  0.666615  0.000000  1
  Cu  Cu3  1  0.166692  0.333385  0.000000  1
  Ni  Ni4  1  0.000000  0.000000  0.702257  1
  Ni  Ni5  1  0.500000  0.500000  0.702325  1
  Ni  Ni6  1  0.000000  0.500000  0.702325  1
  Ni  Ni7  1  0.000000  0.000000  0.297743  1
  Ni  Ni8  1  0.500000  0.500000  0.297675  1
  Ni  Ni9  1  0.000000  0.500000  0.297675  1
  B  B10  1  0.833343  0.666685  0.500000  1
  B  B11  1  0.166657  0.333315  0.500000  1
