# generated using pymatgen
data_Lu6AlNi2
_symmetry_space_group_name_H-M   'P 1'
_cell_length_a   8.14631016
_cell_length_b   8.14631011
_cell_length_c   8.14630918
_cell_angle_alpha   112.55166769
_cell_angle_beta   110.29658578
_cell_angle_gamma   105.64068812
_symmetry_Int_Tables_number   1
_chemical_formula_structural   Lu6AlNi2
_chemical_formula_sum   'Lu12 Al2 Ni4'
_cell_volume   414.60484339
_cell_formula_units_Z   2
loop_
 _symmetry_equiv_pos_site_id
 _symmetry_equiv_pos_as_xyz
  1  'x, y, z'
loop_
 _atom_site_type_symbol
 _atom_site_label
 _atom_site_symmetry_multiplicity
 _atom_site_fract_x
 _atom_site_fract_y
 _atom_site_fract_z
 _atom_site_occupancy
  Lu  Lu0  1  0.435208  0.237897  0.197311  1
  Lu  Lu1  1  0.564792  0.762103  0.802689  1
  Lu  Lu2  1  0.040585  0.237897  0.802689  1
  Lu  Lu3  1  0.959415  0.762103  0.197311  1
  Lu  Lu4  1  0.182003  0.285743  0.467746  1
  Lu  Lu5  1  0.817997  0.714257  0.532254  1
  Lu  Lu6  1  0.182003  0.714257  0.896259  1
  Lu  Lu7  1  0.817997  0.285743  0.103741  1
  Lu  Lu8  1  0.325413  0.631055  0.305642  1
  Lu  Lu9  1  0.674587  0.368945  0.694358  1
  Lu  Lu10  1  0.325413  0.019772  0.694358  1
  Lu  Lu11  1  0.674587  0.980228  0.305642  1
  Al  Al12  1  0.500000  0.500000  0.000000  1
  Al  Al13  1  0.000000  0.000000  0.000000  1
  Ni  Ni14  1  0.342742  0.000000  0.342742  1
  Ni  Ni15  1  0.657258  0.000000  0.657258  1
  Ni  Ni16  1  0.122642  0.622642  0.500000  1
  Ni  Ni17  1  0.877358  0.377358  0.500000  1
