# generated using pymatgen
data_Hf4CoCu(Si2Ni)2
_symmetry_space_group_name_H-M   'P 1'
_cell_length_a   3.80287600
_cell_length_b   6.44820834
_cell_length_c   7.23127363
_cell_angle_alpha   90.68560780
_cell_angle_beta   90.00000000
_cell_angle_gamma   90.00000000
_symmetry_Int_Tables_number   1
_chemical_formula_structural   Hf4CoCu(Si2Ni)2
_chemical_formula_sum   'Hf4 Co1 Cu1 Si4 Ni2'
_cell_volume   177.31069315
_cell_formula_units_Z   1
loop_
 _symmetry_equiv_pos_site_id
 _symmetry_equiv_pos_as_xyz
  1  'x, y, z'
loop_
 _atom_site_type_symbol
 _atom_site_label
 _atom_site_symmetry_multiplicity
 _atom_site_fract_x
 _atom_site_fract_y
 _atom_site_fract_z
 _atom_site_occupancy
  Hf  Hf0  1  0.250000  0.019478  0.311652  1
  Hf  Hf1  1  0.250000  0.514274  0.181352  1
  Hf  Hf2  1  0.750000  0.986823  0.690163  1
  Hf  Hf3  1  0.750000  0.478940  0.818214  1
  Co  Co4  1  0.250000  0.137035  0.939277  1
  Cu  Cu5  1  0.250000  0.646432  0.562779  1
  Si  Si6  1  0.250000  0.266990  0.618619  1
  Si  Si7  1  0.250000  0.775826  0.890664  1
  Si  Si8  1  0.750000  0.731094  0.377634  1
  Si  Si9  1  0.750000  0.225475  0.109446  1
  Ni  Ni10  1  0.750000  0.858901  0.061665  1
  Ni  Ni11  1  0.750000  0.358732  0.438535  1
