# generated using pymatgen
data_Tb2Cd3Ga5Ni2
_symmetry_space_group_name_H-M   'P 1'
_cell_length_a   4.16666376
_cell_length_b   6.64250900
_cell_length_c   8.32198781
_cell_angle_alpha   90.00000000
_cell_angle_beta   104.49768373
_cell_angle_gamma   90.00000000
_symmetry_Int_Tables_number   1
_chemical_formula_structural   Tb2Cd3Ga5Ni2
_chemical_formula_sum   'Tb2 Cd3 Ga5 Ni2'
_cell_volume   222.99432664
_cell_formula_units_Z   1
loop_
 _symmetry_equiv_pos_site_id
 _symmetry_equiv_pos_as_xyz
  1  'x, y, z'
loop_
 _atom_site_type_symbol
 _atom_site_label
 _atom_site_symmetry_multiplicity
 _atom_site_fract_x
 _atom_site_fract_y
 _atom_site_fract_z
 _atom_site_occupancy
  Tb  Tb0  1  0.868678  0.750000  0.737356  1
  Tb  Tb1  1  0.127978  0.250000  0.255955  1
  Cd  Cd2  1  0.497878  0.492858  0.995756  1
  Cd  Cd3  1  0.497878  0.007142  0.995756  1
  Cd  Cd4  1  0.070307  0.750000  0.140613  1
  Ga  Ga5  1  0.926162  0.250000  0.852323  1
  Ga  Ga6  1  0.689686  0.550213  0.379372  1
  Ga  Ga7  1  0.311592  0.446324  0.623183  1
  Ga  Ga8  1  0.689686  0.949787  0.379372  1
  Ga  Ga9  1  0.311592  0.053676  0.623183  1
  Ni  Ni10  1  0.229903  0.750000  0.459806  1
  Ni  Ni11  1  0.778662  0.250000  0.557324  1
