# generated using pymatgen
data_Tb3Sm(ZrPt)4
_symmetry_space_group_name_H-M   'P 1'
_cell_length_a   4.68501300
_cell_length_b   7.17776909
_cell_length_c   8.22654100
_cell_angle_alpha   89.70352459
_cell_angle_beta   90.00000000
_cell_angle_gamma   90.00000000
_symmetry_Int_Tables_number   1
_chemical_formula_structural   Tb3Sm(ZrPt)4
_chemical_formula_sum   'Tb3 Sm1 Zr4 Pt4'
_cell_volume   276.63793603
_cell_formula_units_Z   1
loop_
 _symmetry_equiv_pos_site_id
 _symmetry_equiv_pos_as_xyz
  1  'x, y, z'
loop_
 _atom_site_type_symbol
 _atom_site_label
 _atom_site_symmetry_multiplicity
 _atom_site_fract_x
 _atom_site_fract_y
 _atom_site_fract_z
 _atom_site_occupancy
  Tb  Tb0  1  0.250000  0.515104  0.177489  1
  Tb  Tb1  1  0.750000  0.484314  0.822243  1
  Tb  Tb2  1  0.750000  0.983811  0.679335  1
  Sm  Sm3  1  0.250000  0.014986  0.320717  1
  Zr  Zr4  1  0.250000  0.647883  0.581723  1
  Zr  Zr5  1  0.750000  0.352712  0.420108  1
  Zr  Zr6  1  0.750000  0.850781  0.078337  1
  Zr  Zr7  1  0.250000  0.148928  0.918516  1
  Pt  Pt8  1  0.250000  0.773751  0.906004  1
  Pt  Pt9  1  0.750000  0.227189  0.091987  1
  Pt  Pt10  1  0.750000  0.725104  0.408061  1
  Pt  Pt11  1  0.250000  0.275437  0.595480  1
