# generated using pymatgen
data_Tb20CoBi8Ir3
_symmetry_space_group_name_H-M   'P 1'
_cell_length_a   8.06156830
_cell_length_b   9.00064700
_cell_length_c   12.53362198
_cell_angle_alpha   90.00000000
_cell_angle_beta   90.18568600
_cell_angle_gamma   90.00000000
_symmetry_Int_Tables_number   1
_chemical_formula_structural   Tb20CoBi8Ir3
_chemical_formula_sum   'Tb20 Co1 Bi8 Ir3'
_cell_volume   909.42644475
_cell_formula_units_Z   1
loop_
 _symmetry_equiv_pos_site_id
 _symmetry_equiv_pos_as_xyz
  1  'x, y, z'
loop_
 _atom_site_type_symbol
 _atom_site_label
 _atom_site_symmetry_multiplicity
 _atom_site_fract_x
 _atom_site_fract_y
 _atom_site_fract_z
 _atom_site_occupancy
  Tb  Tb0  1  0.845449  0.750000  0.800564  1
  Tb  Tb1  1  0.157300  0.250000  0.205531  1
  Tb  Tb2  1  0.342721  0.250000  0.705851  1
  Tb  Tb3  1  0.656782  0.750000  0.294871  1
  Tb  Tb4  1  0.377600  0.750000  0.695156  1
  Tb  Tb5  1  0.622114  0.250000  0.305421  1
  Tb  Tb6  1  0.877146  0.250000  0.805750  1
  Tb  Tb7  1  0.118310  0.750000  0.189271  1
  Tb  Tb8  1  0.947211  0.750000  0.503209  1
  Tb  Tb9  1  0.051638  0.250000  0.497555  1
  Tb  Tb10  1  0.448819  0.250000  0.997858  1
  Tb  Tb11  1  0.549867  0.750000  0.002266  1
  Tb  Tb12  1  0.678038  0.042295  0.565639  1
  Tb  Tb13  1  0.321120  0.957748  0.434402  1
  Tb  Tb14  1  0.177693  0.957561  0.935409  1
  Tb  Tb15  1  0.321120  0.542252  0.434402  1
  Tb  Tb16  1  0.824125  0.034944  0.063189  1
  Tb  Tb17  1  0.678038  0.457705  0.565639  1
  Tb  Tb18  1  0.824125  0.465056  0.063189  1
  Tb  Tb19  1  0.177693  0.542439  0.935409  1
  Co  Co20  1  0.934647  0.750000  0.008974  1
  Bi  Bi21  1  0.571862  0.492095  0.827354  1
  Bi  Bi22  1  0.429038  0.508581  0.172718  1
  Bi  Bi23  1  0.070033  0.508426  0.673836  1
  Bi  Bi24  1  0.429038  0.991419  0.172718  1
  Bi  Bi25  1  0.929538  0.492501  0.326016  1
  Bi  Bi26  1  0.571862  0.007905  0.827354  1
  Bi  Bi27  1  0.929538  0.007499  0.326016  1
  Bi  Bi28  1  0.070033  0.991574  0.673836  1
  Ir  Ir29  1  0.569718  0.750000  0.510114  1
  Ir  Ir30  1  0.428907  0.250000  0.490012  1
  Ir  Ir31  1  0.068876  0.250000  0.990469  1
