# generated using pymatgen
data_Tb4Al18MoPt5
_symmetry_space_group_name_H-M   'P 1'
_cell_length_a   7.62323097
_cell_length_b   7.62323145
_cell_length_c   9.51913732
_cell_angle_alpha   89.68326579
_cell_angle_beta   89.68326376
_cell_angle_gamma   119.10194756
_symmetry_Int_Tables_number   1
_chemical_formula_structural   Tb4Al18MoPt5
_chemical_formula_sum   'Tb4 Al18 Mo1 Pt5'
_cell_volume   483.32577174
_cell_formula_units_Z   1
loop_
 _symmetry_equiv_pos_site_id
 _symmetry_equiv_pos_as_xyz
  1  'x, y, z'
loop_
 _atom_site_type_symbol
 _atom_site_label
 _atom_site_symmetry_multiplicity
 _atom_site_fract_x
 _atom_site_fract_y
 _atom_site_fract_z
 _atom_site_occupancy
  Tb  Tb0  1  0.994822  0.676640  0.247855  1
  Tb  Tb1  1  0.005178  0.323360  0.752145  1
  Tb  Tb2  1  0.676640  0.994822  0.247855  1
  Tb  Tb3  1  0.323360  0.005178  0.752145  1
  Al  Al4  1  0.133068  0.133068  0.248007  1
  Al  Al5  1  0.866932  0.866932  0.751993  1
  Al  Al6  1  0.002365  0.333762  0.075023  1
  Al  Al7  1  0.997635  0.666238  0.924977  1
  Al  Al8  1  0.998351  0.661813  0.577914  1
  Al  Al9  1  0.338187  0.001649  0.422086  1
  Al  Al10  1  0.001649  0.338187  0.422086  1
  Al  Al11  1  0.661813  0.998351  0.577914  1
  Al  Al12  1  0.666238  0.997635  0.924977  1
  Al  Al13  1  0.333762  0.002365  0.075023  1
  Al  Al14  1  0.333229  0.333229  0.555072  1
  Al  Al15  1  0.666771  0.666771  0.444928  1
  Al  Al16  1  0.668536  0.668536  0.052525  1
  Al  Al17  1  0.331464  0.331464  0.947475  1
  Al  Al18  1  0.341940  0.549245  0.249958  1
  Al  Al19  1  0.658060  0.450755  0.750042  1
  Al  Al20  1  0.549245  0.341940  0.249958  1
  Al  Al21  1  0.450755  0.658060  0.750042  1
  Mo  Mo22  1  0.000000  0.000000  0.000000  1
  Pt  Pt23  1  0.672177  0.327823  0.000000  1
  Pt  Pt24  1  0.327823  0.672177  0.000000  1
  Pt  Pt25  1  0.328130  0.671870  0.500000  1
  Pt  Pt26  1  0.671870  0.328130  0.500000  1
  Pt  Pt27  1  0.000000  0.000000  0.500000  1
