# generated using pymatgen
data_Eu9(PtAu2)2
_symmetry_space_group_name_H-M   'P 1'
_cell_length_a   7.99829095
_cell_length_b   8.04270269
_cell_length_c   8.01577200
_cell_angle_alpha   70.29493726
_cell_angle_beta   70.40613833
_cell_angle_gamma   70.28661313
_symmetry_Int_Tables_number   1
_chemical_formula_structural   Eu9(PtAu2)2
_chemical_formula_sum   'Eu9 Pt2 Au4'
_cell_volume   442.47341218
_cell_formula_units_Z   1
loop_
 _symmetry_equiv_pos_site_id
 _symmetry_equiv_pos_as_xyz
  1  'x, y, z'
loop_
 _atom_site_type_symbol
 _atom_site_label
 _atom_site_symmetry_multiplicity
 _atom_site_fract_x
 _atom_site_fract_y
 _atom_site_fract_z
 _atom_site_occupancy
  Eu  Eu0  1  0.007822  0.995860  0.996436  1
  Eu  Eu1  1  0.395929  0.664881  0.143581  1
  Eu  Eu2  1  0.201023  0.204755  0.189409  1
  Eu  Eu3  1  0.852980  0.598286  0.331120  1
  Eu  Eu4  1  0.656660  0.153829  0.407411  1
  Eu  Eu5  1  0.338056  0.841239  0.612491  1
  Eu  Eu6  1  0.164374  0.397407  0.672526  1
  Eu  Eu7  1  0.799230  0.802661  0.802964  1
  Eu  Eu8  1  0.590281  0.335105  0.843080  1
  Pt  Pt9  1  0.410934  0.045264  0.838572  1
  Pt  Pt10  1  0.158601  0.592424  0.954312  1
  Au  Au11  1  0.832373  0.408954  0.047005  1
  Au  Au12  1  0.589521  0.952568  0.163557  1
  Au  Au13  1  0.047736  0.839008  0.411004  1
  Au  Au14  1  0.954482  0.167760  0.586531  1
