# generated using pymatgen
data_Cs2RbBi(AsS2)6
_symmetry_space_group_name_H-M   'P 1'
_cell_length_a   9.70728700
_cell_length_b   9.70728749
_cell_length_c   8.36542400
_cell_angle_alpha   90.00000000
_cell_angle_beta   90.00000000
_cell_angle_gamma   119.99999492
_symmetry_Int_Tables_number   1
_chemical_formula_structural   Cs2RbBi(AsS2)6
_chemical_formula_sum   'Cs2 Rb1 Bi1 As6 S12'
_cell_volume   682.67558907
_cell_formula_units_Z   1
loop_
 _symmetry_equiv_pos_site_id
 _symmetry_equiv_pos_as_xyz
  1  'x, y, z'
loop_
 _atom_site_type_symbol
 _atom_site_label
 _atom_site_symmetry_multiplicity
 _atom_site_fract_x
 _atom_site_fract_y
 _atom_site_fract_z
 _atom_site_occupancy
  Cs  Cs0  1  0.333333  0.666667  0.866351  1
  Cs  Cs1  1  0.666667  0.333333  0.133649  1
  Rb  Rb2  1  0.000000  0.000000  0.000000  1
  Bi  Bi3  1  0.000000  0.000000  0.500000  1
  As  As4  1  0.289930  0.837774  0.396625  1
  As  As5  1  0.162226  0.452157  0.396625  1
  As  As6  1  0.547843  0.710070  0.396625  1
  As  As7  1  0.710070  0.162226  0.603375  1
  As  As8  1  0.837774  0.547843  0.603375  1
  As  As9  1  0.452157  0.289930  0.603375  1
  S  S10  1  0.255684  0.032443  0.300642  1
  S  S11  1  0.967557  0.223242  0.300642  1
  S  S12  1  0.776758  0.744316  0.300642  1
  S  S13  1  0.744316  0.967557  0.699358  1
  S  S14  1  0.032443  0.776758  0.699358  1
  S  S15  1  0.223242  0.255684  0.699358  1
  S  S16  1  0.518913  0.899115  0.251074  1
  S  S17  1  0.100885  0.619796  0.251074  1
  S  S18  1  0.380204  0.481087  0.251074  1
  S  S19  1  0.481087  0.100885  0.748926  1
  S  S20  1  0.899115  0.380204  0.748926  1
  S  S21  1  0.619796  0.518913  0.748926  1
