# generated using pymatgen
data_Nd6Dy10MgHg3Rh4
_symmetry_space_group_name_H-M   'P 1'
_cell_length_a   9.71090444
_cell_length_b   9.72369612
_cell_length_c   9.72369600
_cell_angle_alpha   60.00000041
_cell_angle_beta   59.95641659
_cell_angle_gamma   59.95642078
_symmetry_Int_Tables_number   1
_chemical_formula_structural   Nd6Dy10MgHg3Rh4
_chemical_formula_sum   'Nd6 Dy10 Mg1 Hg3 Rh4'
_cell_volume   648.81523205
_cell_formula_units_Z   1
loop_
 _symmetry_equiv_pos_site_id
 _symmetry_equiv_pos_as_xyz
  1  'x, y, z'
loop_
 _atom_site_type_symbol
 _atom_site_label
 _atom_site_symmetry_multiplicity
 _atom_site_fract_x
 _atom_site_fract_y
 _atom_site_fract_z
 _atom_site_occupancy
  Nd  Nd0  1  0.189169  0.811968  0.811968  1
  Nd  Nd1  1  0.810306  0.189074  0.189074  1
  Nd  Nd2  1  0.810306  0.189074  0.811547  1
  Nd  Nd3  1  0.189169  0.811968  0.186894  1
  Nd  Nd4  1  0.810306  0.811547  0.189074  1
  Nd  Nd5  1  0.189169  0.186894  0.811968  1
  Dy  Dy6  1  0.598408  0.597522  0.597522  1
  Dy  Dy7  1  0.598408  0.597522  0.206549  1
  Dy  Dy8  1  0.598408  0.206549  0.597522  1
  Dy  Dy9  1  0.198413  0.600529  0.600529  1
  Dy  Dy10  1  0.060706  0.438383  0.438383  1
  Dy  Dy11  1  0.434068  0.065029  0.065029  1
  Dy  Dy12  1  0.434068  0.065029  0.435874  1
  Dy  Dy13  1  0.060706  0.438383  0.062527  1
  Dy  Dy14  1  0.434068  0.435874  0.065029  1
  Dy  Dy15  1  0.060706  0.062527  0.438383  1
  Mg  Mg16  1  0.538564  0.820479  0.820479  1
  Hg  Hg17  1  0.830222  0.834402  0.834402  1
  Hg  Hg18  1  0.830222  0.834402  0.500977  1
  Hg  Hg19  1  0.830222  0.500977  0.834402  1
  Rh  Rh20  1  0.390375  0.393045  0.393045  1
  Rh  Rh21  1  0.390375  0.393045  0.823533  1
  Rh  Rh22  1  0.390375  0.823533  0.393045  1
  Rh  Rh23  1  0.823263  0.392245  0.392245  1
