# generated using pymatgen
data_Dy3YGa20Pt11
_symmetry_space_group_name_H-M   'P 1'
_cell_length_a   4.17465982
_cell_length_b   10.97608409
_cell_length_c   13.73830372
_cell_angle_alpha   82.29063931
_cell_angle_beta   81.26093543
_cell_angle_gamma   79.03725938
_symmetry_Int_Tables_number   1
_chemical_formula_structural   Dy3YGa20Pt11
_chemical_formula_sum   'Dy3 Y1 Ga20 Pt11'
_cell_volume   607.24160640
_cell_formula_units_Z   1
loop_
 _symmetry_equiv_pos_site_id
 _symmetry_equiv_pos_as_xyz
  1  'x, y, z'
loop_
 _atom_site_type_symbol
 _atom_site_label
 _atom_site_symmetry_multiplicity
 _atom_site_fract_x
 _atom_site_fract_y
 _atom_site_fract_z
 _atom_site_occupancy
  Dy  Dy0  1  0.876128  0.912525  0.335218  1
  Dy  Dy1  1  0.774599  0.629632  0.821168  1
  Dy  Dy2  1  0.225372  0.370346  0.178911  1
  Y  Y3  1  0.124040  0.087534  0.664386  1
  Ga  Ga4  1  0.009541  0.069475  0.911444  1
  Ga  Ga5  1  0.990392  0.930562  0.088652  1
  Ga  Ga6  1  0.065682  0.674380  0.194257  1
  Ga  Ga7  1  0.934277  0.325665  0.805780  1
  Ga  Ga8  1  0.101632  0.342469  0.454267  1
  Ga  Ga9  1  0.898422  0.657495  0.545662  1
  Ga  Ga10  1  0.202505  0.603455  0.991535  1
  Ga  Ga11  1  0.797451  0.396561  0.008537  1
  Ga  Ga12  1  0.259550  0.779965  0.700936  1
  Ga  Ga13  1  0.740544  0.219942  0.298970  1
  Ga  Ga14  1  0.302923  0.899140  0.495012  1
  Ga  Ga15  1  0.697470  0.100428  0.504633  1
  Ga  Ga16  1  0.387155  0.524873  0.700817  1
  Ga  Ga17  1  0.612767  0.475223  0.299242  1
  Ga  Ga18  1  0.396996  0.203998  0.002009  1
  Ga  Ga19  1  0.602889  0.796076  0.998145  1
  Ga  Ga20  1  0.543893  0.282666  0.629549  1
  Ga  Ga21  1  0.455961  0.717566  0.370512  1
  Ga  Ga22  1  0.637203  0.933883  0.791713  1
  Ga  Ga23  1  0.362777  0.066087  0.208358  1
  Pt  Pt24  1  0.500018  0.500009  0.499955  1
  Pt  Pt25  1  0.027346  0.576023  0.369285  1
  Pt  Pt26  1  0.972531  0.424209  0.630729  1
  Pt  Pt27  1  0.139156  0.833696  0.887991  1
  Pt  Pt28  1  0.860826  0.166240  0.112108  1
  Pt  Pt29  1  0.239907  0.128129  0.392055  1
  Pt  Pt30  1  0.760348  0.871581  0.607724  1
  Pt  Pt31  1  0.345301  0.417334  0.892062  1
  Pt  Pt32  1  0.654629  0.582716  0.108026  1
  Pt  Pt33  1  0.505927  0.168430  0.819716  1
  Pt  Pt34  1  0.493838  0.831687  0.180636  1
