# generated using pymatgen
data_PuTe(AuCl7)2
_symmetry_space_group_name_H-M   'P 1'
_cell_length_a   8.05885116
_cell_length_b   8.37442051
_cell_length_c   9.59506088
_cell_angle_alpha   101.61317598
_cell_angle_beta   97.00141849
_cell_angle_gamma   88.69811192
_symmetry_Int_Tables_number   1
_chemical_formula_structural   PuTe(AuCl7)2
_chemical_formula_sum   'Pu1 Te1 Au2 Cl14'
_cell_volume   629.56642008
_cell_formula_units_Z   1
loop_
 _symmetry_equiv_pos_site_id
 _symmetry_equiv_pos_as_xyz
  1  'x, y, z'
loop_
 _atom_site_type_symbol
 _atom_site_label
 _atom_site_symmetry_multiplicity
 _atom_site_fract_x
 _atom_site_fract_y
 _atom_site_fract_z
 _atom_site_occupancy
  Pu  Pu0  1  0.289883  0.216776  0.751510  1
  Te  Te1  1  0.701338  0.768681  0.227418  1
  Au  Au2  1  0.072297  0.808660  0.563993  1
  Au  Au3  1  0.925501  0.194837  0.443792  1
  Cl  Cl4  1  0.570029  0.131444  0.852218  1
  Cl  Cl5  1  0.443462  0.861523  0.133326  1
  Cl  Cl6  1  0.645262  0.148001  0.444792  1
  Cl  Cl7  1  0.347429  0.886277  0.560558  1
  Cl  Cl8  1  0.956662  0.316859  0.686386  1
  Cl  Cl9  1  0.048627  0.669660  0.327137  1
  Cl  Cl10  1  0.211796  0.238583  0.446708  1
  Cl  Cl11  1  0.796988  0.745634  0.573370  1
  Cl  Cl12  1  0.898830  0.066982  0.204717  1
  Cl  Cl13  1  0.097962  0.954791  0.799734  1
  Cl  Cl14  1  0.196158  0.311257  0.995803  1
  Cl  Cl15  1  0.793125  0.677711  0.003838  1
  Cl  Cl16  1  0.592910  0.515127  0.238455  1
  Cl  Cl17  1  0.411741  0.487195  0.746245  1
