# generated using pymatgen
data_HoSiTc4Ge
_symmetry_space_group_name_H-M   'P 1'
_cell_length_a   7.39319034
_cell_length_b   7.39319034
_cell_length_c   4.18480600
_cell_angle_alpha   90.00000000
_cell_angle_beta   90.00000000
_cell_angle_gamma   89.28893538
_symmetry_Int_Tables_number   1
_chemical_formula_structural   HoSiTc4Ge
_chemical_formula_sum   'Ho2 Si2 Tc8 Ge2'
_cell_volume   228.72079842
_cell_formula_units_Z   2
loop_
 _symmetry_equiv_pos_site_id
 _symmetry_equiv_pos_as_xyz
  1  'x, y, z'
loop_
 _atom_site_type_symbol
 _atom_site_label
 _atom_site_symmetry_multiplicity
 _atom_site_fract_x
 _atom_site_fract_y
 _atom_site_fract_z
 _atom_site_occupancy
  Ho  Ho0  1  0.000000  0.000000  0.000000  1
  Ho  Ho1  1  0.500000  0.500000  0.500000  1
  Si  Si2  1  0.294844  0.294844  0.000000  1
  Si  Si3  1  0.705156  0.705156  0.000000  1
  Tc  Tc4  1  0.590117  0.153076  0.000000  1
  Tc  Tc5  1  0.409883  0.846924  0.000000  1
  Tc  Tc6  1  0.653585  0.899184  0.500000  1
  Tc  Tc7  1  0.100816  0.346415  0.500000  1
  Tc  Tc8  1  0.346415  0.100816  0.500000  1
  Tc  Tc9  1  0.899184  0.653585  0.500000  1
  Tc  Tc10  1  0.153076  0.590117  0.000000  1
  Tc  Tc11  1  0.846924  0.409883  0.000000  1
  Ge  Ge12  1  0.792781  0.207219  0.500000  1
  Ge  Ge13  1  0.207219  0.792781  0.500000  1
