# generated using pymatgen
data_Ta2FeSi2Ir
_symmetry_space_group_name_H-M   'P 1'
_cell_length_a   6.32261600
_cell_length_b   3.77543900
_cell_length_c   7.17994400
_cell_angle_alpha   90.00000000
_cell_angle_beta   90.00000000
_cell_angle_gamma   90.00000000
_symmetry_Int_Tables_number   1
_chemical_formula_structural   Ta2FeSi2Ir
_chemical_formula_sum   'Ta4 Fe2 Si4 Ir2'
_cell_volume   171.38993763
_cell_formula_units_Z   2
loop_
 _symmetry_equiv_pos_site_id
 _symmetry_equiv_pos_as_xyz
  1  'x, y, z'
loop_
 _atom_site_type_symbol
 _atom_site_label
 _atom_site_symmetry_multiplicity
 _atom_site_fract_x
 _atom_site_fract_y
 _atom_site_fract_z
 _atom_site_occupancy
  Ta  Ta0  1  0.018790  0.250000  0.317945  1
  Ta  Ta1  1  0.518790  0.250000  0.182055  1
  Ta  Ta2  1  0.979093  0.750000  0.675182  1
  Ta  Ta3  1  0.479093  0.750000  0.824818  1
  Fe  Fe4  1  0.855325  0.750000  0.062472  1
  Fe  Fe5  1  0.355325  0.750000  0.437528  1
  Si  Si6  1  0.272228  0.250000  0.609125  1
  Si  Si7  1  0.772228  0.250000  0.890875  1
  Si  Si8  1  0.725733  0.750000  0.367393  1
  Si  Si9  1  0.225733  0.750000  0.132607  1
  Ir  Ir10  1  0.148830  0.250000  0.935129  1
  Ir  Ir11  1  0.648830  0.250000  0.564871  1
