# generated using pymatgen
data_Ti3V(ZnC)2
_symmetry_space_group_name_H-M   'P 1'
_cell_length_a   8.30852200
_cell_length_b   8.30852347
_cell_length_c   4.20734600
_cell_angle_alpha   90.00000000
_cell_angle_beta   90.00000000
_cell_angle_gamma   159.11302977
_symmetry_Int_Tables_number   1
_chemical_formula_structural   Ti3V(ZnC)2
_chemical_formula_sum   'Ti3 V1 Zn2 C2'
_cell_volume   103.54914110
_cell_formula_units_Z   1
loop_
 _symmetry_equiv_pos_site_id
 _symmetry_equiv_pos_as_xyz
  1  'x, y, z'
loop_
 _atom_site_type_symbol
 _atom_site_label
 _atom_site_symmetry_multiplicity
 _atom_site_fract_x
 _atom_site_fract_y
 _atom_site_fract_z
 _atom_site_occupancy
  Ti  Ti0  1  0.212415  0.787585  0.750000  1
  Ti  Ti1  1  0.612292  0.387708  0.250000  1
  Ti  Ti2  1  0.388151  0.611849  0.750000  1
  V  V3  1  0.785712  0.214288  0.250000  1
  Zn  Zn4  1  0.956107  0.043893  0.250000  1
  Zn  Zn5  1  0.042524  0.957476  0.750000  1
  C  C6  1  0.201196  0.798804  0.250000  1
  C  C7  1  0.801603  0.198397  0.750000  1
