# generated using pymatgen
data_Sc12Fe3Bi2
_symmetry_space_group_name_H-M   'P 1'
_cell_length_a   7.85882982
_cell_length_b   7.85883017
_cell_length_c   7.85882961
_cell_angle_alpha   108.09691292
_cell_angle_beta   108.09691874
_cell_angle_gamma   112.25624522
_symmetry_Int_Tables_number   1
_chemical_formula_structural   Sc12Fe3Bi2
_chemical_formula_sum   'Sc12 Fe3 Bi2'
_cell_volume   372.97300413
_cell_formula_units_Z   1
loop_
 _symmetry_equiv_pos_site_id
 _symmetry_equiv_pos_as_xyz
  1  'x, y, z'
loop_
 _atom_site_type_symbol
 _atom_site_label
 _atom_site_symmetry_multiplicity
 _atom_site_fract_x
 _atom_site_fract_y
 _atom_site_fract_z
 _atom_site_occupancy
  Sc  Sc0  1  0.307228  0.307228  0.614456  1
  Sc  Sc1  1  0.692772  0.692772  0.385544  1
  Sc  Sc2  1  0.692772  0.307228  0.000000  1
  Sc  Sc3  1  0.307228  0.692772  0.000000  1
  Sc  Sc4  1  0.195430  0.425216  0.229786  1
  Sc  Sc5  1  0.804570  0.574784  0.770214  1
  Sc  Sc6  1  0.195430  0.965643  0.770214  1
  Sc  Sc7  1  0.965643  0.195430  0.770214  1
  Sc  Sc8  1  0.804570  0.034357  0.229786  1
  Sc  Sc9  1  0.034357  0.804570  0.229786  1
  Sc  Sc10  1  0.425216  0.195430  0.229786  1
  Sc  Sc11  1  0.574784  0.804570  0.770214  1
  Fe  Fe12  1  0.374990  0.374990  0.000000  1
  Fe  Fe13  1  0.625010  0.625010  0.000000  1
  Fe  Fe14  1  0.000000  0.000000  0.000000  1
  Bi  Bi15  1  0.000000  0.500000  0.500000  1
  Bi  Bi16  1  0.500000  0.000000  0.500000  1
