# generated using pymatgen
data_HoAg(AuO2)4
_symmetry_space_group_name_H-M   'P 1'
_cell_length_a   6.65279895
_cell_length_b   6.65279881
_cell_length_c   6.65279850
_cell_angle_alpha   125.38589594
_cell_angle_beta   125.38588099
_cell_angle_gamma   80.89984390
_symmetry_Int_Tables_number   1
_chemical_formula_structural   HoAg(AuO2)4
_chemical_formula_sum   'Ho1 Ag1 Au4 O8'
_cell_volume   188.63042108
_cell_formula_units_Z   1
loop_
 _symmetry_equiv_pos_site_id
 _symmetry_equiv_pos_as_xyz
  1  'x, y, z'
loop_
 _atom_site_type_symbol
 _atom_site_label
 _atom_site_symmetry_multiplicity
 _atom_site_fract_x
 _atom_site_fract_y
 _atom_site_fract_z
 _atom_site_occupancy
  Ho  Ho0  1  0.000000  0.000000  0.000000  1
  Ag  Ag1  1  0.750000  0.250000  0.500000  1
  Au  Au2  1  0.374444  0.639592  0.762807  1
  Au  Au3  1  0.360408  0.123215  0.734853  1
  Au  Au4  1  0.876785  0.611638  0.237193  1
  Au  Au5  1  0.388362  0.625556  0.265147  1
  O  O6  1  0.059167  0.391359  0.057568  1
  O  O7  1  0.740150  0.274129  0.111694  1
  O  O8  1  0.162435  0.628455  0.888306  1
  O  O9  1  0.333789  0.001599  0.942432  1
  O  O10  1  0.725871  0.837565  0.466020  1
  O  O11  1  0.998401  0.940833  0.332191  1
  O  O12  1  0.371545  0.259850  0.533980  1
  O  O13  1  0.608641  0.666211  0.667809  1
