# generated using pymatgen
data_Hf12Th8Si15Ir
_symmetry_space_group_name_H-M   'P 1'
_cell_length_a   7.42139863
_cell_length_b   7.38008892
_cell_length_c   13.63346289
_cell_angle_alpha   90.19959209
_cell_angle_beta   90.21575379
_cell_angle_gamma   90.22713209
_symmetry_Int_Tables_number   1
_chemical_formula_structural   Hf12Th8Si15Ir
_chemical_formula_sum   'Hf12 Th8 Si15 Ir1'
_cell_volume   746.69696293
_cell_formula_units_Z   1
loop_
 _symmetry_equiv_pos_site_id
 _symmetry_equiv_pos_as_xyz
  1  'x, y, z'
loop_
 _atom_site_type_symbol
 _atom_site_label
 _atom_site_symmetry_multiplicity
 _atom_site_fract_x
 _atom_site_fract_y
 _atom_site_fract_z
 _atom_site_occupancy
  Hf  Hf0  1  0.672930  0.326822  0.748893  1
  Hf  Hf1  1  0.325857  0.673997  0.249949  1
  Hf  Hf2  1  0.826497  0.827087  0.500178  1
  Hf  Hf3  1  0.176149  0.169654  0.999663  1
  Hf  Hf4  1  0.498557  0.342478  0.125837  1
  Hf  Hf5  1  0.502919  0.655943  0.624208  1
  Hf  Hf6  1  0.844227  0.004725  0.877347  1
  Hf  Hf7  1  0.154519  0.996157  0.375683  1
  Hf  Hf8  1  0.653453  0.502452  0.375340  1
  Hf  Hf9  1  0.346485  0.499613  0.874548  1
  Hf  Hf10  1  0.001880  0.849268  0.126742  1
  Hf  Hf11  1  0.997272  0.155300  0.623819  1
  Th  Th12  1  0.497555  0.157412  0.533937  1
  Th  Th13  1  0.504342  0.846748  0.034830  1
  Th  Th14  1  0.656916  0.003546  0.285202  1
  Th  Th15  1  0.343403  0.996907  0.782834  1
  Th  Th16  1  0.843316  0.498984  0.965962  1
  Th  Th17  1  0.156529  0.496004  0.464925  1
  Th  Th18  1  0.004011  0.658069  0.716678  1
  Th  Th19  1  0.992480  0.338156  0.213673  1
  Si  Si20  1  0.201560  0.865930  0.566134  1
  Si  Si21  1  0.633605  0.702561  0.815252  1
  Si  Si22  1  0.367195  0.295928  0.315704  1
  Si  Si23  1  0.867763  0.202438  0.434337  1
  Si  Si24  1  0.135356  0.796969  0.934507  1
  Si  Si25  1  0.699534  0.632465  0.186167  1
  Si  Si26  1  0.297893  0.368247  0.684340  1
  Si  Si27  1  0.543579  0.212760  0.934412  1
  Si  Si28  1  0.453647  0.789214  0.435007  1
  Si  Si29  1  0.710527  0.954888  0.685393  1
  Si  Si30  1  0.291743  0.045472  0.186764  1
  Si  Si31  1  0.790699  0.454634  0.564759  1
  Si  Si32  1  0.210939  0.547214  0.064356  1
  Si  Si33  1  0.951861  0.709613  0.315247  1
  Si  Si34  1  0.048198  0.288988  0.812899  1
  Ir  Ir35  1  0.796605  0.133354  0.064473  1
