# generated using pymatgen
data_Pr8Be3Si12Ag
_symmetry_space_group_name_H-M   'P 1'
_cell_length_a   8.09277000
_cell_length_b   8.09276915
_cell_length_c   8.67577800
_cell_angle_alpha   90.00000000
_cell_angle_beta   90.00000000
_cell_angle_gamma   119.99999531
_symmetry_Int_Tables_number   1
_chemical_formula_structural   Pr8Be3Si12Ag
_chemical_formula_sum   'Pr8 Be3 Si12 Ag1'
_cell_volume   492.07741491
_cell_formula_units_Z   1
loop_
 _symmetry_equiv_pos_site_id
 _symmetry_equiv_pos_as_xyz
  1  'x, y, z'
loop_
 _atom_site_type_symbol
 _atom_site_label
 _atom_site_symmetry_multiplicity
 _atom_site_fract_x
 _atom_site_fract_y
 _atom_site_fract_z
 _atom_site_occupancy
  Pr  Pr0  1  0.497660  0.502340  0.753353  1
  Pr  Pr1  1  0.497740  0.502260  0.246676  1
  Pr  Pr2  1  0.004681  0.502340  0.753353  1
  Pr  Pr3  1  0.004521  0.502260  0.246676  1
  Pr  Pr4  1  0.497660  0.995319  0.753353  1
  Pr  Pr5  1  0.497740  0.995479  0.246676  1
  Pr  Pr6  1  0.000000  0.000000  0.750864  1
  Pr  Pr7  1  0.000000  0.000000  0.249224  1
  Be  Be8  1  0.666667  0.333333  0.998977  1
  Be  Be9  1  0.333333  0.666667  0.001000  1
  Be  Be10  1  0.333333  0.666667  0.499504  1
  Si  Si11  1  0.828251  0.171749  0.000129  1
  Si  Si12  1  0.172250  0.827750  0.999991  1
  Si  Si13  1  0.343497  0.171749  0.000129  1
  Si  Si14  1  0.172104  0.827896  0.499895  1
  Si  Si15  1  0.655501  0.827750  0.999991  1
  Si  Si16  1  0.837687  0.162313  0.500130  1
  Si  Si17  1  0.828251  0.656503  0.000129  1
  Si  Si18  1  0.655790  0.827896  0.499895  1
  Si  Si19  1  0.172250  0.344499  0.999991  1
  Si  Si20  1  0.324627  0.162313  0.500130  1
  Si  Si21  1  0.172104  0.344210  0.499895  1
  Si  Si22  1  0.837687  0.675373  0.500130  1
  Ag  Ag23  1  0.666667  0.333333  0.499909  1
