# generated using pymatgen
data_RbI37
_symmetry_space_group_name_H-M   'P 1'
_cell_length_a   14.73592167
_cell_length_b   15.12117204
_cell_length_c   14.49307522
_cell_angle_alpha   101.47163251
_cell_angle_beta   53.69070925
_cell_angle_gamma   84.94367325
_symmetry_Int_Tables_number   1
_chemical_formula_structural   RbI37
_chemical_formula_sum   'Rb1 I37'
_cell_volume   2462.16836276
_cell_formula_units_Z   1
loop_
 _symmetry_equiv_pos_site_id
 _symmetry_equiv_pos_as_xyz
  1  'x, y, z'
loop_
 _atom_site_type_symbol
 _atom_site_label
 _atom_site_symmetry_multiplicity
 _atom_site_fract_x
 _atom_site_fract_y
 _atom_site_fract_z
 _atom_site_occupancy
  Rb  Rb0  1  0.500000  0.000000  0.000000  1
  I  I1  1  0.784479  0.310450  0.085374  1
  I  I2  1  0.215521  0.689550  0.914626  1
  I  I3  1  0.744010  0.052162  0.336833  1
  I  I4  1  0.255990  0.947838  0.663167  1
  I  I5  1  0.108653  0.321206  0.133879  1
  I  I6  1  0.891347  0.678794  0.866121  1
  I  I7  1  0.893677  0.483779  0.240917  1
  I  I8  1  0.106323  0.516221  0.759083  1
  I  I9  1  0.710551  0.243028  0.473445  1
  I  I10  1  0.289449  0.756972  0.526555  1
  I  I11  1  0.033289  0.133165  0.429242  1
  I  I12  1  0.966711  0.866835  0.570758  1
  I  I13  1  0.987017  0.952947  0.212913  1
  I  I14  1  0.012983  0.047053  0.787087  1
  I  I15  1  0.967118  0.338285  0.582150  1
  I  I16  1  0.032882  0.661715  0.417850  1
  I  I17  1  0.564829  0.445292  0.236971  1
  I  I18  1  0.435171  0.554708  0.763029  1
  I  I19  1  0.156655  0.471115  0.277164  1
  I  I20  1  0.843345  0.528885  0.722836  1
  I  I21  1  0.000000  0.500000  0.000000  1
  I  I22  1  0.514830  0.976049  0.236743  1
  I  I23  1  0.485170  0.023951  0.763257  1
  I  I24  1  0.265599  0.037074  0.325634  1
  I  I25  1  0.734401  0.962926  0.674366  1
  I  I26  1  0.422448  0.165333  0.429938  1
  I  I27  1  0.577552  0.834667  0.570062  1
  I  I28  1  0.077746  0.186699  0.992585  1
  I  I29  1  0.922254  0.813301  0.007415  1
  I  I30  1  0.669378  0.672854  0.373500  1
  I  I31  1  0.330622  0.327146  0.626500  1
  I  I32  1  0.772303  0.146342  0.901063  1
  I  I33  1  0.227697  0.853658  0.098937  1
  I  I34  1  0.333816  0.245659  0.097166  1
  I  I35  1  0.666184  0.754341  0.902834  1
  I  I36  1  0.680796  0.431579  0.599685  1
  I  I37  1  0.319204  0.568421  0.400315  1
