# generated using pymatgen
data_MnNi(S2O7)2
_symmetry_space_group_name_H-M   'P 1'
_cell_length_a   4.99815097
_cell_length_b   7.18280518
_cell_length_c   8.42146205
_cell_angle_alpha   92.58403798
_cell_angle_beta   93.78840449
_cell_angle_gamma   106.00821937
_symmetry_Int_Tables_number   1
_chemical_formula_structural   MnNi(S2O7)2
_chemical_formula_sum   'Mn1 Ni1 S4 O14'
_cell_volume   289.34542439
_cell_formula_units_Z   1
loop_
 _symmetry_equiv_pos_site_id
 _symmetry_equiv_pos_as_xyz
  1  'x, y, z'
loop_
 _atom_site_type_symbol
 _atom_site_label
 _atom_site_symmetry_multiplicity
 _atom_site_fract_x
 _atom_site_fract_y
 _atom_site_fract_z
 _atom_site_occupancy
  Mn  Mn0  1  0.500000  0.000000  0.500000  1
  Ni  Ni1  1  0.000000  0.500000  0.000000  1
  S  S2  1  0.506072  0.642750  0.773989  1
  S  S3  1  0.493928  0.357250  0.226011  1
  S  S4  1  0.132800  0.256190  0.693605  1
  S  S5  1  0.867200  0.743810  0.306395  1
  O  O6  1  0.729661  0.558720  0.822064  1
  O  O7  1  0.270339  0.441280  0.177936  1
  O  O8  1  0.338719  0.679479  0.901362  1
  O  O9  1  0.661281  0.320521  0.098638  1
  O  O10  1  0.593431  0.804222  0.674034  1
  O  O11  1  0.406569  0.195778  0.325966  1
  O  O12  1  0.290528  0.478661  0.645153  1
  O  O13  1  0.709472  0.521339  0.354847  1
  O  O14  1  0.909628  0.200056  0.566256  1
  O  O15  1  0.090372  0.799944  0.433744  1
  O  O16  1  0.337819  0.146558  0.687737  1
  O  O17  1  0.662181  0.853442  0.312263  1
  O  O18  1  0.044458  0.273567  0.854126  1
  O  O19  1  0.955542  0.726433  0.145874  1
