# generated using pymatgen
data_Mg2I(BrO4)3
_symmetry_space_group_name_H-M   'P 1'
_cell_length_a   5.57639826
_cell_length_b   5.46346534
_cell_length_c   9.25663425
_cell_angle_alpha   89.64422541
_cell_angle_beta   89.84836520
_cell_angle_gamma   89.66311457
_symmetry_Int_Tables_number   1
_chemical_formula_structural   Mg2I(BrO4)3
_chemical_formula_sum   'Mg2 I1 Br3 O12'
_cell_volume   282.00559207
_cell_formula_units_Z   1
loop_
 _symmetry_equiv_pos_site_id
 _symmetry_equiv_pos_as_xyz
  1  'x, y, z'
loop_
 _atom_site_type_symbol
 _atom_site_label
 _atom_site_symmetry_multiplicity
 _atom_site_fract_x
 _atom_site_fract_y
 _atom_site_fract_z
 _atom_site_occupancy
  Mg  Mg0  1  0.421754  0.765440  0.741075  1
  Mg  Mg1  1  0.913167  0.234766  0.256082  1
  I  I2  1  0.506002  0.260799  0.939191  1
  Br  Br3  1  0.030996  0.733600  0.070743  1
  Br  Br4  1  0.558887  0.728156  0.396206  1
  Br  Br5  1  0.056604  0.277529  0.601687  1
  O  O6  1  0.127229  0.160113  0.438419  1
  O  O7  1  0.144133  0.003849  0.128347  1
  O  O8  1  0.625524  0.849509  0.558047  1
  O  O9  1  0.197890  0.549472  0.604202  1
  O  O10  1  0.720602  0.337882  0.079808  1
  O  O11  1  0.635566  0.972943  0.875584  1
  O  O12  1  0.207377  0.095349  0.720287  1
  O  O13  1  0.708029  0.458308  0.397208  1
  O  O14  1  0.705011  0.908663  0.276848  1
  O  O15  1  0.620638  0.464697  0.798738  1
  O  O16  1  0.140502  0.531498  0.194115  1
  O  O17  1  0.197091  0.667427  0.923414  1
