# generated using pymatgen
data_CaTb2(SiPd)3
_symmetry_space_group_name_H-M   'P 1'
_cell_length_a   4.34793700
_cell_length_b   7.46405400
_cell_length_c   21.29947900
_cell_angle_alpha   90.00000000
_cell_angle_beta   90.00000000
_cell_angle_gamma   90.00000000
_symmetry_Int_Tables_number   1
_chemical_formula_structural   CaTb2(SiPd)3
_chemical_formula_sum   'Ca4 Tb8 Si12 Pd12'
_cell_volume   691.23703052
_cell_formula_units_Z   4
loop_
 _symmetry_equiv_pos_site_id
 _symmetry_equiv_pos_as_xyz
  1  'x, y, z'
loop_
 _atom_site_type_symbol
 _atom_site_label
 _atom_site_symmetry_multiplicity
 _atom_site_fract_x
 _atom_site_fract_y
 _atom_site_fract_z
 _atom_site_occupancy
  Ca  Ca0  1  0.250000  0.704047  0.332516  1
  Ca  Ca1  1  0.750000  0.295953  0.667484  1
  Ca  Ca2  1  0.750000  0.204047  0.167484  1
  Ca  Ca3  1  0.250000  0.795953  0.832516  1
  Tb  Tb4  1  0.250000  0.795563  0.166425  1
  Tb  Tb5  1  0.750000  0.204437  0.833575  1
  Tb  Tb6  1  0.750000  0.295563  0.333575  1
  Tb  Tb7  1  0.250000  0.704437  0.666425  1
  Tb  Tb8  1  0.250000  0.706577  0.000517  1
  Tb  Tb9  1  0.750000  0.293423  0.999483  1
  Tb  Tb10  1  0.750000  0.206577  0.499483  1
  Tb  Tb11  1  0.250000  0.793423  0.500517  1
  Si  Si12  1  0.250000  0.087215  0.065257  1
  Si  Si13  1  0.750000  0.912785  0.934743  1
  Si  Si14  1  0.750000  0.587215  0.434743  1
  Si  Si15  1  0.250000  0.412785  0.565257  1
  Si  Si16  1  0.250000  0.086643  0.274288  1
  Si  Si17  1  0.750000  0.913357  0.725712  1
  Si  Si18  1  0.750000  0.586643  0.225712  1
  Si  Si19  1  0.250000  0.413357  0.774288  1
  Si  Si20  1  0.250000  0.090224  0.394962  1
  Si  Si21  1  0.750000  0.909776  0.605038  1
  Si  Si22  1  0.750000  0.590224  0.105038  1
  Si  Si23  1  0.250000  0.409776  0.894962  1
  Pd  Pd24  1  0.250000  0.415599  0.236720  1
  Pd  Pd25  1  0.750000  0.584401  0.763280  1
  Pd  Pd26  1  0.750000  0.915599  0.263280  1
  Pd  Pd27  1  0.250000  0.084401  0.736720  1
  Pd  Pd28  1  0.250000  0.416568  0.437210  1
  Pd  Pd29  1  0.750000  0.583432  0.562790  1
  Pd  Pd30  1  0.750000  0.916568  0.062790  1
  Pd  Pd31  1  0.250000  0.083432  0.937210  1
  Pd  Pd32  1  0.250000  0.419046  0.092437  1
  Pd  Pd33  1  0.750000  0.580954  0.907563  1
  Pd  Pd34  1  0.750000  0.919046  0.407563  1
  Pd  Pd35  1  0.250000  0.080954  0.592437  1
