# generated using pymatgen
data_CeTh3(WN3)4
_symmetry_space_group_name_H-M   'P 1'
_cell_length_a   5.58751904
_cell_length_b   5.66637704
_cell_length_c   7.98710100
_cell_angle_alpha   90.00000000
_cell_angle_beta   90.00000000
_cell_angle_gamma   90.01311499
_symmetry_Int_Tables_number   1
_chemical_formula_structural   CeTh3(WN3)4
_chemical_formula_sum   'Ce1 Th3 W4 N12'
_cell_volume   252.87951478
_cell_formula_units_Z   1
loop_
 _symmetry_equiv_pos_site_id
 _symmetry_equiv_pos_as_xyz
  1  'x, y, z'
loop_
 _atom_site_type_symbol
 _atom_site_label
 _atom_site_symmetry_multiplicity
 _atom_site_fract_x
 _atom_site_fract_y
 _atom_site_fract_z
 _atom_site_occupancy
  Ce  Ce0  1  0.502522  0.546668  0.250000  1
  Th  Th1  1  0.995556  0.045580  0.250000  1
  Th  Th2  1  0.497462  0.454799  0.750000  1
  Th  Th3  1  0.001534  0.956050  0.750000  1
  W  W4  1  0.999678  0.500655  0.001957  1
  W  W5  1  0.499670  0.998412  0.497923  1
  W  W6  1  0.999678  0.500655  0.498043  1
  W  W7  1  0.499670  0.998412  0.002077  1
  N  N8  1  0.429142  0.983651  0.250000  1
  N  N9  1  0.072878  0.485801  0.250000  1
  N  N10  1  0.573480  0.017164  0.750000  1
  N  N11  1  0.925094  0.516144  0.750000  1
  N  N12  1  0.799658  0.797606  0.035991  1
  N  N13  1  0.703247  0.295217  0.461864  1
  N  N14  1  0.201057  0.201937  0.536703  1
  N  N15  1  0.297856  0.703245  0.961054  1
  N  N16  1  0.201057  0.201937  0.963297  1
  N  N17  1  0.297856  0.703245  0.538946  1
  N  N18  1  0.799658  0.797606  0.464009  1
  N  N19  1  0.703247  0.295217  0.038136  1
