# generated using pymatgen
data_Dy4Y5Tm3Co5Pb
_symmetry_space_group_name_H-M   'P 1'
_cell_length_a   8.28140646
_cell_length_b   8.29171408
_cell_length_c   8.28140625
_cell_angle_alpha   107.10711557
_cell_angle_beta   110.58416144
_cell_angle_gamma   110.69859933
_symmetry_Int_Tables_number   1
_chemical_formula_structural   Dy4Y5Tm3Co5Pb
_chemical_formula_sum   'Dy4 Y5 Tm3 Co5 Pb1'
_cell_volume   437.47005885
_cell_formula_units_Z   1
loop_
 _symmetry_equiv_pos_site_id
 _symmetry_equiv_pos_as_xyz
  1  'x, y, z'
loop_
 _atom_site_type_symbol
 _atom_site_label
 _atom_site_symmetry_multiplicity
 _atom_site_fract_x
 _atom_site_fract_y
 _atom_site_fract_z
 _atom_site_occupancy
  Dy  Dy0  1  0.193242  0.205751  0.400882  1
  Dy  Dy1  1  0.807529  0.794106  0.600781  1
  Dy  Dy2  1  0.193325  0.794106  0.986576  1
  Dy  Dy3  1  0.804869  0.205751  0.012509  1
  Y  Y4  1  0.478676  0.290873  0.186162  1
  Y  Y5  1  0.104712  0.290873  0.812196  1
  Y  Y6  1  0.893459  0.708466  0.186291  1
  Y  Y7  1  0.522176  0.708466  0.815007  1
  Y  Y8  1  0.306531  0.619270  0.312740  1
  Tm  Tm9  1  0.309380  0.996271  0.686889  1
  Tm  Tm10  1  0.690966  0.377627  0.686662  1
  Tm  Tm11  1  0.690552  0.004119  0.313569  1
  Co  Co12  1  0.500944  0.611606  0.110662  1
  Co  Co13  1  0.499416  0.385803  0.886389  1
  Co  Co14  1  0.381217  0.002981  0.380336  1
  Co  Co15  1  0.622646  0.002981  0.621765  1
  Co  Co16  1  0.000717  0.001003  0.000284  1
  Pb  Pb17  1  0.999645  0.499946  0.500301  1
