# generated using pymatgen
data_BaLa(SbPd)2
_symmetry_space_group_name_H-M   'P 1'
_cell_length_a   4.63331900
_cell_length_b   4.63331929
_cell_length_c   9.16816100
_cell_angle_alpha   90.00000000
_cell_angle_beta   90.00000000
_cell_angle_gamma   120.00000509
_symmetry_Int_Tables_number   1
_chemical_formula_structural   BaLa(SbPd)2
_chemical_formula_sum   'Ba1 La1 Sb2 Pd2'
_cell_volume   170.45010440
_cell_formula_units_Z   1
loop_
 _symmetry_equiv_pos_site_id
 _symmetry_equiv_pos_as_xyz
  1  'x, y, z'
loop_
 _atom_site_type_symbol
 _atom_site_label
 _atom_site_symmetry_multiplicity
 _atom_site_fract_x
 _atom_site_fract_y
 _atom_site_fract_z
 _atom_site_occupancy
  Ba  Ba0  1  0.000000  0.000000  0.500000  1
  La  La1  1  0.000000  0.000000  0.000000  1
  Sb  Sb2  1  0.333333  0.666667  0.769165  1
  Sb  Sb3  1  0.666667  0.333333  0.230835  1
  Pd  Pd4  1  0.333333  0.666667  0.224604  1
  Pd  Pd5  1  0.666667  0.333333  0.775396  1
