# generated using pymatgen
data_Nd3Ho2Sc3(Co4P3)4
_symmetry_space_group_name_H-M   'P 1'
_cell_length_a   12.38807867
_cell_length_b   12.38807787
_cell_length_c   3.77157400
_cell_angle_alpha   90.00000000
_cell_angle_beta   90.00000000
_cell_angle_gamma   120.07527143
_symmetry_Int_Tables_number   1
_chemical_formula_structural   Nd3Ho2Sc3(Co4P3)4
_chemical_formula_sum   'Nd3 Ho2 Sc3 Co16 P12'
_cell_volume   500.87717390
_cell_formula_units_Z   1
loop_
 _symmetry_equiv_pos_site_id
 _symmetry_equiv_pos_as_xyz
  1  'x, y, z'
loop_
 _atom_site_type_symbol
 _atom_site_label
 _atom_site_symmetry_multiplicity
 _atom_site_fract_x
 _atom_site_fract_y
 _atom_site_fract_z
 _atom_site_occupancy
  Nd  Nd0  1  0.666372  0.333272  0.000000  1
  Nd  Nd1  1  0.333272  0.666372  0.000000  1
  Nd  Nd2  1  0.816851  0.816851  0.500000  1
  Ho  Ho3  1  0.185264  0.000319  0.500000  1
  Ho  Ho4  1  0.000319  0.185264  0.500000  1
  Sc  Sc5  1  0.437658  0.437658  0.000000  1
  Sc  Sc6  1  0.560203  0.000322  0.000000  1
  Sc  Sc7  1  0.000322  0.560203  0.000000  1
  Co  Co8  1  0.877840  0.354014  0.500000  1
  Co  Co9  1  0.644796  0.521964  0.500000  1
  Co  Co10  1  0.475644  0.122258  0.500000  1
  Co  Co11  1  0.354014  0.877840  0.500000  1
  Co  Co12  1  0.521964  0.644796  0.500000  1
  Co  Co13  1  0.122258  0.475644  0.500000  1
  Co  Co14  1  0.806126  0.179116  0.000000  1
  Co  Co15  1  0.822581  0.626238  0.000000  1
  Co  Co16  1  0.371389  0.193545  0.000000  1
  Co  Co17  1  0.179116  0.806126  0.000000  1
  Co  Co18  1  0.626238  0.822581  0.000000  1
  Co  Co19  1  0.193545  0.371389  0.000000  1
  Co  Co20  1  0.276274  0.276274  0.500000  1
  Co  Co21  1  0.723033  0.002173  0.500000  1
  Co  Co22  1  0.002173  0.723033  0.500000  1
  Co  Co23  1  0.002125  0.002125  0.000000  1
  P  P24  1  0.694701  0.169225  0.500000  1
  P  P25  1  0.831683  0.526645  0.500000  1
  P  P26  1  0.472999  0.304317  0.500000  1
  P  P27  1  0.169225  0.694701  0.500000  1
  P  P28  1  0.526645  0.831683  0.500000  1
  P  P29  1  0.304317  0.472999  0.500000  1
  P  P30  1  0.178517  0.178517  0.000000  1
  P  P31  1  0.822181  0.003799  0.000000  1
  P  P32  1  0.003799  0.822181  0.000000  1
  P  P33  1  0.641559  0.641559  0.000000  1
  P  P34  1  0.354939  0.000058  0.000000  1
  P  P35  1  0.000058  0.354939  0.000000  1
