# generated using pymatgen
data_Ca5Dy3(Si4Mo3)4
_symmetry_space_group_name_H-M   'P 1'
_cell_length_a   6.73697775
_cell_length_b   6.95509972
_cell_length_c   13.01214200
_cell_angle_alpha   89.93950047
_cell_angle_beta   89.97292963
_cell_angle_gamma   89.95825443
_symmetry_Int_Tables_number   1
_chemical_formula_structural   Ca5Dy3(Si4Mo3)4
_chemical_formula_sum   'Ca5 Dy3 Si16 Mo12'
_cell_volume   609.70093734
_cell_formula_units_Z   1
loop_
 _symmetry_equiv_pos_site_id
 _symmetry_equiv_pos_as_xyz
  1  'x, y, z'
loop_
 _atom_site_type_symbol
 _atom_site_label
 _atom_site_symmetry_multiplicity
 _atom_site_fract_x
 _atom_site_fract_y
 _atom_site_fract_z
 _atom_site_occupancy
  Ca  Ca0  1  0.498046  0.334854  0.090617  1
  Ca  Ca1  1  0.997764  0.166972  0.407964  1
  Ca  Ca2  1  0.501566  0.667447  0.592135  1
  Ca  Ca3  1  0.001855  0.832122  0.907595  1
  Ca  Ca4  1  0.501564  0.666551  0.909358  1
  Dy  Dy5  1  0.000008  0.830191  0.594388  1
  Dy  Dy6  1  0.499740  0.331583  0.406486  1
  Dy  Dy7  1  0.999564  0.168591  0.092958  1
  Si  Si8  1  0.659203  0.042397  0.545325  1
  Si  Si9  1  0.158171  0.457542  0.954190  1
  Si  Si10  1  0.341402  0.957457  0.045851  1
  Si  Si11  1  0.841263  0.542528  0.454324  1
  Si  Si12  1  0.340020  0.956802  0.454419  1
  Si  Si13  1  0.841724  0.544030  0.045751  1
  Si  Si14  1  0.659044  0.042121  0.954134  1
  Si  Si15  1  0.159788  0.456337  0.545330  1
  Si  Si16  1  0.534126  0.371164  0.750067  1
  Si  Si17  1  0.034702  0.128433  0.749644  1
  Si  Si18  1  0.465270  0.632064  0.249359  1
  Si  Si19  1  0.965613  0.869712  0.250095  1
  Si  Si20  1  0.799971  0.628451  0.751066  1
  Si  Si21  1  0.303723  0.870012  0.751248  1
  Si  Si22  1  0.197848  0.371034  0.249747  1
  Si  Si23  1  0.697268  0.129530  0.249746  1
  Mo  Mo24  1  0.833289  0.333270  0.626300  1
  Mo  Mo25  1  0.333338  0.167915  0.872891  1
  Mo  Mo26  1  0.165986  0.666520  0.126723  1
  Mo  Mo27  1  0.667099  0.833455  0.373991  1
  Mo  Mo28  1  0.167434  0.666465  0.373233  1
  Mo  Mo29  1  0.668051  0.834756  0.127483  1
  Mo  Mo30  1  0.834929  0.331020  0.872508  1
  Mo  Mo31  1  0.333321  0.166887  0.626411  1
  Mo  Mo32  1  0.662369  0.008215  0.749460  1
  Mo  Mo33  1  0.161467  0.491858  0.748910  1
  Mo  Mo34  1  0.336523  0.995418  0.250696  1
  Mo  Mo35  1  0.836957  0.506297  0.249595  1
