# generated using pymatgen
data_Tm16Sc4IrPt11
_symmetry_space_group_name_H-M   'P 1'
_cell_length_a   10.83307800
_cell_length_b   10.83307800
_cell_length_c   6.23217800
_cell_angle_alpha   90.00000000
_cell_angle_beta   90.00000000
_cell_angle_gamma   90.00000000
_symmetry_Int_Tables_number   1
_chemical_formula_structural   Tm16Sc4IrPt11
_chemical_formula_sum   'Tm16 Sc4 Ir1 Pt11'
_cell_volume   731.38085733
_cell_formula_units_Z   1
loop_
 _symmetry_equiv_pos_site_id
 _symmetry_equiv_pos_as_xyz
  1  'x, y, z'
loop_
 _atom_site_type_symbol
 _atom_site_label
 _atom_site_symmetry_multiplicity
 _atom_site_fract_x
 _atom_site_fract_y
 _atom_site_fract_z
 _atom_site_occupancy
  Tm  Tm0  1  0.288604  0.087148  0.377167  1
  Tm  Tm1  1  0.288372  0.912523  0.876511  1
  Tm  Tm2  1  0.711628  0.087477  0.876511  1
  Tm  Tm3  1  0.711396  0.912852  0.377167  1
  Tm  Tm4  1  0.587477  0.788372  0.876511  1
  Tm  Tm5  1  0.587148  0.211396  0.377167  1
  Tm  Tm6  1  0.412852  0.788604  0.377167  1
  Tm  Tm7  1  0.412523  0.211628  0.876511  1
  Tm  Tm8  1  0.209214  0.413830  0.619844  1
  Tm  Tm9  1  0.209688  0.586237  0.126462  1
  Tm  Tm10  1  0.790312  0.413763  0.126462  1
  Tm  Tm11  1  0.790786  0.586170  0.619844  1
  Tm  Tm12  1  0.913763  0.709688  0.126462  1
  Tm  Tm13  1  0.913830  0.290786  0.619844  1
  Tm  Tm14  1  0.086170  0.709214  0.619844  1
  Tm  Tm15  1  0.086237  0.290312  0.126462  1
  Sc  Sc16  1  0.000000  0.000000  0.500374  1
  Sc  Sc17  1  0.000000  0.000000  0.000447  1
  Sc  Sc18  1  0.500000  0.500000  0.000447  1
  Sc  Sc19  1  0.500000  0.500000  0.500374  1
  Ir  Ir20  1  0.000000  0.500000  0.380994  1
  Pt  Pt21  1  0.849738  0.148884  0.250119  1
  Pt  Pt22  1  0.850486  0.850378  0.750408  1
  Pt  Pt23  1  0.149514  0.149622  0.750408  1
  Pt  Pt24  1  0.150262  0.851116  0.250119  1
  Pt  Pt25  1  0.649622  0.350486  0.750408  1
  Pt  Pt26  1  0.648884  0.650262  0.250119  1
  Pt  Pt27  1  0.351116  0.349738  0.250119  1
  Pt  Pt28  1  0.350378  0.649514  0.750408  1
  Pt  Pt29  1  0.500000  0.000000  0.116851  1
  Pt  Pt30  1  0.500000  0.000000  0.617396  1
  Pt  Pt31  1  0.000000  0.500000  0.881076  1
