# generated using pymatgen
data_Cs2Zr12BCI28
_symmetry_space_group_name_H-M   'P 1'
_cell_length_a   11.06359602
_cell_length_b   11.06359568
_cell_length_c   13.24853673
_cell_angle_alpha   90.06616255
_cell_angle_beta   90.06616219
_cell_angle_gamma   93.85510666
_symmetry_Int_Tables_number   1
_chemical_formula_structural   Cs2Zr12BCI28
_chemical_formula_sum   'Cs2 Zr12 B1 C1 I28'
_cell_volume   1617.99096462
_cell_formula_units_Z   1
loop_
 _symmetry_equiv_pos_site_id
 _symmetry_equiv_pos_as_xyz
  1  'x, y, z'
loop_
 _atom_site_type_symbol
 _atom_site_label
 _atom_site_symmetry_multiplicity
 _atom_site_fract_x
 _atom_site_fract_y
 _atom_site_fract_z
 _atom_site_occupancy
  Cs  Cs0  1  0.000000  0.000000  0.000000  1
  Cs  Cs1  1  0.500000  0.500000  0.500000  1
  Zr  Zr2  1  0.456057  0.667032  0.891996  1
  Zr  Zr3  1  0.042965  0.836415  0.394240  1
  Zr  Zr4  1  0.667032  0.456057  0.891996  1
  Zr  Zr5  1  0.629219  0.629219  0.095862  1
  Zr  Zr6  1  0.836415  0.042965  0.394240  1
  Zr  Zr7  1  0.874795  0.874795  0.592990  1
  Zr  Zr8  1  0.543943  0.332968  0.108004  1
  Zr  Zr9  1  0.125205  0.125205  0.407010  1
  Zr  Zr10  1  0.332968  0.543943  0.108004  1
  Zr  Zr11  1  0.163585  0.957035  0.605760  1
  Zr  Zr12  1  0.957035  0.163585  0.605760  1
  Zr  Zr13  1  0.370781  0.370781  0.904138  1
  B  B14  1  0.500000  0.500000  0.000000  1
  C  C15  1  0.000000  0.000000  0.500000  1
  I  I16  1  0.711294  0.464316  0.245879  1
  I  I17  1  0.108302  0.356019  0.506935  1
  I  I18  1  0.964657  0.211077  0.254697  1
  I  I19  1  0.391448  0.143015  0.007162  1
  I  I20  1  0.643981  0.891698  0.493065  1
  I  I21  1  0.288706  0.535684  0.754121  1
  I  I22  1  0.464316  0.711294  0.245879  1
  I  I23  1  0.788923  0.035343  0.745303  1
  I  I24  1  0.348769  0.348768  0.256668  1
  I  I25  1  0.151019  0.151019  0.756334  1
  I  I26  1  0.535684  0.288706  0.754121  1
  I  I27  1  0.035343  0.788923  0.745303  1
  I  I28  1  0.606753  0.106089  0.250304  1
  I  I29  1  0.106089  0.606753  0.250304  1
  I  I30  1  0.749161  0.250839  0.000000  1
  I  I31  1  0.751193  0.248807  0.500000  1
  I  I32  1  0.651231  0.651231  0.743332  1
  I  I33  1  0.848981  0.848980  0.243666  1
  I  I34  1  0.393247  0.893911  0.749696  1
  I  I35  1  0.891698  0.643981  0.493065  1
  I  I36  1  0.608552  0.856985  0.992838  1
  I  I37  1  0.143015  0.391448  0.007162  1
  I  I38  1  0.211077  0.964657  0.254697  1
  I  I39  1  0.893911  0.393247  0.749696  1
  I  I40  1  0.250839  0.749161  0.000000  1
  I  I41  1  0.856985  0.608552  0.992838  1
  I  I42  1  0.248807  0.751193  0.500000  1
  I  I43  1  0.356019  0.108302  0.506935  1
