# generated using pymatgen
data_Tb5Sm5(Bi3C)2
_symmetry_space_group_name_H-M   'P 1'
_cell_length_a   9.28967512
_cell_length_b   9.28704980
_cell_length_c   6.56110600
_cell_angle_alpha   90.00000000
_cell_angle_beta   90.00000000
_cell_angle_gamma   119.99065666
_symmetry_Int_Tables_number   1
_chemical_formula_structural   Tb5Sm5(Bi3C)2
_chemical_formula_sum   'Tb5 Sm5 Bi6 C2'
_cell_volume   490.26045921
_cell_formula_units_Z   1
loop_
 _symmetry_equiv_pos_site_id
 _symmetry_equiv_pos_as_xyz
  1  'x, y, z'
loop_
 _atom_site_type_symbol
 _atom_site_label
 _atom_site_symmetry_multiplicity
 _atom_site_fract_x
 _atom_site_fract_y
 _atom_site_fract_z
 _atom_site_occupancy
  Tb  Tb0  1  0.793444  0.794408  0.750000  1
  Tb  Tb1  1  0.206556  0.000964  0.750000  1
  Tb  Tb2  1  0.000000  0.207315  0.750000  1
  Tb  Tb3  1  0.206075  0.205693  0.250000  1
  Tb  Tb4  1  0.793925  0.999618  0.250000  1
  Sm  Sm5  1  0.666710  0.333513  0.000178  1
  Sm  Sm6  1  0.333290  0.666803  0.000178  1
  Sm  Sm7  1  0.333290  0.666803  0.499822  1
  Sm  Sm8  1  0.666710  0.333513  0.499822  1
  Sm  Sm9  1  0.000000  0.786417  0.250000  1
  Bi  Bi10  1  0.399335  0.399199  0.750000  1
  Bi  Bi11  1  0.600665  0.999864  0.750000  1
  Bi  Bi12  1  0.000000  0.601806  0.750000  1
  Bi  Bi13  1  0.599443  0.600852  0.250000  1
  Bi  Bi14  1  0.400557  0.001409  0.250000  1
  Bi  Bi15  1  0.000000  0.397870  0.250000  1
  C  C16  1  0.000000  0.001976  0.998516  1
  C  C17  1  0.000000  0.001976  0.501484  1
