# generated using pymatgen
data_TbDyY2(Al3Rh)6
_symmetry_space_group_name_H-M   'P 1'
_cell_length_a   7.55847615
_cell_length_b   7.55917485
_cell_length_c   9.48885800
_cell_angle_alpha   90.00000000
_cell_angle_beta   90.00000000
_cell_angle_gamma   119.34786391
_symmetry_Int_Tables_number   1
_chemical_formula_structural   TbDyY2(Al3Rh)6
_chemical_formula_sum   'Tb1 Dy1 Y2 Al18 Rh6'
_cell_volume   472.57394726
_cell_formula_units_Z   1
loop_
 _symmetry_equiv_pos_site_id
 _symmetry_equiv_pos_as_xyz
  1  'x, y, z'
loop_
 _atom_site_type_symbol
 _atom_site_label
 _atom_site_symmetry_multiplicity
 _atom_site_fract_x
 _atom_site_fract_y
 _atom_site_fract_z
 _atom_site_occupancy
  Tb  Tb0  1  0.994500  0.670920  0.750000  1
  Dy  Dy1  1  0.328980  0.005377  0.250000  1
  Y  Y2  1  0.005441  0.329044  0.250000  1
  Y  Y3  1  0.670841  0.994352  0.750000  1
  Al  Al4  1  0.128011  0.127957  0.750000  1
  Al  Al5  1  0.872347  0.872147  0.250000  1
  Al  Al6  1  0.001205  0.335338  0.574150  1
  Al  Al7  1  0.999004  0.664720  0.425366  1
  Al  Al8  1  0.999004  0.664720  0.074634  1
  Al  Al9  1  0.335385  0.001268  0.925997  1
  Al  Al10  1  0.001205  0.335338  0.925850  1
  Al  Al11  1  0.664501  0.998902  0.074604  1
  Al  Al12  1  0.664501  0.998902  0.425396  1
  Al  Al13  1  0.335385  0.001268  0.574003  1
  Al  Al14  1  0.333223  0.333152  0.050536  1
  Al  Al15  1  0.666768  0.666762  0.950117  1
  Al  Al16  1  0.666768  0.666762  0.549883  1
  Al  Al17  1  0.333223  0.333152  0.449464  1
  Al  Al18  1  0.338891  0.548924  0.750000  1
  Al  Al19  1  0.660601  0.450556  0.250000  1
  Al  Al20  1  0.548992  0.338839  0.750000  1
  Al  Al21  1  0.450815  0.661178  0.250000  1
  Rh  Rh22  1  0.671975  0.328051  0.499905  1
  Rh  Rh23  1  0.328155  0.672030  0.499953  1
  Rh  Rh24  1  0.328155  0.672030  0.000047  1
  Rh  Rh25  1  0.671975  0.328051  0.000095  1
  Rh  Rh26  1  0.000075  0.000131  0.499815  1
  Rh  Rh27  1  0.000075  0.000131  0.000185  1
