# generated using pymatgen
data_Pr8HoTmTl6
_symmetry_space_group_name_H-M   'P 1'
_cell_length_a   6.23908541
_cell_length_b   9.43163425
_cell_length_c   9.43163400
_cell_angle_alpha   83.85019872
_cell_angle_beta   70.88409434
_cell_angle_gamma   70.88408773
_symmetry_Int_Tables_number   1
_chemical_formula_structural   Pr8HoTmTl6
_chemical_formula_sum   'Pr8 Ho1 Tm1 Tl6'
_cell_volume   495.48204817
_cell_formula_units_Z   1
loop_
 _symmetry_equiv_pos_site_id
 _symmetry_equiv_pos_as_xyz
  1  'x, y, z'
loop_
 _atom_site_type_symbol
 _atom_site_label
 _atom_site_symmetry_multiplicity
 _atom_site_fract_x
 _atom_site_fract_y
 _atom_site_fract_z
 _atom_site_occupancy
  Pr  Pr0  1  0.721970  0.863417  0.690906  1
  Pr  Pr1  1  0.277362  0.136469  0.308989  1
  Pr  Pr2  1  0.778030  0.309094  0.136583  1
  Pr  Pr3  1  0.222638  0.691011  0.863531  1
  Pr  Pr4  1  0.586135  0.691455  0.136291  1
  Pr  Pr5  1  0.414811  0.308550  0.863700  1
  Pr  Pr6  1  0.085189  0.136300  0.691450  1
  Pr  Pr7  1  0.913865  0.863709  0.308545  1
  Ho  Ho8  1  0.250000  0.499754  0.500246  1
  Tm  Tm9  1  0.750000  0.500160  0.499840  1
  Tl  Tl10  1  0.156364  0.500494  0.186815  1
  Tl  Tl11  1  0.843468  0.499495  0.813103  1
  Tl  Tl12  1  0.343636  0.813185  0.499506  1
  Tl  Tl13  1  0.656532  0.186897  0.500505  1
  Tl  Tl14  1  0.250000  0.000222  0.999778  1
  Tl  Tl15  1  0.750000  0.999790  0.000210  1
