# generated using pymatgen
data_Er2TmTh(Ga3Ir)6
_symmetry_space_group_name_H-M   'P 1'
_cell_length_a   7.61765397
_cell_length_b   7.61704743
_cell_length_c   9.47729500
_cell_angle_alpha   90.00000000
_cell_angle_beta   90.00000000
_cell_angle_gamma   119.93077600
_symmetry_Int_Tables_number   1
_chemical_formula_structural   Er2TmTh(Ga3Ir)6
_chemical_formula_sum   'Er2 Tm1 Th1 Ga18 Ir6'
_cell_volume   476.56862875
_cell_formula_units_Z   1
loop_
 _symmetry_equiv_pos_site_id
 _symmetry_equiv_pos_as_xyz
  1  'x, y, z'
loop_
 _atom_site_type_symbol
 _atom_site_label
 _atom_site_symmetry_multiplicity
 _atom_site_fract_x
 _atom_site_fract_y
 _atom_site_fract_z
 _atom_site_occupancy
  Er  Er0  1  0.002959  0.331667  0.250000  1
  Er  Er1  1  0.669548  0.997140  0.750000  1
  Tm  Tm2  1  0.330984  0.002340  0.250000  1
  Th  Th3  1  0.996705  0.668377  0.750000  1
  Ga  Ga4  1  0.129181  0.131716  0.750000  1
  Ga  Ga5  1  0.873900  0.874925  0.250000  1
  Ga  Ga6  1  0.998154  0.328318  0.578110  1
  Ga  Ga7  1  0.001949  0.665974  0.413809  1
  Ga  Ga8  1  0.001949  0.665974  0.086191  1
  Ga  Ga9  1  0.340092  0.003885  0.922025  1
  Ga  Ga10  1  0.998154  0.328318  0.921890  1
  Ga  Ga11  1  0.665822  0.002094  0.081695  1
  Ga  Ga12  1  0.665822  0.002094  0.418305  1
  Ga  Ga13  1  0.340092  0.003885  0.577975  1
  Ga  Ga14  1  0.331415  0.331178  0.067506  1
  Ga  Ga15  1  0.662874  0.668465  0.937102  1
  Ga  Ga16  1  0.662874  0.668465  0.562898  1
  Ga  Ga17  1  0.331415  0.331178  0.432494  1
  Ga  Ga18  1  0.342135  0.545857  0.750000  1
  Ga  Ga19  1  0.659660  0.451836  0.250000  1
  Ga  Ga20  1  0.541428  0.336191  0.750000  1
  Ga  Ga21  1  0.452372  0.660734  0.250000  1
  Ir  Ir22  1  0.673254  0.330516  0.500325  1
  Ir  Ir23  1  0.326357  0.670997  0.500569  1
  Ir  Ir24  1  0.326357  0.670997  0.999431  1
  Ir  Ir25  1  0.673254  0.330516  0.999675  1
  Ir  Ir26  1  0.000649  0.998182  0.500498  1
  Ir  Ir27  1  0.000649  0.998182  0.999502  1
