# generated using pymatgen
data_Hf2Cr3Re
_symmetry_space_group_name_H-M   'P 1'
_cell_length_a   5.06166400
_cell_length_b   5.06166434
_cell_length_c   8.38185500
_cell_angle_alpha   90.00000000
_cell_angle_beta   90.00000000
_cell_angle_gamma   119.99999779
_symmetry_Int_Tables_number   1
_chemical_formula_structural   Hf2Cr3Re
_chemical_formula_sum   'Hf4 Cr6 Re2'
_cell_volume   185.97622989
_cell_formula_units_Z   2
loop_
 _symmetry_equiv_pos_site_id
 _symmetry_equiv_pos_as_xyz
  1  'x, y, z'
loop_
 _atom_site_type_symbol
 _atom_site_label
 _atom_site_symmetry_multiplicity
 _atom_site_fract_x
 _atom_site_fract_y
 _atom_site_fract_z
 _atom_site_occupancy
  Hf  Hf0  1  0.333333  0.666667  0.437984  1
  Hf  Hf1  1  0.666667  0.333333  0.562016  1
  Hf  Hf2  1  0.666667  0.333333  0.937984  1
  Hf  Hf3  1  0.333333  0.666667  0.062016  1
  Cr  Cr4  1  0.827600  0.172400  0.250000  1
  Cr  Cr5  1  0.827600  0.655200  0.250000  1
  Cr  Cr6  1  0.344800  0.172400  0.250000  1
  Cr  Cr7  1  0.172400  0.827600  0.750000  1
  Cr  Cr8  1  0.172400  0.344800  0.750000  1
  Cr  Cr9  1  0.655200  0.827600  0.750000  1
  Re  Re10  1  0.000000  0.000000  0.500000  1
  Re  Re11  1  0.000000  0.000000  0.000000  1
