# generated using pymatgen
data_LiEr2B8Rh
_symmetry_space_group_name_H-M   'P 1'
_cell_length_a   5.91250100
_cell_length_b   11.40210600
_cell_length_c   3.54547000
_cell_angle_alpha   90.00000000
_cell_angle_beta   90.00000000
_cell_angle_gamma   90.00000000
_symmetry_Int_Tables_number   1
_chemical_formula_structural   LiEr2B8Rh
_chemical_formula_sum   'Li2 Er4 B16 Rh2'
_cell_volume   239.01772932
_cell_formula_units_Z   2
loop_
 _symmetry_equiv_pos_site_id
 _symmetry_equiv_pos_as_xyz
  1  'x, y, z'
loop_
 _atom_site_type_symbol
 _atom_site_label
 _atom_site_symmetry_multiplicity
 _atom_site_fract_x
 _atom_site_fract_y
 _atom_site_fract_z
 _atom_site_occupancy
  Li  Li0  1  0.635041  0.087634  0.000000  1
  Li  Li1  1  0.135041  0.412366  0.000000  1
  Er  Er2  1  0.126135  0.151576  0.000000  1
  Er  Er3  1  0.626136  0.348424  0.000000  1
  Er  Er4  1  0.372581  0.647595  0.000000  1
  Er  Er5  1  0.872581  0.852405  0.000000  1
  B  B6  1  0.864282  0.033463  0.500000  1
  B  B7  1  0.384891  0.047292  0.500000  1
  B  B8  1  0.787865  0.186447  0.500000  1
  B  B9  1  0.477047  0.193592  0.500000  1
  B  B10  1  0.977046  0.306409  0.500000  1
  B  B11  1  0.287864  0.313553  0.500000  1
  B  B12  1  0.884891  0.452708  0.500000  1
  B  B13  1  0.364283  0.466537  0.500000  1
  B  B14  1  0.633795  0.530719  0.500000  1
  B  B15  1  0.113315  0.547293  0.500000  1
  B  B16  1  0.711803  0.685096  0.500000  1
  B  B17  1  0.022192  0.692214  0.500000  1
  B  B18  1  0.522192  0.807786  0.500000  1
  B  B19  1  0.211804  0.814904  0.500000  1
  B  B20  1  0.613314  0.952706  0.500000  1
  B  B21  1  0.133795  0.969281  0.500000  1
  Rh  Rh22  1  0.871053  0.587916  0.000000  1
  Rh  Rh23  1  0.371052  0.912084  0.000000  1
