# generated using pymatgen
data_Er20Cd6IrPd
_symmetry_space_group_name_H-M   'P 1'
_cell_length_a   9.58151200
_cell_length_b   9.58151131
_cell_length_c   9.70817500
_cell_angle_alpha   90.00000000
_cell_angle_beta   90.00000000
_cell_angle_gamma   120.00000239
_symmetry_Int_Tables_number   1
_chemical_formula_structural   Er20Cd6IrPd
_chemical_formula_sum   'Er20 Cd6 Ir1 Pd1'
_cell_volume   771.85599548
_cell_formula_units_Z   1
loop_
 _symmetry_equiv_pos_site_id
 _symmetry_equiv_pos_as_xyz
  1  'x, y, z'
loop_
 _atom_site_type_symbol
 _atom_site_label
 _atom_site_symmetry_multiplicity
 _atom_site_fract_x
 _atom_site_fract_y
 _atom_site_fract_z
 _atom_site_occupancy
  Er  Er0  1  0.208971  0.791029  0.940097  1
  Er  Er1  1  0.208971  0.417943  0.940097  1
  Er  Er2  1  0.582057  0.791029  0.940097  1
  Er  Er3  1  0.792491  0.207509  0.057935  1
  Er  Er4  1  0.792491  0.584984  0.057935  1
  Er  Er5  1  0.415016  0.207509  0.057935  1
  Er  Er6  1  0.792491  0.207509  0.442065  1
  Er  Er7  1  0.792491  0.584984  0.442065  1
  Er  Er8  1  0.415016  0.207509  0.442065  1
  Er  Er9  1  0.208971  0.791029  0.559903  1
  Er  Er10  1  0.208971  0.417943  0.559903  1
  Er  Er11  1  0.582057  0.791029  0.559903  1
  Er  Er12  1  0.541458  0.458542  0.750000  1
  Er  Er13  1  0.541458  0.082915  0.750000  1
  Er  Er14  1  0.917085  0.458542  0.750000  1
  Er  Er15  1  0.456958  0.543042  0.250000  1
  Er  Er16  1  0.456958  0.913917  0.250000  1
  Er  Er17  1  0.086083  0.543042  0.250000  1
  Er  Er18  1  0.000000  0.000000  0.000212  1
  Er  Er19  1  0.000000  0.000000  0.499788  1
  Cd  Cd20  1  0.884561  0.115439  0.750000  1
  Cd  Cd21  1  0.884561  0.769122  0.750000  1
  Cd  Cd22  1  0.230878  0.115439  0.750000  1
  Cd  Cd23  1  0.115489  0.884511  0.250000  1
  Cd  Cd24  1  0.115489  0.230977  0.250000  1
  Cd  Cd25  1  0.769023  0.884511  0.250000  1
  Ir  Ir26  1  0.333333  0.666667  0.750000  1
  Pd  Pd27  1  0.666667  0.333333  0.250000  1
