# generated using pymatgen
data_Tb2FeSiI
_symmetry_space_group_name_H-M   'P 1'
_cell_length_a   4.03447400
_cell_length_b   4.03447352
_cell_length_c   16.89581400
_cell_angle_alpha   90.00000000
_cell_angle_beta   90.00000000
_cell_angle_gamma   119.99998752
_symmetry_Int_Tables_number   1
_chemical_formula_structural   Tb2FeSiI
_chemical_formula_sum   'Tb4 Fe2 Si2 I2'
_cell_volume   238.16810256
_cell_formula_units_Z   2
loop_
 _symmetry_equiv_pos_site_id
 _symmetry_equiv_pos_as_xyz
  1  'x, y, z'
loop_
 _atom_site_type_symbol
 _atom_site_label
 _atom_site_symmetry_multiplicity
 _atom_site_fract_x
 _atom_site_fract_y
 _atom_site_fract_z
 _atom_site_occupancy
  Tb  Tb0  1  0.000000  0.000000  0.103839  1
  Tb  Tb1  1  0.000000  0.000000  0.603839  1
  Tb  Tb2  1  0.000000  0.000000  0.895238  1
  Tb  Tb3  1  0.000000  0.000000  0.395238  1
  Fe  Fe4  1  0.333333  0.666667  0.001101  1
  Fe  Fe5  1  0.666667  0.333333  0.501101  1
  Si  Si6  1  0.666667  0.333333  0.999145  1
  Si  Si7  1  0.333333  0.666667  0.499145  1
  I  I8  1  0.666667  0.333333  0.250677  1
  I  I9  1  0.333333  0.666667  0.750677  1
