# generated using pymatgen
data_La12IrRh2AuBr12
_symmetry_space_group_name_H-M   'P 1'
_cell_length_a   10.74080019
_cell_length_b   10.74120652
_cell_length_c   10.52673615
_cell_angle_alpha   109.07904496
_cell_angle_beta   109.07560420
_cell_angle_gamma   109.91131664
_symmetry_Int_Tables_number   1
_chemical_formula_structural   La12IrRh2AuBr12
_chemical_formula_sum   'La12 Ir1 Rh2 Au1 Br12'
_cell_volume   938.83254382
_cell_formula_units_Z   1
loop_
 _symmetry_equiv_pos_site_id
 _symmetry_equiv_pos_as_xyz
  1  'x, y, z'
loop_
 _atom_site_type_symbol
 _atom_site_label
 _atom_site_symmetry_multiplicity
 _atom_site_fract_x
 _atom_site_fract_y
 _atom_site_fract_z
 _atom_site_occupancy
  La  La0  1  0.258545  0.738334  0.231956  1
  La  La1  1  0.479754  0.738098  0.006237  1
  La  La2  1  0.235873  0.470701  0.484712  1
  La  La3  1  0.016471  0.031063  0.264915  1
  La  La4  1  0.235374  0.264642  0.750011  1
  La  La5  1  0.015329  0.484668  0.749998  1
  La  La6  1  0.478872  0.241692  0.472909  1
  La  La7  1  0.258299  0.021132  0.027098  1
  La  La8  1  0.761660  0.241440  0.268053  1
  La  La9  1  0.761894  0.020248  0.493747  1
  La  La10  1  0.468963  0.483540  0.235105  1
  La  La11  1  0.029287  0.264128  0.015274  1
  Ir  Ir12  1  0.248741  0.251268  0.249989  1
  Rh  Rh13  1  0.249041  0.498772  0.998438  1
  Rh  Rh14  1  0.001248  0.250994  0.501594  1
  Au  Au15  1  0.500503  0.999479  0.249994  1
  Br  Br16  1  0.249519  0.994272  0.503514  1
  Br  Br17  1  0.512662  0.506372  0.756618  1
  Br  Br18  1  0.249647  0.754971  0.746505  1
  Br  Br19  1  0.992627  0.745940  0.996286  1
  Br  Br20  1  0.993684  0.506310  0.249986  1
  Br  Br21  1  0.744541  0.994391  0.990844  1
  Br  Br22  1  0.753455  0.746514  0.249982  1
  Br  Br23  1  0.505587  0.755445  0.509123  1
  Br  Br24  1  0.505715  0.250488  0.996484  1
  Br  Br25  1  0.754045  0.507374  0.503714  1
  Br  Br26  1  0.745024  0.250364  0.753513  1
  Br  Br27  1  0.993639  0.987361  0.743403  1
