# generated using pymatgen
data_TaCo4Re(B2W)2
_symmetry_space_group_name_H-M   'P 1'
_cell_length_a   3.25435400
_cell_length_b   5.73241598
_cell_length_c   6.63382888
_cell_angle_alpha   89.37319160
_cell_angle_beta   90.00000000
_cell_angle_gamma   90.00000000
_symmetry_Int_Tables_number   1
_chemical_formula_structural   TaCo4Re(B2W)2
_chemical_formula_sum   'Ta1 Co4 Re1 B4 W2'
_cell_volume   123.74873445
_cell_formula_units_Z   1
loop_
 _symmetry_equiv_pos_site_id
 _symmetry_equiv_pos_as_xyz
  1  'x, y, z'
loop_
 _atom_site_type_symbol
 _atom_site_label
 _atom_site_symmetry_multiplicity
 _atom_site_fract_x
 _atom_site_fract_y
 _atom_site_fract_z
 _atom_site_occupancy
  Ta  Ta0  1  0.250000  0.527446  0.678184  1
  Co  Co1  1  0.750000  0.855635  0.556086  1
  Co  Co2  1  0.250000  0.140504  0.440866  1
  Co  Co3  1  0.750000  0.357083  0.944241  1
  Co  Co4  1  0.250000  0.646746  0.058116  1
  Re  Re5  1  0.250000  0.028002  0.826259  1
  B  B6  1  0.250000  0.271512  0.122728  1
  B  B7  1  0.750000  0.736342  0.877863  1
  B  B8  1  0.250000  0.768661  0.371203  1
  B  B9  1  0.750000  0.222861  0.626233  1
  W  W10  1  0.750000  0.472475  0.323677  1
  W  W11  1  0.750000  0.972731  0.174544  1
