# generated using pymatgen
data_Sm2Mn4P7Rh8
_symmetry_space_group_name_H-M   'P 1'
_cell_length_a   9.47184194
_cell_length_b   9.48102915
_cell_length_c   3.84334700
_cell_angle_alpha   90.00000000
_cell_angle_beta   90.00000000
_cell_angle_gamma   120.11618475
_symmetry_Int_Tables_number   1
_chemical_formula_structural   Sm2Mn4P7Rh8
_chemical_formula_sum   'Sm2 Mn4 P7 Rh8'
_cell_volume   298.55236039
_cell_formula_units_Z   1
loop_
 _symmetry_equiv_pos_site_id
 _symmetry_equiv_pos_as_xyz
  1  'x, y, z'
loop_
 _atom_site_type_symbol
 _atom_site_label
 _atom_site_symmetry_multiplicity
 _atom_site_fract_x
 _atom_site_fract_y
 _atom_site_fract_z
 _atom_site_occupancy
  Sm  Sm0  1  0.665947  0.331986  0.000000  1
  Sm  Sm1  1  0.333794  0.665797  0.500000  1
  Mn  Mn2  1  0.153835  0.268548  0.500000  1
  Mn  Mn3  1  0.731477  0.887875  0.500000  1
  Mn  Mn4  1  0.112036  0.844904  0.500000  1
  Mn  Mn5  1  0.878190  0.775091  0.000000  1
  P  P6  1  0.119015  0.394597  0.000000  1
  P  P7  1  0.606959  0.722771  0.000000  1
  P  P8  1  0.275854  0.879990  0.000000  1
  P  P9  1  0.000620  0.000334  0.500000  1
  P  P10  1  0.402522  0.296526  0.500000  1
  P  P11  1  0.704224  0.107931  0.500000  1
  P  P12  1  0.891246  0.596990  0.500000  1
  Rh  Rh13  1  0.430127  0.062208  0.500000  1
  Rh  Rh14  1  0.938115  0.368743  0.500000  1
  Rh  Rh15  1  0.634023  0.571108  0.500000  1
  Rh  Rh16  1  0.386602  0.441171  0.000000  1
  Rh  Rh17  1  0.555422  0.943109  0.000000  1
  Rh  Rh18  1  0.052780  0.612565  0.000000  1
  Rh  Rh19  1  0.230071  0.098444  0.000000  1
  Rh  Rh20  1  0.897141  0.129311  0.000000  1
