# generated using pymatgen
data_Hf2ZrScOs4
_symmetry_space_group_name_H-M   'P 1'
_cell_length_a   6.48733800
_cell_length_b   4.61513100
_cell_length_c   9.22266200
_cell_angle_alpha   90.00000000
_cell_angle_beta   89.99955293
_cell_angle_gamma   90.00000000
_symmetry_Int_Tables_number   1
_chemical_formula_structural   Hf2ZrScOs4
_chemical_formula_sum   'Hf4 Zr2 Sc2 Os8'
_cell_volume   276.12571369
_cell_formula_units_Z   2
loop_
 _symmetry_equiv_pos_site_id
 _symmetry_equiv_pos_as_xyz
  1  'x, y, z'
loop_
 _atom_site_type_symbol
 _atom_site_label
 _atom_site_symmetry_multiplicity
 _atom_site_fract_x
 _atom_site_fract_y
 _atom_site_fract_z
 _atom_site_occupancy
  Hf  Hf0  1  0.750003  0.249999  0.121661  1
  Hf  Hf1  1  0.250000  0.749999  0.378338  1
  Hf  Hf2  1  0.750000  0.249999  0.628643  1
  Hf  Hf3  1  0.249996  0.749999  0.871359  1
  Zr  Zr4  1  0.250004  0.249999  0.123756  1
  Zr  Zr5  1  0.750003  0.749999  0.376244  1
  Sc  Sc6  1  0.249999  0.249999  0.625732  1
  Sc  Sc7  1  0.749996  0.749999  0.874269  1
  Os  Os8  1  0.000266  0.749999  0.125568  1
  Os  Os9  1  0.499740  0.749999  0.125568  1
  Os  Os10  1  0.999735  0.249999  0.374434  1
  Os  Os11  1  0.500262  0.249999  0.374432  1
  Os  Os12  1  0.500544  0.749999  0.624544  1
  Os  Os13  1  0.999458  0.749999  0.624545  1
  Os  Os14  1  0.499453  0.249999  0.875455  1
  Os  Os15  1  0.000541  0.249999  0.875456  1
