# generated using pymatgen
data_Yb3(EuPt2)2
_symmetry_space_group_name_H-M   'P 1'
_cell_length_a   7.57125800
_cell_length_b   7.77984700
_cell_length_c   14.68115900
_cell_angle_alpha   90.00000000
_cell_angle_beta   90.00000000
_cell_angle_gamma   90.00000000
_symmetry_Int_Tables_number   1
_chemical_formula_structural   Yb3(EuPt2)2
_chemical_formula_sum   'Yb12 Eu8 Pt16'
_cell_volume   864.76766818
_cell_formula_units_Z   4
loop_
 _symmetry_equiv_pos_site_id
 _symmetry_equiv_pos_as_xyz
  1  'x, y, z'
loop_
 _atom_site_type_symbol
 _atom_site_label
 _atom_site_symmetry_multiplicity
 _atom_site_fract_x
 _atom_site_fract_y
 _atom_site_fract_z
 _atom_site_occupancy
  Yb  Yb0  1  0.658331  0.168208  0.622925  1
  Yb  Yb1  1  0.158331  0.331792  0.877075  1
  Yb  Yb2  1  0.341669  0.831792  0.122925  1
  Yb  Yb3  1  0.841669  0.668208  0.377075  1
  Yb  Yb4  1  0.341669  0.831792  0.377075  1
  Yb  Yb5  1  0.841669  0.668208  0.122925  1
  Yb  Yb6  1  0.658331  0.168208  0.877075  1
  Yb  Yb7  1  0.158331  0.331792  0.622925  1
  Yb  Yb8  1  0.820368  0.502833  0.750000  1
  Yb  Yb9  1  0.320368  0.997167  0.750000  1
  Yb  Yb10  1  0.179632  0.497167  0.250000  1
  Yb  Yb11  1  0.679632  0.002833  0.250000  1
  Eu  Eu12  1  0.497578  0.676929  0.596289  1
  Eu  Eu13  1  0.997578  0.823071  0.903711  1
  Eu  Eu14  1  0.502422  0.323071  0.096289  1
  Eu  Eu15  1  0.002422  0.176929  0.403711  1
  Eu  Eu16  1  0.502422  0.323071  0.403711  1
  Eu  Eu17  1  0.002422  0.176929  0.096289  1
  Eu  Eu18  1  0.497578  0.676929  0.903711  1
  Eu  Eu19  1  0.997578  0.823071  0.596289  1
  Pt  Pt20  1  0.673051  0.966261  0.459185  1
  Pt  Pt21  1  0.173051  0.533739  0.040815  1
  Pt  Pt22  1  0.326949  0.033739  0.959185  1
  Pt  Pt23  1  0.826949  0.466261  0.540815  1
  Pt  Pt24  1  0.326949  0.033739  0.540815  1
  Pt  Pt25  1  0.826949  0.466261  0.959185  1
  Pt  Pt26  1  0.673051  0.966261  0.040815  1
  Pt  Pt27  1  0.173051  0.533739  0.459185  1
  Pt  Pt28  1  0.452691  0.381461  0.750000  1
  Pt  Pt29  1  0.952691  0.118539  0.750000  1
  Pt  Pt30  1  0.547309  0.618539  0.250000  1
  Pt  Pt31  1  0.047309  0.881461  0.250000  1
  Pt  Pt32  1  0.693724  0.864283  0.750000  1
  Pt  Pt33  1  0.193724  0.635717  0.750000  1
  Pt  Pt34  1  0.306276  0.135717  0.250000  1
  Pt  Pt35  1  0.806276  0.364283  0.250000  1
