# generated using pymatgen
data_CaHf(NiAs)2
_symmetry_space_group_name_H-M   'P 1'
_cell_length_a   3.96879000
_cell_length_b   7.47440641
_cell_length_c   7.14439308
_cell_angle_alpha   92.65526814
_cell_angle_beta   90.00000000
_cell_angle_gamma   90.00000000
_symmetry_Int_Tables_number   1
_chemical_formula_structural   CaHf(NiAs)2
_chemical_formula_sum   'Ca2 Hf2 Ni4 As4'
_cell_volume   211.70622944
_cell_formula_units_Z   2
loop_
 _symmetry_equiv_pos_site_id
 _symmetry_equiv_pos_as_xyz
  1  'x, y, z'
loop_
 _atom_site_type_symbol
 _atom_site_label
 _atom_site_symmetry_multiplicity
 _atom_site_fract_x
 _atom_site_fract_y
 _atom_site_fract_z
 _atom_site_occupancy
  Ca  Ca0  1  0.250000  0.498025  0.234472  1
  Ca  Ca1  1  0.750000  0.501975  0.765528  1
  Hf  Hf2  1  0.750000  0.015669  0.704342  1
  Hf  Hf3  1  0.250000  0.984331  0.295658  1
  Ni  Ni4  1  0.250000  0.886855  0.934437  1
  Ni  Ni5  1  0.750000  0.113145  0.065563  1
  Ni  Ni6  1  0.750000  0.768139  0.425117  1
  Ni  Ni7  1  0.250000  0.231861  0.574883  1
  As  As8  1  0.250000  0.754976  0.605815  1
  As  As9  1  0.750000  0.245024  0.394185  1
  As  As10  1  0.750000  0.770736  0.091491  1
  As  As11  1  0.250000  0.229264  0.908509  1
