# generated using pymatgen
data_Ti2P2OsPd
_symmetry_space_group_name_H-M   'P 1'
_cell_length_a   3.75725200
_cell_length_b   6.29611142
_cell_length_c   7.26211893
_cell_angle_alpha   91.79835472
_cell_angle_beta   90.00000000
_cell_angle_gamma   90.00000000
_symmetry_Int_Tables_number   1
_chemical_formula_structural   Ti2P2OsPd
_chemical_formula_sum   'Ti4 P4 Os2 Pd2'
_cell_volume   171.70863148
_cell_formula_units_Z   2
loop_
 _symmetry_equiv_pos_site_id
 _symmetry_equiv_pos_as_xyz
  1  'x, y, z'
loop_
 _atom_site_type_symbol
 _atom_site_label
 _atom_site_symmetry_multiplicity
 _atom_site_fract_x
 _atom_site_fract_y
 _atom_site_fract_z
 _atom_site_occupancy
  Ti  Ti0  1  0.250000  0.530524  0.164497  1
  Ti  Ti1  1  0.750000  0.469476  0.835503  1
  Ti  Ti2  1  0.750000  0.978196  0.680873  1
  Ti  Ti3  1  0.250000  0.021804  0.319127  1
  P  P4  1  0.250000  0.760358  0.881267  1
  P  P5  1  0.750000  0.239642  0.118733  1
  P  P6  1  0.750000  0.753995  0.368693  1
  P  P7  1  0.250000  0.246005  0.631307  1
  Os  Os8  1  0.750000  0.853614  0.059044  1
  Os  Os9  1  0.250000  0.146386  0.940956  1
  Pd  Pd10  1  0.250000  0.646136  0.565749  1
  Pd  Pd11  1  0.750000  0.353864  0.434251  1
