# generated using pymatgen
data_Er4Al13Ga5Ir5Pt
_symmetry_space_group_name_H-M   'P 1'
_cell_length_a   7.54459439
_cell_length_b   7.54353700
_cell_length_c   9.50866233
_cell_angle_alpha   89.95225713
_cell_angle_beta   89.96814370
_cell_angle_gamma   119.88831527
_symmetry_Int_Tables_number   1
_chemical_formula_structural   Er4Al13Ga5Ir5Pt
_chemical_formula_sum   'Er4 Al13 Ga5 Ir5 Pt1'
_cell_volume   469.18942398
_cell_formula_units_Z   1
loop_
 _symmetry_equiv_pos_site_id
 _symmetry_equiv_pos_as_xyz
  1  'x, y, z'
loop_
 _atom_site_type_symbol
 _atom_site_label
 _atom_site_symmetry_multiplicity
 _atom_site_fract_x
 _atom_site_fract_y
 _atom_site_fract_z
 _atom_site_occupancy
  Er  Er0  1  0.998021  0.667284  0.750775  1
  Er  Er1  1  0.003379  0.330845  0.249203  1
  Er  Er2  1  0.667494  0.998250  0.750793  1
  Er  Er3  1  0.330996  0.003502  0.249129  1
  Al  Al4  1  0.124301  0.123688  0.750212  1
  Al  Al5  1  0.004084  0.333961  0.575642  1
  Al  Al6  1  0.001843  0.669369  0.425228  1
  Al  Al7  1  0.999365  0.665739  0.073002  1
  Al  Al8  1  0.333993  0.000253  0.926402  1
  Al  Al9  1  0.000594  0.333552  0.925801  1
  Al  Al10  1  0.666213  0.998990  0.073650  1
  Al  Al11  1  0.666074  0.995655  0.424857  1
  Al  Al12  1  0.330595  0.997777  0.575352  1
  Al  Al13  1  0.333520  0.333340  0.054247  1
  Al  Al14  1  0.667536  0.667300  0.941723  1
  Al  Al15  1  0.666674  0.669729  0.561195  1
  Al  Al16  1  0.331389  0.334320  0.442919  1
  Ga  Ga17  1  0.874294  0.873447  0.249808  1
  Ga  Ga18  1  0.340002  0.547158  0.750221  1
  Ga  Ga19  1  0.659622  0.454003  0.247527  1
  Ga  Ga20  1  0.544219  0.340026  0.752557  1
  Ga  Ga21  1  0.451058  0.659631  0.249682  1
  Ir  Ir22  1  0.328756  0.672154  0.499781  1
  Ir  Ir23  1  0.328675  0.672173  0.000134  1
  Ir  Ir24  1  0.672565  0.328223  0.000130  1
  Ir  Ir25  1  0.000710  0.000910  0.502329  1
  Ir  Ir26  1  0.000961  0.000563  0.997641  1
  Pt  Pt27  1  0.673064  0.328155  0.500058  1
