# generated using pymatgen
data_Yb10CdCuNi3Hg
_symmetry_space_group_name_H-M   'P 1'
_cell_length_a   8.94799258
_cell_length_b   8.94799294
_cell_length_c   8.90447690
_cell_angle_alpha   129.60283702
_cell_angle_beta   129.60283938
_cell_angle_gamma   74.46078987
_symmetry_Int_Tables_number   1
_chemical_formula_structural   Yb10CdCuNi3Hg
_chemical_formula_sum   'Yb10 Cd1 Cu1 Ni3 Hg1'
_cell_volume   411.56454382
_cell_formula_units_Z   1
loop_
 _symmetry_equiv_pos_site_id
 _symmetry_equiv_pos_as_xyz
  1  'x, y, z'
loop_
 _atom_site_type_symbol
 _atom_site_label
 _atom_site_symmetry_multiplicity
 _atom_site_fract_x
 _atom_site_fract_y
 _atom_site_fract_z
 _atom_site_occupancy
  Yb  Yb0  1  0.501153  0.502918  0.004417  1
  Yb  Yb1  1  0.997082  0.998847  0.995583  1
  Yb  Yb2  1  0.541489  0.038671  0.843825  1
  Yb  Yb3  1  0.200398  0.692125  0.156186  1
  Yb  Yb4  1  0.030975  0.206569  0.502762  1
  Yb  Yb5  1  0.699035  0.535569  0.497080  1
  Yb  Yb6  1  0.461329  0.958511  0.156175  1
  Yb  Yb7  1  0.807875  0.299602  0.843814  1
  Yb  Yb8  1  0.964431  0.800965  0.502920  1
  Yb  Yb9  1  0.293431  0.469025  0.497238  1
  Cd  Cd10  1  0.751248  0.748752  0.000000  1
  Cu  Cu11  1  0.384212  0.115788  0.500000  1
  Ni  Ni12  1  0.115932  0.616740  0.732670  1
  Ni  Ni13  1  0.883260  0.384068  0.267330  1
  Ni  Ni14  1  0.617177  0.882823  0.500000  1
  Hg  Hg15  1  0.250976  0.249024  0.000000  1
