# generated using pymatgen
data_Tb5Er5(GaSb2)2
_symmetry_space_group_name_H-M   'P 1'
_cell_length_a   8.82865689
_cell_length_b   8.79206644
_cell_length_c   6.40401000
_cell_angle_alpha   90.00067519
_cell_angle_beta   89.99790800
_cell_angle_gamma   119.83914754
_symmetry_Int_Tables_number   1
_chemical_formula_structural   Tb5Er5(GaSb2)2
_chemical_formula_sum   'Tb5 Er5 Ga2 Sb4'
_cell_volume   431.19119377
_cell_formula_units_Z   1
loop_
 _symmetry_equiv_pos_site_id
 _symmetry_equiv_pos_as_xyz
  1  'x, y, z'
loop_
 _atom_site_type_symbol
 _atom_site_label
 _atom_site_symmetry_multiplicity
 _atom_site_fract_x
 _atom_site_fract_y
 _atom_site_fract_z
 _atom_site_occupancy
  Tb  Tb0  1  0.011729  0.766630  0.750000  1
  Tb  Tb1  1  0.012028  0.244554  0.249993  1
  Tb  Tb2  1  0.752906  0.753082  0.250002  1
  Tb  Tb3  1  0.752375  0.999191  0.749994  1
  Tb  Tb4  1  0.245439  0.233757  0.749994  1
  Er  Er5  1  0.244824  0.011653  0.249993  1
  Er  Er6  1  0.335722  0.668456  0.499497  1
  Er  Er7  1  0.652468  0.325913  0.000803  1
  Er  Er8  1  0.652480  0.325939  0.499193  1
  Er  Er9  1  0.335701  0.668452  0.000536  1
  Ga  Ga10  1  0.395124  0.996808  0.750005  1
  Ga  Ga11  1  0.394193  0.396092  0.249994  1
  Sb  Sb12  1  0.999824  0.608050  0.250001  1
  Sb  Sb13  1  0.998512  0.391868  0.750005  1
  Sb  Sb14  1  0.609095  0.607771  0.749994  1
  Sb  Sb15  1  0.607581  0.001786  0.249997  1
