# generated using pymatgen
data_Pr3PuO8
_symmetry_space_group_name_H-M   'P 1'
_cell_length_a   15.29601800
_cell_length_b   7.63689959
_cell_length_c   6.33244000
_cell_angle_alpha   90.00000000
_cell_angle_beta   90.00000000
_cell_angle_gamma   110.29938618
_symmetry_Int_Tables_number   1
_chemical_formula_structural   Pr3PuO8
_chemical_formula_sum   'Pr12 Pu4 O32'
_cell_volume   693.77665618
_cell_formula_units_Z   4
loop_
 _symmetry_equiv_pos_site_id
 _symmetry_equiv_pos_as_xyz
  1  'x, y, z'
loop_
 _atom_site_type_symbol
 _atom_site_label
 _atom_site_symmetry_multiplicity
 _atom_site_fract_x
 _atom_site_fract_y
 _atom_site_fract_z
 _atom_site_occupancy
  Pr  Pr0  1  0.663131  0.107481  0.191649  1
  Pr  Pr1  1  0.944653  0.666352  0.203510  1
  Pr  Pr2  1  0.700821  0.596630  0.239965  1
  Pr  Pr3  1  0.200819  0.596645  0.260037  1
  Pr  Pr4  1  0.444645  0.666343  0.296470  1
  Pr  Pr5  1  0.163128  0.107474  0.308358  1
  Pr  Pr6  1  0.836877  0.892518  0.691648  1
  Pr  Pr7  1  0.555347  0.333640  0.703511  1
  Pr  Pr8  1  0.799180  0.403353  0.739972  1
  Pr  Pr9  1  0.299175  0.403368  0.760037  1
  Pr  Pr10  1  0.055349  0.333643  0.796486  1
  Pr  Pr11  1  0.336875  0.892525  0.808353  1
  Pu  Pu12  1  0.906920  0.180448  0.246620  1
  Pu  Pu13  1  0.406920  0.180446  0.253393  1
  Pu  Pu14  1  0.593075  0.819557  0.746642  1
  Pu  Pu15  1  0.093088  0.819553  0.753355  1
  O  O16  1  0.174140  0.318320  0.026508  1
  O  O17  1  0.337741  0.643014  0.026362  1
  O  O18  1  0.595754  0.757207  0.054492  1
  O  O19  1  0.088075  0.872939  0.054168  1
  O  O20  1  0.828868  0.334857  0.164036  1
  O  O21  1  0.019937  0.416094  0.191306  1
  O  O22  1  0.480600  0.019839  0.197354  1
  O  O23  1  0.284185  0.963128  0.199331  1
  O  O24  1  0.784187  0.963128  0.300663  1
  O  O25  1  0.980604  0.019837  0.302637  1
  O  O26  1  0.519935  0.416084  0.308686  1
  O  O27  1  0.328864  0.334862  0.335953  1
  O  O28  1  0.588058  0.872967  0.445875  1
  O  O29  1  0.095763  0.757184  0.445489  1
  O  O30  1  0.837736  0.643003  0.473641  1
  O  O31  1  0.674141  0.318313  0.473512  1
  O  O32  1  0.325862  0.681692  0.526495  1
  O  O33  1  0.162261  0.356997  0.526349  1
  O  O34  1  0.904246  0.242796  0.554473  1
  O  O35  1  0.411929  0.127050  0.554133  1
  O  O36  1  0.671129  0.665142  0.664039  1
  O  O37  1  0.480060  0.583908  0.691309  1
  O  O38  1  0.019394  0.980187  0.697348  1
  O  O39  1  0.215834  0.036894  0.699330  1
  O  O40  1  0.715812  0.036878  0.800676  1
  O  O41  1  0.519387  0.980176  0.802643  1
  O  O42  1  0.980059  0.583885  0.808694  1
  O  O43  1  0.171149  0.665122  0.835957  1
  O  O44  1  0.911936  0.127046  0.945856  1
  O  O45  1  0.404241  0.242810  0.945523  1
  O  O46  1  0.662263  0.356991  0.973652  1
  O  O47  1  0.825856  0.681678  0.973504  1
