# generated using pymatgen
data_Er2LuGa5Rh
_symmetry_space_group_name_H-M   'P 1'
_cell_length_a   6.88057069
_cell_length_b   6.88057172
_cell_length_c   4.25243400
_cell_angle_alpha   90.00000000
_cell_angle_beta   90.00000000
_cell_angle_gamma   119.75724557
_symmetry_Int_Tables_number   1
_chemical_formula_structural   Er2LuGa5Rh
_chemical_formula_sum   'Er2 Lu1 Ga5 Rh1'
_cell_volume   174.77300909
_cell_formula_units_Z   1
loop_
 _symmetry_equiv_pos_site_id
 _symmetry_equiv_pos_as_xyz
  1  'x, y, z'
loop_
 _atom_site_type_symbol
 _atom_site_label
 _atom_site_symmetry_multiplicity
 _atom_site_fract_x
 _atom_site_fract_y
 _atom_site_fract_z
 _atom_site_occupancy
  Er  Er0  1  0.588642  0.999276  0.000000  1
  Er  Er1  1  0.999276  0.588642  0.000000  1
  Lu  Lu2  1  0.408564  0.408564  0.000000  1
  Ga  Ga3  1  0.238592  0.999358  0.500000  1
  Ga  Ga4  1  0.999358  0.238592  0.500000  1
  Ga  Ga5  1  0.761795  0.761795  0.500000  1
  Ga  Ga6  1  0.334082  0.665328  0.500000  1
  Ga  Ga7  1  0.665328  0.334082  0.500000  1
  Rh  Rh8  1  0.004362  0.004362  0.000000  1
