# generated using pymatgen
data_LaYb7(Si3Pd)4
_symmetry_space_group_name_H-M   'P 1'
_cell_length_a   8.25954300
_cell_length_b   8.25954183
_cell_length_c   8.37014800
_cell_angle_alpha   90.00000000
_cell_angle_beta   90.00000000
_cell_angle_gamma   120.00000068
_symmetry_Int_Tables_number   1
_chemical_formula_structural   LaYb7(Si3Pd)4
_chemical_formula_sum   'La1 Yb7 Si12 Pd4'
_cell_volume   494.51075504
_cell_formula_units_Z   1
loop_
 _symmetry_equiv_pos_site_id
 _symmetry_equiv_pos_as_xyz
  1  'x, y, z'
loop_
 _atom_site_type_symbol
 _atom_site_label
 _atom_site_symmetry_multiplicity
 _atom_site_fract_x
 _atom_site_fract_y
 _atom_site_fract_z
 _atom_site_occupancy
  La  La0  1  0.000000  0.000000  0.750000  1
  Yb  Yb1  1  0.501218  0.002435  0.250000  1
  Yb  Yb2  1  0.498791  0.997582  0.750000  1
  Yb  Yb3  1  0.997565  0.498782  0.250000  1
  Yb  Yb4  1  0.002418  0.501209  0.750000  1
  Yb  Yb5  1  0.501218  0.498782  0.250000  1
  Yb  Yb6  1  0.498791  0.501209  0.750000  1
  Yb  Yb7  1  0.000000  0.000000  0.250000  1
  Si  Si8  1  0.165185  0.330370  0.002692  1
  Si  Si9  1  0.834846  0.669692  0.001634  1
  Si  Si10  1  0.669630  0.834815  0.002692  1
  Si  Si11  1  0.834846  0.669692  0.498366  1
  Si  Si12  1  0.330308  0.165154  0.001634  1
  Si  Si13  1  0.165185  0.330370  0.497308  1
  Si  Si14  1  0.165185  0.834815  0.002692  1
  Si  Si15  1  0.330308  0.165154  0.498366  1
  Si  Si16  1  0.834846  0.165154  0.001634  1
  Si  Si17  1  0.669630  0.834815  0.497308  1
  Si  Si18  1  0.834846  0.165154  0.498366  1
  Si  Si19  1  0.165185  0.834815  0.497308  1
  Pd  Pd20  1  0.333333  0.666667  0.005530  1
  Pd  Pd21  1  0.666667  0.333333  0.998399  1
  Pd  Pd22  1  0.666667  0.333333  0.501601  1
  Pd  Pd23  1  0.333333  0.666667  0.494470  1
