# generated using pymatgen
data_Nd11Th5(CdOs)4
_symmetry_space_group_name_H-M   'P 1'
_cell_length_a   9.87305911
_cell_length_b   9.98095182
_cell_length_c   9.98076362
_cell_angle_alpha   60.12917363
_cell_angle_beta   60.50310395
_cell_angle_gamma   60.50621996
_symmetry_Int_Tables_number   1
_chemical_formula_structural   Nd11Th5(CdOs)4
_chemical_formula_sum   'Nd11 Th5 Cd4 Os4'
_cell_volume   701.41008436
_cell_formula_units_Z   1
loop_
 _symmetry_equiv_pos_site_id
 _symmetry_equiv_pos_as_xyz
  1  'x, y, z'
loop_
 _atom_site_type_symbol
 _atom_site_label
 _atom_site_symmetry_multiplicity
 _atom_site_fract_x
 _atom_site_fract_y
 _atom_site_fract_z
 _atom_site_occupancy
  Nd  Nd0  1  0.189021  0.809754  0.809784  1
  Nd  Nd1  1  0.192381  0.806827  0.190014  1
  Nd  Nd2  1  0.809504  0.189558  0.806919  1
  Nd  Nd3  1  0.192379  0.190094  0.806781  1
  Nd  Nd4  1  0.809520  0.806943  0.189543  1
  Nd  Nd5  1  0.940103  0.561811  0.561768  1
  Nd  Nd6  1  0.559242  0.940151  0.940075  1
  Nd  Nd7  1  0.561258  0.942712  0.558228  1
  Nd  Nd8  1  0.940607  0.558044  0.940909  1
  Nd  Nd9  1  0.561318  0.558255  0.942716  1
  Nd  Nd10  1  0.940560  0.940864  0.558040  1
  Th  Th11  1  0.342390  0.346679  0.346728  1
  Th  Th12  1  0.345409  0.345276  0.963812  1
  Th  Th13  1  0.345392  0.963745  0.345283  1
  Th  Th14  1  0.961283  0.347649  0.347744  1
  Th  Th15  1  0.813499  0.186714  0.186659  1
  Cd  Cd16  1  0.578863  0.580109  0.580081  1
  Cd  Cd17  1  0.579360  0.581107  0.259384  1
  Cd  Cd18  1  0.579380  0.259408  0.581079  1
  Cd  Cd19  1  0.260120  0.580013  0.579939  1
  Os  Os20  1  0.130760  0.147977  0.147970  1
  Os  Os21  1  0.146860  0.142382  0.565772  1
  Os  Os22  1  0.146800  0.565725  0.142517  1
  Os  Os23  1  0.573985  0.148202  0.148252  1
