# generated using pymatgen
data_LiTb6Zr(MnC6)2
_symmetry_space_group_name_H-M   'P 1'
_cell_length_a   8.32504200
_cell_length_b   8.32504235
_cell_length_c   5.10094900
_cell_angle_alpha   90.00000000
_cell_angle_beta   90.00000000
_cell_angle_gamma   120.00000228
_symmetry_Int_Tables_number   1
_chemical_formula_structural   LiTb6Zr(MnC6)2
_chemical_formula_sum   'Li1 Tb6 Zr1 Mn2 C12'
_cell_volume   306.16425712
_cell_formula_units_Z   1
loop_
 _symmetry_equiv_pos_site_id
 _symmetry_equiv_pos_as_xyz
  1  'x, y, z'
loop_
 _atom_site_type_symbol
 _atom_site_label
 _atom_site_symmetry_multiplicity
 _atom_site_fract_x
 _atom_site_fract_y
 _atom_site_fract_z
 _atom_site_occupancy
  Li  Li0  1  0.000000  0.000000  0.500000  1
  Tb  Tb1  1  0.618993  0.678744  0.745759  1
  Tb  Tb2  1  0.940249  0.618993  0.254241  1
  Tb  Tb3  1  0.678744  0.059751  0.254241  1
  Tb  Tb4  1  0.321256  0.940249  0.745759  1
  Tb  Tb5  1  0.059751  0.381007  0.745759  1
  Tb  Tb6  1  0.381007  0.321256  0.254241  1
  Zr  Zr7  1  0.000000  0.000000  0.000000  1
  Mn  Mn8  1  0.666667  0.333333  0.745247  1
  Mn  Mn9  1  0.333333  0.666667  0.254753  1
  C  C10  1  0.970934  0.751805  0.760364  1
  C  C11  1  0.219130  0.970934  0.239636  1
  C  C12  1  0.751805  0.780870  0.239636  1
  C  C13  1  0.248195  0.219130  0.760364  1
  C  C14  1  0.780870  0.029066  0.760364  1
  C  C15  1  0.029066  0.248195  0.239636  1
  C  C16  1  0.860135  0.566070  0.749018  1
  C  C17  1  0.294064  0.860135  0.250982  1
  C  C18  1  0.566070  0.705936  0.250982  1
  C  C19  1  0.433930  0.294064  0.749018  1
  C  C20  1  0.139865  0.433930  0.250982  1
  C  C21  1  0.705936  0.139865  0.749018  1
