# generated using pymatgen
data_Tb3Sn3Pd2Rh
_symmetry_space_group_name_H-M   'P 1'
_cell_length_a   7.71222800
_cell_length_b   7.71222718
_cell_length_c   3.83089300
_cell_angle_alpha   90.00000000
_cell_angle_beta   90.00000000
_cell_angle_gamma   119.99999493
_symmetry_Int_Tables_number   1
_chemical_formula_structural   Tb3Sn3Pd2Rh
_chemical_formula_sum   'Tb3 Sn3 Pd2 Rh1'
_cell_volume   197.32874344
_cell_formula_units_Z   1
loop_
 _symmetry_equiv_pos_site_id
 _symmetry_equiv_pos_as_xyz
  1  'x, y, z'
loop_
 _atom_site_type_symbol
 _atom_site_label
 _atom_site_symmetry_multiplicity
 _atom_site_fract_x
 _atom_site_fract_y
 _atom_site_fract_z
 _atom_site_occupancy
  Tb  Tb0  1  0.401497  0.000000  0.500000  1
  Tb  Tb1  1  0.000000  0.401497  0.500000  1
  Tb  Tb2  1  0.598503  0.598503  0.500000  1
  Sn  Sn3  1  0.740894  0.000000  0.000000  1
  Sn  Sn4  1  0.000000  0.740894  0.000000  1
  Sn  Sn5  1  0.259106  0.259106  0.000000  1
  Pd  Pd6  1  0.333333  0.666667  0.000000  1
  Pd  Pd7  1  0.666667  0.333333  0.000000  1
  Rh  Rh8  1  0.000000  0.000000  0.500000  1
