# generated using pymatgen
data_Eu4GaPt4Pb
_symmetry_space_group_name_H-M   'P 1'
_cell_length_a   5.80751058
_cell_length_b   5.80751040
_cell_length_c   8.38922847
_cell_angle_alpha   77.95609762
_cell_angle_beta   77.95608443
_cell_angle_gamma   59.99906630
_symmetry_Int_Tables_number   1
_chemical_formula_structural   Eu4GaPt4Pb
_chemical_formula_sum   'Eu4 Ga1 Pt4 Pb1'
_cell_volume   237.81651215
_cell_formula_units_Z   1
loop_
 _symmetry_equiv_pos_site_id
 _symmetry_equiv_pos_as_xyz
  1  'x, y, z'
loop_
 _atom_site_type_symbol
 _atom_site_label
 _atom_site_symmetry_multiplicity
 _atom_site_fract_x
 _atom_site_fract_y
 _atom_site_fract_z
 _atom_site_occupancy
  Eu  Eu0  1  0.794114  0.504347  0.352914  1
  Eu  Eu1  1  0.495653  0.205886  0.147086  1
  Eu  Eu2  1  0.206038  0.496558  0.651167  1
  Eu  Eu3  1  0.503442  0.793962  0.848833  1
  Ga  Ga4  1  0.869881  0.130119  0.750000  1
  Pt  Pt5  1  0.988296  0.732646  0.986399  1
  Pt  Pt6  1  0.267354  0.011704  0.513601  1
  Pt  Pt7  1  0.985166  0.270761  0.984387  1
  Pt  Pt8  1  0.729239  0.014834  0.515613  1
  Pb  Pb9  1  0.160815  0.839185  0.250000  1
