# generated using pymatgen
data_Er3Pa(Al3Ir)6
_symmetry_space_group_name_H-M   'P 1'
_cell_length_a   7.56766103
_cell_length_b   7.56245291
_cell_length_c   9.41577000
_cell_angle_alpha   90.00000000
_cell_angle_beta   90.00000000
_cell_angle_gamma   119.61100013
_symmetry_Int_Tables_number   1
_chemical_formula_structural   Er3Pa(Al3Ir)6
_chemical_formula_sum   'Er3 Pa1 Al18 Ir6'
_cell_volume   468.48951216
_cell_formula_units_Z   1
loop_
 _symmetry_equiv_pos_site_id
 _symmetry_equiv_pos_as_xyz
  1  'x, y, z'
loop_
 _atom_site_type_symbol
 _atom_site_label
 _atom_site_symmetry_multiplicity
 _atom_site_fract_x
 _atom_site_fract_y
 _atom_site_fract_z
 _atom_site_occupancy
  Er  Er0  1  0.004578  0.328513  0.750000  1
  Er  Er1  1  0.673007  0.994837  0.250000  1
  Er  Er2  1  0.328922  0.004346  0.750000  1
  Pa  Pa3  1  0.996117  0.671801  0.250000  1
  Al  Al4  1  0.132141  0.130957  0.250000  1
  Al  Al5  1  0.872317  0.874234  0.750000  1
  Al  Al6  1  0.000989  0.332352  0.074653  1
  Al  Al7  1  0.999163  0.664498  0.920050  1
  Al  Al8  1  0.999163  0.664498  0.579950  1
  Al  Al9  1  0.338826  0.003984  0.425159  1
  Al  Al10  1  0.000989  0.332352  0.425347  1
  Al  Al11  1  0.664877  0.000105  0.576478  1
  Al  Al12  1  0.664877  0.000105  0.923522  1
  Al  Al13  1  0.338826  0.003984  0.074841  1
  Al  Al14  1  0.332372  0.332494  0.556917  1
  Al  Al15  1  0.663164  0.665798  0.448796  1
  Al  Al16  1  0.663164  0.665798  0.051204  1
  Al  Al17  1  0.332372  0.332494  0.943083  1
  Al  Al18  1  0.339593  0.547348  0.250000  1
  Al  Al19  1  0.659003  0.449304  0.750000  1
  Al  Al20  1  0.547125  0.341773  0.250000  1
  Al  Al21  1  0.450324  0.660990  0.750000  1
  Ir  Ir22  1  0.674044  0.330072  0.001916  1
  Ir  Ir23  1  0.325564  0.671924  0.002000  1
  Ir  Ir24  1  0.325564  0.671924  0.498000  1
  Ir  Ir25  1  0.674044  0.330072  0.498084  1
  Ir  Ir26  1  0.999436  0.996721  0.002979  1
  Ir  Ir27  1  0.999436  0.996721  0.497021  1
