# generated using pymatgen
data_Dy10Ag3Ir
_symmetry_space_group_name_H-M   'P 1'
_cell_length_a   9.52388200
_cell_length_b   9.52388308
_cell_length_c   9.64965400
_cell_angle_alpha   90.00000000
_cell_angle_beta   90.00000000
_cell_angle_gamma   119.99999625
_symmetry_Int_Tables_number   1
_chemical_formula_structural   Dy10Ag3Ir
_chemical_formula_sum   'Dy20 Ag6 Ir2'
_cell_volume   758.00217281
_cell_formula_units_Z   2
loop_
 _symmetry_equiv_pos_site_id
 _symmetry_equiv_pos_as_xyz
  1  'x, y, z'
loop_
 _atom_site_type_symbol
 _atom_site_label
 _atom_site_symmetry_multiplicity
 _atom_site_fract_x
 _atom_site_fract_y
 _atom_site_fract_z
 _atom_site_occupancy
  Dy  Dy0  1  0.000000  0.000000  0.500000  1
  Dy  Dy1  1  0.000000  0.000000  0.000000  1
  Dy  Dy2  1  0.208457  0.791543  0.442277  1
  Dy  Dy3  1  0.208457  0.416916  0.442277  1
  Dy  Dy4  1  0.583084  0.791543  0.442277  1
  Dy  Dy5  1  0.791543  0.208457  0.557723  1
  Dy  Dy6  1  0.791543  0.583084  0.557723  1
  Dy  Dy7  1  0.416916  0.208457  0.557723  1
  Dy  Dy8  1  0.791543  0.208457  0.942277  1
  Dy  Dy9  1  0.791543  0.583084  0.942277  1
  Dy  Dy10  1  0.416916  0.208457  0.942277  1
  Dy  Dy11  1  0.208457  0.791543  0.057723  1
  Dy  Dy12  1  0.208457  0.416916  0.057723  1
  Dy  Dy13  1  0.583084  0.791543  0.057723  1
  Dy  Dy14  1  0.542150  0.457850  0.250000  1
  Dy  Dy15  1  0.542150  0.084298  0.250000  1
  Dy  Dy16  1  0.915702  0.457850  0.250000  1
  Dy  Dy17  1  0.457850  0.542150  0.750000  1
  Dy  Dy18  1  0.457850  0.915702  0.750000  1
  Dy  Dy19  1  0.084298  0.542150  0.750000  1
  Ag  Ag20  1  0.883984  0.116016  0.250000  1
  Ag  Ag21  1  0.883984  0.767969  0.250000  1
  Ag  Ag22  1  0.232031  0.116016  0.250000  1
  Ag  Ag23  1  0.116016  0.883984  0.750000  1
  Ag  Ag24  1  0.116016  0.232031  0.750000  1
  Ag  Ag25  1  0.767969  0.883984  0.750000  1
  Ir  Ir26  1  0.333333  0.666667  0.250000  1
  Ir  Ir27  1  0.666667  0.333333  0.750000  1
