# generated using pymatgen
data_Dy6Y4Cd3Tc
_symmetry_space_group_name_H-M   'P 1'
_cell_length_a   9.57677500
_cell_length_b   9.57677437
_cell_length_c   9.96446500
_cell_angle_alpha   90.00000000
_cell_angle_beta   90.00000000
_cell_angle_gamma   119.99999871
_symmetry_Int_Tables_number   1
_chemical_formula_structural   Dy6Y4Cd3Tc
_chemical_formula_sum   'Dy12 Y8 Cd6 Tc2'
_cell_volume   791.44941615
_cell_formula_units_Z   2
loop_
 _symmetry_equiv_pos_site_id
 _symmetry_equiv_pos_as_xyz
  1  'x, y, z'
loop_
 _atom_site_type_symbol
 _atom_site_label
 _atom_site_symmetry_multiplicity
 _atom_site_fract_x
 _atom_site_fract_y
 _atom_site_fract_z
 _atom_site_occupancy
  Dy  Dy0  1  0.210114  0.789886  0.440793  1
  Dy  Dy1  1  0.210114  0.420227  0.440793  1
  Dy  Dy2  1  0.579773  0.789886  0.440793  1
  Dy  Dy3  1  0.789886  0.210114  0.559207  1
  Dy  Dy4  1  0.789886  0.579773  0.559207  1
  Dy  Dy5  1  0.420227  0.210114  0.559207  1
  Dy  Dy6  1  0.789886  0.210114  0.940793  1
  Dy  Dy7  1  0.789886  0.579773  0.940793  1
  Dy  Dy8  1  0.420227  0.210114  0.940793  1
  Dy  Dy9  1  0.210114  0.789886  0.059207  1
  Dy  Dy10  1  0.210114  0.420227  0.059207  1
  Dy  Dy11  1  0.579773  0.789886  0.059207  1
  Y  Y12  1  0.000000  0.000000  0.500000  1
  Y  Y13  1  0.000000  0.000000  0.000000  1
  Y  Y14  1  0.539691  0.460309  0.250000  1
  Y  Y15  1  0.539691  0.079383  0.250000  1
  Y  Y16  1  0.920617  0.460309  0.250000  1
  Y  Y17  1  0.460309  0.539691  0.750000  1
  Y  Y18  1  0.460309  0.920617  0.750000  1
  Y  Y19  1  0.079383  0.539691  0.750000  1
  Cd  Cd20  1  0.885417  0.114583  0.250000  1
  Cd  Cd21  1  0.885417  0.770835  0.250000  1
  Cd  Cd22  1  0.229165  0.114583  0.250000  1
  Cd  Cd23  1  0.114583  0.885417  0.750000  1
  Cd  Cd24  1  0.114583  0.229165  0.750000  1
  Cd  Cd25  1  0.770835  0.885417  0.750000  1
  Tc  Tc26  1  0.333333  0.666667  0.250000  1
  Tc  Tc27  1  0.666667  0.333333  0.750000  1
