# generated using pymatgen
data_Dy4Lu8Co5Sb
_symmetry_space_group_name_H-M   'P 1'
_cell_length_a   8.15586889
_cell_length_b   8.15586831
_cell_length_c   8.15586829
_cell_angle_alpha   106.56063011
_cell_angle_beta   110.52824613
_cell_angle_gamma   111.36458407
_symmetry_Int_Tables_number   1
_chemical_formula_structural   Dy4Lu8Co5Sb
_chemical_formula_sum   'Dy4 Lu8 Co5 Sb1'
_cell_volume   416.80060179
_cell_formula_units_Z   1
loop_
 _symmetry_equiv_pos_site_id
 _symmetry_equiv_pos_as_xyz
  1  'x, y, z'
loop_
 _atom_site_type_symbol
 _atom_site_label
 _atom_site_symmetry_multiplicity
 _atom_site_fract_x
 _atom_site_fract_y
 _atom_site_fract_z
 _atom_site_occupancy
  Dy  Dy0  1  0.196136  0.212201  0.408336  1
  Dy  Dy1  1  0.803864  0.787799  0.591664  1
  Dy  Dy2  1  0.196136  0.787799  0.983934  1
  Dy  Dy3  1  0.803864  0.212201  0.016066  1
  Lu  Lu4  1  0.470823  0.288073  0.182750  1
  Lu  Lu5  1  0.105323  0.288073  0.817250  1
  Lu  Lu6  1  0.894677  0.711927  0.182750  1
  Lu  Lu7  1  0.529177  0.711927  0.817250  1
  Lu  Lu8  1  0.307339  0.621316  0.313977  1
  Lu  Lu9  1  0.307339  0.993362  0.686023  1
  Lu  Lu10  1  0.692661  0.378684  0.686023  1
  Lu  Lu11  1  0.692661  0.006638  0.313977  1
  Co  Co12  1  0.500000  0.612725  0.112725  1
  Co  Co13  1  0.500000  0.387275  0.887275  1
  Co  Co14  1  0.374911  0.000000  0.374911  1
  Co  Co15  1  0.625089  0.000000  0.625089  1
  Co  Co16  1  0.000000  0.000000  0.000000  1
  Sb  Sb17  1  0.000000  0.500000  0.500000  1
