# generated using pymatgen
data_La3PrPdAu3
_symmetry_space_group_name_H-M   'P 1'
_cell_length_a   4.85050600
_cell_length_b   5.96514912
_cell_length_c   7.55900939
_cell_angle_alpha   89.17317289
_cell_angle_beta   90.00000000
_cell_angle_gamma   90.00000000
_symmetry_Int_Tables_number   1
_chemical_formula_structural   La3PrPdAu3
_chemical_formula_sum   'La3 Pr1 Pd1 Au3'
_cell_volume   218.68954140
_cell_formula_units_Z   1
loop_
 _symmetry_equiv_pos_site_id
 _symmetry_equiv_pos_as_xyz
  1  'x, y, z'
loop_
 _atom_site_type_symbol
 _atom_site_label
 _atom_site_symmetry_multiplicity
 _atom_site_fract_x
 _atom_site_fract_y
 _atom_site_fract_z
 _atom_site_occupancy
  La  La0  1  0.250000  0.357847  0.682464  1
  La  La1  1  0.750000  0.647281  0.318138  1
  La  La2  1  0.750000  0.855958  0.810589  1
  Pr  Pr3  1  0.250000  0.142667  0.187170  1
  Pd  Pd4  1  0.250000  0.850347  0.541110  1
  Au  Au5  1  0.250000  0.650757  0.042435  1
  Au  Au6  1  0.750000  0.146434  0.457411  1
  Au  Au7  1  0.750000  0.348707  0.960681  1
