# generated using pymatgen
data_Dy10Si2BiPb5
_symmetry_space_group_name_H-M   'P 1'
_cell_length_a   9.34783280
_cell_length_b   9.34783266
_cell_length_c   6.49728100
_cell_angle_alpha   90.00000000
_cell_angle_beta   90.00000000
_cell_angle_gamma   119.78382737
_symmetry_Int_Tables_number   1
_chemical_formula_structural   Dy10Si2BiPb5
_chemical_formula_sum   'Dy10 Si2 Bi1 Pb5'
_cell_volume   492.74934344
_cell_formula_units_Z   1
loop_
 _symmetry_equiv_pos_site_id
 _symmetry_equiv_pos_as_xyz
  1  'x, y, z'
loop_
 _atom_site_type_symbol
 _atom_site_label
 _atom_site_symmetry_multiplicity
 _atom_site_fract_x
 _atom_site_fract_y
 _atom_site_fract_z
 _atom_site_occupancy
  Dy  Dy0  1  0.667502  0.333484  0.501235  1
  Dy  Dy1  1  0.333484  0.667502  0.501235  1
  Dy  Dy2  1  0.333484  0.667502  0.998765  1
  Dy  Dy3  1  0.667502  0.333484  0.998765  1
  Dy  Dy4  1  0.749951  0.749951  0.250000  1
  Dy  Dy5  1  0.247772  0.998769  0.250000  1
  Dy  Dy6  1  0.998769  0.247772  0.250000  1
  Dy  Dy7  1  0.250370  0.250370  0.750000  1
  Dy  Dy8  1  0.750456  0.999045  0.750000  1
  Dy  Dy9  1  0.999045  0.750456  0.750000  1
  Si  Si10  1  0.000014  0.000014  0.499733  1
  Si  Si11  1  0.000014  0.000014  0.000267  1
  Bi  Bi12  1  0.392242  0.392242  0.250000  1
  Pb  Pb13  1  0.607632  0.000183  0.250000  1
  Pb  Pb14  1  0.000183  0.607632  0.250000  1
  Pb  Pb15  1  0.608520  0.608520  0.750000  1
  Pb  Pb16  1  0.392070  0.000992  0.750000  1
  Pb  Pb17  1  0.000992  0.392070  0.750000  1
