# generated using pymatgen
data_HfZr2N2O3
_symmetry_space_group_name_H-M   'P 1'
_cell_length_a   5.73627555
_cell_length_b   5.73627582
_cell_length_c   10.68924100
_cell_angle_alpha   90.00000000
_cell_angle_beta   90.00000000
_cell_angle_gamma   138.55410003
_symmetry_Int_Tables_number   1
_chemical_formula_structural   HfZr2N2O3
_chemical_formula_sum   'Hf2 Zr4 N4 O6'
_cell_volume   232.81316140
_cell_formula_units_Z   2
loop_
 _symmetry_equiv_pos_site_id
 _symmetry_equiv_pos_as_xyz
  1  'x, y, z'
loop_
 _atom_site_type_symbol
 _atom_site_label
 _atom_site_symmetry_multiplicity
 _atom_site_fract_x
 _atom_site_fract_y
 _atom_site_fract_z
 _atom_site_occupancy
  Hf  Hf0  1  0.812030  0.187970  0.250000  1
  Hf  Hf1  1  0.187970  0.812030  0.750000  1
  Zr  Zr2  1  0.855722  0.144278  0.942353  1
  Zr  Zr3  1  0.855722  0.144278  0.557647  1
  Zr  Zr4  1  0.144278  0.855722  0.057647  1
  Zr  Zr5  1  0.144278  0.855722  0.442353  1
  N  N6  1  0.702625  0.297375  0.418654  1
  N  N7  1  0.702625  0.297375  0.081346  1
  N  N8  1  0.297375  0.702625  0.581346  1
  N  N9  1  0.297375  0.702625  0.918654  1
  O  O10  1  0.744833  0.255167  0.750000  1
  O  O11  1  0.956550  0.043450  0.116911  1
  O  O12  1  0.956550  0.043450  0.383089  1
  O  O13  1  0.255167  0.744833  0.250000  1
  O  O14  1  0.043450  0.956550  0.883089  1
  O  O15  1  0.043450  0.956550  0.616911  1
