# generated using pymatgen
data_Gd3(Cd2Ge)2
_symmetry_space_group_name_H-M   'P 1'
_cell_length_a   7.32737500
_cell_length_b   7.32737484
_cell_length_c   4.46472400
_cell_angle_alpha   90.00000000
_cell_angle_beta   90.00000000
_cell_angle_gamma   119.99999620
_symmetry_Int_Tables_number   1
_chemical_formula_structural   Gd3(Cd2Ge)2
_chemical_formula_sum   'Gd3 Cd4 Ge2'
_cell_volume   207.59748733
_cell_formula_units_Z   1
loop_
 _symmetry_equiv_pos_site_id
 _symmetry_equiv_pos_as_xyz
  1  'x, y, z'
loop_
 _atom_site_type_symbol
 _atom_site_label
 _atom_site_symmetry_multiplicity
 _atom_site_fract_x
 _atom_site_fract_y
 _atom_site_fract_z
 _atom_site_occupancy
  Gd  Gd0  1  0.000000  0.570386  0.000000  1
  Gd  Gd1  1  0.570386  0.000000  0.000000  1
  Gd  Gd2  1  0.429614  0.429614  0.000000  1
  Cd  Cd3  1  0.000000  0.000000  0.000000  1
  Cd  Cd4  1  0.751191  0.751191  0.500000  1
  Cd  Cd5  1  0.248809  0.000000  0.500000  1
  Cd  Cd6  1  0.000000  0.248809  0.500000  1
  Ge  Ge7  1  0.666667  0.333333  0.500000  1
  Ge  Ge8  1  0.333333  0.666667  0.500000  1
