# generated using pymatgen
data_PrSmTe2(RhO6)2
_symmetry_space_group_name_H-M   'P 1'
_cell_length_a   5.28645700
_cell_length_b   5.28648977
_cell_length_c   10.16431300
_cell_angle_alpha   89.99980293
_cell_angle_beta   90.00014261
_cell_angle_gamma   119.99956510
_symmetry_Int_Tables_number   1
_chemical_formula_structural   PrSmTe2(RhO6)2
_chemical_formula_sum   'Pr1 Sm1 Te2 Rh2 O12'
_cell_volume   246.00428122
_cell_formula_units_Z   1
loop_
 _symmetry_equiv_pos_site_id
 _symmetry_equiv_pos_as_xyz
  1  'x, y, z'
loop_
 _atom_site_type_symbol
 _atom_site_label
 _atom_site_symmetry_multiplicity
 _atom_site_fract_x
 _atom_site_fract_y
 _atom_site_fract_z
 _atom_site_occupancy
  Pr  Pr0  1  0.000001  0.999998  0.999999  1
  Sm  Sm1  1  0.000000  0.000002  0.500000  1
  Te  Te2  1  0.666669  0.333337  0.253207  1
  Te  Te3  1  0.333326  0.666655  0.746802  1
  Rh  Rh4  1  0.333339  0.666683  0.252931  1
  Rh  Rh5  1  0.666669  0.333328  0.747073  1
  O  O6  1  0.638520  0.627643  0.144126  1
  O  O7  1  0.989123  0.361484  0.144127  1
  O  O8  1  0.372362  0.010887  0.144125  1
  O  O9  1  0.988164  0.636596  0.360071  1
  O  O10  1  0.363399  0.351572  0.360071  1
  O  O11  1  0.648434  0.011842  0.360074  1
  O  O12  1  0.351568  0.988167  0.639927  1
  O  O13  1  0.011836  0.363402  0.639927  1
  O  O14  1  0.636601  0.648426  0.639928  1
  O  O15  1  0.627635  0.989114  0.855874  1
  O  O16  1  0.010879  0.638514  0.855871  1
  O  O17  1  0.361480  0.372357  0.855871  1
