# generated using pymatgen
data_InPd17Au3Se4
_symmetry_space_group_name_H-M   'P 1'
_cell_length_a   10.55406536
_cell_length_b   10.55406594
_cell_length_c   10.53797141
_cell_angle_alpha   91.54282544
_cell_angle_beta   92.53252550
_cell_angle_gamma   158.27912167
_symmetry_Int_Tables_number   1
_chemical_formula_structural   InPd17Au3Se4
_chemical_formula_sum   'In1 Pd17 Au3 Se4'
_cell_volume   426.58686793
_cell_formula_units_Z   1
loop_
 _symmetry_equiv_pos_site_id
 _symmetry_equiv_pos_as_xyz
  1  'x, y, z'
loop_
 _atom_site_type_symbol
 _atom_site_label
 _atom_site_symmetry_multiplicity
 _atom_site_fract_x
 _atom_site_fract_y
 _atom_site_fract_z
 _atom_site_occupancy
  In  In0  1  0.386495  0.658943  0.045438  1
  Pd  Pd1  1  0.185672  0.251481  0.437154  1
  Pd  Pd2  1  0.813996  0.748834  0.562830  1
  Pd  Pd3  1  0.750925  0.185821  0.936746  1
  Pd  Pd4  1  0.252055  0.814090  0.066145  1
  Pd  Pd5  1  0.227790  0.544488  0.772280  1
  Pd  Pd6  1  0.771061  0.454776  0.225836  1
  Pd  Pd7  1  0.455282  0.228843  0.684125  1
  Pd  Pd8  1  0.544401  0.770544  0.314945  1
  Pd  Pd9  1  0.694330  0.905578  0.599908  1
  Pd  Pd10  1  0.305777  0.095025  0.400802  1
  Pd  Pd11  1  0.094919  0.694762  0.789681  1
  Pd  Pd12  1  0.906778  0.305228  0.212006  1
  Pd  Pd13  1  0.022293  0.136439  0.158732  1
  Pd  Pd14  1  0.977463  0.863642  0.841106  1
  Pd  Pd15  1  0.863940  0.021847  0.885787  1
  Pd  Pd16  1  0.135930  0.977237  0.113168  1
  Pd  Pd17  1  0.500158  0.500025  0.000184  1
  Au  Au18  1  0.338048  0.385597  0.723644  1
  Au  Au19  1  0.662272  0.613836  0.276109  1
  Au  Au20  1  0.614052  0.337758  0.951809  1
  Se  Se21  1  0.075871  0.374934  0.450806  1
  Se  Se22  1  0.923450  0.626268  0.549717  1
  Se  Se23  1  0.624365  0.076521  0.700886  1
  Se  Se24  1  0.372674  0.927483  0.300157  1
