# generated using pymatgen
data_Dy3Ho13CdHg3Rh4
_symmetry_space_group_name_H-M   'P 1'
_cell_length_a   9.57120422
_cell_length_b   9.56992853
_cell_length_c   9.58103500
_cell_angle_alpha   59.96159811
_cell_angle_beta   59.96601385
_cell_angle_gamma   59.93024247
_symmetry_Int_Tables_number   1
_chemical_formula_structural   Dy3Ho13CdHg3Rh4
_chemical_formula_sum   'Dy3 Ho13 Cd1 Hg3 Rh4'
_cell_volume   619.87720763
_cell_formula_units_Z   1
loop_
 _symmetry_equiv_pos_site_id
 _symmetry_equiv_pos_as_xyz
  1  'x, y, z'
loop_
 _atom_site_type_symbol
 _atom_site_label
 _atom_site_symmetry_multiplicity
 _atom_site_fract_x
 _atom_site_fract_y
 _atom_site_fract_z
 _atom_site_occupancy
  Dy  Dy0  1  0.936101  0.936902  0.563499  1
  Dy  Dy1  1  0.562932  0.564367  0.936351  1
  Dy  Dy2  1  0.689342  0.689490  0.310585  1
  Ho  Ho3  1  0.147673  0.555459  0.148434  1
  Ho  Ho4  1  0.689035  0.312165  0.688194  1
  Ho  Ho5  1  0.149501  0.148693  0.150424  1
  Ho  Ho6  1  0.552328  0.148063  0.149804  1
  Ho  Ho7  1  0.689035  0.312165  0.310605  1
  Ho  Ho8  1  0.149501  0.148693  0.551383  1
  Ho  Ho9  1  0.310881  0.689875  0.310326  1
  Ho  Ho10  1  0.310881  0.689875  0.688918  1
  Ho  Ho11  1  0.936921  0.563508  0.563120  1
  Ho  Ho12  1  0.936921  0.563508  0.936451  1
  Ho  Ho13  1  0.562547  0.937497  0.563670  1
  Ho  Ho14  1  0.562547  0.937497  0.936285  1
  Ho  Ho15  1  0.311010  0.311987  0.688501  1
  Cd  Cd16  1  0.920025  0.240936  0.919520  1
  Hg  Hg17  1  0.914570  0.916419  0.254271  1
  Hg  Hg18  1  0.255103  0.916557  0.914170  1
  Hg  Hg19  1  0.914570  0.916419  0.914739  1
  Rh  Rh20  1  0.356617  0.357301  0.928436  1
  Rh  Rh21  1  0.356428  0.928612  0.357479  1
  Rh  Rh22  1  0.928908  0.356716  0.357187  1
  Rh  Rh23  1  0.356617  0.357301  0.357645  1
