# generated using pymatgen
data_K5Sb2Au
_symmetry_space_group_name_H-M   'P 1'
_cell_length_a   6.03778500
_cell_length_b   6.03778422
_cell_length_c   20.72763900
_cell_angle_alpha   90.00000000
_cell_angle_beta   90.00000000
_cell_angle_gamma   120.00000977
_symmetry_Int_Tables_number   1
_chemical_formula_structural   K5Sb2Au
_chemical_formula_sum   'K10 Sb4 Au2'
_cell_volume   654.38849780
_cell_formula_units_Z   2
loop_
 _symmetry_equiv_pos_site_id
 _symmetry_equiv_pos_as_xyz
  1  'x, y, z'
loop_
 _atom_site_type_symbol
 _atom_site_label
 _atom_site_symmetry_multiplicity
 _atom_site_fract_x
 _atom_site_fract_y
 _atom_site_fract_z
 _atom_site_occupancy
  K  K0  1  0.333333  0.666667  0.549563  1
  K  K1  1  0.666667  0.333333  0.049563  1
  K  K2  1  0.666667  0.333333  0.450437  1
  K  K3  1  0.333333  0.666667  0.950437  1
  K  K4  1  0.000000  0.000000  0.145459  1
  K  K5  1  0.000000  0.000000  0.645459  1
  K  K6  1  0.000000  0.000000  0.854541  1
  K  K7  1  0.000000  0.000000  0.354541  1
  K  K8  1  0.333333  0.666667  0.750000  1
  K  K9  1  0.666667  0.333333  0.250000  1
  Sb  Sb10  1  0.333333  0.666667  0.120529  1
  Sb  Sb11  1  0.666667  0.333333  0.620529  1
  Sb  Sb12  1  0.333333  0.666667  0.379471  1
  Sb  Sb13  1  0.666667  0.333333  0.879471  1
  Au  Au14  1  0.666667  0.333333  0.750000  1
  Au  Au15  1  0.333333  0.666667  0.250000  1
