# generated using pymatgen
data_Ce2YAl3NiRu2
_symmetry_space_group_name_H-M   'P 1'
_cell_length_a   7.07761810
_cell_length_b   6.80098309
_cell_length_c   4.01852200
_cell_angle_alpha   90.00000000
_cell_angle_beta   90.00000000
_cell_angle_gamma   118.71525965
_symmetry_Int_Tables_number   1
_chemical_formula_structural   Ce2YAl3NiRu2
_chemical_formula_sum   'Ce2 Y1 Al3 Ni1 Ru2'
_cell_volume   169.64215976
_cell_formula_units_Z   1
loop_
 _symmetry_equiv_pos_site_id
 _symmetry_equiv_pos_as_xyz
  1  'x, y, z'
loop_
 _atom_site_type_symbol
 _atom_site_label
 _atom_site_symmetry_multiplicity
 _atom_site_fract_x
 _atom_site_fract_y
 _atom_site_fract_z
 _atom_site_occupancy
  Ce  Ce0  1  0.580605  0.003837  0.500000  1
  Ce  Ce1  1  0.419395  0.423233  0.500000  1
  Y  Y2  1  0.000000  0.585325  0.500000  1
  Al  Al3  1  0.222862  0.992390  0.000000  1
  Al  Al4  1  0.777138  0.769528  0.000000  1
  Al  Al5  1  0.000000  0.242494  0.000000  1
  Ni  Ni6  1  0.000000  0.006440  0.500000  1
  Ru  Ru7  1  0.361276  0.669015  0.000000  1
  Ru  Ru8  1  0.638724  0.307738  0.000000  1
