# generated using pymatgen
data_Tb5Ho7GaNi2HgRu2
_symmetry_space_group_name_H-M   'P 1'
_cell_length_a   8.33668829
_cell_length_b   8.33652362
_cell_length_c   8.34336200
_cell_angle_alpha   113.01095901
_cell_angle_beta   110.17454350
_cell_angle_gamma   105.28145819
_symmetry_Int_Tables_number   1
_chemical_formula_structural   Tb5Ho7GaNi2HgRu2
_chemical_formula_sum   'Tb5 Ho7 Ga1 Ni2 Hg1 Ru2'
_cell_volume   444.53367966
_cell_formula_units_Z   1
loop_
 _symmetry_equiv_pos_site_id
 _symmetry_equiv_pos_as_xyz
  1  'x, y, z'
loop_
 _atom_site_type_symbol
 _atom_site_label
 _atom_site_symmetry_multiplicity
 _atom_site_fract_x
 _atom_site_fract_y
 _atom_site_fract_z
 _atom_site_occupancy
  Tb  Tb0  1  0.435887  0.241897  0.193479  1
  Tb  Tb1  1  0.564937  0.758447  0.807291  1
  Tb  Tb2  1  0.048810  0.242449  0.807377  1
  Tb  Tb3  1  0.951646  0.757511  0.193425  1
  Tb  Tb4  1  0.178869  0.278502  0.457405  1
  Ho  Ho5  1  0.820963  0.721733  0.542593  1
  Ho  Ho6  1  0.178898  0.721879  0.900618  1
  Ho  Ho7  1  0.820478  0.278133  0.098733  1
  Ho  Ho8  1  0.329648  0.642674  0.313271  1
  Ho  Ho9  1  0.671434  0.357825  0.687446  1
  Ho  Ho10  1  0.329636  0.015991  0.687408  1
  Ho  Ho11  1  0.670582  0.983626  0.313283  1
  Ga  Ga12  1  0.999388  0.999013  0.998403  1
  Ni  Ni13  1  0.115934  0.617535  0.499700  1
  Ni  Ni14  1  0.882094  0.383787  0.499724  1
  Hg  Hg15  1  0.500377  0.499841  0.000270  1
  Ru  Ru16  1  0.329975  0.999315  0.329254  1
  Ru  Ru17  1  0.670443  0.999845  0.670323  1
