# generated using pymatgen
data_HoLu15In3HgIr4
_symmetry_space_group_name_H-M   'P 1'
_cell_length_a   9.46860566
_cell_length_b   9.46584208
_cell_length_c   9.46860614
_cell_angle_alpha   59.94350486
_cell_angle_beta   59.92085992
_cell_angle_gamma   59.94350632
_symmetry_Int_Tables_number   1
_chemical_formula_structural   HoLu15In3HgIr4
_chemical_formula_sum   'Ho1 Lu15 In3 Hg1 Ir4'
_cell_volume   599.21817781
_cell_formula_units_Z   1
loop_
 _symmetry_equiv_pos_site_id
 _symmetry_equiv_pos_as_xyz
  1  'x, y, z'
loop_
 _atom_site_type_symbol
 _atom_site_label
 _atom_site_symmetry_multiplicity
 _atom_site_fract_x
 _atom_site_fract_y
 _atom_site_fract_z
 _atom_site_occupancy
  Ho  Ho0  1  0.438329  0.063991  0.438329  1
  Lu  Lu1  1  0.438906  0.439485  0.062713  1
  Lu  Lu2  1  0.649393  0.649085  0.049968  1
  Lu  Lu3  1  0.191314  0.810443  0.191314  1
  Lu  Lu4  1  0.060414  0.439757  0.060414  1
  Lu  Lu5  1  0.191967  0.807944  0.808839  1
  Lu  Lu6  1  0.062713  0.439485  0.438906  1
  Lu  Lu7  1  0.811057  0.191400  0.191035  1
  Lu  Lu8  1  0.651396  0.651106  0.651396  1
  Lu  Lu9  1  0.808385  0.192121  0.808385  1
  Lu  Lu10  1  0.191035  0.191400  0.811057  1
  Lu  Lu11  1  0.049968  0.649085  0.649393  1
  Lu  Lu12  1  0.439847  0.060327  0.059645  1
  Lu  Lu13  1  0.059645  0.060327  0.439847  1
  Lu  Lu14  1  0.649323  0.049962  0.649323  1
  Lu  Lu15  1  0.808839  0.807944  0.191967  1
  In  In16  1  0.416363  0.416314  0.749967  1
  In  In17  1  0.416590  0.748603  0.416590  1
  In  In18  1  0.749967  0.416314  0.416363  1
  Hg  Hg19  1  0.413197  0.414156  0.413197  1
  Ir  Ir20  1  0.423060  0.859242  0.860151  1
  Ir  Ir21  1  0.858755  0.858822  0.858755  1
  Ir  Ir22  1  0.859387  0.423446  0.859387  1
  Ir  Ir23  1  0.860151  0.859242  0.423060  1
