# generated using pymatgen
data_LiLaFeH6
_symmetry_space_group_name_H-M   'P 1'
_cell_length_a   4.92521895
_cell_length_b   4.92521858
_cell_length_c   4.92521900
_cell_angle_alpha   60.00000388
_cell_angle_beta   60.00000636
_cell_angle_gamma   59.99999400
_symmetry_Int_Tables_number   1
_chemical_formula_structural   LiLaFeH6
_chemical_formula_sum   'Li1 La1 Fe1 H6'
_cell_volume   84.48149928
_cell_formula_units_Z   1
loop_
 _symmetry_equiv_pos_site_id
 _symmetry_equiv_pos_as_xyz
  1  'x, y, z'
loop_
 _atom_site_type_symbol
 _atom_site_label
 _atom_site_symmetry_multiplicity
 _atom_site_fract_x
 _atom_site_fract_y
 _atom_site_fract_z
 _atom_site_occupancy
  Li  Li0  1  0.750000  0.750000  0.750000  1
  La  La1  1  0.250000  0.250000  0.250000  1
  Fe  Fe2  1  0.000000  0.000000  0.000000  1
  H  H3  1  0.771186  0.771186  0.228814  1
  H  H4  1  0.228814  0.771186  0.228814  1
  H  H5  1  0.771186  0.228814  0.228814  1
  H  H6  1  0.228814  0.228814  0.771186  1
  H  H7  1  0.771186  0.228814  0.771186  1
  H  H8  1  0.228814  0.771186  0.771186  1
