# generated using pymatgen
data_Dy16Cd4Ir3Os
_symmetry_space_group_name_H-M   'P 1'
_cell_length_a   9.69167680
_cell_length_b   9.69167668
_cell_length_c   9.69167635
_cell_angle_alpha   59.48197358
_cell_angle_beta   59.48197420
_cell_angle_gamma   59.48197492
_symmetry_Int_Tables_number   1
_chemical_formula_structural   Dy16Cd4Ir3Os
_chemical_formula_sum   'Dy16 Cd4 Ir3 Os1'
_cell_volume   636.11296720
_cell_formula_units_Z   1
loop_
 _symmetry_equiv_pos_site_id
 _symmetry_equiv_pos_as_xyz
  1  'x, y, z'
loop_
 _atom_site_type_symbol
 _atom_site_label
 _atom_site_symmetry_multiplicity
 _atom_site_fract_x
 _atom_site_fract_y
 _atom_site_fract_z
 _atom_site_occupancy
  Dy  Dy0  1  0.599556  0.599556  0.599556  1
  Dy  Dy1  1  0.598815  0.598815  0.206531  1
  Dy  Dy2  1  0.598815  0.206531  0.598815  1
  Dy  Dy3  1  0.206531  0.598815  0.598815  1
  Dy  Dy4  1  0.061437  0.439137  0.439137  1
  Dy  Dy5  1  0.437648  0.059208  0.059208  1
  Dy  Dy6  1  0.439137  0.061437  0.439137  1
  Dy  Dy7  1  0.059208  0.437648  0.059208  1
  Dy  Dy8  1  0.439137  0.439137  0.061437  1
  Dy  Dy9  1  0.059208  0.059208  0.437648  1
  Dy  Dy10  1  0.188728  0.811422  0.811422  1
  Dy  Dy11  1  0.806496  0.189481  0.189481  1
  Dy  Dy12  1  0.811422  0.188728  0.811422  1
  Dy  Dy13  1  0.189481  0.806496  0.189481  1
  Dy  Dy14  1  0.811422  0.811422  0.188728  1
  Dy  Dy15  1  0.189481  0.189481  0.806496  1
  Cd  Cd16  1  0.830044  0.830044  0.830044  1
  Cd  Cd17  1  0.830615  0.830615  0.506082  1
  Cd  Cd18  1  0.830615  0.506082  0.830615  1
  Cd  Cd19  1  0.506082  0.830615  0.830615  1
  Ir  Ir20  1  0.393608  0.393608  0.827284  1
  Ir  Ir21  1  0.393608  0.827284  0.393608  1
  Ir  Ir22  1  0.827284  0.393608  0.393608  1
  Os  Os23  1  0.391624  0.391624  0.391624  1
