# generated using pymatgen
data_Rb3Cu(PAu)2
_symmetry_space_group_name_H-M   'P 1'
_cell_length_a   7.73284988
_cell_length_b   7.73284876
_cell_length_c   7.47204593
_cell_angle_alpha   48.07782660
_cell_angle_beta   48.07784381
_cell_angle_gamma   50.28188441
_symmetry_Int_Tables_number   1
_chemical_formula_structural   Rb3Cu(PAu)2
_chemical_formula_sum   'Rb3 Cu1 P2 Au2'
_cell_volume   231.90237351
_cell_formula_units_Z   1
loop_
 _symmetry_equiv_pos_site_id
 _symmetry_equiv_pos_as_xyz
  1  'x, y, z'
loop_
 _atom_site_type_symbol
 _atom_site_label
 _atom_site_symmetry_multiplicity
 _atom_site_fract_x
 _atom_site_fract_y
 _atom_site_fract_z
 _atom_site_occupancy
  Rb  Rb0  1  0.913450  0.913450  0.901756  1
  Rb  Rb1  1  0.500000  0.500000  0.500000  1
  Rb  Rb2  1  0.086550  0.086550  0.098244  1
  Cu  Cu3  1  0.500000  0.500000  0.000000  1
  P  P4  1  0.271121  0.271121  0.233899  1
  P  P5  1  0.728879  0.728879  0.766101  1
  Au  Au6  1  0.000000  0.500000  0.500000  1
  Au  Au7  1  0.500000  0.000000  0.500000  1
