# generated using pymatgen
data_Ba5Re3TeO15
_symmetry_space_group_name_H-M   'P 1'
_cell_length_a   10.94894200
_cell_length_b   10.94894207
_cell_length_c   7.79281300
_cell_angle_alpha   90.00000000
_cell_angle_beta   90.00000000
_cell_angle_gamma   119.99999978
_symmetry_Int_Tables_number   1
_chemical_formula_structural   Ba5Re3TeO15
_chemical_formula_sum   'Ba10 Re6 Te2 O30'
_cell_volume   809.03852176
_cell_formula_units_Z   2
loop_
 _symmetry_equiv_pos_site_id
 _symmetry_equiv_pos_as_xyz
  1  'x, y, z'
loop_
 _atom_site_type_symbol
 _atom_site_label
 _atom_site_symmetry_multiplicity
 _atom_site_fract_x
 _atom_site_fract_y
 _atom_site_fract_z
 _atom_site_occupancy
  Ba  Ba0  1  0.272604  0.272604  0.770948  1
  Ba  Ba1  1  0.000000  0.727396  0.770948  1
  Ba  Ba2  1  0.727396  0.727396  0.270948  1
  Ba  Ba3  1  0.000000  0.272604  0.270948  1
  Ba  Ba4  1  0.727396  0.000000  0.770948  1
  Ba  Ba5  1  0.272604  0.000000  0.270948  1
  Ba  Ba6  1  0.666667  0.333333  0.530936  1
  Ba  Ba7  1  0.333333  0.666667  0.030936  1
  Ba  Ba8  1  0.666667  0.333333  0.030936  1
  Ba  Ba9  1  0.333333  0.666667  0.530936  1
  Re  Re10  1  0.609045  0.609045  0.824684  1
  Re  Re11  1  0.000000  0.390955  0.824684  1
  Re  Re12  1  0.390955  0.390955  0.324684  1
  Re  Re13  1  0.000000  0.609045  0.324684  1
  Re  Re14  1  0.390955  0.000000  0.824684  1
  Re  Re15  1  0.609045  0.000000  0.324684  1
  Te  Te16  1  0.000000  0.000000  0.005607  1
  Te  Te17  1  0.000000  0.000000  0.505607  1
  O  O18  1  0.703537  0.703537  0.642623  1
  O  O19  1  0.000000  0.296463  0.642623  1
  O  O20  1  0.296463  0.296463  0.142623  1
  O  O21  1  0.000000  0.703537  0.142623  1
  O  O22  1  0.296463  0.000000  0.642623  1
  O  O23  1  0.703537  0.000000  0.142623  1
  O  O24  1  0.867401  0.446988  0.784348  1
  O  O25  1  0.579588  0.132599  0.784348  1
  O  O26  1  0.132599  0.553012  0.284348  1
  O  O27  1  0.579588  0.446988  0.284348  1
  O  O28  1  0.553012  0.420412  0.784348  1
  O  O29  1  0.420412  0.867401  0.284348  1
  O  O30  1  0.553012  0.132599  0.284348  1
  O  O31  1  0.420412  0.553012  0.784348  1
  O  O32  1  0.446988  0.579588  0.284348  1
  O  O33  1  0.446988  0.867401  0.784348  1
  O  O34  1  0.867401  0.420412  0.284348  1
  O  O35  1  0.132599  0.579588  0.784348  1
  O  O36  1  0.866247  0.255928  0.967078  1
  O  O37  1  0.389681  0.133753  0.967078  1
  O  O38  1  0.133753  0.744072  0.467078  1
  O  O39  1  0.389681  0.255928  0.467078  1
  O  O40  1  0.744072  0.610319  0.967078  1
  O  O41  1  0.610319  0.866247  0.467078  1
  O  O42  1  0.744072  0.133753  0.467078  1
  O  O43  1  0.610319  0.744072  0.967078  1
  O  O44  1  0.255928  0.389681  0.467078  1
  O  O45  1  0.255928  0.866247  0.967078  1
  O  O46  1  0.866247  0.610319  0.467078  1
  O  O47  1  0.133753  0.389681  0.967078  1
