# generated using pymatgen
data_Nd6Al24Os5Pt3
_symmetry_space_group_name_H-M   'P 1'
_cell_length_a   8.92367318
_cell_length_b   8.94051714
_cell_length_c   9.66990225
_cell_angle_alpha   90.10683407
_cell_angle_beta   89.92377789
_cell_angle_gamma   120.02046997
_symmetry_Int_Tables_number   1
_chemical_formula_structural   Nd6Al24Os5Pt3
_chemical_formula_sum   'Nd6 Al24 Os5 Pt3'
_cell_volume   667.98789535
_cell_formula_units_Z   1
loop_
 _symmetry_equiv_pos_site_id
 _symmetry_equiv_pos_as_xyz
  1  'x, y, z'
loop_
 _atom_site_type_symbol
 _atom_site_label
 _atom_site_symmetry_multiplicity
 _atom_site_fract_x
 _atom_site_fract_y
 _atom_site_fract_z
 _atom_site_occupancy
  Nd  Nd0  1  0.194830  0.382237  0.251464  1
  Nd  Nd1  1  0.805170  0.617763  0.748536  1
  Nd  Nd2  1  0.617472  0.806993  0.250265  1
  Nd  Nd3  1  0.382528  0.193007  0.749735  1
  Nd  Nd4  1  0.192347  0.811783  0.250139  1
  Nd  Nd5  1  0.807653  0.188217  0.749861  1
  Al  Al6  1  0.335845  0.664183  0.021963  1
  Al  Al7  1  0.664155  0.335817  0.978037  1
  Al  Al8  1  0.661752  0.330840  0.520889  1
  Al  Al9  1  0.338248  0.669160  0.479111  1
  Al  Al10  1  0.168114  0.326477  0.575006  1
  Al  Al11  1  0.831886  0.673523  0.424994  1
  Al  Al12  1  0.671141  0.835549  0.574147  1
  Al  Al13  1  0.832140  0.674159  0.075180  1
  Al  Al14  1  0.328859  0.164451  0.425853  1
  Al  Al15  1  0.167860  0.325841  0.924820  1
  Al  Al16  1  0.167572  0.842382  0.575078  1
  Al  Al17  1  0.326815  0.168482  0.076549  1
  Al  Al18  1  0.832428  0.157618  0.424922  1
  Al  Al19  1  0.673185  0.831518  0.923451  1
  Al  Al20  1  0.838582  0.162307  0.078086  1
  Al  Al21  1  0.161418  0.837693  0.921914  1
  Al  Al22  1  0.563276  0.126587  0.252969  1
  Al  Al23  1  0.436724  0.873413  0.747031  1
  Al  Al24  1  0.872201  0.436484  0.249677  1
  Al  Al25  1  0.127799  0.563516  0.750323  1
  Al  Al26  1  0.562362  0.438114  0.249572  1
  Al  Al27  1  0.437638  0.561886  0.750428  1
  Al  Al28  1  0.002828  0.000984  0.250160  1
  Al  Al29  1  0.997172  0.999016  0.749840  1
  Os  Os30  1  0.500000  0.000000  0.500000  1
  Os  Os31  1  0.500000  0.500000  0.000000  1
  Os  Os32  1  0.500000  0.500000  0.500000  1
  Os  Os33  1  0.000000  0.000000  0.000000  1
  Os  Os34  1  0.000000  0.000000  0.500000  1
  Pt  Pt35  1  0.500000  0.000000  0.000000  1
  Pt  Pt36  1  0.000000  0.500000  0.000000  1
  Pt  Pt37  1  0.000000  0.500000  0.500000  1
