# generated using pymatgen
data_Er2AlB2Ru3Rh2
_symmetry_space_group_name_H-M   'P 1'
_cell_length_a   9.55314900
_cell_length_b   9.55314900
_cell_length_c   3.08801000
_cell_angle_alpha   90.00000000
_cell_angle_beta   90.00000000
_cell_angle_gamma   90.00000000
_symmetry_Int_Tables_number   1
_chemical_formula_structural   Er2AlB2Ru3Rh2
_chemical_formula_sum   'Er4 Al2 B4 Ru6 Rh4'
_cell_volume   281.81999379
_cell_formula_units_Z   2
loop_
 _symmetry_equiv_pos_site_id
 _symmetry_equiv_pos_as_xyz
  1  'x, y, z'
loop_
 _atom_site_type_symbol
 _atom_site_label
 _atom_site_symmetry_multiplicity
 _atom_site_fract_x
 _atom_site_fract_y
 _atom_site_fract_z
 _atom_site_occupancy
  Er  Er0  1  0.826040  0.322854  0.000000  1
  Er  Er1  1  0.322854  0.173960  0.000000  1
  Er  Er2  1  0.677146  0.826040  0.000000  1
  Er  Er3  1  0.173960  0.677146  0.000000  1
  Al  Al4  1  0.000000  0.000000  0.000000  1
  Al  Al5  1  0.500000  0.500000  0.000000  1
  B  B6  1  0.626264  0.116846  0.000000  1
  B  B7  1  0.116846  0.373736  0.000000  1
  B  B8  1  0.883154  0.626264  0.000000  1
  B  B9  1  0.373736  0.883154  0.000000  1
  Ru  Ru10  1  0.069412  0.217242  0.500000  1
  Ru  Ru11  1  0.217242  0.930588  0.500000  1
  Ru  Ru12  1  0.782758  0.069412  0.500000  1
  Ru  Ru13  1  0.930588  0.782758  0.500000  1
  Ru  Ru14  1  0.500000  0.000000  0.500000  1
  Ru  Ru15  1  0.000000  0.500000  0.500000  1
  Rh  Rh16  1  0.431384  0.716121  0.500000  1
  Rh  Rh17  1  0.568616  0.283879  0.500000  1
  Rh  Rh18  1  0.716121  0.568616  0.500000  1
  Rh  Rh19  1  0.283879  0.431384  0.500000  1
