# generated using pymatgen
data_Dy2ErMoO7
_symmetry_space_group_name_H-M   'P 1'
_cell_length_a   6.45489442
_cell_length_b   6.45489490
_cell_length_c   7.45308028
_cell_angle_alpha   89.97818987
_cell_angle_beta   89.97819122
_cell_angle_gamma   108.79553882
_symmetry_Int_Tables_number   1
_chemical_formula_structural   Dy2ErMoO7
_chemical_formula_sum   'Dy4 Er2 Mo2 O14'
_cell_volume   293.97786738
_cell_formula_units_Z   2
loop_
 _symmetry_equiv_pos_site_id
 _symmetry_equiv_pos_as_xyz
  1  'x, y, z'
loop_
 _atom_site_type_symbol
 _atom_site_label
 _atom_site_symmetry_multiplicity
 _atom_site_fract_x
 _atom_site_fract_y
 _atom_site_fract_z
 _atom_site_occupancy
  Dy  Dy0  1  0.469876  0.468780  0.000875  1
  Dy  Dy1  1  0.531220  0.530124  0.499125  1
  Dy  Dy2  1  0.999167  0.465173  0.745981  1
  Dy  Dy3  1  0.534827  0.000833  0.754019  1
  Er  Er4  1  0.001377  0.536222  0.241387  1
  Er  Er5  1  0.463778  0.998623  0.258613  1
  Mo  Mo6  1  0.000899  0.001345  0.498902  1
  Mo  Mo7  1  0.998655  0.999101  0.001098  1
  O  O8  1  0.925068  0.074932  0.750000  1
  O  O9  1  0.636493  0.363507  0.750000  1
  O  O10  1  0.316104  0.062105  0.534968  1
  O  O11  1  0.937895  0.683896  0.965032  1
  O  O12  1  0.632768  0.367232  0.250000  1
  O  O13  1  0.918068  0.674192  0.525347  1
  O  O14  1  0.325808  0.081932  0.974653  1
  O  O15  1  0.084907  0.330766  0.026379  1
  O  O16  1  0.669234  0.915093  0.473621  1
  O  O17  1  0.368933  0.631067  0.750000  1
  O  O18  1  0.691640  0.944887  0.042234  1
  O  O19  1  0.055113  0.308360  0.457766  1
  O  O20  1  0.361374  0.638626  0.250000  1
  O  O21  1  0.076797  0.923203  0.250000  1
