# generated using pymatgen
data_Rb8HfZr(PaTe6)2
_symmetry_space_group_name_H-M   'P 1'
_cell_length_a   14.80791824
_cell_length_b   7.18320920
_cell_length_c   9.98867642
_cell_angle_alpha   71.88662626
_cell_angle_beta   90.00835947
_cell_angle_gamma   90.02061918
_symmetry_Int_Tables_number   1
_chemical_formula_structural   Rb8HfZr(PaTe6)2
_chemical_formula_sum   'Rb8 Hf1 Zr1 Pa2 Te12'
_cell_volume   1009.82612418
_cell_formula_units_Z   1
loop_
 _symmetry_equiv_pos_site_id
 _symmetry_equiv_pos_as_xyz
  1  'x, y, z'
loop_
 _atom_site_type_symbol
 _atom_site_label
 _atom_site_symmetry_multiplicity
 _atom_site_fract_x
 _atom_site_fract_y
 _atom_site_fract_z
 _atom_site_occupancy
  Rb  Rb0  1  0.956309  0.675643  0.650746  1
  Rb  Rb1  1  0.456124  0.824411  0.349447  1
  Rb  Rb2  1  0.044128  0.324010  0.349813  1
  Rb  Rb3  1  0.544031  0.176097  0.650286  1
  Rb  Rb4  1  0.866427  0.082815  0.904936  1
  Rb  Rb5  1  0.366252  0.417200  0.095066  1
  Rb  Rb6  1  0.133483  0.922755  0.096074  1
  Rb  Rb7  1  0.633323  0.577158  0.903932  1
  Hf  Hf8  1  0.250169  0.343073  0.703854  1
  Zr  Zr9  1  0.750140  0.156900  0.296211  1
  Pa  Pa10  1  0.750029  0.656333  0.297434  1
  Pa  Pa11  1  0.250019  0.843621  0.702598  1
  Te  Te12  1  0.913209  0.922109  0.278407  1
  Te  Te13  1  0.412153  0.574643  0.721214  1
  Te  Te14  1  0.087792  0.097804  0.722085  1
  Te  Te15  1  0.586809  0.405695  0.277547  1
  Te  Te16  1  0.816298  0.298469  0.527156  1
  Te  Te17  1  0.316071  0.204332  0.474354  1
  Te  Te18  1  0.183800  0.680738  0.474323  1
  Te  Te19  1  0.683601  0.815079  0.527244  1
  Te  Te20  1  0.846033  0.491701  0.086571  1
  Te  Te21  1  0.345333  0.012527  0.912042  1
  Te  Te22  1  0.154581  0.492219  0.911224  1
  Te  Te23  1  0.653883  0.004668  0.087435  1
