# generated using pymatgen
data_Y3Tm4Lu5Ru4
_symmetry_space_group_name_H-M   'P 1'
_cell_length_a   6.21757555
_cell_length_b   7.31671224
_cell_length_c   8.97654079
_cell_angle_alpha   90.00125139
_cell_angle_beta   90.04825397
_cell_angle_gamma   89.94109409
_symmetry_Int_Tables_number   1
_chemical_formula_structural   Y3Tm4Lu5Ru4
_chemical_formula_sum   'Y3 Tm4 Lu5 Ru4'
_cell_volume   408.36232841
_cell_formula_units_Z   1
loop_
 _symmetry_equiv_pos_site_id
 _symmetry_equiv_pos_as_xyz
  1  'x, y, z'
loop_
 _atom_site_type_symbol
 _atom_site_label
 _atom_site_symmetry_multiplicity
 _atom_site_fract_x
 _atom_site_fract_y
 _atom_site_fract_z
 _atom_site_occupancy
  Y  Y0  1  0.870919  0.540389  0.249872  1
  Y  Y1  1  0.630022  0.040767  0.249746  1
  Y  Y2  1  0.129476  0.459900  0.750181  1
  Tm  Tm3  1  0.335135  0.676537  0.063356  1
  Tm  Tm4  1  0.165947  0.174004  0.436832  1
  Tm  Tm5  1  0.664429  0.323767  0.564598  1
  Tm  Tm6  1  0.369353  0.958447  0.750140  1
  Lu  Lu7  1  0.833270  0.825274  0.935229  1
  Lu  Lu8  1  0.664605  0.323643  0.935541  1
  Lu  Lu9  1  0.833070  0.825032  0.564822  1
  Lu  Lu10  1  0.335054  0.676549  0.436607  1
  Lu  Lu11  1  0.165992  0.173816  0.062958  1
  Ru  Ru12  1  0.045046  0.884894  0.250059  1
  Ru  Ru13  1  0.454597  0.384959  0.249683  1
  Ru  Ru14  1  0.960124  0.113930  0.750509  1
  Ru  Ru15  1  0.542961  0.618091  0.749868  1
