# generated using pymatgen
data_DySb3Pb4O13
_symmetry_space_group_name_H-M   'P 1'
_cell_length_a   7.68955409
_cell_length_b   7.68955304
_cell_length_c   7.68955384
_cell_angle_alpha   59.58690288
_cell_angle_beta   59.58691086
_cell_angle_gamma   59.58690448
_symmetry_Int_Tables_number   1
_chemical_formula_structural   DySb3Pb4O13
_chemical_formula_sum   'Dy1 Sb3 Pb4 O13'
_cell_volume   318.48658970
_cell_formula_units_Z   1
loop_
 _symmetry_equiv_pos_site_id
 _symmetry_equiv_pos_as_xyz
  1  'x, y, z'
loop_
 _atom_site_type_symbol
 _atom_site_label
 _atom_site_symmetry_multiplicity
 _atom_site_fract_x
 _atom_site_fract_y
 _atom_site_fract_z
 _atom_site_occupancy
  Dy  Dy0  1  0.499995  0.499995  0.499995  1
  Sb  Sb1  1  0.001107  0.499888  0.499888  1
  Sb  Sb2  1  0.499888  0.499888  0.001107  1
  Sb  Sb3  1  0.499888  0.001107  0.499888  1
  Pb  Pb4  1  0.999057  0.999057  0.999057  1
  Pb  Pb5  1  0.498344  0.001958  0.001958  1
  Pb  Pb6  1  0.001958  0.001958  0.498344  1
  Pb  Pb7  1  0.001958  0.498344  0.001958  1
  O  O8  1  0.855356  0.416670  0.416670  1
  O  O9  1  0.419056  0.815463  0.815463  1
  O  O10  1  0.416670  0.416670  0.855356  1
  O  O11  1  0.815463  0.815463  0.419056  1
  O  O12  1  0.815463  0.419056  0.815463  1
  O  O13  1  0.416670  0.855356  0.416670  1
  O  O14  1  0.149795  0.580193  0.580193  1
  O  O15  1  0.581049  0.185589  0.185589  1
  O  O16  1  0.580193  0.580193  0.149795  1
  O  O17  1  0.185589  0.185589  0.581049  1
  O  O18  1  0.185589  0.581049  0.185589  1
  O  O19  1  0.580193  0.149795  0.580193  1
  O  O20  1  0.121719  0.121719  0.121719  1
