# generated using pymatgen
data_Yb6Mo2HN6
_symmetry_space_group_name_H-M   'P 1'
_cell_length_a   6.11481352
_cell_length_b   6.11481158
_cell_length_c   6.11481349
_cell_angle_alpha   95.77776666
_cell_angle_beta   95.77776691
_cell_angle_gamma   95.77776023
_symmetry_Int_Tables_number   1
_chemical_formula_structural   Yb6Mo2HN6
_chemical_formula_sum   'Yb6 Mo2 H1 N6'
_cell_volume   224.89902807
_cell_formula_units_Z   1
loop_
 _symmetry_equiv_pos_site_id
 _symmetry_equiv_pos_as_xyz
  1  'x, y, z'
loop_
 _atom_site_type_symbol
 _atom_site_label
 _atom_site_symmetry_multiplicity
 _atom_site_fract_x
 _atom_site_fract_y
 _atom_site_fract_z
 _atom_site_occupancy
  Yb  Yb0  1  0.629499  0.120408  0.787869  1
  Yb  Yb1  1  0.120408  0.787869  0.629499  1
  Yb  Yb2  1  0.787869  0.629499  0.120408  1
  Yb  Yb3  1  0.370501  0.879592  0.212131  1
  Yb  Yb4  1  0.879592  0.212131  0.370501  1
  Yb  Yb5  1  0.212131  0.370501  0.879592  1
  Mo  Mo6  1  0.630342  0.630342  0.630342  1
  Mo  Mo7  1  0.369658  0.369658  0.369658  1
  H  H8  1  0.000000  0.000000  0.000000  1
  N  N9  1  0.737668  0.864413  0.467749  1
  N  N10  1  0.864413  0.467749  0.737668  1
  N  N11  1  0.467749  0.737668  0.864413  1
  N  N12  1  0.262332  0.135587  0.532251  1
  N  N13  1  0.135587  0.532251  0.262332  1
  N  N14  1  0.532251  0.262332  0.135587  1
