# generated using pymatgen
data_Tb4Y12CdHg3Ir4
_symmetry_space_group_name_H-M   'P 1'
_cell_length_a   9.64875545
_cell_length_b   9.65212506
_cell_length_c   9.65212500
_cell_angle_alpha   59.99999678
_cell_angle_beta   59.98844375
_cell_angle_gamma   59.98844591
_symmetry_Int_Tables_number   1
_chemical_formula_structural   Tb4Y12CdHg3Ir4
_chemical_formula_sum   'Tb4 Y12 Cd1 Hg3 Ir4'
_cell_volume   635.51571524
_cell_formula_units_Z   1
loop_
 _symmetry_equiv_pos_site_id
 _symmetry_equiv_pos_as_xyz
  1  'x, y, z'
loop_
 _atom_site_type_symbol
 _atom_site_label
 _atom_site_symmetry_multiplicity
 _atom_site_fract_x
 _atom_site_fract_y
 _atom_site_fract_z
 _atom_site_occupancy
  Tb  Tb0  1  0.350461  0.349929  0.349929  1
  Tb  Tb1  1  0.350461  0.349929  0.949682  1
  Tb  Tb2  1  0.350461  0.949682  0.349929  1
  Tb  Tb3  1  0.947746  0.350752  0.350752  1
  Y  Y4  1  0.810291  0.189678  0.189678  1
  Y  Y5  1  0.188899  0.810894  0.810894  1
  Y  Y6  1  0.188899  0.810894  0.189312  1
  Y  Y7  1  0.810291  0.189678  0.810353  1
  Y  Y8  1  0.188899  0.189312  0.810894  1
  Y  Y9  1  0.810291  0.810353  0.189678  1
  Y  Y10  1  0.936348  0.562637  0.562637  1
  Y  Y11  1  0.562211  0.937581  0.937581  1
  Y  Y12  1  0.562211  0.937581  0.562628  1
  Y  Y13  1  0.936348  0.562637  0.938378  1
  Y  Y14  1  0.562211  0.562628  0.937581  1
  Y  Y15  1  0.936348  0.938378  0.562637  1
  Cd  Cd16  1  0.260800  0.579734  0.579734  1
  Hg  Hg17  1  0.582522  0.584373  0.584373  1
  Hg  Hg18  1  0.582522  0.584373  0.248733  1
  Hg  Hg19  1  0.582522  0.248733  0.584373  1
  Ir  Ir20  1  0.142118  0.142519  0.142519  1
  Ir  Ir21  1  0.142118  0.142519  0.572844  1
  Ir  Ir22  1  0.142118  0.572844  0.142519  1
  Ir  Ir23  1  0.572909  0.142363  0.142363  1
