# generated using pymatgen
data_Tb4Dy8Tc3Ir
_symmetry_space_group_name_H-M   'P 1'
_cell_length_a   6.30853202
_cell_length_b   7.42141062
_cell_length_c   9.17587600
_cell_angle_alpha   90.00000000
_cell_angle_beta   90.00000000
_cell_angle_gamma   89.97233644
_symmetry_Int_Tables_number   1
_chemical_formula_structural   Tb4Dy8Tc3Ir
_chemical_formula_sum   'Tb4 Dy8 Tc3 Ir1'
_cell_volume   429.59800743
_cell_formula_units_Z   1
loop_
 _symmetry_equiv_pos_site_id
 _symmetry_equiv_pos_as_xyz
  1  'x, y, z'
loop_
 _atom_site_type_symbol
 _atom_site_label
 _atom_site_symmetry_multiplicity
 _atom_site_fract_x
 _atom_site_fract_y
 _atom_site_fract_z
 _atom_site_occupancy
  Tb  Tb0  1  0.874459  0.542101  0.250000  1
  Tb  Tb1  1  0.624933  0.039296  0.250000  1
  Tb  Tb2  1  0.131121  0.457474  0.750000  1
  Tb  Tb3  1  0.370787  0.959469  0.750000  1
  Dy  Dy4  1  0.333489  0.675948  0.064869  1
  Dy  Dy5  1  0.162515  0.175970  0.436288  1
  Dy  Dy6  1  0.664413  0.323045  0.561740  1
  Dy  Dy7  1  0.836124  0.825079  0.937778  1
  Dy  Dy8  1  0.664413  0.323045  0.938260  1
  Dy  Dy9  1  0.836124  0.825079  0.562222  1
  Dy  Dy10  1  0.333489  0.675948  0.435131  1
  Dy  Dy11  1  0.162515  0.175970  0.063712  1
  Tc  Tc12  1  0.039372  0.883756  0.250000  1
  Tc  Tc13  1  0.462871  0.386507  0.250000  1
  Tc  Tc14  1  0.959859  0.115945  0.750000  1
  Ir  Ir15  1  0.543516  0.615368  0.750000  1
