# generated using pymatgen
data_Dy2Y2Al13Ga5Ir6
_symmetry_space_group_name_H-M   'P 1'
_cell_length_a   7.53022211
_cell_length_b   7.53386586
_cell_length_c   9.57894700
_cell_angle_alpha   90.00000000
_cell_angle_beta   90.00000000
_cell_angle_gamma   119.57046535
_symmetry_Int_Tables_number   1
_chemical_formula_structural   Dy2Y2Al13Ga5Ir6
_chemical_formula_sum   'Dy2 Y2 Al13 Ga5 Ir6'
_cell_volume   472.64774727
_cell_formula_units_Z   1
loop_
 _symmetry_equiv_pos_site_id
 _symmetry_equiv_pos_as_xyz
  1  'x, y, z'
loop_
 _atom_site_type_symbol
 _atom_site_label
 _atom_site_symmetry_multiplicity
 _atom_site_fract_x
 _atom_site_fract_y
 _atom_site_fract_z
 _atom_site_occupancy
  Dy  Dy0  1  0.670258  0.996292  0.750000  1
  Dy  Dy1  1  0.330216  0.006521  0.250000  1
  Y  Y2  1  0.994947  0.669948  0.750000  1
  Y  Y3  1  0.001051  0.326698  0.250000  1
  Al  Al4  1  0.002436  0.334843  0.572220  1
  Al  Al5  1  0.999366  0.665542  0.427292  1
  Al  Al6  1  0.999366  0.665542  0.072708  1
  Al  Al7  1  0.334888  0.001903  0.928067  1
  Al  Al8  1  0.002436  0.334843  0.927780  1
  Al  Al9  1  0.664675  0.997793  0.072826  1
  Al  Al10  1  0.664675  0.997793  0.427174  1
  Al  Al11  1  0.334888  0.001903  0.571933  1
  Al  Al12  1  0.333880  0.334209  0.056216  1
  Al  Al13  1  0.665868  0.665969  0.947234  1
  Al  Al14  1  0.665868  0.665969  0.552766  1
  Al  Al15  1  0.333880  0.334209  0.443784  1
  Al  Al16  1  0.451299  0.661801  0.250000  1
  Ga  Ga17  1  0.128847  0.129271  0.750000  1
  Ga  Ga18  1  0.869758  0.868609  0.250000  1
  Ga  Ga19  1  0.339063  0.547155  0.750000  1
  Ga  Ga20  1  0.661491  0.454377  0.250000  1
  Ga  Ga21  1  0.546725  0.338935  0.750000  1
  Ir  Ir22  1  0.672248  0.327975  0.500232  1
  Ir  Ir23  1  0.329447  0.671857  0.497832  1
  Ir  Ir24  1  0.329447  0.671857  0.002168  1
  Ir  Ir25  1  0.672248  0.327975  0.999768  1
  Ir  Ir26  1  0.000365  0.000108  0.499950  1
  Ir  Ir27  1  0.000365  0.000108  0.000050  1
