# generated using pymatgen
data_La8PtRh3Br7
_symmetry_space_group_name_H-M   'P 1'
_cell_length_a   15.22697579
_cell_length_b   15.22697574
_cell_length_c   8.91819663
_cell_angle_alpha   86.62711070
_cell_angle_beta   86.62711064
_cell_angle_gamma   15.45199377
_symmetry_Int_Tables_number   1
_chemical_formula_structural   La8PtRh3Br7
_chemical_formula_sum   'La8 Pt1 Rh3 Br7'
_cell_volume   549.94859844
_cell_formula_units_Z   1
loop_
 _symmetry_equiv_pos_site_id
 _symmetry_equiv_pos_as_xyz
  1  'x, y, z'
loop_
 _atom_site_type_symbol
 _atom_site_label
 _atom_site_symmetry_multiplicity
 _atom_site_fract_x
 _atom_site_fract_y
 _atom_site_fract_z
 _atom_site_occupancy
  La  La0  1  0.205547  0.205547  0.781848  1
  La  La1  1  0.014152  0.014152  0.193271  1
  La  La2  1  0.597571  0.597571  0.652539  1
  La  La3  1  0.402011  0.402011  0.347120  1
  La  La4  1  0.370431  0.370431  0.925324  1
  La  La5  1  0.793580  0.793580  0.219055  1
  La  La6  1  0.988680  0.988680  0.806144  1
  La  La7  1  0.627914  0.627914  0.074944  1
  Pt  Pt8  1  0.456063  0.456063  0.052049  1
  Rh  Rh9  1  0.889352  0.889352  0.137234  1
  Rh  Rh10  1  0.109683  0.109683  0.861716  1
  Rh  Rh11  1  0.544745  0.544745  0.948010  1
  Br  Br12  1  0.784748  0.784748  0.869636  1
  Br  Br13  1  0.214977  0.214977  0.129638  1
  Br  Br14  1  0.302065  0.302065  0.476024  1
  Br  Br15  1  0.697939  0.697939  0.523820  1
  Br  Br16  1  0.500197  0.500197  0.501059  1
  Br  Br17  1  0.103183  0.103183  0.358080  1
  Br  Br18  1  0.897161  0.897161  0.642490  1
