# generated using pymatgen
data_Pa3Zn3CoPd2
_symmetry_space_group_name_H-M   'P 1'
_cell_length_a   7.19985100
_cell_length_b   7.19984950
_cell_length_c   3.81270100
_cell_angle_alpha   90.00000000
_cell_angle_beta   90.00000000
_cell_angle_gamma   119.99999312
_symmetry_Int_Tables_number   1
_chemical_formula_structural   Pa3Zn3CoPd2
_chemical_formula_sum   'Pa3 Zn3 Co1 Pd2'
_cell_volume   171.16317631
_cell_formula_units_Z   1
loop_
 _symmetry_equiv_pos_site_id
 _symmetry_equiv_pos_as_xyz
  1  'x, y, z'
loop_
 _atom_site_type_symbol
 _atom_site_label
 _atom_site_symmetry_multiplicity
 _atom_site_fract_x
 _atom_site_fract_y
 _atom_site_fract_z
 _atom_site_occupancy
  Pa  Pa0  1  0.980536  0.407308  0.000000  1
  Pa  Pa1  1  0.592692  0.573227  0.000000  1
  Pa  Pa2  1  0.426773  0.019464  0.000000  1
  Zn  Zn3  1  0.999094  0.748812  0.500000  1
  Zn  Zn4  1  0.251188  0.250281  0.500000  1
  Zn  Zn5  1  0.749719  0.000906  0.500000  1
  Co  Co6  1  0.666667  0.333333  0.500000  1
  Pd  Pd7  1  0.000000  0.000000  0.000000  1
  Pd  Pd8  1  0.333333  0.666667  0.500000  1
