# generated using pymatgen
data_DyEr(OsO3)6
_symmetry_space_group_name_H-M   'P 1'
_cell_length_a   7.36085300
_cell_length_b   5.18405513
_cell_length_c   8.21582309
_cell_angle_alpha   85.43885876
_cell_angle_beta   90.00000000
_cell_angle_gamma   90.00000000
_symmetry_Int_Tables_number   1
_chemical_formula_structural   DyEr(OsO3)6
_chemical_formula_sum   'Dy1 Er1 Os6 O18'
_cell_volume   312.51528256
_cell_formula_units_Z   1
loop_
 _symmetry_equiv_pos_site_id
 _symmetry_equiv_pos_as_xyz
  1  'x, y, z'
loop_
 _atom_site_type_symbol
 _atom_site_label
 _atom_site_symmetry_multiplicity
 _atom_site_fract_x
 _atom_site_fract_y
 _atom_site_fract_z
 _atom_site_occupancy
  Dy  Dy0  1  0.250000  0.971757  0.427969  1
  Er  Er1  1  0.750000  0.029310  0.572525  1
  Os  Os2  1  0.999909  0.000054  0.999768  1
  Os  Os3  1  0.500091  0.000054  0.999768  1
  Os  Os4  1  0.004136  0.539309  0.692491  1
  Os  Os5  1  0.495864  0.539309  0.692491  1
  Os  Os6  1  0.995164  0.461131  0.307610  1
  Os  Os7  1  0.504836  0.461131  0.307610  1
  O  O8  1  0.250000  0.896846  0.983216  1
  O  O9  1  0.933159  0.854928  0.788363  1
  O  O10  1  0.566841  0.854928  0.788363  1
  O  O11  1  0.957917  0.741564  0.471129  1
  O  O12  1  0.542083  0.741564  0.471129  1
  O  O13  1  0.250000  0.668345  0.663512  1
  O  O14  1  0.954848  0.683433  0.121260  1
  O  O15  1  0.545152  0.683433  0.121260  1
  O  O16  1  0.250000  0.583660  0.312199  1
  O  O17  1  0.750000  0.413183  0.687393  1
  O  O18  1  0.045123  0.316781  0.878554  1
  O  O19  1  0.454877  0.316781  0.878554  1
  O  O20  1  0.750000  0.328983  0.337920  1
  O  O21  1  0.039780  0.258847  0.529557  1
  O  O22  1  0.460220  0.258847  0.529557  1
  O  O23  1  0.065659  0.146331  0.210587  1
  O  O24  1  0.434341  0.146331  0.210587  1
  O  O25  1  0.750000  0.103158  0.016625  1
