# generated using pymatgen
data_TaTiFe12P7
_symmetry_space_group_name_H-M   'P 1'
_cell_length_a   8.81388600
_cell_length_b   8.81388707
_cell_length_c   3.53590000
_cell_angle_alpha   90.00000000
_cell_angle_beta   90.00000000
_cell_angle_gamma   119.99998846
_symmetry_Int_Tables_number   1
_chemical_formula_structural   TaTiFe12P7
_chemical_formula_sum   'Ta1 Ti1 Fe12 P7'
_cell_volume   237.88418332
_cell_formula_units_Z   1
loop_
 _symmetry_equiv_pos_site_id
 _symmetry_equiv_pos_as_xyz
  1  'x, y, z'
loop_
 _atom_site_type_symbol
 _atom_site_label
 _atom_site_symmetry_multiplicity
 _atom_site_fract_x
 _atom_site_fract_y
 _atom_site_fract_z
 _atom_site_occupancy
  Ta  Ta0  1  0.000000  0.000000  0.000000  1
  Ti  Ti1  1  0.333333  0.666667  0.500000  1
  Fe  Fe2  1  0.101199  0.397101  0.000000  1
  Fe  Fe3  1  0.295902  0.898801  0.000000  1
  Fe  Fe4  1  0.602899  0.704098  0.000000  1
  Fe  Fe5  1  0.824103  0.611368  0.000000  1
  Fe  Fe6  1  0.787264  0.175897  0.000000  1
  Fe  Fe7  1  0.388632  0.212736  0.000000  1
  Fe  Fe8  1  0.051077  0.775316  0.500000  1
  Fe  Fe9  1  0.724240  0.948923  0.500000  1
  Fe  Fe10  1  0.224684  0.275760  0.500000  1
  Fe  Fe11  1  0.891623  0.434510  0.500000  1
  Fe  Fe12  1  0.542886  0.108377  0.500000  1
  Fe  Fe13  1  0.565490  0.457114  0.500000  1
  P  P14  1  0.082452  0.630422  0.000000  1
  P  P15  1  0.547970  0.917548  0.000000  1
  P  P16  1  0.369578  0.452030  0.000000  1
  P  P17  1  0.783378  0.739593  0.500000  1
  P  P18  1  0.956215  0.216622  0.500000  1
  P  P19  1  0.260407  0.043785  0.500000  1
  P  P20  1  0.666667  0.333333  0.000000  1
