# generated using pymatgen
data_Nd5CuOsO12
_symmetry_space_group_name_H-M   'P 1'
_cell_length_a   7.04730553
_cell_length_b   7.04730483
_cell_length_c   7.55650900
_cell_angle_alpha   74.47357609
_cell_angle_beta   74.47357767
_cell_angle_gamma   51.31260482
_symmetry_Int_Tables_number   1
_chemical_formula_structural   Nd5CuOsO12
_chemical_formula_sum   'Nd5 Cu1 Os1 O12'
_cell_volume   279.72498415
_cell_formula_units_Z   1
loop_
 _symmetry_equiv_pos_site_id
 _symmetry_equiv_pos_as_xyz
  1  'x, y, z'
loop_
 _atom_site_type_symbol
 _atom_site_label
 _atom_site_symmetry_multiplicity
 _atom_site_fract_x
 _atom_site_fract_y
 _atom_site_fract_z
 _atom_site_occupancy
  Nd  Nd0  1  0.321603  0.291185  0.356456  1
  Nd  Nd1  1  0.708815  0.678397  0.643544  1
  Nd  Nd2  1  0.694400  0.689810  0.166319  1
  Nd  Nd3  1  0.310190  0.305600  0.833681  1
  Nd  Nd4  1  0.011017  0.988983  0.500000  1
  Cu  Cu5  1  0.745522  0.254478  0.000000  1
  Os  Os6  1  0.233229  0.766771  0.000000  1
  O  O7  1  0.102572  0.591918  0.574472  1
  O  O8  1  0.012748  0.985303  0.175170  1
  O  O9  1  0.408082  0.897428  0.425528  1
  O  O10  1  0.467512  0.534411  0.178814  1
  O  O11  1  0.102161  0.586505  0.078679  1
  O  O12  1  0.913106  0.397490  0.419660  1
  O  O13  1  0.014697  0.987252  0.824830  1
  O  O14  1  0.602510  0.086893  0.580340  1
  O  O15  1  0.465589  0.532488  0.821186  1
  O  O16  1  0.575076  0.102326  0.077710  1
  O  O17  1  0.413495  0.897839  0.921321  1
  O  O18  1  0.897674  0.424924  0.922290  1
