# generated using pymatgen
data_Dy4Tc3B16W
_symmetry_space_group_name_H-M   'P 1'
_cell_length_a   5.98884889
_cell_length_b   11.59164472
_cell_length_c   3.60480600
_cell_angle_alpha   90.00000000
_cell_angle_beta   90.00000000
_cell_angle_gamma   89.93763612
_symmetry_Int_Tables_number   1
_chemical_formula_structural   Dy4Tc3B16W
_chemical_formula_sum   'Dy4 Tc3 B16 W1'
_cell_volume   250.24767802
_cell_formula_units_Z   1
loop_
 _symmetry_equiv_pos_site_id
 _symmetry_equiv_pos_as_xyz
  1  'x, y, z'
loop_
 _atom_site_type_symbol
 _atom_site_label
 _atom_site_symmetry_multiplicity
 _atom_site_fract_x
 _atom_site_fract_y
 _atom_site_fract_z
 _atom_site_occupancy
  Dy  Dy0  1  0.625810  0.347702  0.000000  1
  Dy  Dy1  1  0.372398  0.652354  0.000000  1
  Dy  Dy2  1  0.126746  0.148476  0.000000  1
  Dy  Dy3  1  0.872904  0.852279  0.000000  1
  Tc  Tc4  1  0.634967  0.088395  0.000000  1
  Tc  Tc5  1  0.366001  0.912966  0.000000  1
  Tc  Tc6  1  0.129549  0.414292  0.000000  1
  B  B7  1  0.786471  0.184908  0.500000  1
  B  B8  1  0.214776  0.815733  0.500000  1
  B  B9  1  0.286614  0.314566  0.500000  1
  B  B10  1  0.710770  0.687001  0.500000  1
  B  B11  1  0.863620  0.031452  0.500000  1
  B  B12  1  0.136616  0.968908  0.500000  1
  B  B13  1  0.364609  0.466797  0.500000  1
  B  B14  1  0.633006  0.530757  0.500000  1
  B  B15  1  0.887004  0.450865  0.500000  1
  B  B16  1  0.116955  0.546074  0.500000  1
  B  B17  1  0.386637  0.047194  0.500000  1
  B  B18  1  0.613638  0.953363  0.500000  1
  B  B19  1  0.977477  0.306425  0.500000  1
  B  B20  1  0.025680  0.693797  0.500000  1
  B  B21  1  0.475212  0.191772  0.500000  1
  B  B22  1  0.522952  0.808759  0.500000  1
  W  W23  1  0.869587  0.585164  0.000000  1
