# generated using pymatgen
data_Na2UCr2O10
_symmetry_space_group_name_H-M   'P 1'
_cell_length_a   5.53792377
_cell_length_b   5.86457094
_cell_length_c   8.77841591
_cell_angle_alpha   108.48700478
_cell_angle_beta   95.36405281
_cell_angle_gamma   103.60069030
_symmetry_Int_Tables_number   1
_chemical_formula_structural   Na2UCr2O10
_chemical_formula_sum   'Na2 U1 Cr2 O10'
_cell_volume   258.40263826
_cell_formula_units_Z   1
loop_
 _symmetry_equiv_pos_site_id
 _symmetry_equiv_pos_as_xyz
  1  'x, y, z'
loop_
 _atom_site_type_symbol
 _atom_site_label
 _atom_site_symmetry_multiplicity
 _atom_site_fract_x
 _atom_site_fract_y
 _atom_site_fract_z
 _atom_site_occupancy
  Na  Na0  1  0.486119  0.190233  0.395643  1
  Na  Na1  1  0.513879  0.809767  0.604357  1
  U  U2  1  0.000000  0.000000  0.000000  1
  Cr  Cr3  1  0.926426  0.643921  0.287263  1
  Cr  Cr4  1  0.073574  0.356079  0.712737  1
  O  O5  1  0.834744  0.792904  0.164486  1
  O  O6  1  0.308208  0.060389  0.122351  1
  O  O7  1  0.966889  0.368048  0.173006  1
  O  O8  1  0.709256  0.589674  0.396204  1
  O  O9  1  0.194117  0.821691  0.409178  1
  O  O10  1  0.805882  0.178308  0.590821  1
  O  O11  1  0.290745  0.410326  0.603797  1
  O  O12  1  0.033112  0.631953  0.826995  1
  O  O13  1  0.691793  0.939611  0.877649  1
  O  O14  1  0.165256  0.207096  0.835514  1
