# generated using pymatgen
data_Pr3Ga24OsPd8
_symmetry_space_group_name_H-M   'P 1'
_cell_length_a   8.53201118
_cell_length_b   8.53201034
_cell_length_c   8.53201000
_cell_angle_alpha   89.59402440
_cell_angle_beta   89.59402444
_cell_angle_gamma   89.59403217
_symmetry_Int_Tables_number   1
_chemical_formula_structural   Pr3Ga24OsPd8
_chemical_formula_sum   'Pr3 Ga24 Os1 Pd8'
_cell_volume   621.04288606
_cell_formula_units_Z   1
loop_
 _symmetry_equiv_pos_site_id
 _symmetry_equiv_pos_as_xyz
  1  'x, y, z'
loop_
 _atom_site_type_symbol
 _atom_site_label
 _atom_site_symmetry_multiplicity
 _atom_site_fract_x
 _atom_site_fract_y
 _atom_site_fract_z
 _atom_site_occupancy
  Pr  Pr0  1  0.000000  0.500000  0.000000  1
  Pr  Pr1  1  0.500000  0.000000  0.000000  1
  Pr  Pr2  1  0.000000  0.000000  0.500000  1
  Ga  Ga3  1  0.989666  0.643074  0.643074  1
  Ga  Ga4  1  0.643074  0.643074  0.989666  1
  Ga  Ga5  1  0.643074  0.989666  0.643074  1
  Ga  Ga6  1  0.010334  0.356926  0.356926  1
  Ga  Ga7  1  0.356926  0.356926  0.010334  1
  Ga  Ga8  1  0.356926  0.010334  0.356926  1
  Ga  Ga9  1  0.735213  0.500000  0.264787  1
  Ga  Ga10  1  0.264787  0.500000  0.735213  1
  Ga  Ga11  1  0.500000  0.264787  0.735213  1
  Ga  Ga12  1  0.500000  0.735213  0.264787  1
  Ga  Ga13  1  0.264787  0.735213  0.500000  1
  Ga  Ga14  1  0.735213  0.264787  0.500000  1
  Ga  Ga15  1  0.838984  0.142354  0.838984  1
  Ga  Ga16  1  0.142354  0.838984  0.838984  1
  Ga  Ga17  1  0.838984  0.838984  0.142354  1
  Ga  Ga18  1  0.161016  0.857646  0.161016  1
  Ga  Ga19  1  0.857646  0.161016  0.161016  1
  Ga  Ga20  1  0.161016  0.161016  0.857646  1
  Ga  Ga21  1  0.728549  0.488873  0.728549  1
  Ga  Ga22  1  0.488873  0.728549  0.728549  1
  Ga  Ga23  1  0.728549  0.728549  0.488873  1
  Ga  Ga24  1  0.271451  0.511127  0.271451  1
  Ga  Ga25  1  0.511127  0.271451  0.271451  1
  Ga  Ga26  1  0.271451  0.271451  0.511127  1
  Os  Os27  1  0.500000  0.500000  0.500000  1
  Pd  Pd28  1  0.835165  0.835165  0.835165  1
  Pd  Pd29  1  0.164835  0.164835  0.164835  1
  Pd  Pd30  1  0.663781  0.336219  0.000000  1
  Pd  Pd31  1  0.000000  0.336219  0.663781  1
  Pd  Pd32  1  0.336219  0.000000  0.663781  1
  Pd  Pd33  1  0.336219  0.663781  0.000000  1
  Pd  Pd34  1  0.000000  0.663781  0.336219  1
  Pd  Pd35  1  0.663781  0.000000  0.336219  1
