# generated using pymatgen
data_Tm2P4RuRh5
_symmetry_space_group_name_H-M   'P 1'
_cell_length_a   3.92202500
_cell_length_b   11.22796200
_cell_length_c   12.60081900
_cell_angle_alpha   90.00000000
_cell_angle_beta   90.00000000
_cell_angle_gamma   90.00000000
_symmetry_Int_Tables_number   1
_chemical_formula_structural   Tm2P4RuRh5
_chemical_formula_sum   'Tm6 P12 Ru3 Rh15'
_cell_volume   554.89404632
_cell_formula_units_Z   3
loop_
 _symmetry_equiv_pos_site_id
 _symmetry_equiv_pos_as_xyz
  1  'x, y, z'
loop_
 _atom_site_type_symbol
 _atom_site_label
 _atom_site_symmetry_multiplicity
 _atom_site_fract_x
 _atom_site_fract_y
 _atom_site_fract_z
 _atom_site_occupancy
  Tm  Tm0  1  0.000000  0.500000  0.520814  1
  Tm  Tm1  1  0.500000  0.000000  0.479443  1
  Tm  Tm2  1  0.500000  0.817969  0.205700  1
  Tm  Tm3  1  0.500000  0.182031  0.205700  1
  Tm  Tm4  1  0.000000  0.679442  0.794747  1
  Tm  Tm5  1  0.000000  0.320558  0.794747  1
  P  P6  1  0.500000  0.500000  0.879170  1
  P  P7  1  0.000000  0.000000  0.118210  1
  P  P8  1  0.500000  0.500000  0.349100  1
  P  P9  1  0.000000  0.000000  0.649563  1
  P  P10  1  0.500000  0.315366  0.620038  1
  P  P11  1  0.500000  0.684634  0.620038  1
  P  P12  1  0.000000  0.185189  0.380128  1
  P  P13  1  0.000000  0.814811  0.380128  1
  P  P14  1  0.500000  0.845034  0.892407  1
  P  P15  1  0.500000  0.154966  0.892407  1
  P  P16  1  0.000000  0.652416  0.108836  1
  P  P17  1  0.000000  0.347584  0.108836  1
  Ru  Ru18  1  0.500000  0.500000  0.161108  1
  Ru  Ru19  1  0.000000  0.500000  0.988748  1
  Ru  Ru20  1  0.500000  0.000000  0.012273  1
  Rh  Rh21  1  0.000000  0.000000  0.837529  1
  Rh  Rh22  1  0.500000  0.500000  0.698616  1
  Rh  Rh23  1  0.000000  0.000000  0.299410  1
  Rh  Rh24  1  0.500000  0.332175  0.989106  1
  Rh  Rh25  1  0.500000  0.667825  0.989106  1
  Rh  Rh26  1  0.000000  0.169421  0.011193  1
  Rh  Rh27  1  0.000000  0.830579  0.011193  1
  Rh  Rh28  1  0.500000  0.295565  0.431333  1
  Rh  Rh29  1  0.500000  0.704435  0.431333  1
  Rh  Rh30  1  0.000000  0.201094  0.568302  1
  Rh  Rh31  1  0.000000  0.798906  0.568302  1
  Rh  Rh32  1  0.500000  0.870771  0.711994  1
  Rh  Rh33  1  0.500000  0.129229  0.711994  1
  Rh  Rh34  1  0.000000  0.626663  0.289223  1
  Rh  Rh35  1  0.000000  0.373337  0.289223  1
