# generated using pymatgen
data_Pa3Al12ReOs3
_symmetry_space_group_name_H-M   'P 1'
_cell_length_a   8.89985927
_cell_length_b   8.89985881
_cell_length_c   9.42753623
_cell_angle_alpha   89.78980359
_cell_angle_beta   90.21019508
_cell_angle_gamma   119.90076232
_symmetry_Int_Tables_number   1
_chemical_formula_structural   Pa3Al12ReOs3
_chemical_formula_sum   'Pa6 Al24 Re2 Os6'
_cell_volume   647.32833481
_cell_formula_units_Z   2
loop_
 _symmetry_equiv_pos_site_id
 _symmetry_equiv_pos_as_xyz
  1  'x, y, z'
loop_
 _atom_site_type_symbol
 _atom_site_label
 _atom_site_symmetry_multiplicity
 _atom_site_fract_x
 _atom_site_fract_y
 _atom_site_fract_z
 _atom_site_occupancy
  Pa  Pa0  1  0.194471  0.395259  0.248043  1
  Pa  Pa1  1  0.805529  0.604741  0.751957  1
  Pa  Pa2  1  0.604741  0.805529  0.248043  1
  Pa  Pa3  1  0.395259  0.194471  0.751957  1
  Pa  Pa4  1  0.198157  0.801843  0.245055  1
  Pa  Pa5  1  0.801843  0.198157  0.754945  1
  Al  Al6  1  0.334225  0.665775  0.014153  1
  Al  Al7  1  0.665775  0.334225  0.985847  1
  Al  Al8  1  0.666625  0.333375  0.518115  1
  Al  Al9  1  0.333375  0.666625  0.481885  1
  Al  Al10  1  0.162218  0.323353  0.578757  1
  Al  Al11  1  0.837782  0.676647  0.421243  1
  Al  Al12  1  0.676647  0.837782  0.578757  1
  Al  Al13  1  0.837309  0.676829  0.080377  1
  Al  Al14  1  0.323353  0.162218  0.421243  1
  Al  Al15  1  0.162691  0.323171  0.919623  1
  Al  Al16  1  0.162032  0.837968  0.577357  1
  Al  Al17  1  0.323171  0.162691  0.080377  1
  Al  Al18  1  0.837968  0.162032  0.422643  1
  Al  Al19  1  0.676829  0.837309  0.919623  1
  Al  Al20  1  0.838178  0.161822  0.081681  1
  Al  Al21  1  0.161822  0.838178  0.918319  1
  Al  Al22  1  0.562238  0.126459  0.251610  1
  Al  Al23  1  0.437762  0.873541  0.748390  1
  Al  Al24  1  0.873541  0.437762  0.251610  1
  Al  Al25  1  0.126459  0.562238  0.748390  1
  Al  Al26  1  0.561282  0.438718  0.250932  1
  Al  Al27  1  0.438718  0.561282  0.749068  1
  Al  Al28  1  0.000095  0.999905  0.250047  1
  Al  Al29  1  0.999905  0.000095  0.749953  1
  Re  Re30  1  0.500000  0.000000  0.000000  1
  Re  Re31  1  0.000000  0.500000  0.000000  1
  Os  Os32  1  0.500000  0.000000  0.500000  1
  Os  Os33  1  0.500000  0.500000  0.000000  1
  Os  Os34  1  0.000000  0.500000  0.500000  1
  Os  Os35  1  0.500000  0.500000  0.500000  1
  Os  Os36  1  0.000000  0.000000  0.000000  1
  Os  Os37  1  0.000000  0.000000  0.500000  1
