# generated using pymatgen
data_SmHo4(In2Pd)2
_symmetry_space_group_name_H-M   'P 1'
_cell_length_a   3.62130500
_cell_length_b   8.17017700
_cell_length_c   18.34659200
_cell_angle_alpha   90.00000000
_cell_angle_beta   90.00000000
_cell_angle_gamma   90.00000000
_symmetry_Int_Tables_number   1
_chemical_formula_structural   SmHo4(In2Pd)2
_chemical_formula_sum   'Sm2 Ho8 In8 Pd4'
_cell_volume   542.81516528
_cell_formula_units_Z   2
loop_
 _symmetry_equiv_pos_site_id
 _symmetry_equiv_pos_as_xyz
  1  'x, y, z'
loop_
 _atom_site_type_symbol
 _atom_site_label
 _atom_site_symmetry_multiplicity
 _atom_site_fract_x
 _atom_site_fract_y
 _atom_site_fract_z
 _atom_site_occupancy
  Sm  Sm0  1  0.000000  0.500000  0.500000  1
  Sm  Sm1  1  0.000000  0.000000  0.000000  1
  Ho  Ho2  1  0.000000  0.739706  0.280286  1
  Ho  Ho3  1  0.000000  0.260294  0.719714  1
  Ho  Ho4  1  0.000000  0.760294  0.780286  1
  Ho  Ho5  1  0.000000  0.239706  0.219714  1
  Ho  Ho6  1  0.000000  0.617028  0.083603  1
  Ho  Ho7  1  0.000000  0.382972  0.916397  1
  Ho  Ho8  1  0.000000  0.882972  0.583603  1
  Ho  Ho9  1  0.000000  0.117028  0.416397  1
  In  In10  1  0.500000  0.706552  0.931031  1
  In  In11  1  0.500000  0.293448  0.068969  1
  In  In12  1  0.500000  0.793448  0.431031  1
  In  In13  1  0.500000  0.206552  0.568969  1
  In  In14  1  0.500000  0.581915  0.651195  1
  In  In15  1  0.500000  0.418085  0.348805  1
  In  In16  1  0.500000  0.918085  0.151195  1
  In  In17  1  0.500000  0.081915  0.848805  1
  Pd  Pd18  1  0.500000  0.523733  0.195947  1
  Pd  Pd19  1  0.500000  0.476267  0.804053  1
  Pd  Pd20  1  0.500000  0.976267  0.695947  1
  Pd  Pd21  1  0.500000  0.023733  0.304053  1
