# generated using pymatgen
data_Ho2LuZnSn3Rh2
_symmetry_space_group_name_H-M   'P 1'
_cell_length_a   7.57873669
_cell_length_b   7.58444870
_cell_length_c   3.86532200
_cell_angle_alpha   90.00000000
_cell_angle_beta   90.00000000
_cell_angle_gamma   120.24907596
_symmetry_Int_Tables_number   1
_chemical_formula_structural   Ho2LuZnSn3Rh2
_chemical_formula_sum   'Ho2 Lu1 Zn1 Sn3 Rh2'
_cell_volume   191.92946378
_cell_formula_units_Z   1
loop_
 _symmetry_equiv_pos_site_id
 _symmetry_equiv_pos_as_xyz
  1  'x, y, z'
loop_
 _atom_site_type_symbol
 _atom_site_label
 _atom_site_symmetry_multiplicity
 _atom_site_fract_x
 _atom_site_fract_y
 _atom_site_fract_z
 _atom_site_occupancy
  Ho  Ho0  1  0.591615  0.606839  0.000000  1
  Ho  Ho1  1  0.392384  0.984328  0.000000  1
  Lu  Lu2  1  0.017646  0.408152  0.000000  1
  Zn  Zn3  1  0.668327  0.333774  0.500000  1
  Sn  Sn4  1  0.260810  0.260013  0.500000  1
  Sn  Sn5  1  0.997612  0.737607  0.500000  1
  Sn  Sn6  1  0.741202  0.003011  0.500000  1
  Rh  Rh7  1  0.330511  0.664795  0.500000  1
  Rh  Rh8  1  0.999892  0.001480  0.000000  1
