# generated using pymatgen
data_Li8TbDy7(Sn3Sb)2
_symmetry_space_group_name_H-M   'P 1'
_cell_length_a   9.38681028
_cell_length_b   9.39066507
_cell_length_c   7.26438788
_cell_angle_alpha   90.00033179
_cell_angle_beta   90.06502035
_cell_angle_gamma   120.00756865
_symmetry_Int_Tables_number   1
_chemical_formula_structural   Li8TbDy7(Sn3Sb)2
_chemical_formula_sum   'Li8 Tb1 Dy7 Sn6 Sb2'
_cell_volume   554.51148578
_cell_formula_units_Z   1
loop_
 _symmetry_equiv_pos_site_id
 _symmetry_equiv_pos_as_xyz
  1  'x, y, z'
loop_
 _atom_site_type_symbol
 _atom_site_label
 _atom_site_symmetry_multiplicity
 _atom_site_fract_x
 _atom_site_fract_y
 _atom_site_fract_z
 _atom_site_occupancy
  Li  Li0  1  0.167179  0.333859  0.285974  1
  Li  Li1  1  0.167009  0.833235  0.285889  1
  Li  Li2  1  0.666288  0.833032  0.286051  1
  Li  Li3  1  0.832367  0.666128  0.786645  1
  Li  Li4  1  0.832427  0.166295  0.786664  1
  Li  Li5  1  0.334234  0.167181  0.787742  1
  Li  Li6  1  0.333976  0.666862  0.671951  1
  Li  Li7  1  0.666735  0.333421  0.173524  1
  Tb  Tb8  1  0.514050  0.024596  0.492202  1
  Dy  Dy9  1  0.514208  0.489541  0.492108  1
  Dy  Dy10  1  0.974619  0.487333  0.490796  1
  Dy  Dy11  1  0.489960  0.977493  0.995381  1
  Dy  Dy12  1  0.489967  0.512443  0.995383  1
  Dy  Dy13  1  0.020886  0.510445  0.996584  1
  Dy  Dy14  1  0.998043  0.999022  0.497122  1
  Dy  Dy15  1  0.998038  0.999017  0.002709  1
  Sn  Sn16  1  0.666740  0.833184  0.732061  1
  Sn  Sn17  1  0.833826  0.666764  0.231833  1
  Sn  Sn18  1  0.834111  0.167251  0.231446  1
  Sn  Sn19  1  0.333180  0.166761  0.231435  1
  Sn  Sn20  1  0.332556  0.666066  0.260670  1
  Sn  Sn21  1  0.667354  0.333930  0.761510  1
  Sb  Sb22  1  0.166275  0.333401  0.732982  1
  Sb  Sb23  1  0.165976  0.832740  0.733334  1
