# generated using pymatgen
data_Cs3PrBr6
_symmetry_space_group_name_H-M   'P 1'
_cell_length_a   10.09871900
_cell_length_b   10.09871900
_cell_length_c   8.38977500
_cell_angle_alpha   90.00000000
_cell_angle_beta   90.00000000
_cell_angle_gamma   90.00000000
_symmetry_Int_Tables_number   1
_chemical_formula_structural   Cs3PrBr6
_chemical_formula_sum   'Cs6 Pr2 Br12'
_cell_volume   855.62386602
_cell_formula_units_Z   2
loop_
 _symmetry_equiv_pos_site_id
 _symmetry_equiv_pos_as_xyz
  1  'x, y, z'
loop_
 _atom_site_type_symbol
 _atom_site_label
 _atom_site_symmetry_multiplicity
 _atom_site_fract_x
 _atom_site_fract_y
 _atom_site_fract_z
 _atom_site_occupancy
  Cs  Cs0  1  0.000000  0.000000  0.500000  1
  Cs  Cs1  1  0.000000  0.000000  0.000000  1
  Cs  Cs2  1  0.234093  0.586699  0.500000  1
  Cs  Cs3  1  0.765907  0.413301  0.500000  1
  Cs  Cs4  1  0.413301  0.234093  0.000000  1
  Cs  Cs5  1  0.586699  0.765907  0.000000  1
  Pr  Pr6  1  0.500000  0.000000  0.500000  1
  Pr  Pr7  1  0.000000  0.500000  0.000000  1
  Br  Br8  1  0.697458  0.060386  0.746430  1
  Br  Br9  1  0.302542  0.939614  0.746430  1
  Br  Br10  1  0.939614  0.697458  0.246430  1
  Br  Br11  1  0.060386  0.302542  0.246430  1
  Br  Br12  1  0.302542  0.939614  0.253570  1
  Br  Br13  1  0.697458  0.060386  0.253570  1
  Br  Br14  1  0.060386  0.302542  0.753570  1
  Br  Br15  1  0.939614  0.697458  0.753570  1
  Br  Br16  1  0.570117  0.720532  0.500000  1
  Br  Br17  1  0.429883  0.279468  0.500000  1
  Br  Br18  1  0.279468  0.570117  0.000000  1
  Br  Br19  1  0.720532  0.429883  0.000000  1
