# generated using pymatgen
data_Ti4Cd(PO4)6
_symmetry_space_group_name_H-M   'P 1'
_cell_length_a   8.63380534
_cell_length_b   8.63380422
_cell_length_c   8.79087306
_cell_angle_alpha   119.41069406
_cell_angle_beta   60.58930564
_cell_angle_gamma   120.00000143
_symmetry_Int_Tables_number   1
_chemical_formula_structural   Ti4Cd(PO4)6
_chemical_formula_sum   'Ti4 Cd1 P6 O24'
_cell_volume   467.44764801
_cell_formula_units_Z   1
loop_
 _symmetry_equiv_pos_site_id
 _symmetry_equiv_pos_as_xyz
  1  'x, y, z'
loop_
 _atom_site_type_symbol
 _atom_site_label
 _atom_site_symmetry_multiplicity
 _atom_site_fract_x
 _atom_site_fract_y
 _atom_site_fract_z
 _atom_site_occupancy
  Ti  Ti0  1  0.636720  0.363280  0.089841  1
  Ti  Ti1  1  0.851743  0.148257  0.444772  1
  Ti  Ti2  1  0.148257  0.851744  0.555228  1
  Ti  Ti3  1  0.363280  0.636720  0.910159  1
  Cd  Cd4  1  0.000000  0.000000  0.000000  1
  P  P5  1  0.541023  0.752476  0.241641  1
  P  P6  1  0.969812  0.458976  0.241641  1
  P  P7  1  0.247523  0.030188  0.241641  1
  P  P8  1  0.752476  0.969811  0.758359  1
  P  P9  1  0.030188  0.541024  0.758359  1
  P  P10  1  0.458975  0.247523  0.758359  1
  O  O11  1  0.277112  0.857865  0.072085  1
  O  O12  1  0.508668  0.722888  0.072085  1
  O  O13  1  0.142134  0.491332  0.072085  1
  O  O14  1  0.732307  0.917064  0.251687  1
  O  O15  1  0.933071  0.267694  0.251687  1
  O  O16  1  0.082936  0.066929  0.251687  1
  O  O17  1  0.549812  0.575889  0.235279  1
  O  O18  1  0.790798  0.450187  0.235279  1
  O  O19  1  0.424110  0.209202  0.235279  1
  O  O20  1  0.193312  0.993156  0.420877  1
  O  O21  1  0.378966  0.806688  0.420877  1
  O  O22  1  0.006844  0.621034  0.420877  1
  O  O23  1  0.993157  0.378966  0.579122  1
  O  O24  1  0.621034  0.193311  0.579122  1
  O  O25  1  0.806689  0.006844  0.579122  1
  O  O26  1  0.575889  0.790798  0.764722  1
  O  O27  1  0.209201  0.549812  0.764722  1
  O  O28  1  0.450187  0.424110  0.764722  1
  O  O29  1  0.917064  0.933070  0.748314  1
  O  O30  1  0.066930  0.732307  0.748314  1
  O  O31  1  0.267694  0.082936  0.748314  1
  O  O32  1  0.857865  0.508668  0.927916  1
  O  O33  1  0.491333  0.277113  0.927916  1
  O  O34  1  0.722888  0.142134  0.927916  1
