# generated using pymatgen
data_Tb3Er5Re2(RuC4)2
_symmetry_space_group_name_H-M   'P 1'
_cell_length_a   5.08455200
_cell_length_b   6.52960332
_cell_length_c   9.78310898
_cell_angle_alpha   89.85147997
_cell_angle_beta   90.00000000
_cell_angle_gamma   90.00000000
_symmetry_Int_Tables_number   1
_chemical_formula_structural   Tb3Er5Re2(RuC4)2
_chemical_formula_sum   'Tb3 Er5 Re2 Ru2 C8'
_cell_volume   324.79918005
_cell_formula_units_Z   1
loop_
 _symmetry_equiv_pos_site_id
 _symmetry_equiv_pos_as_xyz
  1  'x, y, z'
loop_
 _atom_site_type_symbol
 _atom_site_label
 _atom_site_symmetry_multiplicity
 _atom_site_fract_x
 _atom_site_fract_y
 _atom_site_fract_z
 _atom_site_occupancy
  Tb  Tb0  1  0.250000  0.032451  0.285732  1
  Tb  Tb1  1  0.750000  0.970198  0.713964  1
  Tb  Tb2  1  0.250000  0.529536  0.213901  1
  Er  Er3  1  0.750000  0.827201  0.055168  1
  Er  Er4  1  0.250000  0.673017  0.555818  1
  Er  Er5  1  0.750000  0.320751  0.442502  1
  Er  Er6  1  0.250000  0.179187  0.941983  1
  Er  Er7  1  0.750000  0.467674  0.784561  1
  Re  Re8  1  0.750000  0.777229  0.365682  1
  Re  Re9  1  0.250000  0.721526  0.865501  1
  Ru  Ru10  1  0.750000  0.277743  0.133683  1
  Ru  Ru11  1  0.250000  0.222729  0.634194  1
  C  C12  1  0.750000  0.175836  0.948200  1
  C  C13  1  0.250000  0.825862  0.051365  1
  C  C14  1  0.750000  0.672745  0.552143  1
  C  C15  1  0.250000  0.327380  0.449436  1
  C  C16  1  0.750000  0.043282  0.260709  1
  C  C17  1  0.250000  0.456214  0.761153  1
  C  C18  1  0.750000  0.545287  0.242184  1
  C  C19  1  0.250000  0.954150  0.742122  1
