# generated using pymatgen
data_CrPt3(Pb2O7)2
_symmetry_space_group_name_H-M   'P 1'
_cell_length_a   7.42232005
_cell_length_b   7.42232167
_cell_length_c   7.42232153
_cell_angle_alpha   59.17307607
_cell_angle_beta   59.17307174
_cell_angle_gamma   59.17307307
_symmetry_Int_Tables_number   1
_chemical_formula_structural   CrPt3(Pb2O7)2
_chemical_formula_sum   'Cr1 Pt3 Pb4 O14'
_cell_volume   283.68903136
_cell_formula_units_Z   1
loop_
 _symmetry_equiv_pos_site_id
 _symmetry_equiv_pos_as_xyz
  1  'x, y, z'
loop_
 _atom_site_type_symbol
 _atom_site_label
 _atom_site_symmetry_multiplicity
 _atom_site_fract_x
 _atom_site_fract_y
 _atom_site_fract_z
 _atom_site_occupancy
  Cr  Cr0  1  0.625000  0.625000  0.625000  1
  Pt  Pt1  1  0.625000  0.625000  0.125000  1
  Pt  Pt2  1  0.625000  0.125000  0.625000  1
  Pt  Pt3  1  0.125000  0.625000  0.625000  1
  Pb  Pb4  1  0.125000  0.125000  0.625000  1
  Pb  Pb5  1  0.125000  0.625000  0.125000  1
  Pb  Pb6  1  0.625000  0.125000  0.125000  1
  Pb  Pb7  1  0.125000  0.125000  0.125000  1
  O  O8  1  0.245437  0.245437  0.245437  1
  O  O9  1  0.004563  0.004563  0.004563  1
  O  O10  1  0.545907  0.955935  0.545907  1
  O  O11  1  0.293353  0.708692  0.293353  1
  O  O12  1  0.545907  0.545907  0.955935  1
  O  O13  1  0.955935  0.545907  0.545907  1
  O  O14  1  0.541308  0.956647  0.956647  1
  O  O15  1  0.956647  0.956647  0.541308  1
  O  O16  1  0.956647  0.541308  0.956647  1
  O  O17  1  0.708692  0.293353  0.293353  1
  O  O18  1  0.294065  0.704093  0.704093  1
  O  O19  1  0.704093  0.294065  0.704093  1
  O  O20  1  0.293353  0.293353  0.708692  1
  O  O21  1  0.704093  0.704093  0.294065  1
