# generated using pymatgen
data_Nd16Cd2Hg2IrPd3
_symmetry_space_group_name_H-M   'P 1'
_cell_length_a   10.01962104
_cell_length_b   9.97946435
_cell_length_c   9.99214000
_cell_angle_alpha   59.95797411
_cell_angle_beta   60.09068714
_cell_angle_gamma   60.04399853
_symmetry_Int_Tables_number   1
_chemical_formula_structural   Nd16Cd2Hg2IrPd3
_chemical_formula_sum   'Nd16 Cd2 Hg2 Ir1 Pd3'
_cell_volume   706.97621459
_cell_formula_units_Z   1
loop_
 _symmetry_equiv_pos_site_id
 _symmetry_equiv_pos_as_xyz
  1  'x, y, z'
loop_
 _atom_site_type_symbol
 _atom_site_label
 _atom_site_symmetry_multiplicity
 _atom_site_fract_x
 _atom_site_fract_y
 _atom_site_fract_z
 _atom_site_occupancy
  Nd  Nd0  1  0.354221  0.349300  0.348982  1
  Nd  Nd1  1  0.354221  0.349300  0.947497  1
  Nd  Nd2  1  0.354941  0.945712  0.349673  1
  Nd  Nd3  1  0.934435  0.355872  0.354846  1
  Nd  Nd4  1  0.805662  0.189403  0.190463  1
  Nd  Nd5  1  0.193981  0.807881  0.807879  1
  Nd  Nd6  1  0.193981  0.807881  0.190257  1
  Nd  Nd7  1  0.805662  0.189403  0.814471  1
  Nd  Nd8  1  0.193795  0.188823  0.808690  1
  Nd  Nd9  1  0.805124  0.813746  0.190564  1
  Nd  Nd10  1  0.937557  0.563048  0.563838  1
  Nd  Nd11  1  0.566454  0.935976  0.936980  1
  Nd  Nd12  1  0.566454  0.935976  0.560590  1
  Nd  Nd13  1  0.937557  0.563048  0.935557  1
  Nd  Nd14  1  0.566343  0.559600  0.937029  1
  Nd  Nd15  1  0.937560  0.934744  0.563848  1
  Cd  Cd16  1  0.578474  0.258263  0.581630  1
  Cd  Cd17  1  0.260195  0.579322  0.580241  1
  Hg  Hg18  1  0.582373  0.584673  0.587058  1
  Hg  Hg19  1  0.582373  0.584673  0.245894  1
  Ir  Ir20  1  0.569044  0.143235  0.143860  1
  Pd  Pd21  1  0.139903  0.145929  0.146337  1
  Pd  Pd22  1  0.139903  0.145929  0.567829  1
  Pd  Pd23  1  0.139784  0.568254  0.145981  1
