# generated using pymatgen
data_Ca2Sm2Zn5Ni9
_symmetry_space_group_name_H-M   'P 1'
_cell_length_a   5.18848381
_cell_length_b   5.18848469
_cell_length_c   12.31965232
_cell_angle_alpha   77.84379832
_cell_angle_beta   77.84379480
_cell_angle_gamma   59.99999376
_symmetry_Int_Tables_number   1
_chemical_formula_structural   Ca2Sm2Zn5Ni9
_chemical_formula_sum   'Ca2 Sm2 Zn5 Ni9'
_cell_volume   278.59690000
_cell_formula_units_Z   1
loop_
 _symmetry_equiv_pos_site_id
 _symmetry_equiv_pos_as_xyz
  1  'x, y, z'
loop_
 _atom_site_type_symbol
 _atom_site_label
 _atom_site_symmetry_multiplicity
 _atom_site_fract_x
 _atom_site_fract_y
 _atom_site_fract_z
 _atom_site_occupancy
  Ca  Ca0  1  0.952949  0.952949  0.141156  1
  Ca  Ca1  1  0.047051  0.047051  0.858844  1
  Sm  Sm2  1  0.856308  0.856308  0.431075  1
  Sm  Sm3  1  0.143692  0.143692  0.568925  1
  Zn  Zn4  1  0.500000  0.500000  0.500000  1
  Zn  Zn5  1  0.722211  0.722211  0.833369  1
  Zn  Zn6  1  0.277789  0.277789  0.166631  1
  Zn  Zn7  1  0.610750  0.610750  0.167748  1
  Zn  Zn8  1  0.389250  0.389250  0.832252  1
  Ni  Ni9  1  0.000000  0.500000  0.000000  1
  Ni  Ni10  1  0.500000  0.000000  0.000000  1
  Ni  Ni11  1  0.500000  0.500000  0.000000  1
  Ni  Ni12  1  0.386350  0.386350  0.333102  1
  Ni  Ni13  1  0.894197  0.386350  0.333102  1
  Ni  Ni14  1  0.386350  0.894197  0.333102  1
  Ni  Ni15  1  0.613650  0.613650  0.666898  1
  Ni  Ni16  1  0.105803  0.613650  0.666898  1
  Ni  Ni17  1  0.613650  0.105803  0.666898  1
