# generated using pymatgen
data_Hf16Sc2Re8SiP
_symmetry_space_group_name_H-M   'P 1'
_cell_length_a   8.58583720
_cell_length_b   8.56180197
_cell_length_c   8.61861100
_cell_angle_alpha   90.00000000
_cell_angle_beta   90.00000000
_cell_angle_gamma   119.90744155
_symmetry_Int_Tables_number   1
_chemical_formula_structural   Hf16Sc2Re8SiP
_chemical_formula_sum   'Hf16 Sc2 Re8 Si1 P1'
_cell_volume   549.18673907
_cell_formula_units_Z   1
loop_
 _symmetry_equiv_pos_site_id
 _symmetry_equiv_pos_as_xyz
  1  'x, y, z'
loop_
 _atom_site_type_symbol
 _atom_site_label
 _atom_site_symmetry_multiplicity
 _atom_site_fract_x
 _atom_site_fract_y
 _atom_site_fract_z
 _atom_site_occupancy
  Hf  Hf0  1  0.195006  0.805212  0.453026  1
  Hf  Hf1  1  0.195006  0.389793  0.453026  1
  Hf  Hf2  1  0.610976  0.805488  0.452623  1
  Hf  Hf3  1  0.803796  0.195870  0.548252  1
  Hf  Hf4  1  0.803796  0.607925  0.548252  1
  Hf  Hf5  1  0.391996  0.195998  0.548399  1
  Hf  Hf6  1  0.803796  0.195870  0.951748  1
  Hf  Hf7  1  0.803796  0.607925  0.951748  1
  Hf  Hf8  1  0.391996  0.195998  0.951601  1
  Hf  Hf9  1  0.195006  0.805212  0.046974  1
  Hf  Hf10  1  0.195006  0.389793  0.046974  1
  Hf  Hf11  1  0.610976  0.805488  0.047377  1
  Hf  Hf12  1  0.539839  0.459930  0.250000  1
  Hf  Hf13  1  0.539839  0.079907  0.250000  1
  Hf  Hf14  1  0.920620  0.460309  0.250000  1
  Hf  Hf15  1  0.078135  0.539068  0.750000  1
  Sc  Sc16  1  0.459382  0.540416  0.750000  1
  Sc  Sc17  1  0.459382  0.918966  0.750000  1
  Re  Re18  1  0.891034  0.109512  0.250000  1
  Re  Re19  1  0.891034  0.781521  0.250000  1
  Re  Re20  1  0.218843  0.109421  0.250000  1
  Re  Re21  1  0.108989  0.890250  0.750000  1
  Re  Re22  1  0.108989  0.218740  0.750000  1
  Re  Re23  1  0.781135  0.890568  0.750000  1
  Re  Re24  1  0.000033  0.000016  0.500330  1
  Re  Re25  1  0.000033  0.000016  0.999670  1
  Si  Si26  1  0.333730  0.666866  0.250000  1
  P  P27  1  0.667835  0.333917  0.750000  1
