# generated using pymatgen
data_NaSn6Ir3Ru
_symmetry_space_group_name_H-M   'P 1'
_cell_length_a   6.97952087
_cell_length_b   6.97952170
_cell_length_c   6.98419523
_cell_angle_alpha   119.99061485
_cell_angle_beta   120.03798489
_cell_angle_gamma   89.93683541
_symmetry_Int_Tables_number   1
_chemical_formula_structural   NaSn6Ir3Ru
_chemical_formula_sum   'Na1 Sn6 Ir3 Ru1'
_cell_volume   240.60456761
_cell_formula_units_Z   1
loop_
 _symmetry_equiv_pos_site_id
 _symmetry_equiv_pos_as_xyz
  1  'x, y, z'
loop_
 _atom_site_type_symbol
 _atom_site_label
 _atom_site_symmetry_multiplicity
 _atom_site_fract_x
 _atom_site_fract_y
 _atom_site_fract_z
 _atom_site_occupancy
  Na  Na0  1  0.000993  0.998930  0.999924  1
  Sn  Sn1  1  0.461281  0.456368  0.577622  1
  Sn  Sn2  1  0.121254  0.116340  0.577622  1
  Sn  Sn3  1  0.881824  0.535913  0.417736  1
  Sn  Sn4  1  0.539796  0.886903  0.426699  1
  Sn  Sn5  1  0.995705  0.493933  0.995017  1
  Sn  Sn6  1  0.501083  0.999312  0.995017  1
  Ir  Ir7  1  0.410265  0.413483  0.163128  1
  Ir  Ir8  1  0.749645  0.752863  0.163128  1
  Ir  Ir9  1  0.251140  0.590094  0.841235  1
  Ru  Ru10  1  0.587012  0.255861  0.842874  1
