# generated using pymatgen
data_Nd6Ho9Th(CdIr)4
_symmetry_space_group_name_H-M   'P 1'
_cell_length_a   9.73883699
_cell_length_b   9.73883750
_cell_length_c   9.73883809
_cell_angle_alpha   60.22756358
_cell_angle_beta   60.22756083
_cell_angle_gamma   60.22756700
_symmetry_Int_Tables_number   1
_chemical_formula_structural   Nd6Ho9Th(CdIr)4
_chemical_formula_sum   'Nd6 Ho9 Th1 Cd4 Ir4'
_cell_volume   656.50509245
_cell_formula_units_Z   1
loop_
 _symmetry_equiv_pos_site_id
 _symmetry_equiv_pos_as_xyz
  1  'x, y, z'
loop_
 _atom_site_type_symbol
 _atom_site_label
 _atom_site_symmetry_multiplicity
 _atom_site_fract_x
 _atom_site_fract_y
 _atom_site_fract_z
 _atom_site_occupancy
  Nd  Nd0  1  0.939778  0.561288  0.561288  1
  Nd  Nd1  1  0.558363  0.942117  0.942117  1
  Nd  Nd2  1  0.561288  0.939778  0.561288  1
  Nd  Nd3  1  0.942117  0.558363  0.942117  1
  Nd  Nd4  1  0.561288  0.561288  0.939778  1
  Nd  Nd5  1  0.942117  0.942117  0.558363  1
  Ho  Ho6  1  0.348809  0.348809  0.953983  1
  Ho  Ho7  1  0.348809  0.953983  0.348809  1
  Ho  Ho8  1  0.953983  0.348809  0.348809  1
  Ho  Ho9  1  0.813988  0.186498  0.186498  1
  Ho  Ho10  1  0.186546  0.812117  0.812117  1
  Ho  Ho11  1  0.186498  0.813988  0.186498  1
  Ho  Ho12  1  0.812117  0.186546  0.812117  1
  Ho  Ho13  1  0.186498  0.186498  0.813988  1
  Ho  Ho14  1  0.812117  0.812117  0.186546  1
  Th  Th15  1  0.345899  0.345899  0.345899  1
  Cd  Cd16  1  0.578797  0.578797  0.578797  1
  Cd  Cd17  1  0.580059  0.580059  0.260370  1
  Cd  Cd18  1  0.580059  0.260370  0.580059  1
  Cd  Cd19  1  0.260370  0.580059  0.580059  1
  Ir  Ir20  1  0.142269  0.142269  0.142269  1
  Ir  Ir21  1  0.141936  0.141936  0.574359  1
  Ir  Ir22  1  0.141936  0.574359  0.141936  1
  Ir  Ir23  1  0.574359  0.141936  0.141936  1
