# generated using pymatgen
data_Dy14Y6Cd3Ag3Ru2
_symmetry_space_group_name_H-M   'P 1'
_cell_length_a   9.62152400
_cell_length_b   9.62152245
_cell_length_c   9.67257600
_cell_angle_alpha   90.00000000
_cell_angle_beta   90.00000000
_cell_angle_gamma   119.99999844
_symmetry_Int_Tables_number   1
_chemical_formula_structural   Dy14Y6Cd3Ag3Ru2
_chemical_formula_sum   'Dy14 Y6 Cd3 Ag3 Ru2'
_cell_volume   775.46188151
_cell_formula_units_Z   1
loop_
 _symmetry_equiv_pos_site_id
 _symmetry_equiv_pos_as_xyz
  1  'x, y, z'
loop_
 _atom_site_type_symbol
 _atom_site_label
 _atom_site_symmetry_multiplicity
 _atom_site_fract_x
 _atom_site_fract_y
 _atom_site_fract_z
 _atom_site_occupancy
  Dy  Dy0  1  0.000000  0.000000  0.477445  1
  Dy  Dy1  1  0.000000  0.000000  0.022555  1
  Dy  Dy2  1  0.210331  0.789669  0.440763  1
  Dy  Dy3  1  0.210331  0.420662  0.440763  1
  Dy  Dy4  1  0.579338  0.789669  0.440763  1
  Dy  Dy5  1  0.790793  0.209207  0.559742  1
  Dy  Dy6  1  0.790793  0.581586  0.559742  1
  Dy  Dy7  1  0.418414  0.209207  0.559742  1
  Dy  Dy8  1  0.790793  0.209207  0.940258  1
  Dy  Dy9  1  0.790793  0.581586  0.940258  1
  Dy  Dy10  1  0.418414  0.209207  0.940258  1
  Dy  Dy11  1  0.210331  0.789669  0.059237  1
  Dy  Dy12  1  0.210331  0.420662  0.059237  1
  Dy  Dy13  1  0.579338  0.789669  0.059237  1
  Y  Y14  1  0.540833  0.459167  0.250000  1
  Y  Y15  1  0.540833  0.081666  0.250000  1
  Y  Y16  1  0.918334  0.459167  0.250000  1
  Y  Y17  1  0.458938  0.541062  0.750000  1
  Y  Y18  1  0.458938  0.917875  0.750000  1
  Y  Y19  1  0.082125  0.541062  0.750000  1
  Cd  Cd20  1  0.111323  0.888677  0.750000  1
  Cd  Cd21  1  0.111323  0.222645  0.750000  1
  Cd  Cd22  1  0.777355  0.888677  0.750000  1
  Ag  Ag23  1  0.876716  0.123284  0.250000  1
  Ag  Ag24  1  0.876716  0.753433  0.250000  1
  Ag  Ag25  1  0.246567  0.123284  0.250000  1
  Ru  Ru26  1  0.333333  0.666667  0.250000  1
  Ru  Ru27  1  0.666667  0.333333  0.750000  1
