# generated using pymatgen
data_La5Pr11MgCo4Hg3
_symmetry_space_group_name_H-M   'P 1'
_cell_length_a   9.88399776
_cell_length_b   10.00399138
_cell_length_c   10.00464056
_cell_angle_alpha   59.65854335
_cell_angle_beta   59.85642916
_cell_angle_gamma   59.86484993
_symmetry_Int_Tables_number   1
_chemical_formula_structural   La5Pr11MgCo4Hg3
_chemical_formula_sum   'La5 Pr11 Mg1 Co4 Hg3'
_cell_volume   696.21896916
_cell_formula_units_Z   1
loop_
 _symmetry_equiv_pos_site_id
 _symmetry_equiv_pos_as_xyz
  1  'x, y, z'
loop_
 _atom_site_type_symbol
 _atom_site_label
 _atom_site_symmetry_multiplicity
 _atom_site_fract_x
 _atom_site_fract_y
 _atom_site_fract_z
 _atom_site_occupancy
  La  La0  1  0.342868  0.344951  0.344907  1
  La  La1  1  0.346073  0.343950  0.964963  1
  La  La2  1  0.346063  0.964997  0.343986  1
  La  La3  1  0.952019  0.350642  0.350737  1
  La  La4  1  0.811586  0.188442  0.188334  1
  Pr  Pr5  1  0.184079  0.812130  0.812097  1
  Pr  Pr6  1  0.188575  0.809962  0.187145  1
  Pr  Pr7  1  0.806654  0.191160  0.806817  1
  Pr  Pr8  1  0.188580  0.187165  0.809873  1
  Pr  Pr9  1  0.806664  0.806806  0.191080  1
  Pr  Pr10  1  0.941247  0.562953  0.562910  1
  Pr  Pr11  1  0.558435  0.938350  0.938368  1
  Pr  Pr12  1  0.559574  0.939620  0.561828  1
  Pr  Pr13  1  0.941771  0.558517  0.936784  1
  Pr  Pr14  1  0.559530  0.561762  0.939678  1
  Pr  Pr15  1  0.941812  0.936764  0.558515  1
  Mg  Mg16  1  0.289487  0.569997  0.570128  1
  Co  Co17  1  0.129968  0.145858  0.145885  1
  Co  Co18  1  0.143255  0.143657  0.575239  1
  Co  Co19  1  0.143202  0.575252  0.143652  1
  Co  Co20  1  0.576415  0.146225  0.146251  1
  Hg  Hg21  1  0.580723  0.586142  0.586151  1
  Hg  Hg22  1  0.580721  0.587631  0.247047  1
  Hg  Hg23  1  0.580701  0.247066  0.587621  1
