# generated using pymatgen
data_YHo3(GaRh)4
_symmetry_space_group_name_H-M   'P 1'
_cell_length_a   4.31447000
_cell_length_b   6.82018600
_cell_length_c   7.77679000
_cell_angle_alpha   89.99683314
_cell_angle_beta   90.00000000
_cell_angle_gamma   90.00000000
_symmetry_Int_Tables_number   1
_chemical_formula_structural   YHo3(GaRh)4
_chemical_formula_sum   'Y1 Ho3 Ga4 Rh4'
_cell_volume   228.83583981
_cell_formula_units_Z   1
loop_
 _symmetry_equiv_pos_site_id
 _symmetry_equiv_pos_as_xyz
  1  'x, y, z'
loop_
 _atom_site_type_symbol
 _atom_site_label
 _atom_site_symmetry_multiplicity
 _atom_site_fract_x
 _atom_site_fract_y
 _atom_site_fract_z
 _atom_site_occupancy
  Y  Y0  1  0.750000  0.524987  0.808538  1
  Ho  Ho1  1  0.250000  0.975125  0.308593  1
  Ho  Ho2  1  0.250000  0.474481  0.191292  1
  Ho  Ho3  1  0.750000  0.025078  0.690745  1
  Ga  Ga4  1  0.250000  0.341705  0.571805  1
  Ga  Ga5  1  0.250000  0.841541  0.928505  1
  Ga  Ga6  1  0.750000  0.658288  0.427956  1
  Ga  Ga7  1  0.750000  0.157911  0.071816  1
  Rh  Rh8  1  0.250000  0.229373  0.894606  1
  Rh  Rh9  1  0.250000  0.733561  0.604190  1
  Rh  Rh10  1  0.750000  0.769451  0.107238  1
  Rh  Rh11  1  0.750000  0.268500  0.394716  1
