# generated using pymatgen
data_CaMn2Cd(PO3)8
_symmetry_space_group_name_H-M   'P 1'
_cell_length_a   7.61286408
_cell_length_b   7.61286338
_cell_length_c   10.38021852
_cell_angle_alpha   66.92152814
_cell_angle_beta   66.92152870
_cell_angle_gamma   70.46599859
_symmetry_Int_Tables_number   1
_chemical_formula_structural   CaMn2Cd(PO3)8
_chemical_formula_sum   'Ca1 Mn2 Cd1 P8 O24'
_cell_volume   497.41218160
_cell_formula_units_Z   1
loop_
 _symmetry_equiv_pos_site_id
 _symmetry_equiv_pos_as_xyz
  1  'x, y, z'
loop_
 _atom_site_type_symbol
 _atom_site_label
 _atom_site_symmetry_multiplicity
 _atom_site_fract_x
 _atom_site_fract_y
 _atom_site_fract_z
 _atom_site_occupancy
  Ca  Ca0  1  0.544842  0.455158  0.750000  1
  Mn  Mn1  1  0.002231  0.499592  0.499455  1
  Mn  Mn2  1  0.500408  0.997769  0.000545  1
  Cd  Cd3  1  0.457020  0.542980  0.250000  1
  P  P4  1  0.806677  0.817422  0.690991  1
  P  P5  1  0.182578  0.193323  0.809009  1
  P  P6  1  0.194871  0.185257  0.305522  1
  P  P7  1  0.814743  0.805129  0.194478  1
  P  P8  1  0.768369  0.220011  0.473776  1
  P  P9  1  0.779989  0.231631  0.026224  1
  P  P10  1  0.233621  0.781645  0.521983  1
  P  P11  1  0.218355  0.766379  0.978017  1
  O  O12  1  0.035413  0.807568  0.656087  1
  O  O13  1  0.192432  0.964587  0.843913  1
  O  O14  1  0.966141  0.195105  0.338976  1
  O  O15  1  0.804895  0.033859  0.161024  1
  O  O16  1  0.745257  0.997276  0.557567  1
  O  O17  1  0.002724  0.254743  0.942433  1
  O  O18  1  0.256179  0.004376  0.438468  1
  O  O19  1  0.995624  0.743821  0.061532  1
  O  O20  1  0.698358  0.856229  0.834479  1
  O  O21  1  0.143771  0.301642  0.665521  1
  O  O22  1  0.304197  0.147771  0.161840  1
  O  O23  1  0.852229  0.695803  0.338160  1
  O  O24  1  0.789412  0.637416  0.670771  1
  O  O25  1  0.362584  0.210588  0.829229  1
  O  O26  1  0.210561  0.364904  0.327787  1
  O  O27  1  0.635096  0.789439  0.172213  1
  O  O28  1  0.802721  0.301357  0.572289  1
  O  O29  1  0.698643  0.197279  0.927711  1
  O  O30  1  0.200278  0.698796  0.423294  1
  O  O31  1  0.301204  0.799722  0.076706  1
  O  O32  1  0.399244  0.676938  0.583339  1
  O  O33  1  0.323062  0.600756  0.916661  1
  O  O34  1  0.599175  0.322901  0.415790  1
  O  O35  1  0.677099  0.400825  0.084210  1
