# generated using pymatgen
data_La5PrAu8
_symmetry_space_group_name_H-M   'P 1'
_cell_length_a   8.41730024
_cell_length_b   8.42656200
_cell_length_c   8.42354468
_cell_angle_alpha   113.94001465
_cell_angle_beta   113.88929409
_cell_angle_gamma   113.96230619
_symmetry_Int_Tables_number   1
_chemical_formula_structural   La5PrAu8
_chemical_formula_sum   'La5 Pr1 Au8'
_cell_volume   364.85754570
_cell_formula_units_Z   1
loop_
 _symmetry_equiv_pos_site_id
 _symmetry_equiv_pos_as_xyz
  1  'x, y, z'
loop_
 _atom_site_type_symbol
 _atom_site_label
 _atom_site_symmetry_multiplicity
 _atom_site_fract_x
 _atom_site_fract_y
 _atom_site_fract_z
 _atom_site_occupancy
  La  La0  1  0.274800  0.400663  0.019293  1
  La  La1  1  0.019126  0.275151  0.400405  1
  La  La2  1  0.981096  0.725183  0.599346  1
  La  La3  1  0.724878  0.598940  0.980626  1
  La  La4  1  0.400780  0.018893  0.275093  1
  Pr  Pr5  1  0.599342  0.981270  0.725327  1
  Au  Au6  1  0.932238  0.440568  0.771378  1
  Au  Au7  1  0.441188  0.771823  0.932490  1
  Au  Au8  1  0.771445  0.932478  0.441171  1
  Au  Au9  1  0.500158  0.500499  0.500237  1
  Au  Au10  1  0.228530  0.067258  0.559089  1
  Au  Au11  1  0.067797  0.559101  0.228711  1
  Au  Au12  1  0.559229  0.228380  0.067317  1
  Au  Au13  1  0.999393  0.999793  0.999516  1
