# generated using pymatgen
data_TbDy5(TcB7)2
_symmetry_space_group_name_H-M   'P 1'
_cell_length_a   8.09035407
_cell_length_b   8.09035259
_cell_length_c   9.35950300
_cell_angle_alpha   90.00000000
_cell_angle_beta   90.00000000
_cell_angle_gamma   154.73214327
_symmetry_Int_Tables_number   1
_chemical_formula_structural   TbDy5(TcB7)2
_chemical_formula_sum   'Tb1 Dy5 Tc2 B14'
_cell_volume   261.49516445
_cell_formula_units_Z   1
loop_
 _symmetry_equiv_pos_site_id
 _symmetry_equiv_pos_as_xyz
  1  'x, y, z'
loop_
 _atom_site_type_symbol
 _atom_site_label
 _atom_site_symmetry_multiplicity
 _atom_site_fract_x
 _atom_site_fract_y
 _atom_site_fract_z
 _atom_site_occupancy
  Tb  Tb0  1  0.241993  0.758007  0.250000  1
  Dy  Dy1  1  0.895316  0.104684  0.440008  1
  Dy  Dy2  1  0.104728  0.895272  0.560260  1
  Dy  Dy3  1  0.895316  0.104684  0.059992  1
  Dy  Dy4  1  0.104728  0.895272  0.939740  1
  Dy  Dy5  1  0.758367  0.241633  0.750000  1
  Tc  Tc6  1  0.052955  0.947045  0.250000  1
  Tc  Tc7  1  0.946940  0.053060  0.750000  1
  B  B8  1  0.726983  0.273017  0.467535  1
  B  B9  1  0.272987  0.727013  0.533140  1
  B  B10  1  0.726983  0.273017  0.032465  1
  B  B11  1  0.272987  0.727013  0.966860  1
  B  B12  1  0.631800  0.368200  0.150985  1
  B  B13  1  0.368095  0.631905  0.848878  1
  B  B14  1  0.631800  0.368200  0.349015  1
  B  B15  1  0.368095  0.631905  0.651122  1
  B  B16  1  0.521074  0.478926  0.095849  1
  B  B17  1  0.478911  0.521089  0.904145  1
  B  B18  1  0.521074  0.478926  0.404151  1
  B  B19  1  0.478911  0.521089  0.595855  1
  B  B20  1  0.458066  0.541934  0.250000  1
  B  B21  1  0.541890  0.458110  0.750000  1
