# generated using pymatgen
data_Tb4Y6Si6C
_symmetry_space_group_name_H-M   'P 1'
_cell_length_a   8.48977600
_cell_length_b   8.48977714
_cell_length_c   6.40829000
_cell_angle_alpha   90.00000000
_cell_angle_beta   90.00000000
_cell_angle_gamma   119.99999557
_symmetry_Int_Tables_number   1
_chemical_formula_structural   Tb4Y6Si6C
_chemical_formula_sum   'Tb4 Y6 Si6 C1'
_cell_volume   400.00491672
_cell_formula_units_Z   1
loop_
 _symmetry_equiv_pos_site_id
 _symmetry_equiv_pos_as_xyz
  1  'x, y, z'
loop_
 _atom_site_type_symbol
 _atom_site_label
 _atom_site_symmetry_multiplicity
 _atom_site_fract_x
 _atom_site_fract_y
 _atom_site_fract_z
 _atom_site_occupancy
  Tb  Tb0  1  0.333333  0.666667  0.500000  1
  Tb  Tb1  1  0.666667  0.333333  0.500000  1
  Tb  Tb2  1  0.666667  0.333333  0.000000  1
  Tb  Tb3  1  0.333333  0.666667  0.000000  1
  Y  Y4  1  0.000000  0.764299  0.271063  1
  Y  Y5  1  0.235701  0.235701  0.271063  1
  Y  Y6  1  0.764299  0.000000  0.271063  1
  Y  Y7  1  0.000000  0.235701  0.728937  1
  Y  Y8  1  0.764299  0.764299  0.728937  1
  Y  Y9  1  0.235701  0.000000  0.728937  1
  Si  Si10  1  0.000000  0.398693  0.253294  1
  Si  Si11  1  0.601307  0.601307  0.253294  1
  Si  Si12  1  0.398693  0.000000  0.253294  1
  Si  Si13  1  0.000000  0.601307  0.746706  1
  Si  Si14  1  0.398693  0.398693  0.746706  1
  Si  Si15  1  0.601307  0.000000  0.746706  1
  C  C16  1  0.000000  0.000000  0.500000  1
