# generated using pymatgen
data_Y2Mn4Ni8P7
_symmetry_space_group_name_H-M   'P 1'
_cell_length_a   9.13320716
_cell_length_b   9.14962261
_cell_length_c   3.67060600
_cell_angle_alpha   90.00000000
_cell_angle_beta   90.00000000
_cell_angle_gamma   120.03726965
_symmetry_Int_Tables_number   1
_chemical_formula_structural   Y2Mn4Ni8P7
_chemical_formula_sum   'Y2 Mn4 Ni8 P7'
_cell_volume   265.54105004
_cell_formula_units_Z   1
loop_
 _symmetry_equiv_pos_site_id
 _symmetry_equiv_pos_as_xyz
  1  'x, y, z'
loop_
 _atom_site_type_symbol
 _atom_site_label
 _atom_site_symmetry_multiplicity
 _atom_site_fract_x
 _atom_site_fract_y
 _atom_site_fract_z
 _atom_site_occupancy
  Y  Y0  1  0.666594  0.332088  0.000000  1
  Y  Y1  1  0.334779  0.668301  0.500000  1
  Mn  Mn2  1  0.879690  0.155624  0.000000  1
  Mn  Mn3  1  0.097241  0.880381  0.500000  1
  Mn  Mn4  1  0.779117  0.899564  0.500000  1
  Mn  Mn5  1  0.123371  0.223382  0.500000  1
  Ni  Ni6  1  0.060102  0.625362  0.000000  1
  Ni  Ni7  1  0.564558  0.936452  0.000000  1
  Ni  Ni8  1  0.371887  0.433740  0.000000  1
  Ni  Ni9  1  0.276501  0.122354  0.000000  1
  Ni  Ni10  1  0.846206  0.721714  0.000000  1
  Ni  Ni11  1  0.436200  0.052445  0.500000  1
  Ni  Ni12  1  0.614406  0.563232  0.500000  1
  Ni  Ni13  1  0.949447  0.385167  0.500000  1
  P  P14  1  0.294288  0.887010  0.000000  1
  P  P15  1  0.593928  0.706348  0.000000  1
  P  P16  1  0.111734  0.406901  0.000000  1
  P  P17  1  0.404695  0.290817  0.500000  1
  P  P18  1  0.886388  0.596166  0.500000  1
  P  P19  1  0.711960  0.112659  0.500000  1
  P  P20  1  0.996908  0.000292  0.000000  1
