# generated using pymatgen
data_Yb3Sm(Si5Os3)2
_symmetry_space_group_name_H-M   'P 1'
_cell_length_a   8.29188783
_cell_length_b   8.27602439
_cell_length_c   5.67087743
_cell_angle_alpha   69.93762424
_cell_angle_beta   69.96646948
_cell_angle_gamma   95.00102173
_symmetry_Int_Tables_number   1
_chemical_formula_structural   Yb3Sm(Si5Os3)2
_chemical_formula_sum   'Yb3 Sm1 Si10 Os6'
_cell_volume   334.05938583
_cell_formula_units_Z   1
loop_
 _symmetry_equiv_pos_site_id
 _symmetry_equiv_pos_as_xyz
  1  'x, y, z'
loop_
 _atom_site_type_symbol
 _atom_site_label
 _atom_site_symmetry_multiplicity
 _atom_site_fract_x
 _atom_site_fract_y
 _atom_site_fract_z
 _atom_site_occupancy
  Yb  Yb0  1  0.401759  0.131968  0.733574  1
  Yb  Yb1  1  0.131637  0.400907  0.234497  1
  Yb  Yb2  1  0.599263  0.867351  0.265657  1
  Sm  Sm3  1  0.867748  0.598810  0.766424  1
  Si  Si4  1  0.074124  0.267215  0.830282  1
  Si  Si5  1  0.733570  0.929318  0.667215  1
  Si  Si6  1  0.928332  0.734721  0.167931  1
  Si  Si7  1  0.264194  0.072272  0.332345  1
  Si  Si8  1  0.210712  0.792505  0.752088  1
  Si  Si9  1  0.792310  0.210140  0.244134  1
  Si  Si10  1  0.497610  0.496638  0.752235  1
  Si  Si11  1  0.496845  0.497260  0.253608  1
  Si  Si12  1  0.792225  0.210345  0.753397  1
  Si  Si13  1  0.211170  0.791569  0.245164  1
  Os  Os14  1  0.260987  0.554553  0.593575  1
  Os  Os15  1  0.450214  0.739128  0.904196  1
  Os  Os16  1  0.740408  0.446617  0.406381  1
  Os  Os17  1  0.549102  0.258712  0.096481  1
  Os  Os18  1  0.998221  0.000538  0.750355  1
  Os  Os19  1  0.999570  0.999436  0.250459  1
