# generated using pymatgen
data_Ac8Cd2IrRu
_symmetry_space_group_name_H-M   'P 1'
_cell_length_a   10.59908177
_cell_length_b   10.55156260
_cell_length_c   10.55156309
_cell_angle_alpha   59.78186206
_cell_angle_beta   59.85091463
_cell_angle_gamma   59.85091021
_symmetry_Int_Tables_number   1
_chemical_formula_structural   Ac8Cd2IrRu
_chemical_formula_sum   'Ac16 Cd4 Ir2 Ru2'
_cell_volume   831.16380325
_cell_formula_units_Z   2
loop_
 _symmetry_equiv_pos_site_id
 _symmetry_equiv_pos_as_xyz
  1  'x, y, z'
loop_
 _atom_site_type_symbol
 _atom_site_label
 _atom_site_symmetry_multiplicity
 _atom_site_fract_x
 _atom_site_fract_y
 _atom_site_fract_z
 _atom_site_occupancy
  Ac  Ac0  1  0.561720  0.560381  0.938461  1
  Ac  Ac1  1  0.939438  0.560381  0.938461  1
  Ac  Ac2  1  0.560124  0.939876  0.939876  1
  Ac  Ac3  1  0.939438  0.938461  0.560381  1
  Ac  Ac4  1  0.561720  0.938461  0.560381  1
  Ac  Ac5  1  0.937929  0.562071  0.562071  1
  Ac  Ac6  1  0.189127  0.189968  0.812236  1
  Ac  Ac7  1  0.808669  0.189968  0.812236  1
  Ac  Ac8  1  0.190254  0.809746  0.809745  1
  Ac  Ac9  1  0.808669  0.812237  0.189968  1
  Ac  Ac10  1  0.189126  0.812236  0.189967  1
  Ac  Ac11  1  0.810266  0.189734  0.189734  1
  Ac  Ac12  1  0.345992  0.344841  0.963176  1
  Ac  Ac13  1  0.345992  0.963176  0.344841  1
  Ac  Ac14  1  0.963019  0.345305  0.345305  1
  Ac  Ac15  1  0.346371  0.345305  0.345305  1
  Cd  Cd16  1  0.578882  0.578445  0.263791  1
  Cd  Cd17  1  0.578882  0.263791  0.578445  1
  Cd  Cd18  1  0.264882  0.578290  0.578290  1
  Cd  Cd19  1  0.578538  0.578290  0.578290  1
  Ir  Ir20  1  0.139745  0.141678  0.578833  1
  Ir  Ir21  1  0.139745  0.578833  0.141678  1
  Ru  Ru22  1  0.583715  0.139264  0.139264  1
  Ru  Ru23  1  0.137757  0.139264  0.139264  1
