# generated using pymatgen
data_Er5(SiTe)2
_symmetry_space_group_name_H-M   'P 1'
_cell_length_a   8.46543745
_cell_length_b   8.46543796
_cell_length_c   7.73948200
_cell_angle_alpha   90.00000000
_cell_angle_beta   90.00000000
_cell_angle_gamma   125.83267226
_symmetry_Int_Tables_number   1
_chemical_formula_structural   Er5(SiTe)2
_chemical_formula_sum   'Er10 Si4 Te4'
_cell_volume   449.66288244
_cell_formula_units_Z   2
loop_
 _symmetry_equiv_pos_site_id
 _symmetry_equiv_pos_as_xyz
  1  'x, y, z'
loop_
 _atom_site_type_symbol
 _atom_site_label
 _atom_site_symmetry_multiplicity
 _atom_site_fract_x
 _atom_site_fract_y
 _atom_site_fract_z
 _atom_site_occupancy
  Er  Er0  1  0.040004  0.287766  0.336007  1
  Er  Er1  1  0.959996  0.712234  0.663993  1
  Er  Er2  1  0.459996  0.212234  0.836007  1
  Er  Er3  1  0.787766  0.540004  0.163993  1
  Er  Er4  1  0.540004  0.787766  0.163993  1
  Er  Er5  1  0.212234  0.459996  0.836007  1
  Er  Er6  1  0.712234  0.959996  0.663993  1
  Er  Er7  1  0.287766  0.040004  0.336007  1
  Er  Er8  1  0.000000  0.000000  0.000000  1
  Er  Er9  1  0.500000  0.500000  0.500000  1
  Si  Si10  1  0.364601  0.364601  0.133679  1
  Si  Si11  1  0.635399  0.635399  0.866321  1
  Si  Si12  1  0.135399  0.135399  0.633679  1
  Si  Si13  1  0.864601  0.864601  0.366321  1
  Te  Te14  1  0.794667  0.205333  0.000000  1
  Te  Te15  1  0.205334  0.794667  0.000000  1
  Te  Te16  1  0.705333  0.294667  0.500000  1
  Te  Te17  1  0.294667  0.705333  0.500000  1
