# generated using pymatgen
data_CaTb3Sn5SbRh7
_symmetry_space_group_name_H-M   'P 1'
_cell_length_a   7.62791536
_cell_length_b   7.63377091
_cell_length_c   7.63254699
_cell_angle_alpha   109.51109804
_cell_angle_beta   109.48004006
_cell_angle_gamma   109.41347024
_symmetry_Int_Tables_number   1
_chemical_formula_structural   CaTb3Sn5SbRh7
_chemical_formula_sum   'Ca1 Tb3 Sn5 Sb1 Rh7'
_cell_volume   342.16915149
_cell_formula_units_Z   1
loop_
 _symmetry_equiv_pos_site_id
 _symmetry_equiv_pos_as_xyz
  1  'x, y, z'
loop_
 _atom_site_type_symbol
 _atom_site_label
 _atom_site_symmetry_multiplicity
 _atom_site_fract_x
 _atom_site_fract_y
 _atom_site_fract_z
 _atom_site_occupancy
  Ca  Ca0  1  0.495011  0.999806  0.000000  1
  Tb  Tb1  1  0.998483  0.494498  0.000000  1
  Tb  Tb2  1  0.998998  0.998773  0.504467  1
  Tb  Tb3  1  0.494531  0.494306  0.495533  1
  Sn  Sn4  1  0.992791  0.312282  0.316383  1
  Sn  Sn5  1  0.676408  0.995899  0.683617  1
  Sn  Sn6  1  0.689633  0.693893  0.000000  1
  Sn  Sn7  1  0.999915  0.679829  0.683699  1
  Sn  Sn8  1  0.316216  0.996130  0.316301  1
  Sb  Sb9  1  0.324404  0.321508  0.000000  1
  Rh  Rh10  1  0.008750  0.009080  0.000000  1
  Rh  Rh11  1  0.502943  0.748562  0.251041  1
  Rh  Rh12  1  0.752890  0.507166  0.250356  1
  Rh  Rh13  1  0.244706  0.744379  0.494820  1
  Rh  Rh14  1  0.251903  0.497522  0.748959  1
  Rh  Rh15  1  0.502534  0.256811  0.749644  1
  Rh  Rh16  1  0.749885  0.249558  0.505180  1
