# generated using pymatgen
data_ScPa2(B2C)3
_symmetry_space_group_name_H-M   'P 1'
_cell_length_a   6.53273800
_cell_length_b   6.53272662
_cell_length_c   3.45507000
_cell_angle_alpha   90.00000000
_cell_angle_beta   90.00000000
_cell_angle_gamma   120.00014405
_symmetry_Int_Tables_number   1
_chemical_formula_structural   ScPa2(B2C)3
_chemical_formula_sum   'Sc1 Pa2 B6 C3'
_cell_volume   127.69578944
_cell_formula_units_Z   1
loop_
 _symmetry_equiv_pos_site_id
 _symmetry_equiv_pos_as_xyz
  1  'x, y, z'
loop_
 _atom_site_type_symbol
 _atom_site_label
 _atom_site_symmetry_multiplicity
 _atom_site_fract_x
 _atom_site_fract_y
 _atom_site_fract_z
 _atom_site_occupancy
  Sc  Sc0  1  0.999982  0.999918  0.000000  1
  Pa  Pa1  1  0.666678  0.333353  0.000000  1
  Pa  Pa2  1  0.333339  0.666673  0.000000  1
  B  B3  1  0.270370  0.000023  0.500001  1
  B  B4  1  0.729683  0.000026  0.500001  1
  B  B5  1  0.270350  0.270355  0.500001  1
  B  B6  1  0.000001  0.270358  0.500001  1
  B  B7  1  0.729663  0.729666  0.500001  1
  B  B8  1  0.000002  0.729673  0.500001  1
  C  C9  1  0.500010  0.000062  0.500001  1
  C  C10  1  0.500017  0.499985  0.500001  1
  C  C11  1  0.999969  0.499972  0.500001  1
