# generated using pymatgen
data_Zr7Ta3Si8
_symmetry_space_group_name_H-M   'P 1'
_cell_length_a   7.00933000
_cell_length_b   7.01228894
_cell_length_c   12.90131427
_cell_angle_alpha   90.34514145
_cell_angle_beta   90.00000000
_cell_angle_gamma   90.00000000
_symmetry_Int_Tables_number   1
_chemical_formula_structural   Zr7Ta3Si8
_chemical_formula_sum   'Zr14 Ta6 Si16'
_cell_volume   634.10676276
_cell_formula_units_Z   2
loop_
 _symmetry_equiv_pos_site_id
 _symmetry_equiv_pos_as_xyz
  1  'x, y, z'
loop_
 _atom_site_type_symbol
 _atom_site_label
 _atom_site_symmetry_multiplicity
 _atom_site_fract_x
 _atom_site_fract_y
 _atom_site_fract_z
 _atom_site_occupancy
  Zr  Zr0  1  0.002888  0.147747  0.128058  1
  Zr  Zr1  1  0.999914  0.853294  0.625017  1
  Zr  Zr2  1  0.646339  0.498180  0.875902  1
  Zr  Zr3  1  0.502888  0.352253  0.621942  1
  Zr  Zr4  1  0.499914  0.646706  0.124983  1
  Zr  Zr5  1  0.146339  0.001820  0.874098  1
  Zr  Zr6  1  0.001928  0.652065  0.036542  1
  Zr  Zr7  1  0.001939  0.346920  0.528830  1
  Zr  Zr8  1  0.650423  0.999385  0.967125  1
  Zr  Zr9  1  0.150423  0.500615  0.782875  1
  Zr  Zr10  1  0.846330  0.498753  0.283276  1
  Zr  Zr11  1  0.501939  0.153080  0.221170  1
  Zr  Zr12  1  0.501928  0.847935  0.713458  1
  Zr  Zr13  1  0.346330  0.001247  0.466724  1
  Ta  Ta14  1  0.354481  0.506355  0.375305  1
  Ta  Ta15  1  0.854481  0.993645  0.374695  1
  Ta  Ta16  1  0.674059  0.672944  0.497054  1
  Ta  Ta17  1  0.825119  0.174442  0.748729  1
  Ta  Ta18  1  0.174059  0.827056  0.252946  1
  Ta  Ta19  1  0.325119  0.325558  0.001271  1
  Si  Si20  1  0.049308  0.700622  0.434445  1
  Si  Si21  1  0.952045  0.301210  0.936185  1
  Si  Si22  1  0.701895  0.048103  0.561071  1
  Si  Si23  1  0.201895  0.451897  0.188929  1
  Si  Si24  1  0.800976  0.547601  0.684029  1
  Si  Si25  1  0.452045  0.198790  0.813815  1
  Si  Si26  1  0.549308  0.799378  0.315555  1
  Si  Si27  1  0.300976  0.952399  0.065971  1
  Si  Si28  1  0.852016  0.798500  0.819766  1
  Si  Si29  1  0.140404  0.207821  0.325851  1
  Si  Si30  1  0.798750  0.855266  0.183025  1
  Si  Si31  1  0.298750  0.644734  0.566975  1
  Si  Si32  1  0.701185  0.351838  0.071748  1
  Si  Si33  1  0.640404  0.292179  0.424149  1
  Si  Si34  1  0.352016  0.701500  0.930234  1
  Si  Si35  1  0.201185  0.148162  0.678252  1
