# generated using pymatgen
data_Tb7Er(SiPd)8
_symmetry_space_group_name_H-M   'P 1'
_cell_length_a   4.34499700
_cell_length_b   7.50939603
_cell_length_c   13.99695506
_cell_angle_alpha   89.98971665
_cell_angle_beta   90.00000000
_cell_angle_gamma   90.00000000
_symmetry_Int_Tables_number   1
_chemical_formula_structural   Tb7Er(SiPd)8
_chemical_formula_sum   'Tb7 Er1 Si8 Pd8'
_cell_volume   456.69688642
_cell_formula_units_Z   1
loop_
 _symmetry_equiv_pos_site_id
 _symmetry_equiv_pos_as_xyz
  1  'x, y, z'
loop_
 _atom_site_type_symbol
 _atom_site_label
 _atom_site_symmetry_multiplicity
 _atom_site_fract_x
 _atom_site_fract_y
 _atom_site_fract_z
 _atom_site_occupancy
  Tb  Tb0  1  0.000000  0.299670  0.999857  1
  Tb  Tb1  1  0.500000  0.700464  0.500303  1
  Tb  Tb2  1  0.000000  0.290816  0.500033  1
  Tb  Tb3  1  0.500000  0.709421  0.999753  1
  Tb  Tb4  1  0.000000  0.209868  0.248802  1
  Tb  Tb5  1  0.500000  0.790156  0.251127  1
  Tb  Tb6  1  0.000000  0.209094  0.751187  1
  Er  Er7  1  0.500000  0.788581  0.748877  1
  Si  Si8  1  0.000000  0.909551  0.593682  1
  Si  Si9  1  0.500000  0.090056  0.906510  1
  Si  Si10  1  0.000000  0.909553  0.407046  1
  Si  Si11  1  0.500000  0.090275  0.093039  1
  Si  Si12  1  0.000000  0.591022  0.144793  1
  Si  Si13  1  0.500000  0.409000  0.355194  1
  Si  Si14  1  0.000000  0.592161  0.854762  1
  Si  Si15  1  0.500000  0.409466  0.644857  1
  Pd  Pd16  1  0.500000  0.074877  0.609138  1
  Pd  Pd17  1  0.000000  0.923413  0.890715  1
  Pd  Pd18  1  0.500000  0.076074  0.391606  1
  Pd  Pd19  1  0.000000  0.923963  0.108416  1
  Pd  Pd20  1  0.500000  0.420192  0.156610  1
  Pd  Pd21  1  0.000000  0.579861  0.343369  1
  Pd  Pd22  1  0.500000  0.421185  0.843056  1
  Pd  Pd23  1  0.000000  0.581280  0.657268  1
