# generated using pymatgen
data_CsPr2Sm(SbAu)4
_symmetry_space_group_name_H-M   'P 1'
_cell_length_a   4.69956100
_cell_length_b   4.69956193
_cell_length_c   18.24988500
_cell_angle_alpha   90.00000000
_cell_angle_beta   90.00000000
_cell_angle_gamma   120.00000048
_symmetry_Int_Tables_number   1
_chemical_formula_structural   CsPr2Sm(SbAu)4
_chemical_formula_sum   'Cs1 Pr2 Sm1 Sb4 Au4'
_cell_volume   349.06429656
_cell_formula_units_Z   1
loop_
 _symmetry_equiv_pos_site_id
 _symmetry_equiv_pos_as_xyz
  1  'x, y, z'
loop_
 _atom_site_type_symbol
 _atom_site_label
 _atom_site_symmetry_multiplicity
 _atom_site_fract_x
 _atom_site_fract_y
 _atom_site_fract_z
 _atom_site_occupancy
  Cs  Cs0  1  0.000000  0.000000  0.250000  1
  Pr  Pr1  1  0.000000  0.000000  0.521531  1
  Pr  Pr2  1  0.000000  0.000000  0.978469  1
  Sm  Sm3  1  0.000000  0.000000  0.750000  1
  Sb  Sb4  1  0.333333  0.666667  0.404750  1
  Sb  Sb5  1  0.666667  0.333333  0.624039  1
  Sb  Sb6  1  0.666667  0.333333  0.875961  1
  Sb  Sb7  1  0.333333  0.666667  0.095250  1
  Au  Au8  1  0.666667  0.333333  0.431684  1
  Au  Au9  1  0.333333  0.666667  0.669744  1
  Au  Au10  1  0.333333  0.666667  0.830256  1
  Au  Au11  1  0.666667  0.333333  0.068316  1
