# generated using pymatgen
data_Li4AlAsPd10
_symmetry_space_group_name_H-M   'P 1'
_cell_length_a   4.14011000
_cell_length_b   5.32316671
_cell_length_c   10.40608259
_cell_angle_alpha   89.42303904
_cell_angle_beta   90.00000000
_cell_angle_gamma   90.00000000
_symmetry_Int_Tables_number   1
_chemical_formula_structural   Li4AlAsPd10
_chemical_formula_sum   'Li4 Al1 As1 Pd10'
_cell_volume   229.32277945
_cell_formula_units_Z   1
loop_
 _symmetry_equiv_pos_site_id
 _symmetry_equiv_pos_as_xyz
  1  'x, y, z'
loop_
 _atom_site_type_symbol
 _atom_site_label
 _atom_site_symmetry_multiplicity
 _atom_site_fract_x
 _atom_site_fract_y
 _atom_site_fract_z
 _atom_site_occupancy
  Li  Li0  1  0.500000  0.159805  0.365663  1
  Li  Li1  1  0.500000  0.840195  0.634337  1
  Li  Li2  1  0.500000  0.655997  0.136951  1
  Li  Li3  1  0.500000  0.344003  0.863049  1
  Al  Al4  1  0.000000  0.500000  0.500000  1
  As  As5  1  0.000000  0.000000  0.000000  1
  Pd  Pd6  1  0.500000  0.175732  0.110450  1
  Pd  Pd7  1  0.500000  0.824268  0.889550  1
  Pd  Pd8  1  0.500000  0.673449  0.389397  1
  Pd  Pd9  1  0.500000  0.326551  0.610603  1
  Pd  Pd10  1  0.000000  0.000000  0.500000  1
  Pd  Pd11  1  0.000000  0.500000  0.000000  1
  Pd  Pd12  1  0.000000  0.886434  0.235109  1
  Pd  Pd13  1  0.000000  0.113566  0.764891  1
  Pd  Pd14  1  0.000000  0.387663  0.266532  1
  Pd  Pd15  1  0.000000  0.612337  0.733468  1
