# generated using pymatgen
data_Cs7BeFe3Se8
_symmetry_space_group_name_H-M   'P 1'
_cell_length_a   10.82941515
_cell_length_b   10.82941436
_cell_length_c   17.52868600
_cell_angle_alpha   65.11208696
_cell_angle_beta   65.11208890
_cell_angle_gamma   48.72963928
_symmetry_Int_Tables_number   1
_chemical_formula_structural   Cs7BeFe3Se8
_chemical_formula_sum   'Cs14 Be2 Fe6 Se16'
_cell_volume   1370.30255506
_cell_formula_units_Z   2
loop_
 _symmetry_equiv_pos_site_id
 _symmetry_equiv_pos_as_xyz
  1  'x, y, z'
loop_
 _atom_site_type_symbol
 _atom_site_label
 _atom_site_symmetry_multiplicity
 _atom_site_fract_x
 _atom_site_fract_y
 _atom_site_fract_z
 _atom_site_occupancy
  Cs  Cs0  1  0.233955  0.766045  0.750000  1
  Cs  Cs1  1  0.769068  0.230932  0.250000  1
  Cs  Cs2  1  0.247342  0.743881  0.991393  1
  Cs  Cs3  1  0.256119  0.752658  0.508607  1
  Cs  Cs4  1  0.752758  0.252792  0.011431  1
  Cs  Cs5  1  0.747208  0.247242  0.488569  1
  Cs  Cs6  1  0.996612  0.525531  0.609323  1
  Cs  Cs7  1  0.474469  0.003388  0.890677  1
  Cs  Cs8  1  0.000636  0.476393  0.387230  1
  Cs  Cs9  1  0.523607  0.999364  0.112770  1
  Cs  Cs10  1  0.002529  0.508748  0.865783  1
  Cs  Cs11  1  0.491252  0.997471  0.634217  1
  Cs  Cs12  1  0.997651  0.487286  0.136379  1
  Cs  Cs13  1  0.512714  0.002349  0.363621  1
  Be  Be14  1  0.677263  0.444084  0.659500  1
  Be  Be15  1  0.555916  0.322737  0.840500  1
  Fe  Fe16  1  0.317583  0.575422  0.329772  1
  Fe  Fe17  1  0.424578  0.682417  0.170228  1
  Fe  Fe18  1  0.903258  0.210728  0.777780  1
  Fe  Fe19  1  0.789272  0.096742  0.722220  1
  Fe  Fe20  1  0.111743  0.783022  0.224131  1
  Fe  Fe21  1  0.216978  0.888257  0.275869  1
  Se  Se22  1  0.650361  0.492490  0.787113  1
  Se  Se23  1  0.507510  0.349639  0.712887  1
  Se  Se24  1  0.345314  0.495176  0.210062  1
  Se  Se25  1  0.504824  0.654686  0.289938  1
  Se  Se26  1  0.955163  0.208572  0.626359  1
  Se  Se27  1  0.791428  0.044837  0.873641  1
  Se  Se28  1  0.029765  0.808230  0.371920  1
  Se  Se29  1  0.191770  0.970235  0.128080  1
  Se  Se30  1  0.657621  0.613049  0.053084  1
  Se  Se31  1  0.386951  0.342379  0.446916  1
  Se  Se32  1  0.338750  0.389256  0.947180  1
  Se  Se33  1  0.610744  0.661250  0.552820  1
  Se  Se34  1  0.870687  0.863638  0.684297  1
  Se  Se35  1  0.136362  0.129313  0.815703  1
  Se  Se36  1  0.140044  0.119802  0.314258  1
  Se  Se37  1  0.880198  0.859956  0.185742  1
