# generated using pymatgen
data_Ho20CdIn5Os2
_symmetry_space_group_name_H-M   'P 1'
_cell_length_a   9.66835500
_cell_length_b   9.73758381
_cell_length_c   9.63877000
_cell_angle_alpha   90.00000000
_cell_angle_beta   90.00000000
_cell_angle_gamma   120.23714541
_symmetry_Int_Tables_number   1
_chemical_formula_structural   Ho20CdIn5Os2
_chemical_formula_sum   'Ho20 Cd1 In5 Os2'
_cell_volume   783.99496394
_cell_formula_units_Z   1
loop_
 _symmetry_equiv_pos_site_id
 _symmetry_equiv_pos_as_xyz
  1  'x, y, z'
loop_
 _atom_site_type_symbol
 _atom_site_label
 _atom_site_symmetry_multiplicity
 _atom_site_fract_x
 _atom_site_fract_y
 _atom_site_fract_z
 _atom_site_occupancy
  Ho  Ho0  1  0.996084  0.998042  0.502272  1
  Ho  Ho1  1  0.996084  0.998042  0.997728  1
  Ho  Ho2  1  0.210400  0.790834  0.440889  1
  Ho  Ho3  1  0.210400  0.419567  0.440889  1
  Ho  Ho4  1  0.579931  0.789966  0.438420  1
  Ho  Ho5  1  0.790294  0.210868  0.559227  1
  Ho  Ho6  1  0.790294  0.579425  0.559227  1
  Ho  Ho7  1  0.419097  0.209548  0.561018  1
  Ho  Ho8  1  0.790294  0.210868  0.940773  1
  Ho  Ho9  1  0.790294  0.579425  0.940773  1
  Ho  Ho10  1  0.419097  0.209548  0.938982  1
  Ho  Ho11  1  0.210400  0.790834  0.059111  1
  Ho  Ho12  1  0.210400  0.419567  0.059111  1
  Ho  Ho13  1  0.579931  0.789966  0.061580  1
  Ho  Ho14  1  0.540203  0.460639  0.250000  1
  Ho  Ho15  1  0.540203  0.079564  0.250000  1
  Ho  Ho16  1  0.925403  0.462701  0.250000  1
  Ho  Ho17  1  0.462939  0.541752  0.750000  1
  Ho  Ho18  1  0.462939  0.921185  0.750000  1
  Ho  Ho19  1  0.079936  0.539967  0.750000  1
  Cd  Cd20  1  0.766162  0.883081  0.750000  1
  In  In21  1  0.885205  0.118162  0.250000  1
  In  In22  1  0.885205  0.767042  0.250000  1
  In  In23  1  0.230858  0.115430  0.250000  1
  In  In24  1  0.115187  0.881619  0.750000  1
  In  In25  1  0.115187  0.233567  0.750000  1
  Os  Os26  1  0.329354  0.664677  0.250000  1
  Os  Os27  1  0.668222  0.334112  0.750000  1
