# generated using pymatgen
data_Cs12CaLuSe8
_symmetry_space_group_name_H-M   'P 1'
_cell_length_a   11.56243900
_cell_length_b   11.56243847
_cell_length_c   8.80246500
_cell_angle_alpha   90.00000000
_cell_angle_beta   90.00000000
_cell_angle_gamma   120.00000438
_symmetry_Int_Tables_number   1
_chemical_formula_structural   Cs12CaLuSe8
_chemical_formula_sum   'Cs12 Ca1 Lu1 Se8'
_cell_volume   1019.13990862
_cell_formula_units_Z   1
loop_
 _symmetry_equiv_pos_site_id
 _symmetry_equiv_pos_as_xyz
  1  'x, y, z'
loop_
 _atom_site_type_symbol
 _atom_site_label
 _atom_site_symmetry_multiplicity
 _atom_site_fract_x
 _atom_site_fract_y
 _atom_site_fract_z
 _atom_site_occupancy
  Cs  Cs0  1  0.138416  0.861584  0.538869  1
  Cs  Cs1  1  0.283115  0.141557  0.050225  1
  Cs  Cs2  1  0.858443  0.716885  0.050225  1
  Cs  Cs3  1  0.138416  0.276832  0.538869  1
  Cs  Cs4  1  0.723168  0.861584  0.538869  1
  Cs  Cs5  1  0.858443  0.141557  0.050225  1
  Cs  Cs6  1  0.533974  0.466026  0.367601  1
  Cs  Cs7  1  0.057993  0.528997  0.857423  1
  Cs  Cs8  1  0.471003  0.942007  0.857423  1
  Cs  Cs9  1  0.533974  0.067948  0.367601  1
  Cs  Cs10  1  0.932052  0.466026  0.367601  1
  Cs  Cs11  1  0.471003  0.528997  0.857423  1
  Ca  Ca12  1  0.666667  0.333333  0.756480  1
  Lu  Lu13  1  0.333333  0.666667  0.254408  1
  Se  Se14  1  0.333333  0.666667  0.560106  1
  Se  Se15  1  0.666667  0.333333  0.082215  1
  Se  Se16  1  0.206817  0.793183  0.152704  1
  Se  Se17  1  0.393091  0.196546  0.655243  1
  Se  Se18  1  0.803454  0.606909  0.655243  1
  Se  Se19  1  0.206817  0.413632  0.152704  1
  Se  Se20  1  0.586368  0.793183  0.152704  1
  Se  Se21  1  0.803454  0.196546  0.655243  1
