# generated using pymatgen
data_Lu2VNiB8
_symmetry_space_group_name_H-M   'P 1'
_cell_length_a   3.38018900
_cell_length_b   5.90803534
_cell_length_c   11.40645753
_cell_angle_alpha   90.13924316
_cell_angle_beta   90.00000000
_cell_angle_gamma   90.00000000
_symmetry_Int_Tables_number   1
_chemical_formula_structural   Lu2VNiB8
_chemical_formula_sum   'Lu4 V2 Ni2 B16'
_cell_volume   227.78943318
_cell_formula_units_Z   2
loop_
 _symmetry_equiv_pos_site_id
 _symmetry_equiv_pos_as_xyz
  1  'x, y, z'
loop_
 _atom_site_type_symbol
 _atom_site_label
 _atom_site_symmetry_multiplicity
 _atom_site_fract_x
 _atom_site_fract_y
 _atom_site_fract_z
 _atom_site_occupancy
  Lu  Lu0  1  0.500000  0.373011  0.148658  1
  Lu  Lu1  1  0.500000  0.626989  0.851342  1
  Lu  Lu2  1  0.500000  0.124893  0.651335  1
  Lu  Lu3  1  0.500000  0.875107  0.348665  1
  V  V4  1  0.500000  0.372402  0.413763  1
  V  V5  1  0.500000  0.627598  0.586237  1
  Ni  Ni6  1  0.500000  0.131833  0.911443  1
  Ni  Ni7  1  0.500000  0.868167  0.088557  1
  B  B8  1  0.000000  0.115641  0.047240  1
  B  B9  1  0.000000  0.884359  0.952760  1
  B  B10  1  0.000000  0.383894  0.547697  1
  B  B11  1  0.000000  0.616106  0.452303  1
  B  B12  1  0.000000  0.132981  0.466802  1
  B  B13  1  0.000000  0.867019  0.533198  1
  B  B14  1  0.000000  0.362962  0.968249  1
  B  B15  1  0.000000  0.637038  0.031751  1
  B  B16  1  0.000000  0.019901  0.190226  1
  B  B17  1  0.000000  0.980099  0.809774  1
  B  B18  1  0.000000  0.473931  0.695794  1
  B  B19  1  0.000000  0.526069  0.304206  1
  B  B20  1  0.000000  0.209535  0.311039  1
  B  B21  1  0.000000  0.790465  0.688961  1
  B  B22  1  0.000000  0.286223  0.816747  1
  B  B23  1  0.000000  0.713777  0.183253  1
