# generated using pymatgen
data_Ti6ZnCu4SiO2
_symmetry_space_group_name_H-M   'P 1'
_cell_length_a   7.95232361
_cell_length_b   7.96145914
_cell_length_c   7.95232363
_cell_angle_alpha   59.96198325
_cell_angle_beta   59.92379384
_cell_angle_gamma   59.96198719
_symmetry_Int_Tables_number   1
_chemical_formula_structural   Ti6ZnCu4SiO2
_chemical_formula_sum   'Ti12 Zn2 Cu8 Si2 O4'
_cell_volume   355.60308670
_cell_formula_units_Z   2
loop_
 _symmetry_equiv_pos_site_id
 _symmetry_equiv_pos_as_xyz
  1  'x, y, z'
loop_
 _atom_site_type_symbol
 _atom_site_label
 _atom_site_symmetry_multiplicity
 _atom_site_fract_x
 _atom_site_fract_y
 _atom_site_fract_z
 _atom_site_occupancy
  Ti  Ti0  1  0.812772  0.187228  0.812772  1
  Ti  Ti1  1  0.185097  0.814903  0.185097  1
  Ti  Ti2  1  0.437228  0.062772  0.437228  1
  Ti  Ti3  1  0.434412  0.065355  0.063720  1
  Ti  Ti4  1  0.063720  0.436514  0.434412  1
  Ti  Ti5  1  0.064903  0.435097  0.064903  1
  Ti  Ti6  1  0.186280  0.184645  0.815588  1
  Ti  Ti7  1  0.434412  0.436514  0.063720  1
  Ti  Ti8  1  0.186280  0.813486  0.815588  1
  Ti  Ti9  1  0.815588  0.184645  0.186280  1
  Ti  Ti10  1  0.063720  0.065355  0.434412  1
  Ti  Ti11  1  0.815588  0.813486  0.186280  1
  Zn  Zn12  1  0.125000  0.625000  0.625000  1
  Zn  Zn13  1  0.625000  0.625000  0.125000  1
  Cu  Cu14  1  0.418039  0.753788  0.418039  1
  Cu  Cu15  1  0.828033  0.835736  0.500496  1
  Cu  Cu16  1  0.831961  0.839866  0.831961  1
  Cu  Cu17  1  0.500496  0.835736  0.828033  1
  Cu  Cu18  1  0.418039  0.410134  0.418039  1
  Cu  Cu19  1  0.421967  0.414264  0.749504  1
  Cu  Cu20  1  0.831961  0.496212  0.831961  1
  Cu  Cu21  1  0.749504  0.414264  0.421967  1
  Si  Si22  1  0.625000  0.625000  0.625000  1
  Si  Si23  1  0.625000  0.125000  0.625000  1
  O  O24  1  0.125000  0.125000  0.625000  1
  O  O25  1  0.625000  0.125000  0.125000  1
  O  O26  1  0.125000  0.125000  0.125000  1
  O  O27  1  0.125000  0.625000  0.125000  1
