# generated using pymatgen
data_Ca5MnMoN7
_symmetry_space_group_name_H-M   'P 1'
_cell_length_a   6.12481495
_cell_length_b   8.71541093
_cell_length_c   8.80440192
_cell_angle_alpha   114.54727834
_cell_angle_beta   96.64878289
_cell_angle_gamma   89.12232241
_symmetry_Int_Tables_number   1
_chemical_formula_structural   Ca5MnMoN7
_chemical_formula_sum   'Ca10 Mn2 Mo2 N14'
_cell_volume   424.34915007
_cell_formula_units_Z   2
loop_
 _symmetry_equiv_pos_site_id
 _symmetry_equiv_pos_as_xyz
  1  'x, y, z'
loop_
 _atom_site_type_symbol
 _atom_site_label
 _atom_site_symmetry_multiplicity
 _atom_site_fract_x
 _atom_site_fract_y
 _atom_site_fract_z
 _atom_site_occupancy
  Ca  Ca0  1  0.839802  0.591686  0.332512  1
  Ca  Ca1  1  0.264471  0.977358  0.555352  1
  Ca  Ca2  1  0.704589  0.414530  0.849169  1
  Ca  Ca3  1  0.295411  0.585470  0.150831  1
  Ca  Ca4  1  0.401608  0.787371  0.915077  1
  Ca  Ca5  1  0.598392  0.212629  0.084923  1
  Ca  Ca6  1  0.160198  0.408314  0.667488  1
  Ca  Ca7  1  0.891627  0.842659  0.752696  1
  Ca  Ca8  1  0.108373  0.157341  0.247304  1
  Ca  Ca9  1  0.735529  0.022642  0.444648  1
  Mn  Mn10  1  0.575341  0.359483  0.475683  1
  Mn  Mn11  1  0.424659  0.640517  0.524317  1
  Mo  Mo12  1  0.121538  0.215647  0.918486  1
  Mo  Mo13  1  0.878462  0.784353  0.081514  1
  N  N14  1  0.535532  0.549095  0.669223  1
  N  N15  1  0.464468  0.450905  0.330777  1
  N  N16  1  0.158789  0.699436  0.556151  1
  N  N17  1  0.841211  0.300564  0.443849  1
  N  N18  1  0.413546  0.194306  0.471465  1
  N  N19  1  0.586454  0.805694  0.528535  1
  N  N20  1  0.947832  0.129262  0.708900  1
  N  N21  1  0.052168  0.870738  0.291100  1
  N  N22  1  0.240004  0.045497  0.974247  1
  N  N23  1  0.759996  0.954503  0.025753  1
  N  N24  1  0.366373  0.331959  0.902570  1
  N  N25  1  0.958272  0.357375  0.090926  1
  N  N26  1  0.041728  0.642625  0.909074  1
  N  N27  1  0.633627  0.668041  0.097430  1
