# generated using pymatgen
data_CeU(PS)2
_symmetry_space_group_name_H-M   'P 1'
_cell_length_a   5.39878100
_cell_length_b   5.48726400
_cell_length_c   16.16673300
_cell_angle_alpha   90.00000000
_cell_angle_beta   90.00000000
_cell_angle_gamma   90.00000000
_symmetry_Int_Tables_number   1
_chemical_formula_structural   CeU(PS)2
_chemical_formula_sum   'Ce4 U4 P8 S8'
_cell_volume   478.93197387
_cell_formula_units_Z   4
loop_
 _symmetry_equiv_pos_site_id
 _symmetry_equiv_pos_as_xyz
  1  'x, y, z'
loop_
 _atom_site_type_symbol
 _atom_site_label
 _atom_site_symmetry_multiplicity
 _atom_site_fract_x
 _atom_site_fract_y
 _atom_site_fract_z
 _atom_site_occupancy
  Ce  Ce0  1  0.750000  0.484398  0.632782  1
  Ce  Ce1  1  0.250000  0.015602  0.132782  1
  Ce  Ce2  1  0.750000  0.984398  0.867218  1
  Ce  Ce3  1  0.250000  0.515602  0.367218  1
  U  U4  1  0.750000  0.018349  0.356137  1
  U  U5  1  0.250000  0.481651  0.856137  1
  U  U6  1  0.750000  0.518349  0.143863  1
  U  U7  1  0.250000  0.981651  0.643863  1
  P  P8  1  0.523110  0.291821  0.000504  1
  P  P9  1  0.476890  0.208179  0.500504  1
  P  P10  1  0.976890  0.791821  0.499496  1
  P  P11  1  0.023110  0.708179  0.999496  1
  P  P12  1  0.476890  0.708179  0.999496  1
  P  P13  1  0.523110  0.791821  0.499496  1
  P  P14  1  0.023110  0.208179  0.500504  1
  P  P15  1  0.976890  0.291821  0.000504  1
  S  S16  1  0.750000  0.015399  0.180023  1
  S  S17  1  0.250000  0.484601  0.680023  1
  S  S18  1  0.750000  0.515399  0.319977  1
  S  S19  1  0.250000  0.984601  0.819977  1
  S  S20  1  0.750000  0.485959  0.815385  1
  S  S21  1  0.250000  0.014041  0.315385  1
  S  S22  1  0.750000  0.985959  0.684615  1
  S  S23  1  0.250000  0.514041  0.184615  1
