# generated using pymatgen
data_Y4Ga18Co5Ni
_symmetry_space_group_name_H-M   'P 1'
_cell_length_a   7.38686808
_cell_length_b   7.38686821
_cell_length_c   9.42604016
_cell_angle_alpha   89.94623956
_cell_angle_beta   89.94624050
_cell_angle_gamma   119.88292112
_symmetry_Int_Tables_number   1
_chemical_formula_structural   Y4Ga18Co5Ni
_chemical_formula_sum   'Y4 Ga18 Co5 Ni1'
_cell_volume   445.95496810
_cell_formula_units_Z   1
loop_
 _symmetry_equiv_pos_site_id
 _symmetry_equiv_pos_as_xyz
  1  'x, y, z'
loop_
 _atom_site_type_symbol
 _atom_site_label
 _atom_site_symmetry_multiplicity
 _atom_site_fract_x
 _atom_site_fract_y
 _atom_site_fract_z
 _atom_site_occupancy
  Y  Y0  1  0.667876  0.997159  0.749667  1
  Y  Y1  1  0.332124  0.002841  0.250333  1
  Y  Y2  1  0.997159  0.667876  0.749667  1
  Y  Y3  1  0.002841  0.332124  0.250333  1
  Ga  Ga4  1  0.000137  0.664155  0.072319  1
  Ga  Ga5  1  0.666099  0.000185  0.428717  1
  Ga  Ga6  1  0.000185  0.666099  0.428717  1
  Ga  Ga7  1  0.999863  0.335845  0.927681  1
  Ga  Ga8  1  0.664155  0.000137  0.072319  1
  Ga  Ga9  1  0.335845  0.999863  0.927681  1
  Ga  Ga10  1  0.666409  0.666409  0.557151  1
  Ga  Ga11  1  0.336002  0.336002  0.057914  1
  Ga  Ga12  1  0.663998  0.663998  0.942086  1
  Ga  Ga13  1  0.333591  0.333591  0.442849  1
  Ga  Ga14  1  0.121758  0.121758  0.748449  1
  Ga  Ga15  1  0.878242  0.878242  0.251551  1
  Ga  Ga16  1  0.663940  0.450234  0.250037  1
  Ga  Ga17  1  0.336060  0.549766  0.749963  1
  Ga  Ga18  1  0.450234  0.663940  0.250037  1
  Ga  Ga19  1  0.549766  0.336060  0.749963  1
  Ga  Ga20  1  0.333901  0.999815  0.571283  1
  Ga  Ga21  1  0.999815  0.333901  0.571283  1
  Co  Co22  1  0.670896  0.329104  0.000000  1
  Co  Co23  1  0.329064  0.670936  0.500000  1
  Co  Co24  1  0.329104  0.670896  0.000000  1
  Co  Co25  1  0.670936  0.329064  0.500000  1
  Co  Co26  1  0.000000  0.000000  0.500000  1
  Ni  Ni27  1  0.000000  0.000000  0.000000  1
