# generated using pymatgen
data_Ho4Ir3Os3Ru2
_symmetry_space_group_name_H-M   'P 1'
_cell_length_a   5.30571076
_cell_length_b   5.26428838
_cell_length_c   8.89878400
_cell_angle_alpha   90.00000000
_cell_angle_beta   90.00000000
_cell_angle_gamma   119.74208867
_symmetry_Int_Tables_number   1
_chemical_formula_structural   Ho4Ir3Os3Ru2
_chemical_formula_sum   'Ho4 Ir3 Os3 Ru2'
_cell_volume   215.80791293
_cell_formula_units_Z   1
loop_
 _symmetry_equiv_pos_site_id
 _symmetry_equiv_pos_as_xyz
  1  'x, y, z'
loop_
 _atom_site_type_symbol
 _atom_site_label
 _atom_site_symmetry_multiplicity
 _atom_site_fract_x
 _atom_site_fract_y
 _atom_site_fract_z
 _atom_site_occupancy
  Ho  Ho0  1  0.333128  0.666565  0.430918  1
  Ho  Ho1  1  0.666489  0.333244  0.566335  1
  Ho  Ho2  1  0.666489  0.333244  0.933665  1
  Ho  Ho3  1  0.333128  0.666565  0.069082  1
  Ir  Ir4  1  0.999137  0.999568  0.498345  1
  Ir  Ir5  1  0.999137  0.999568  0.001655  1
  Ir  Ir6  1  0.340408  0.170204  0.250000  1
  Os  Os7  1  0.171372  0.828679  0.750000  1
  Os  Os8  1  0.171372  0.342693  0.750000  1
  Os  Os9  1  0.658400  0.829200  0.750000  1
  Ru  Ru10  1  0.830470  0.171844  0.250000  1
  Ru  Ru11  1  0.830470  0.658626  0.250000  1
