# generated using pymatgen
data_HoLu7(B6Rh)4
_symmetry_space_group_name_H-M   'P 1'
_cell_length_a   3.59700300
_cell_length_b   9.08290201
_cell_length_c   11.40696001
_cell_angle_alpha   90.00414479
_cell_angle_beta   90.00000000
_cell_angle_gamma   90.00000000
_symmetry_Int_Tables_number   1
_chemical_formula_structural   HoLu7(B6Rh)4
_chemical_formula_sum   'Ho1 Lu7 B24 Rh4'
_cell_volume   372.67936471
_cell_formula_units_Z   1
loop_
 _symmetry_equiv_pos_site_id
 _symmetry_equiv_pos_as_xyz
  1  'x, y, z'
loop_
 _atom_site_type_symbol
 _atom_site_label
 _atom_site_symmetry_multiplicity
 _atom_site_fract_x
 _atom_site_fract_y
 _atom_site_fract_z
 _atom_site_occupancy
  Ho  Ho0  1  0.500000  0.321855  0.413575  1
  Lu  Lu1  1  0.500000  0.678563  0.586412  1
  Lu  Lu2  1  0.500000  0.178611  0.913613  1
  Lu  Lu3  1  0.500000  0.821329  0.086313  1
  Lu  Lu4  1  0.500000  0.444559  0.126341  1
  Lu  Lu5  1  0.500000  0.555603  0.873447  1
  Lu  Lu6  1  0.500000  0.055304  0.626948  1
  Lu  Lu7  1  0.500000  0.944174  0.373357  1
  B  B8  1  0.000000  0.106733  0.471081  1
  B  B9  1  0.000000  0.892034  0.529362  1
  B  B10  1  0.000000  0.391760  0.970489  1
  B  B11  1  0.000000  0.608458  0.029297  1
  B  B12  1  0.000000  0.132103  0.316331  1
  B  B13  1  0.000000  0.867057  0.683351  1
  B  B14  1  0.000000  0.367158  0.816806  1
  B  B15  1  0.000000  0.633022  0.183016  1
  B  B16  1  0.000000  0.053822  0.064608  1
  B  B17  1  0.000000  0.946102  0.935195  1
  B  B18  1  0.000000  0.446751  0.565617  1
  B  B19  1  0.000000  0.554673  0.435212  1
  B  B20  1  0.000000  0.482769  0.286110  1
  B  B21  1  0.000000  0.518391  0.713314  1
  B  B22  1  0.000000  0.017994  0.787001  1
  B  B23  1  0.000000  0.981655  0.213074  1
  B  B24  1  0.000000  0.250366  0.078545  1
  B  B25  1  0.000000  0.749650  0.921137  1
  B  B26  1  0.000000  0.249161  0.579873  1
  B  B27  1  0.000000  0.750525  0.421244  1
  B  B28  1  0.000000  0.294917  0.235476  1
  B  B29  1  0.000000  0.704770  0.763685  1
  B  B30  1  0.000000  0.204596  0.736779  1
  B  B31  1  0.000000  0.795275  0.263396  1
  Rh  Rh32  1  0.500000  0.139515  0.178543  1
  Rh  Rh33  1  0.500000  0.860052  0.821142  1
  Rh  Rh34  1  0.500000  0.360022  0.679614  1
  Rh  Rh35  1  0.500000  0.640674  0.320698  1
