# generated using pymatgen
data_Gd4IrPd2Au
_symmetry_space_group_name_H-M   'P 1'
_cell_length_a   4.58159700
_cell_length_b   5.60158957
_cell_length_c   7.17980900
_cell_angle_alpha   89.69269390
_cell_angle_beta   90.00000000
_cell_angle_gamma   90.00000000
_symmetry_Int_Tables_number   1
_chemical_formula_structural   Gd4IrPd2Au
_chemical_formula_sum   'Gd4 Ir1 Pd2 Au1'
_cell_volume   184.26159024
_cell_formula_units_Z   1
loop_
 _symmetry_equiv_pos_site_id
 _symmetry_equiv_pos_as_xyz
  1  'x, y, z'
loop_
 _atom_site_type_symbol
 _atom_site_label
 _atom_site_symmetry_multiplicity
 _atom_site_fract_x
 _atom_site_fract_y
 _atom_site_fract_z
 _atom_site_occupancy
  Gd  Gd0  1  0.250000  0.362257  0.674070  1
  Gd  Gd1  1  0.250000  0.131553  0.192729  1
  Gd  Gd2  1  0.750000  0.649595  0.328001  1
  Gd  Gd3  1  0.750000  0.856474  0.803087  1
  Ir  Ir4  1  0.250000  0.840281  0.543182  1
  Pd  Pd5  1  0.250000  0.650249  0.040694  1
  Pd  Pd6  1  0.750000  0.157356  0.455588  1
  Au  Au7  1  0.750000  0.352230  0.962649  1
