# generated using pymatgen
data_Cs6TbLuF12
_symmetry_space_group_name_H-M   'P 1'
_cell_length_a   7.03140413
_cell_length_b   6.78332553
_cell_length_c   11.78768400
_cell_angle_alpha   55.26956668
_cell_angle_beta   89.92437324
_cell_angle_gamma   90.02447822
_symmetry_Int_Tables_number   1
_chemical_formula_structural   Cs6TbLuF12
_chemical_formula_sum   'Cs6 Tb1 Lu1 F12'
_cell_volume   462.06223040
_cell_formula_units_Z   1
loop_
 _symmetry_equiv_pos_site_id
 _symmetry_equiv_pos_as_xyz
  1  'x, y, z'
loop_
 _atom_site_type_symbol
 _atom_site_label
 _atom_site_symmetry_multiplicity
 _atom_site_fract_x
 _atom_site_fract_y
 _atom_site_fract_z
 _atom_site_occupancy
  Cs  Cs0  1  0.500000  0.500000  0.000000  1
  Cs  Cs1  1  0.000000  0.500000  0.500000  1
  Cs  Cs2  1  0.048622  0.737320  0.748459  1
  Cs  Cs3  1  0.951378  0.262680  0.251541  1
  Cs  Cs4  1  0.547311  0.268829  0.744282  1
  Cs  Cs5  1  0.452689  0.731171  0.255718  1
  Tb  Tb6  1  0.000000  0.000000  0.000000  1
  Lu  Lu7  1  0.500000  0.000000  0.500000  1
  F  F8  1  0.748669  0.783028  0.559191  1
  F  F9  1  0.251331  0.216972  0.440809  1
  F  F10  1  0.258053  0.223534  0.935230  1
  F  F11  1  0.741947  0.776466  0.064770  1
  F  F12  1  0.455487  0.889603  0.706638  1
  F  F13  1  0.544513  0.110397  0.293362  1
  F  F14  1  0.951583  0.110922  0.786988  1
  F  F15  1  0.048417  0.889078  0.213012  1
  F  F16  1  0.333484  0.704396  0.540954  1
  F  F17  1  0.666516  0.295604  0.459046  1
  F  F18  1  0.832095  0.309361  0.955205  1
  F  F19  1  0.167905  0.690639  0.044795  1
