# generated using pymatgen
data_Pr3Ag2Hg3Pt
_symmetry_space_group_name_H-M   'P 1'
_cell_length_a   8.18134000
_cell_length_b   8.18134063
_cell_length_c   3.86889700
_cell_angle_alpha   90.00000000
_cell_angle_beta   90.00000000
_cell_angle_gamma   119.99999747
_symmetry_Int_Tables_number   1
_chemical_formula_structural   Pr3Ag2Hg3Pt
_chemical_formula_sum   'Pr3 Ag2 Hg3 Pt1'
_cell_volume   224.26769876
_cell_formula_units_Z   1
loop_
 _symmetry_equiv_pos_site_id
 _symmetry_equiv_pos_as_xyz
  1  'x, y, z'
loop_
 _atom_site_type_symbol
 _atom_site_label
 _atom_site_symmetry_multiplicity
 _atom_site_fract_x
 _atom_site_fract_y
 _atom_site_fract_z
 _atom_site_occupancy
  Pr  Pr0  1  0.391138  0.413680  0.500000  1
  Pr  Pr1  1  0.586320  0.977458  0.500000  1
  Pr  Pr2  1  0.022542  0.608862  0.500000  1
  Ag  Ag3  1  0.666667  0.333333  0.000000  1
  Ag  Ag4  1  0.000000  0.000000  0.500000  1
  Hg  Hg5  1  0.732487  0.723803  0.000000  1
  Hg  Hg6  1  0.276197  0.008684  0.000000  1
  Hg  Hg7  1  0.991316  0.267513  0.000000  1
  Pt  Pt8  1  0.333333  0.666667  0.000000  1
