# generated using pymatgen
data_LuU(CuRh2)2
_symmetry_space_group_name_H-M   'P 1'
_cell_length_a   4.09476900
_cell_length_b   4.09476900
_cell_length_c   7.43551700
_cell_angle_alpha   90.00000000
_cell_angle_beta   90.00000000
_cell_angle_gamma   90.00000000
_symmetry_Int_Tables_number   1
_chemical_formula_structural   LuU(CuRh2)2
_chemical_formula_sum   'Lu1 U1 Cu2 Rh4'
_cell_volume   124.67230368
_cell_formula_units_Z   1
loop_
 _symmetry_equiv_pos_site_id
 _symmetry_equiv_pos_as_xyz
  1  'x, y, z'
loop_
 _atom_site_type_symbol
 _atom_site_label
 _atom_site_symmetry_multiplicity
 _atom_site_fract_x
 _atom_site_fract_y
 _atom_site_fract_z
 _atom_site_occupancy
  Lu  Lu0  1  0.000000  0.000000  0.500000  1
  U  U1  1  0.000000  0.000000  0.000000  1
  Cu  Cu2  1  0.500000  0.500000  0.000000  1
  Cu  Cu3  1  0.500000  0.500000  0.500000  1
  Rh  Rh4  1  0.500000  0.000000  0.238669  1
  Rh  Rh5  1  0.500000  0.000000  0.761331  1
  Rh  Rh6  1  0.000000  0.500000  0.238669  1
  Rh  Rh7  1  0.000000  0.500000  0.761331  1
