# generated using pymatgen
data_Y4(CuNi)7
_symmetry_space_group_name_H-M   'P 1'
_cell_length_a   5.01202751
_cell_length_b   5.01203021
_cell_length_c   12.57173521
_cell_angle_alpha   78.50178280
_cell_angle_beta   78.50179908
_cell_angle_gamma   60.00000310
_symmetry_Int_Tables_number   1
_chemical_formula_structural   Y4(CuNi)7
_chemical_formula_sum   'Y4 Cu7 Ni7'
_cell_volume   266.15367128
_cell_formula_units_Z   1
loop_
 _symmetry_equiv_pos_site_id
 _symmetry_equiv_pos_as_xyz
  1  'x, y, z'
loop_
 _atom_site_type_symbol
 _atom_site_label
 _atom_site_symmetry_multiplicity
 _atom_site_fract_x
 _atom_site_fract_y
 _atom_site_fract_z
 _atom_site_occupancy
  Y  Y0  1  0.945134  0.945134  0.164598  1
  Y  Y1  1  0.054866  0.054866  0.835402  1
  Y  Y2  1  0.851797  0.851797  0.444609  1
  Y  Y3  1  0.148203  0.148203  0.555391  1
  Cu  Cu4  1  0.723000  0.723000  0.830999  1
  Cu  Cu5  1  0.277000  0.277000  0.169001  1
  Cu  Cu6  1  0.610444  0.610444  0.168667  1
  Cu  Cu7  1  0.389556  0.389556  0.831333  1
  Cu  Cu8  1  0.000000  0.500000  0.000000  1
  Cu  Cu9  1  0.500000  0.000000  0.000000  1
  Cu  Cu10  1  0.500000  0.500000  0.000000  1
  Ni  Ni11  1  0.500000  0.500000  0.500000  1
  Ni  Ni12  1  0.389051  0.389051  0.333031  1
  Ni  Ni13  1  0.888867  0.389051  0.333031  1
  Ni  Ni14  1  0.389051  0.888867  0.333031  1
  Ni  Ni15  1  0.610949  0.610949  0.666969  1
  Ni  Ni16  1  0.111133  0.610949  0.666969  1
  Ni  Ni17  1  0.610949  0.111133  0.666969  1
