# generated using pymatgen
data_Nd8Y7Ho5Si16
_symmetry_space_group_name_H-M   'P 1'
_cell_length_a   7.76751002
_cell_length_b   7.76701802
_cell_length_c   14.46388801
_cell_angle_alpha   90.00291787
_cell_angle_beta   89.99676053
_cell_angle_gamma   89.99336113
_symmetry_Int_Tables_number   1
_chemical_formula_structural   Nd8Y7Ho5Si16
_chemical_formula_sum   'Nd8 Y7 Ho5 Si16'
_cell_volume   872.61199955
_cell_formula_units_Z   1
loop_
 _symmetry_equiv_pos_site_id
 _symmetry_equiv_pos_as_xyz
  1  'x, y, z'
loop_
 _atom_site_type_symbol
 _atom_site_label
 _atom_site_symmetry_multiplicity
 _atom_site_fract_x
 _atom_site_fract_y
 _atom_site_fract_z
 _atom_site_occupancy
  Nd  Nd0  1  0.635033  0.990579  0.455196  1
  Nd  Nd1  1  0.364649  0.009635  0.954997  1
  Nd  Nd2  1  0.990649  0.635028  0.544945  1
  Nd  Nd3  1  0.490524  0.865035  0.205238  1
  Nd  Nd4  1  0.509597  0.135058  0.704873  1
  Nd  Nd5  1  0.865068  0.490456  0.794743  1
  Nd  Nd6  1  0.135182  0.509388  0.294928  1
  Nd  Nd7  1  0.009853  0.364790  0.045086  1
  Y  Y8  1  0.864640  0.011994  0.874787  1
  Y  Y9  1  0.135358  0.988629  0.374859  1
  Y  Y10  1  0.511514  0.635236  0.624779  1
  Y  Y11  1  0.364172  0.488146  0.874848  1
  Y  Y12  1  0.635313  0.511393  0.375346  1
  Y  Y13  1  0.011728  0.864902  0.125286  1
  Y  Y14  1  0.685362  0.685269  0.000037  1
  Ho  Ho15  1  0.488691  0.364525  0.125079  1
  Ho  Ho16  1  0.988826  0.135212  0.625065  1
  Ho  Ho17  1  0.314366  0.314276  0.499981  1
  Ho  Ho18  1  0.185249  0.814833  0.749843  1
  Ho  Ho19  1  0.814361  0.185690  0.250095  1
  Si  Si20  1  0.287176  0.932071  0.561771  1
  Si  Si21  1  0.711768  0.069530  0.062004  1
  Si  Si22  1  0.931911  0.287461  0.438819  1
  Si  Si23  1  0.431993  0.212553  0.311266  1
  Si  Si24  1  0.568122  0.788209  0.811125  1
  Si  Si25  1  0.211617  0.431048  0.688020  1
  Si  Si26  1  0.787406  0.567477  0.188636  1
  Si  Si27  1  0.069106  0.712199  0.938346  1
  Si  Si28  1  0.801206  0.841468  0.692797  1
  Si  Si29  1  0.200042  0.159989  0.192916  1
  Si  Si30  1  0.840320  0.800843  0.306701  1
  Si  Si31  1  0.340323  0.699329  0.443336  1
  Si  Si32  1  0.658846  0.300756  0.943625  1
  Si  Si33  1  0.700194  0.340034  0.557183  1
  Si  Si34  1  0.300645  0.658212  0.057368  1
  Si  Si35  1  0.159191  0.198749  0.806076  1
