# generated using pymatgen
data_LaPr3Ge8PtAu7
_symmetry_space_group_name_H-M   'P 1'
_cell_length_a   4.50568602
_cell_length_b   9.02859132
_cell_length_c   10.40024859
_cell_angle_alpha   89.80788773
_cell_angle_beta   89.97974329
_cell_angle_gamma   89.99854523
_symmetry_Int_Tables_number   1
_chemical_formula_structural   LaPr3Ge8PtAu7
_chemical_formula_sum   'La1 Pr3 Ge8 Pt1 Au7'
_cell_volume   423.07968349
_cell_formula_units_Z   1
loop_
 _symmetry_equiv_pos_site_id
 _symmetry_equiv_pos_as_xyz
  1  'x, y, z'
loop_
 _atom_site_type_symbol
 _atom_site_label
 _atom_site_symmetry_multiplicity
 _atom_site_fract_x
 _atom_site_fract_y
 _atom_site_fract_z
 _atom_site_occupancy
  La  La0  1  0.747005  0.125926  0.753210  1
  Pr  Pr1  1  0.254295  0.871843  0.245795  1
  Pr  Pr2  1  0.752364  0.625269  0.757827  1
  Pr  Pr3  1  0.247482  0.376249  0.245776  1
  Ge  Ge4  1  0.250525  0.123507  0.001666  1
  Ge  Ge5  1  0.762212  0.620285  0.357351  1
  Ge  Ge6  1  0.730977  0.119058  0.371856  1
  Ge  Ge7  1  0.252272  0.624118  0.006097  1
  Ge  Ge8  1  0.233305  0.382569  0.630884  1
  Ge  Ge9  1  0.749361  0.380747  0.004970  1
  Ge  Ge10  1  0.269696  0.878967  0.630091  1
  Ge  Ge11  1  0.750284  0.871322  0.004439  1
  Pt  Pt12  1  0.752001  0.625913  0.119658  1
  Au  Au13  1  0.263247  0.629600  0.496810  1
  Au  Au14  1  0.751562  0.125744  0.129456  1
  Au  Au15  1  0.231208  0.130846  0.501551  1
  Au  Au16  1  0.769158  0.864692  0.499069  1
  Au  Au17  1  0.250316  0.374872  0.872947  1
  Au  Au18  1  0.248922  0.873151  0.872235  1
  Au  Au19  1  0.733809  0.375320  0.498311  1
