# generated using pymatgen
data_Nd2Ga3Cu7
_symmetry_space_group_name_H-M   'P 1'
_cell_length_a   4.20591100
_cell_length_b   5.15681739
_cell_length_c   8.98637504
_cell_angle_alpha   89.41509369
_cell_angle_beta   90.00000000
_cell_angle_gamma   90.00000000
_symmetry_Int_Tables_number   1
_chemical_formula_structural   Nd2Ga3Cu7
_chemical_formula_sum   'Nd2 Ga3 Cu7'
_cell_volume   194.89636566
_cell_formula_units_Z   1
loop_
 _symmetry_equiv_pos_site_id
 _symmetry_equiv_pos_as_xyz
  1  'x, y, z'
loop_
 _atom_site_type_symbol
 _atom_site_label
 _atom_site_symmetry_multiplicity
 _atom_site_fract_x
 _atom_site_fract_y
 _atom_site_fract_z
 _atom_site_occupancy
  Nd  Nd0  1  0.000000  0.248156  0.751504  1
  Nd  Nd1  1  0.000000  0.751844  0.248496  1
  Ga  Ga2  1  0.500000  0.737967  0.744301  1
  Ga  Ga3  1  0.500000  0.262033  0.255699  1
  Ga  Ga4  1  0.500000  0.000000  0.000000  1
  Cu  Cu5  1  0.000000  0.255118  0.083520  1
  Cu  Cu6  1  0.000000  0.749171  0.580388  1
  Cu  Cu7  1  0.000000  0.744882  0.916480  1
  Cu  Cu8  1  0.000000  0.250829  0.419612  1
  Cu  Cu9  1  0.500000  0.500000  0.500000  1
  Cu  Cu10  1  0.500000  0.500000  0.000000  1
  Cu  Cu11  1  0.500000  0.000000  0.500000  1
