# generated using pymatgen
data_PaHg5F18
_symmetry_space_group_name_H-M   'P 1'
_cell_length_a   8.59052615
_cell_length_b   8.55293255
_cell_length_c   8.67126068
_cell_angle_alpha   90.19201760
_cell_angle_beta   89.95299270
_cell_angle_gamma   121.31174818
_symmetry_Int_Tables_number   1
_chemical_formula_structural   PaHg5F18
_chemical_formula_sum   'Pa1 Hg5 F18'
_cell_volume   544.31631108
_cell_formula_units_Z   1
loop_
 _symmetry_equiv_pos_site_id
 _symmetry_equiv_pos_as_xyz
  1  'x, y, z'
loop_
 _atom_site_type_symbol
 _atom_site_label
 _atom_site_symmetry_multiplicity
 _atom_site_fract_x
 _atom_site_fract_y
 _atom_site_fract_z
 _atom_site_occupancy
  Pa  Pa0  1  0.500000  0.500000  0.000000  1
  Hg  Hg1  1  0.000000  0.500000  0.500000  1
  Hg  Hg2  1  0.000000  0.500000  0.000000  1
  Hg  Hg3  1  0.500000  0.000000  0.500000  1
  Hg  Hg4  1  0.500000  0.000000  0.000000  1
  Hg  Hg5  1  0.500000  0.500000  0.500000  1
  F  F6  1  0.768068  0.586867  0.071273  1
  F  F7  1  0.231932  0.413133  0.928727  1
  F  F8  1  0.225810  0.434186  0.527193  1
  F  F9  1  0.774190  0.565814  0.472807  1
  F  F10  1  0.591269  0.770824  0.930564  1
  F  F11  1  0.408731  0.229176  0.069436  1
  F  F12  1  0.433847  0.224995  0.470487  1
  F  F13  1  0.566153  0.775005  0.529513  1
  F  F14  1  0.780554  0.217860  0.532461  1
  F  F15  1  0.219446  0.782140  0.467539  1
  F  F16  1  0.233278  0.768656  0.040231  1
  F  F17  1  0.766722  0.231344  0.959769  1
  F  F18  1  0.995733  0.442636  0.233761  1
  F  F19  1  0.004267  0.557364  0.766239  1
  F  F20  1  0.442762  0.994132  0.765919  1
  F  F21  1  0.557238  0.005868  0.234081  1
  F  F22  1  0.555812  0.441866  0.778060  1
  F  F23  1  0.444188  0.558134  0.221940  1
