# generated using pymatgen
data_TbErMo3P7Rh9
_symmetry_space_group_name_H-M   'P 1'
_cell_length_a   3.93461900
_cell_length_b   9.52449856
_cell_length_c   9.52375900
_cell_angle_alpha   119.99965953
_cell_angle_beta   89.99945846
_cell_angle_gamma   90.00120512
_symmetry_Int_Tables_number   1
_chemical_formula_structural   TbErMo3P7Rh9
_chemical_formula_sum   'Tb1 Er1 Mo3 P7 Rh9'
_cell_volume   309.09026301
_cell_formula_units_Z   1
loop_
 _symmetry_equiv_pos_site_id
 _symmetry_equiv_pos_as_xyz
  1  'x, y, z'
loop_
 _atom_site_type_symbol
 _atom_site_label
 _atom_site_symmetry_multiplicity
 _atom_site_fract_x
 _atom_site_fract_y
 _atom_site_fract_z
 _atom_site_occupancy
  Tb  Tb0  1  0.261873  0.666625  0.333277  1
  Er  Er1  1  0.762249  0.333309  0.666625  1
  Mo  Mo2  1  0.761873  0.091240  0.870504  1
  Mo  Mo3  1  0.761877  0.129571  0.220915  1
  Mo  Mo4  1  0.761866  0.779198  0.908695  1
  P  P5  1  0.261768  0.000007  0.999961  1
  P  P6  1  0.761882  0.881650  0.593720  1
  P  P7  1  0.761880  0.406290  0.287944  1
  P  P8  1  0.761880  0.712053  0.118307  1
  P  P9  1  0.261925  0.118659  0.412669  1
  P  P10  1  0.261927  0.587358  0.706036  1
  P  P11  1  0.261909  0.294028  0.881360  1
  Rh  Rh12  1  0.261873  0.884998  0.160242  1
  Rh  Rh13  1  0.261871  0.839736  0.724656  1
  Rh  Rh14  1  0.261870  0.275322  0.115104  1
  Rh  Rh15  1  0.761900  0.612202  0.558957  1
  Rh  Rh16  1  0.761885  0.440967  0.053152  1
  Rh  Rh17  1  0.761910  0.946702  0.387769  1
  Rh  Rh18  1  0.261932  0.370759  0.439774  1
  Rh  Rh19  1  0.261911  0.560330  0.931050  1
  Rh  Rh20  1  0.261938  0.068998  0.629283  1
