# generated using pymatgen
data_Ti10AlSiSn4
_symmetry_space_group_name_H-M   'P 1'
_cell_length_a   7.90217162
_cell_length_b   7.90217213
_cell_length_c   7.90217142
_cell_angle_alpha   96.04000903
_cell_angle_beta   96.04000944
_cell_angle_gamma   142.14386772
_symmetry_Int_Tables_number   1
_chemical_formula_structural   Ti10AlSiSn4
_chemical_formula_sum   'Ti10 Al1 Si1 Sn4'
_cell_volume   286.44378634
_cell_formula_units_Z   1
loop_
 _symmetry_equiv_pos_site_id
 _symmetry_equiv_pos_as_xyz
  1  'x, y, z'
loop_
 _atom_site_type_symbol
 _atom_site_label
 _atom_site_symmetry_multiplicity
 _atom_site_fract_x
 _atom_site_fract_y
 _atom_site_fract_z
 _atom_site_occupancy
  Ti  Ti0  1  0.215994  0.929934  0.139067  1
  Ti  Ti1  1  0.423074  0.709134  0.139067  1
  Ti  Ti2  1  0.076926  0.215994  0.286060  1
  Ti  Ti3  1  0.709134  0.570066  0.286060  1
  Ti  Ti4  1  0.749999  0.249999  0.500000  1
  Ti  Ti5  1  0.249999  0.749999  0.500000  1
  Ti  Ti6  1  0.284006  0.423074  0.713940  1
  Ti  Ti7  1  0.929934  0.790866  0.713940  1
  Ti  Ti8  1  0.790866  0.076926  0.860933  1
  Ti  Ti9  1  0.570065  0.284006  0.860932  1
  Al  Al10  1  0.749999  0.749999  0.000000  1
  Si  Si11  1  0.249999  0.249999  0.000000  1
  Sn  Sn12  1  0.834473  0.334473  0.168946  1
  Sn  Sn13  1  0.334473  0.165527  0.499999  1
  Sn  Sn14  1  0.665527  0.834473  0.499999  1
  Sn  Sn15  1  0.165527  0.665527  0.831054  1
