# generated using pymatgen
data_Dy2Tm8GaSi3Sb4
_symmetry_space_group_name_H-M   'P 1'
_cell_length_a   8.46863029
_cell_length_b   8.46810131
_cell_length_c   7.81160994
_cell_angle_alpha   89.87341440
_cell_angle_beta   89.81985747
_cell_angle_gamma   125.15724388
_symmetry_Int_Tables_number   1
_chemical_formula_structural   Dy2Tm8GaSi3Sb4
_chemical_formula_sum   'Dy2 Tm8 Ga1 Si3 Sb4'
_cell_volume   457.99409912
_cell_formula_units_Z   1
loop_
 _symmetry_equiv_pos_site_id
 _symmetry_equiv_pos_as_xyz
  1  'x, y, z'
loop_
 _atom_site_type_symbol
 _atom_site_label
 _atom_site_symmetry_multiplicity
 _atom_site_fract_x
 _atom_site_fract_y
 _atom_site_fract_z
 _atom_site_occupancy
  Dy  Dy0  1  0.539927  0.794392  0.167663  1
  Dy  Dy1  1  0.291969  0.040366  0.333870  1
  Tm  Tm2  1  0.207114  0.458258  0.834428  1
  Tm  Tm3  1  0.960882  0.709491  0.664704  1
  Tm  Tm4  1  0.709648  0.961097  0.664458  1
  Tm  Tm5  1  0.458351  0.207261  0.834415  1
  Tm  Tm6  1  0.792102  0.540489  0.166761  1
  Tm  Tm7  1  0.041035  0.289616  0.334777  1
  Tm  Tm8  1  0.499313  0.499104  0.499107  1
  Tm  Tm9  1  0.001359  0.001605  0.000551  1
  Ga  Ga10  1  0.631979  0.631383  0.867852  1
  Si  Si11  1  0.132123  0.132709  0.634227  1
  Si  Si12  1  0.866046  0.865403  0.368856  1
  Si  Si13  1  0.368373  0.369102  0.129666  1
  Sb  Sb14  1  0.291982  0.702425  0.501922  1
  Sb  Sb15  1  0.204352  0.793841  0.997463  1
  Sb  Sb16  1  0.707033  0.294772  0.500288  1
  Sb  Sb17  1  0.796413  0.208685  0.998993  1
