# generated using pymatgen
data_Nd2Y3GaSi3
_symmetry_space_group_name_H-M   'P 1'
_cell_length_a   7.81092921
_cell_length_b   7.81318264
_cell_length_c   14.61443107
_cell_angle_alpha   90.04102550
_cell_angle_beta   90.01545095
_cell_angle_gamma   90.02155267
_symmetry_Int_Tables_number   1
_chemical_formula_structural   Nd2Y3GaSi3
_chemical_formula_sum   'Nd8 Y12 Ga4 Si12'
_cell_volume   891.89233899
_cell_formula_units_Z   4
loop_
 _symmetry_equiv_pos_site_id
 _symmetry_equiv_pos_as_xyz
  1  'x, y, z'
loop_
 _atom_site_type_symbol
 _atom_site_label
 _atom_site_symmetry_multiplicity
 _atom_site_fract_x
 _atom_site_fract_y
 _atom_site_fract_z
 _atom_site_occupancy
  Nd  Nd0  1  0.636478  0.985398  0.456819  1
  Nd  Nd1  1  0.363553  0.009951  0.954645  1
  Nd  Nd2  1  0.987498  0.634078  0.545664  1
  Nd  Nd3  1  0.487759  0.861172  0.204991  1
  Nd  Nd4  1  0.511207  0.136543  0.707207  1
  Nd  Nd5  1  0.864889  0.490512  0.795400  1
  Nd  Nd6  1  0.135239  0.513429  0.293176  1
  Nd  Nd7  1  0.011741  0.367260  0.043872  1
  Y  Y8  1  0.484705  0.366551  0.122985  1
  Y  Y9  1  0.983083  0.137444  0.628514  1
  Y  Y10  1  0.865088  0.013204  0.873643  1
  Y  Y11  1  0.136209  0.982395  0.372326  1
  Y  Y12  1  0.513585  0.633849  0.625581  1
  Y  Y13  1  0.365254  0.487171  0.875197  1
  Y  Y14  1  0.636152  0.517087  0.376596  1
  Y  Y15  1  0.015001  0.862443  0.125866  1
  Y  Y16  1  0.315320  0.313971  0.501055  1
  Y  Y17  1  0.187703  0.813398  0.751393  1
  Y  Y18  1  0.815908  0.189640  0.249780  1
  Y  Y19  1  0.688329  0.683538  0.999538  1
  Ga  Ga20  1  0.285010  0.932506  0.563047  1
  Ga  Ga21  1  0.714390  0.067528  0.061686  1
  Ga  Ga22  1  0.932482  0.285463  0.438048  1
  Ga  Ga23  1  0.431535  0.215190  0.311724  1
  Si  Si24  1  0.569898  0.786146  0.811422  1
  Si  Si25  1  0.212715  0.430632  0.689524  1
  Si  Si26  1  0.786016  0.570096  0.188301  1
  Si  Si27  1  0.069016  0.712645  0.938339  1
  Si  Si28  1  0.800938  0.840884  0.694911  1
  Si  Si29  1  0.197284  0.159082  0.192044  1
  Si  Si30  1  0.839594  0.801561  0.303900  1
  Si  Si31  1  0.340848  0.696842  0.443929  1
  Si  Si32  1  0.658226  0.302033  0.942125  1
  Si  Si33  1  0.697074  0.341045  0.557207  1
  Si  Si34  1  0.300995  0.659536  0.053728  1
  Si  Si35  1  0.159279  0.199778  0.805816  1
