# generated using pymatgen
data_Cs6HoS4F
_symmetry_space_group_name_H-M   'P 1'
_cell_length_a   10.89843300
_cell_length_b   10.89843389
_cell_length_c   8.13229500
_cell_angle_alpha   90.00000000
_cell_angle_beta   90.00000000
_cell_angle_gamma   120.00000641
_symmetry_Int_Tables_number   1
_chemical_formula_structural   Cs6HoS4F
_chemical_formula_sum   'Cs12 Ho2 S8 F2'
_cell_volume   836.51143233
_cell_formula_units_Z   2
loop_
 _symmetry_equiv_pos_site_id
 _symmetry_equiv_pos_as_xyz
  1  'x, y, z'
loop_
 _atom_site_type_symbol
 _atom_site_label
 _atom_site_symmetry_multiplicity
 _atom_site_fract_x
 _atom_site_fract_y
 _atom_site_fract_z
 _atom_site_occupancy
  Cs  Cs0  1  0.120577  0.879423  0.509796  1
  Cs  Cs1  1  0.758845  0.879423  0.509796  1
  Cs  Cs2  1  0.938602  0.469300  0.313154  1
  Cs  Cs3  1  0.530700  0.469300  0.313154  1
  Cs  Cs4  1  0.879423  0.758845  0.009796  1
  Cs  Cs5  1  0.241155  0.120577  0.009796  1
  Cs  Cs6  1  0.530700  0.061398  0.313154  1
  Cs  Cs7  1  0.120577  0.241155  0.509796  1
  Cs  Cs8  1  0.879423  0.120577  0.009796  1
  Cs  Cs9  1  0.061398  0.530700  0.813154  1
  Cs  Cs10  1  0.469300  0.938602  0.813154  1
  Cs  Cs11  1  0.469300  0.530700  0.813154  1
  Ho  Ho12  1  0.666667  0.333333  0.720268  1
  Ho  Ho13  1  0.333333  0.666667  0.220268  1
  S  S14  1  0.409984  0.204993  0.612420  1
  S  S15  1  0.590016  0.795007  0.112420  1
  S  S16  1  0.666667  0.333333  0.035933  1
  S  S17  1  0.795007  0.590016  0.612420  1
  S  S18  1  0.204993  0.409984  0.112420  1
  S  S19  1  0.333333  0.666667  0.535933  1
  S  S20  1  0.204993  0.795007  0.112420  1
  S  S21  1  0.795007  0.204993  0.612420  1
  F  F22  1  0.000000  0.000000  0.278287  1
  F  F23  1  0.000000  0.000000  0.778287  1
