# generated using pymatgen
data_Lu12ZnFe4Sn
_symmetry_space_group_name_H-M   'P 1'
_cell_length_a   8.16851019
_cell_length_b   8.16850882
_cell_length_c   8.16850934
_cell_angle_alpha   111.00343910
_cell_angle_beta   110.88207452
_cell_angle_gamma   106.56664195
_symmetry_Int_Tables_number   1
_chemical_formula_structural   Lu12ZnFe4Sn
_chemical_formula_sum   'Lu12 Zn1 Fe4 Sn1'
_cell_volume   418.76803300
_cell_formula_units_Z   1
loop_
 _symmetry_equiv_pos_site_id
 _symmetry_equiv_pos_as_xyz
  1  'x, y, z'
loop_
 _atom_site_type_symbol
 _atom_site_label
 _atom_site_symmetry_multiplicity
 _atom_site_fract_x
 _atom_site_fract_y
 _atom_site_fract_z
 _atom_site_occupancy
  Lu  Lu0  1  0.433242  0.226161  0.207079  1
  Lu  Lu1  1  0.566758  0.773839  0.792921  1
  Lu  Lu2  1  0.019082  0.226161  0.792921  1
  Lu  Lu3  1  0.980918  0.773839  0.207079  1
  Lu  Lu4  1  0.186017  0.285096  0.471113  1
  Lu  Lu5  1  0.813983  0.714904  0.528887  1
  Lu  Lu6  1  0.186017  0.714904  0.900921  1
  Lu  Lu7  1  0.813983  0.285096  0.099079  1
  Lu  Lu8  1  0.312736  0.612803  0.300068  1
  Lu  Lu9  1  0.687264  0.387197  0.699932  1
  Lu  Lu10  1  0.312736  0.012668  0.699932  1
  Lu  Lu11  1  0.687264  0.987332  0.300068  1
  Zn  Zn12  1  0.000000  0.000000  0.000000  1
  Fe  Fe13  1  0.381298  0.000000  0.381298  1
  Fe  Fe14  1  0.618702  0.000000  0.618702  1
  Fe  Fe15  1  0.110291  0.610291  0.500000  1
  Fe  Fe16  1  0.889709  0.389709  0.500000  1
  Sn  Sn17  1  0.500000  0.500000  0.000000  1
