# generated using pymatgen
data_Sn15Ir3O14
_symmetry_space_group_name_H-M   'P 1'
_cell_length_a   7.27752086
_cell_length_b   7.35544516
_cell_length_c   13.22788905
_cell_angle_alpha   74.02067297
_cell_angle_beta   74.03307208
_cell_angle_gamma   60.34984333
_symmetry_Int_Tables_number   1
_chemical_formula_structural   Sn15Ir3O14
_chemical_formula_sum   'Sn15 Ir3 O14'
_cell_volume   583.35701983
_cell_formula_units_Z   1
loop_
 _symmetry_equiv_pos_site_id
 _symmetry_equiv_pos_as_xyz
  1  'x, y, z'
loop_
 _atom_site_type_symbol
 _atom_site_label
 _atom_site_symmetry_multiplicity
 _atom_site_fract_x
 _atom_site_fract_y
 _atom_site_fract_z
 _atom_site_occupancy
  Sn  Sn0  1  0.902971  0.017718  0.176340  1
  Sn  Sn1  1  0.485834  0.609048  0.419284  1
  Sn  Sn2  1  0.490158  0.079029  0.427672  1
  Sn  Sn3  1  0.003143  0.079029  0.427672  1
  Sn  Sn4  1  0.097133  0.148508  0.657226  1
  Sn  Sn5  1  0.433753  0.988857  0.143637  1
  Sn  Sn6  1  0.154645  0.775365  0.915344  1
  Sn  Sn7  1  0.430641  0.504195  0.157255  1
  Sn  Sn8  1  0.907910  0.504195  0.157255  1
  Sn  Sn9  1  0.676447  0.757099  0.890006  1
  Sn  Sn10  1  0.676453  0.264540  0.912319  1
  Sn  Sn11  1  0.146688  0.264540  0.912319  1
  Sn  Sn12  1  0.574820  0.676392  0.651056  1
  Sn  Sn13  1  0.097732  0.676392  0.651056  1
  Sn  Sn14  1  0.017617  0.582034  0.382732  1
  Ir  Ir15  1  0.697896  0.298454  0.305754  1
  Ir  Ir16  1  0.883809  0.464367  0.768015  1
  Ir  Ir17  1  0.293291  0.382948  0.030470  1
  O  O18  1  0.121395  0.716519  0.466658  1
  O  O19  1  0.695428  0.716519  0.466658  1
  O  O20  1  0.935917  0.118370  0.009798  1
  O  O21  1  0.121909  0.276681  0.479501  1
  O  O22  1  0.634198  0.673543  0.058060  1
  O  O23  1  0.426852  0.558943  0.587354  1
  O  O24  1  0.340715  0.946223  0.372347  1
  O  O25  1  0.428622  0.005046  0.594910  1
  O  O26  1  0.971420  0.005046  0.594910  1
  O  O27  1  0.355865  0.950606  0.881199  1
  O  O28  1  0.812330  0.950606  0.881199  1
  O  O29  1  0.766792  0.826399  0.180284  1
  O  O30  1  0.226524  0.826399  0.180284  1
  O  O31  1  0.231462  0.794877  0.742198  1
