# generated using pymatgen
data_Zr10SnBiPb5Au
_symmetry_space_group_name_H-M   'P 1'
_cell_length_a   8.95664723
_cell_length_b   8.95664763
_cell_length_c   6.00786389
_cell_angle_alpha   89.96891697
_cell_angle_beta   89.96891113
_cell_angle_gamma   119.94869921
_symmetry_Int_Tables_number   1
_chemical_formula_structural   Zr10SnBiPb5Au
_chemical_formula_sum   'Zr10 Sn1 Bi1 Pb5 Au1'
_cell_volume   417.60500163
_cell_formula_units_Z   1
loop_
 _symmetry_equiv_pos_site_id
 _symmetry_equiv_pos_as_xyz
  1  'x, y, z'
loop_
 _atom_site_type_symbol
 _atom_site_label
 _atom_site_symmetry_multiplicity
 _atom_site_fract_x
 _atom_site_fract_y
 _atom_site_fract_z
 _atom_site_occupancy
  Zr  Zr0  1  0.666841  0.333380  0.000593  1
  Zr  Zr1  1  0.333380  0.666841  0.000593  1
  Zr  Zr2  1  0.333427  0.667091  0.499403  1
  Zr  Zr3  1  0.667091  0.333427  0.499403  1
  Zr  Zr4  1  0.724050  0.724050  0.750555  1
  Zr  Zr5  1  0.275771  0.999394  0.750367  1
  Zr  Zr6  1  0.999394  0.275771  0.750367  1
  Zr  Zr7  1  0.275832  0.275832  0.249525  1
  Zr  Zr8  1  0.723962  0.999813  0.249605  1
  Zr  Zr9  1  0.999813  0.723962  0.249605  1
  Sn  Sn10  1  0.999653  0.999653  0.499651  1
  Bi  Bi11  1  0.384778  0.384778  0.750826  1
  Pb  Pb12  1  0.616089  0.000023  0.750675  1
  Pb  Pb13  1  0.000023  0.616089  0.750675  1
  Pb  Pb14  1  0.616433  0.616433  0.249238  1
  Pb  Pb15  1  0.384042  0.999825  0.249215  1
  Pb  Pb16  1  0.999825  0.384042  0.249215  1
  Au  Au17  1  0.999598  0.999598  0.000490  1
