# generated using pymatgen
data_TmLu3Hf4(IrRh)2
_symmetry_space_group_name_H-M   'P 1'
_cell_length_a   4.52504400
_cell_length_b   6.94598899
_cell_length_c   8.24449233
_cell_angle_alpha   90.02714340
_cell_angle_beta   90.00000000
_cell_angle_gamma   90.00000000
_symmetry_Int_Tables_number   1
_chemical_formula_structural   TmLu3Hf4(IrRh)2
_chemical_formula_sum   'Tm1 Lu3 Hf4 Ir2 Rh2'
_cell_volume   259.13183273
_cell_formula_units_Z   1
loop_
 _symmetry_equiv_pos_site_id
 _symmetry_equiv_pos_as_xyz
  1  'x, y, z'
loop_
 _atom_site_type_symbol
 _atom_site_label
 _atom_site_symmetry_multiplicity
 _atom_site_fract_x
 _atom_site_fract_y
 _atom_site_fract_z
 _atom_site_occupancy
  Tm  Tm0  1  0.250000  0.015126  0.322858  1
  Lu  Lu1  1  0.250000  0.515847  0.176602  1
  Lu  Lu2  1  0.750000  0.484835  0.822742  1
  Lu  Lu3  1  0.750000  0.985253  0.677647  1
  Hf  Hf4  1  0.250000  0.641993  0.575600  1
  Hf  Hf5  1  0.750000  0.358009  0.427927  1
  Hf  Hf6  1  0.750000  0.857331  0.071222  1
  Hf  Hf7  1  0.250000  0.142251  0.924687  1
  Ir  Ir8  1  0.250000  0.763213  0.907865  1
  Ir  Ir9  1  0.250000  0.263836  0.592788  1
  Rh  Rh10  1  0.750000  0.236489  0.091270  1
  Rh  Rh11  1  0.750000  0.735819  0.408793  1
