# generated using pymatgen
data_Pr5SiS4
_symmetry_space_group_name_H-M   'P 1'
_cell_length_a   7.21313779
_cell_length_b   7.21313795
_cell_length_c   7.21313799
_cell_angle_alpha   99.44228901
_cell_angle_beta   99.44228142
_cell_angle_gamma   132.21325416
_symmetry_Int_Tables_number   1
_chemical_formula_structural   Pr5SiS4
_chemical_formula_sum   'Pr5 Si1 S4'
_cell_volume   254.14078376
_cell_formula_units_Z   1
loop_
 _symmetry_equiv_pos_site_id
 _symmetry_equiv_pos_as_xyz
  1  'x, y, z'
loop_
 _atom_site_type_symbol
 _atom_site_label
 _atom_site_symmetry_multiplicity
 _atom_site_fract_x
 _atom_site_fract_y
 _atom_site_fract_z
 _atom_site_occupancy
  Pr  Pr0  1  0.402268  0.798603  0.200871  1
  Pr  Pr1  1  0.000000  0.000000  0.000000  1
  Pr  Pr2  1  0.597732  0.201397  0.799129  1
  Pr  Pr3  1  0.201397  0.402268  0.603666  1
  Pr  Pr4  1  0.798603  0.597732  0.396334  1
  Si  Si5  1  0.500000  0.500000  0.000000  1
  S  S6  1  0.102072  0.699414  0.801485  1
  S  S7  1  0.699414  0.897928  0.597342  1
  S  S8  1  0.300586  0.102072  0.402658  1
  S  S9  1  0.897928  0.300586  0.198515  1
