# generated using pymatgen
data_La8Dy2Ir3Rh
_symmetry_space_group_name_H-M   'P 1'
_cell_length_a   6.70733989
_cell_length_b   7.30167867
_cell_length_c   9.14347025
_cell_angle_alpha   95.82439712
_cell_angle_beta   111.25534025
_cell_angle_gamma   90.00856882
_symmetry_Int_Tables_number   1
_chemical_formula_structural   La8Dy2Ir3Rh
_chemical_formula_sum   'La8 Dy2 Ir3 Rh1'
_cell_volume   414.85389002
_cell_formula_units_Z   1
loop_
 _symmetry_equiv_pos_site_id
 _symmetry_equiv_pos_as_xyz
  1  'x, y, z'
loop_
 _atom_site_type_symbol
 _atom_site_label
 _atom_site_symmetry_multiplicity
 _atom_site_fract_x
 _atom_site_fract_y
 _atom_site_fract_z
 _atom_site_occupancy
  La  La0  1  0.799310  0.083166  0.818428  1
  La  La1  1  0.981516  0.416060  0.181596  1
  La  La2  1  0.201307  0.916578  0.181905  1
  La  La3  1  0.019880  0.584660  0.819202  1
  La  La4  1  0.215338  0.184556  0.573061  1
  La  La5  1  0.642431  0.314753  0.424988  1
  La  La6  1  0.783473  0.814671  0.427014  1
  La  La7  1  0.357565  0.685334  0.573768  1
  Dy  Dy8  1  0.433119  0.249508  0.000874  1
  Dy  Dy9  1  0.566341  0.751591  0.000679  1
  Ir  Ir10  1  0.808093  0.074530  0.213161  1
  Ir  Ir11  1  0.402836  0.573552  0.211654  1
  Ir  Ir12  1  0.191211  0.925172  0.786201  1
  Rh  Rh13  1  0.597581  0.425867  0.787469  1
