# generated using pymatgen
data_ErTm3MnOs7
_symmetry_space_group_name_H-M   'P 1'
_cell_length_a   5.31488300
_cell_length_b   5.31488265
_cell_length_c   8.69075400
_cell_angle_alpha   90.00000000
_cell_angle_beta   90.00000000
_cell_angle_gamma   120.00000842
_symmetry_Int_Tables_number   1
_chemical_formula_structural   ErTm3MnOs7
_chemical_formula_sum   'Er1 Tm3 Mn1 Os7'
_cell_volume   212.60596251
_cell_formula_units_Z   1
loop_
 _symmetry_equiv_pos_site_id
 _symmetry_equiv_pos_as_xyz
  1  'x, y, z'
loop_
 _atom_site_type_symbol
 _atom_site_label
 _atom_site_symmetry_multiplicity
 _atom_site_fract_x
 _atom_site_fract_y
 _atom_site_fract_z
 _atom_site_occupancy
  Er  Er0  1  0.333333  0.666667  0.064935  1
  Tm  Tm1  1  0.333333  0.666667  0.431524  1
  Tm  Tm2  1  0.666667  0.333333  0.568525  1
  Tm  Tm3  1  0.666667  0.333333  0.935017  1
  Mn  Mn4  1  0.000000  0.000000  0.499976  1
  Os  Os5  1  0.000000  0.000000  0.999953  1
  Os  Os6  1  0.828878  0.171122  0.253041  1
  Os  Os7  1  0.828878  0.657755  0.253041  1
  Os  Os8  1  0.342245  0.171122  0.253041  1
  Os  Os9  1  0.171106  0.828894  0.746983  1
  Os  Os10  1  0.171106  0.342212  0.746983  1
  Os  Os11  1  0.657788  0.828894  0.746983  1
