# generated using pymatgen
data_Tb4Er6OsRu3
_symmetry_space_group_name_H-M   'P 1'
_cell_length_a   6.33777590
_cell_length_b   7.28510311
_cell_length_c   8.44282924
_cell_angle_alpha   96.78473042
_cell_angle_beta   112.07143189
_cell_angle_gamma   90.00193430
_symmetry_Int_Tables_number   1
_chemical_formula_structural   Tb4Er6OsRu3
_chemical_formula_sum   'Tb4 Er6 Os1 Ru3'
_cell_volume   358.30143715
_cell_formula_units_Z   1
loop_
 _symmetry_equiv_pos_site_id
 _symmetry_equiv_pos_as_xyz
  1  'x, y, z'
loop_
 _atom_site_type_symbol
 _atom_site_label
 _atom_site_symmetry_multiplicity
 _atom_site_fract_x
 _atom_site_fract_y
 _atom_site_fract_z
 _atom_site_occupancy
  Tb  Tb0  1  0.790303  0.583127  0.812345  1
  Tb  Tb1  1  0.976467  0.916078  0.186624  1
  Tb  Tb2  1  0.209797  0.416077  0.187533  1
  Tb  Tb3  1  0.023363  0.083960  0.812601  1
  Er  Er4  1  0.206165  0.685181  0.566142  1
  Er  Er5  1  0.639643  0.815552  0.435241  1
  Er  Er6  1  0.794778  0.315087  0.434158  1
  Er  Er7  1  0.359903  0.184672  0.565402  1
  Er  Er8  1  0.419808  0.750085  0.999300  1
  Er  Er9  1  0.580427  0.249863  0.999919  1
  Os  Os10  1  0.599921  0.924617  0.779450  1
  Ru  Ru11  1  0.822041  0.575839  0.221297  1
  Ru  Ru12  1  0.399207  0.075793  0.220955  1
  Ru  Ru13  1  0.178179  0.424069  0.779032  1
