# generated using pymatgen
data_W2NO9
_symmetry_space_group_name_H-M   'P 1'
_cell_length_a   6.48872123
_cell_length_b   8.76199391
_cell_length_c   9.35093500
_cell_angle_alpha   80.36316216
_cell_angle_beta   72.02640429
_cell_angle_gamma   80.42530833
_symmetry_Int_Tables_number   1
_chemical_formula_structural   W2NO9
_chemical_formula_sum   'W4 N2 O18'
_cell_volume   494.81695630
_cell_formula_units_Z   2
loop_
 _symmetry_equiv_pos_site_id
 _symmetry_equiv_pos_as_xyz
  1  'x, y, z'
loop_
 _atom_site_type_symbol
 _atom_site_label
 _atom_site_symmetry_multiplicity
 _atom_site_fract_x
 _atom_site_fract_y
 _atom_site_fract_z
 _atom_site_occupancy
  W  W0  1  0.206143  0.939694  0.752766  1
  W  W1  1  0.793857  0.060306  0.247234  1
  W  W2  1  0.654198  0.656737  0.526271  1
  W  W3  1  0.345802  0.343263  0.473729  1
  N  N4  1  0.539270  0.323450  0.766066  1
  N  N5  1  0.460730  0.676550  0.233934  1
  O  O6  1  0.233474  0.912599  0.935653  1
  O  O7  1  0.766526  0.087401  0.064347  1
  O  O8  1  0.947147  0.532258  0.569494  1
  O  O9  1  0.052853  0.467742  0.430506  1
  O  O10  1  0.491045  0.578085  0.382388  1
  O  O11  1  0.508955  0.421915  0.617612  1
  O  O12  1  0.273262  0.144583  0.663705  1
  O  O13  1  0.726738  0.855417  0.336295  1
  O  O14  1  0.936732  0.911472  0.770800  1
  O  O15  1  0.063268  0.088528  0.229200  1
  O  O16  1  0.394831  0.773620  0.651859  1
  O  O17  1  0.605169  0.226380  0.348141  1
  O  O18  1  0.872798  0.810909  0.531772  1
  O  O19  1  0.127202  0.189091  0.468228  1
  O  O20  1  0.417696  0.374179  0.878316  1
  O  O21  1  0.582304  0.625821  0.121684  1
  O  O22  1  0.679358  0.214888  0.743747  1
  O  O23  1  0.320642  0.785112  0.256253  1
