# generated using pymatgen
data_PuAlGeH
_symmetry_space_group_name_H-M   'P 1'
_cell_length_a   4.25005700
_cell_length_b   4.25005560
_cell_length_c   4.09932800
_cell_angle_alpha   90.00000000
_cell_angle_beta   90.00000000
_cell_angle_gamma   120.00000312
_symmetry_Int_Tables_number   1
_chemical_formula_structural   PuAlGeH
_chemical_formula_sum   'Pu1 Al1 Ge1 H1'
_cell_volume   64.12577887
_cell_formula_units_Z   1
loop_
 _symmetry_equiv_pos_site_id
 _symmetry_equiv_pos_as_xyz
  1  'x, y, z'
loop_
 _atom_site_type_symbol
 _atom_site_label
 _atom_site_symmetry_multiplicity
 _atom_site_fract_x
 _atom_site_fract_y
 _atom_site_fract_z
 _atom_site_occupancy
  Pu  Pu0  1  0.666667  0.333334  0.025446  1
  Al  Al1  1  0.000000  0.000000  0.513591  1
  Ge  Ge2  1  0.333333  0.666665  0.546487  1
  H  H3  1  0.000000  0.000000  0.043677  1
