# generated using pymatgen
data_Dy2Y2ErPt4
_symmetry_space_group_name_H-M   'P 1'
_cell_length_a   7.48901000
_cell_length_b   7.57545200
_cell_length_c   14.76421900
_cell_angle_alpha   90.00000000
_cell_angle_beta   90.00000000
_cell_angle_gamma   90.00000000
_symmetry_Int_Tables_number   1
_chemical_formula_structural   Dy2Y2ErPt4
_chemical_formula_sum   'Dy8 Y8 Er4 Pt16'
_cell_volume   837.61305914
_cell_formula_units_Z   4
loop_
 _symmetry_equiv_pos_site_id
 _symmetry_equiv_pos_as_xyz
  1  'x, y, z'
loop_
 _atom_site_type_symbol
 _atom_site_label
 _atom_site_symmetry_multiplicity
 _atom_site_fract_x
 _atom_site_fract_y
 _atom_site_fract_z
 _atom_site_occupancy
  Dy  Dy0  1  0.656349  0.832481  0.622279  1
  Dy  Dy1  1  0.156349  0.667519  0.877721  1
  Dy  Dy2  1  0.843651  0.332481  0.377721  1
  Dy  Dy3  1  0.343651  0.167519  0.122279  1
  Dy  Dy4  1  0.343651  0.167519  0.377721  1
  Dy  Dy5  1  0.843651  0.332481  0.122279  1
  Dy  Dy6  1  0.156349  0.667519  0.622279  1
  Dy  Dy7  1  0.656349  0.832481  0.877721  1
  Y  Y8  1  0.997968  0.820028  0.406775  1
  Y  Y9  1  0.497968  0.679972  0.093225  1
  Y  Y10  1  0.502032  0.320028  0.593225  1
  Y  Y11  1  0.002032  0.179972  0.906775  1
  Y  Y12  1  0.002032  0.179972  0.593225  1
  Y  Y13  1  0.502032  0.320028  0.906775  1
  Y  Y14  1  0.497968  0.679972  0.406775  1
  Y  Y15  1  0.997968  0.820028  0.093225  1
  Er  Er16  1  0.681560  0.988060  0.250000  1
  Er  Er17  1  0.181560  0.511940  0.250000  1
  Er  Er18  1  0.818440  0.488060  0.750000  1
  Er  Er19  1  0.318440  0.011940  0.750000  1
  Pt  Pt20  1  0.816213  0.642491  0.250000  1
  Pt  Pt21  1  0.316213  0.857509  0.250000  1
  Pt  Pt22  1  0.683787  0.142491  0.750000  1
  Pt  Pt23  1  0.183787  0.357509  0.750000  1
  Pt  Pt24  1  0.546331  0.386561  0.250000  1
  Pt  Pt25  1  0.046331  0.113439  0.250000  1
  Pt  Pt26  1  0.953669  0.886561  0.750000  1
  Pt  Pt27  1  0.453669  0.613439  0.750000  1
  Pt  Pt28  1  0.817186  0.532651  0.542221  1
  Pt  Pt29  1  0.317186  0.967349  0.957779  1
  Pt  Pt30  1  0.682814  0.032651  0.457779  1
  Pt  Pt31  1  0.182814  0.467349  0.042221  1
  Pt  Pt32  1  0.182814  0.467349  0.457779  1
  Pt  Pt33  1  0.682814  0.032651  0.042221  1
  Pt  Pt34  1  0.317186  0.967349  0.542221  1
  Pt  Pt35  1  0.817186  0.532651  0.957779  1
