# generated using pymatgen
data_Ho5Hg2(PdPb)2
_symmetry_space_group_name_H-M   'P 1'
_cell_length_a   3.68712000
_cell_length_b   8.05387100
_cell_length_c   18.22810300
_cell_angle_alpha   90.00000000
_cell_angle_beta   90.00000000
_cell_angle_gamma   90.00000000
_symmetry_Int_Tables_number   1
_chemical_formula_structural   Ho5Hg2(PdPb)2
_chemical_formula_sum   'Ho10 Hg4 Pd4 Pb4'
_cell_volume   541.29425205
_cell_formula_units_Z   2
loop_
 _symmetry_equiv_pos_site_id
 _symmetry_equiv_pos_as_xyz
  1  'x, y, z'
loop_
 _atom_site_type_symbol
 _atom_site_label
 _atom_site_symmetry_multiplicity
 _atom_site_fract_x
 _atom_site_fract_y
 _atom_site_fract_z
 _atom_site_occupancy
  Ho  Ho0  1  0.000000  0.500000  0.500000  1
  Ho  Ho1  1  0.000000  0.000000  0.000000  1
  Ho  Ho2  1  0.000000  0.743013  0.283835  1
  Ho  Ho3  1  0.000000  0.256987  0.716165  1
  Ho  Ho4  1  0.000000  0.756987  0.783835  1
  Ho  Ho5  1  0.000000  0.243013  0.216165  1
  Ho  Ho6  1  0.000000  0.608479  0.083188  1
  Ho  Ho7  1  0.000000  0.391521  0.916812  1
  Ho  Ho8  1  0.000000  0.891521  0.583188  1
  Ho  Ho9  1  0.000000  0.108479  0.416812  1
  Hg  Hg10  1  0.500000  0.706984  0.934332  1
  Hg  Hg11  1  0.500000  0.293016  0.065668  1
  Hg  Hg12  1  0.500000  0.793016  0.434332  1
  Hg  Hg13  1  0.500000  0.206984  0.565668  1
  Pd  Pd14  1  0.500000  0.528537  0.196558  1
  Pd  Pd15  1  0.500000  0.471463  0.803442  1
  Pd  Pd16  1  0.500000  0.971463  0.696558  1
  Pd  Pd17  1  0.500000  0.028537  0.303442  1
  Pb  Pb18  1  0.500000  0.582297  0.647299  1
  Pb  Pb19  1  0.500000  0.417703  0.352701  1
  Pb  Pb20  1  0.500000  0.917703  0.147299  1
  Pb  Pb21  1  0.500000  0.082297  0.852701  1
