# generated using pymatgen
data_Mn4Nb4Si3Ge
_symmetry_space_group_name_H-M   'P 1'
_cell_length_a   3.56462000
_cell_length_b   6.41458470
_cell_length_c   7.55812917
_cell_angle_alpha   90.23483069
_cell_angle_beta   90.00000000
_cell_angle_gamma   90.00000000
_symmetry_Int_Tables_number   1
_chemical_formula_structural   Mn4Nb4Si3Ge
_chemical_formula_sum   'Mn4 Nb4 Si3 Ge1'
_cell_volume   172.81938130
_cell_formula_units_Z   1
loop_
 _symmetry_equiv_pos_site_id
 _symmetry_equiv_pos_as_xyz
  1  'x, y, z'
loop_
 _atom_site_type_symbol
 _atom_site_label
 _atom_site_symmetry_multiplicity
 _atom_site_fract_x
 _atom_site_fract_y
 _atom_site_fract_z
 _atom_site_occupancy
  Mn  Mn0  1  0.750000  0.862384  0.562056  1
  Mn  Mn1  1  0.250000  0.134849  0.442227  1
  Mn  Mn2  1  0.750000  0.365752  0.932786  1
  Mn  Mn3  1  0.250000  0.643138  0.060951  1
  Nb  Nb4  1  0.250000  0.533816  0.671769  1
  Nb  Nb5  1  0.750000  0.469329  0.332100  1
  Nb  Nb6  1  0.250000  0.032631  0.823751  1
  Nb  Nb7  1  0.750000  0.959033  0.174126  1
  Si  Si8  1  0.750000  0.735943  0.868455  1
  Si  Si9  1  0.250000  0.765230  0.371642  1
  Si  Si10  1  0.750000  0.234447  0.629149  1
  Ge  Ge11  1  0.250000  0.263447  0.130989  1
