# generated using pymatgen
data_Sc4Cd2Pt3Au
_symmetry_space_group_name_H-M   'P 1'
_cell_length_a   7.58690797
_cell_length_b   7.58690890
_cell_length_c   6.86583200
_cell_angle_alpha   90.00000000
_cell_angle_beta   90.00000000
_cell_angle_gamma   90.52824505
_symmetry_Int_Tables_number   1
_chemical_formula_structural   Sc4Cd2Pt3Au
_chemical_formula_sum   'Sc8 Cd4 Pt6 Au2'
_cell_volume   395.18859266
_cell_formula_units_Z   2
loop_
 _symmetry_equiv_pos_site_id
 _symmetry_equiv_pos_as_xyz
  1  'x, y, z'
loop_
 _atom_site_type_symbol
 _atom_site_label
 _atom_site_symmetry_multiplicity
 _atom_site_fract_x
 _atom_site_fract_y
 _atom_site_fract_z
 _atom_site_occupancy
  Sc  Sc0  1  0.145369  0.170192  0.000000  1
  Sc  Sc1  1  0.829808  0.854631  0.000000  1
  Sc  Sc2  1  0.657429  0.342571  0.500000  1
  Sc  Sc3  1  0.359234  0.640766  0.500000  1
  Sc  Sc4  1  0.675520  0.324480  0.000000  1
  Sc  Sc5  1  0.340709  0.659291  0.000000  1
  Sc  Sc6  1  0.811893  0.831138  0.500000  1
  Sc  Sc7  1  0.168862  0.188107  0.500000  1
  Cd  Cd8  1  0.497475  0.001210  0.249649  1
  Cd  Cd9  1  0.497475  0.001210  0.750351  1
  Cd  Cd10  1  0.998790  0.502525  0.249649  1
  Cd  Cd11  1  0.998790  0.502525  0.750351  1
  Pt  Pt12  1  0.368552  0.362399  0.231902  1
  Pt  Pt13  1  0.637601  0.631448  0.768098  1
  Pt  Pt14  1  0.637601  0.631448  0.231902  1
  Pt  Pt15  1  0.867014  0.132986  0.730452  1
  Pt  Pt16  1  0.867014  0.132986  0.269548  1
  Pt  Pt17  1  0.368552  0.362399  0.768098  1
  Au  Au18  1  0.136157  0.863843  0.269567  1
  Au  Au19  1  0.136157  0.863843  0.730433  1
