# generated using pymatgen
data_YbPu2(SnRh)3
_symmetry_space_group_name_H-M   'P 1'
_cell_length_a   7.29237500
_cell_length_b   7.54358187
_cell_length_c   4.02530900
_cell_angle_alpha   90.00000000
_cell_angle_beta   90.00000000
_cell_angle_gamma   118.90440543
_symmetry_Int_Tables_number   1
_chemical_formula_structural   YbPu2(SnRh)3
_chemical_formula_sum   'Yb1 Pu2 Sn3 Rh3'
_cell_volume   193.85006192
_cell_formula_units_Z   1
loop_
 _symmetry_equiv_pos_site_id
 _symmetry_equiv_pos_as_xyz
  1  'x, y, z'
loop_
 _atom_site_type_symbol
 _atom_site_label
 _atom_site_symmetry_multiplicity
 _atom_site_fract_x
 _atom_site_fract_y
 _atom_site_fract_z
 _atom_site_occupancy
  Yb  Yb0  1  0.408267  0.000000  0.000000  1
  Pu  Pu1  1  0.000478  0.414689  0.000000  1
  Pu  Pu2  1  0.585789  0.585311  0.000000  1
  Sn  Sn3  1  0.255157  0.246344  0.500000  1
  Sn  Sn4  1  0.008813  0.753656  0.500000  1
  Sn  Sn5  1  0.734289  0.000000  0.500000  1
  Rh  Rh6  1  0.685559  0.354870  0.500000  1
  Rh  Rh7  1  0.330688  0.645130  0.500000  1
  Rh  Rh8  1  0.990960  0.000000  0.000000  1
