# generated using pymatgen
data_Ba4Ti4ZnFeO14
_symmetry_space_group_name_H-M   'P 1'
_cell_length_a   8.67579600
_cell_length_b   8.67579600
_cell_length_c   5.64372000
_cell_angle_alpha   90.00000000
_cell_angle_beta   90.00000000
_cell_angle_gamma   90.00000000
_symmetry_Int_Tables_number   1
_chemical_formula_structural   Ba4Ti4ZnFeO14
_chemical_formula_sum   'Ba4 Ti4 Zn1 Fe1 O14'
_cell_volume   424.79962266
_cell_formula_units_Z   1
loop_
 _symmetry_equiv_pos_site_id
 _symmetry_equiv_pos_as_xyz
  1  'x, y, z'
loop_
 _atom_site_type_symbol
 _atom_site_label
 _atom_site_symmetry_multiplicity
 _atom_site_fract_x
 _atom_site_fract_y
 _atom_site_fract_z
 _atom_site_occupancy
  Ba  Ba0  1  0.664114  0.164718  0.508580  1
  Ba  Ba1  1  0.835282  0.664114  0.491420  1
  Ba  Ba2  1  0.164718  0.335886  0.491420  1
  Ba  Ba3  1  0.335886  0.835282  0.508580  1
  Ti  Ti4  1  0.856511  0.359602  0.957762  1
  Ti  Ti5  1  0.143489  0.640398  0.957762  1
  Ti  Ti6  1  0.640398  0.856511  0.042238  1
  Ti  Ti7  1  0.359602  0.143489  0.042238  1
  Zn  Zn8  1  0.500000  0.500000  0.000000  1
  Fe  Fe9  1  0.000000  0.000000  0.000000  1
  O  O10  1  0.674469  0.412306  0.816612  1
  O  O11  1  0.325531  0.587694  0.816612  1
  O  O12  1  0.412306  0.325531  0.183388  1
  O  O13  1  0.587694  0.674469  0.183388  1
  O  O14  1  0.909515  0.178533  0.817008  1
  O  O15  1  0.821467  0.909515  0.182992  1
  O  O16  1  0.178533  0.090485  0.182992  1
  O  O17  1  0.090485  0.821467  0.817008  1
  O  O18  1  0.860006  0.359370  0.276551  1
  O  O19  1  0.640630  0.860006  0.723449  1
  O  O20  1  0.500000  0.000000  0.169781  1
  O  O21  1  0.000000  0.500000  0.830219  1
  O  O22  1  0.139994  0.640630  0.276551  1
  O  O23  1  0.359370  0.139994  0.723449  1
