# generated using pymatgen
data_ErLu4Ga2Bi
_symmetry_space_group_name_H-M   'P 1'
_cell_length_a   8.58134200
_cell_length_b   8.61104641
_cell_length_c   6.42431100
_cell_angle_alpha   90.00000000
_cell_angle_beta   90.00000000
_cell_angle_gamma   120.11456926
_symmetry_Int_Tables_number   1
_chemical_formula_structural   ErLu4Ga2Bi
_chemical_formula_sum   'Er2 Lu8 Ga4 Bi2'
_cell_volume   410.64429016
_cell_formula_units_Z   2
loop_
 _symmetry_equiv_pos_site_id
 _symmetry_equiv_pos_as_xyz
  1  'x, y, z'
loop_
 _atom_site_type_symbol
 _atom_site_label
 _atom_site_symmetry_multiplicity
 _atom_site_fract_x
 _atom_site_fract_y
 _atom_site_fract_z
 _atom_site_occupancy
  Er  Er0  1  0.233013  0.250493  0.750000  1
  Er  Er1  1  0.233013  0.982520  0.250000  1
  Lu  Lu2  1  0.981899  0.748533  0.750000  1
  Lu  Lu3  1  0.981899  0.233368  0.250000  1
  Lu  Lu4  1  0.769074  0.769997  0.250000  1
  Lu  Lu5  1  0.769074  0.999077  0.750000  1
  Lu  Lu6  1  0.329829  0.664915  0.500000  1
  Lu  Lu7  1  0.692525  0.346262  0.000000  1
  Lu  Lu8  1  0.692525  0.346262  0.500000  1
  Lu  Lu9  1  0.329829  0.664915  0.000000  1
  Ga  Ga10  1  0.001435  0.600790  0.250000  1
  Ga  Ga11  1  0.001435  0.400645  0.750000  1
  Ga  Ga12  1  0.596815  0.601574  0.750000  1
  Ga  Ga13  1  0.596815  0.995240  0.250000  1
  Bi  Bi14  1  0.395411  0.005859  0.750000  1
  Bi  Bi15  1  0.395411  0.389552  0.250000  1
