# generated using pymatgen
data_Li3Hg2Bi
_symmetry_space_group_name_H-M   'P 1'
_cell_length_a   4.90630804
_cell_length_b   4.90630889
_cell_length_c   5.98909628
_cell_angle_alpha   90.53823838
_cell_angle_beta   90.53822657
_cell_angle_gamma   59.67542065
_symmetry_Int_Tables_number   1
_chemical_formula_structural   Li3Hg2Bi
_chemical_formula_sum   'Li3 Hg2 Bi1'
_cell_volume   124.43610488
_cell_formula_units_Z   1
loop_
 _symmetry_equiv_pos_site_id
 _symmetry_equiv_pos_as_xyz
  1  'x, y, z'
loop_
 _atom_site_type_symbol
 _atom_site_label
 _atom_site_symmetry_multiplicity
 _atom_site_fract_x
 _atom_site_fract_y
 _atom_site_fract_z
 _atom_site_occupancy
  Li  Li0  1  0.833465  0.833465  0.172188  1
  Li  Li1  1  0.500000  0.500000  0.500001  1
  Li  Li2  1  0.166536  0.166536  0.827811  1
  Hg  Hg3  1  0.167181  0.167181  0.339749  1
  Hg  Hg4  1  0.832819  0.832819  0.660251  1
  Bi  Bi5  1  0.500000  0.500000  0.000000  1
