# generated using pymatgen
data_TbDyNb4(B2Ru5)2
_symmetry_space_group_name_H-M   'P 1'
_cell_length_a   9.58554824
_cell_length_b   9.58554884
_cell_length_c   3.08964800
_cell_angle_alpha   90.00000000
_cell_angle_beta   90.00000000
_cell_angle_gamma   90.78507707
_symmetry_Int_Tables_number   1
_chemical_formula_structural   TbDyNb4(B2Ru5)2
_chemical_formula_sum   'Tb1 Dy1 Nb4 B4 Ru10'
_cell_volume   283.85867701
_cell_formula_units_Z   1
loop_
 _symmetry_equiv_pos_site_id
 _symmetry_equiv_pos_as_xyz
  1  'x, y, z'
loop_
 _atom_site_type_symbol
 _atom_site_label
 _atom_site_symmetry_multiplicity
 _atom_site_fract_x
 _atom_site_fract_y
 _atom_site_fract_z
 _atom_site_occupancy
  Tb  Tb0  1  0.823777  0.676223  0.000000  1
  Dy  Dy1  1  0.176327  0.323673  0.000000  1
  Nb  Nb2  1  0.324720  0.824752  0.000000  1
  Nb  Nb3  1  0.675248  0.175280  0.000000  1
  Nb  Nb4  1  0.499809  0.499920  0.000000  1
  Nb  Nb5  1  0.000080  0.000191  0.000000  1
  B  B6  1  0.620317  0.879683  0.000000  1
  B  B7  1  0.379369  0.120631  0.000000  1
  B  B8  1  0.121606  0.621286  0.000000  1
  B  B9  1  0.878714  0.378394  0.000000  1
  Ru  Ru10  1  0.559059  0.723364  0.500000  1
  Ru  Ru11  1  0.440452  0.276838  0.500000  1
  Ru  Ru12  1  0.081875  0.784996  0.500000  1
  Ru  Ru13  1  0.918633  0.214989  0.500000  1
  Ru  Ru14  1  0.285011  0.581367  0.500000  1
  Ru  Ru15  1  0.715004  0.418125  0.500000  1
  Ru  Ru16  1  0.223162  0.059548  0.500000  1
  Ru  Ru17  1  0.776636  0.940941  0.500000  1
  Ru  Ru18  1  0.499879  0.000121  0.500000  1
  Ru  Ru19  1  0.000323  0.499677  0.500000  1
