# generated using pymatgen
data_LaBiPt2O7
_symmetry_space_group_name_H-M   'P 1'
_cell_length_a   7.47964810
_cell_length_b   7.49376790
_cell_length_c   7.47964807
_cell_angle_alpha   59.93753544
_cell_angle_beta   60.00244668
_cell_angle_gamma   59.93753725
_symmetry_Int_Tables_number   1
_chemical_formula_structural   LaBiPt2O7
_chemical_formula_sum   'La2 Bi2 Pt4 O14'
_cell_volume   296.17261824
_cell_formula_units_Z   2
loop_
 _symmetry_equiv_pos_site_id
 _symmetry_equiv_pos_as_xyz
  1  'x, y, z'
loop_
 _atom_site_type_symbol
 _atom_site_label
 _atom_site_symmetry_multiplicity
 _atom_site_fract_x
 _atom_site_fract_y
 _atom_site_fract_z
 _atom_site_occupancy
  La  La0  1  0.125000  0.125000  0.125000  1
  La  La1  1  0.125000  0.625000  0.125000  1
  Bi  Bi2  1  0.625000  0.125000  0.125000  1
  Bi  Bi3  1  0.125000  0.125000  0.625000  1
  Pt  Pt4  1  0.625000  0.625000  0.125000  1
  Pt  Pt5  1  0.625000  0.625000  0.625000  1
  Pt  Pt6  1  0.625000  0.125000  0.625000  1
  Pt  Pt7  1  0.125000  0.625000  0.625000  1
  O  O8  1  0.706839  0.292119  0.292179  1
  O  O9  1  0.706839  0.708862  0.292179  1
  O  O10  1  0.291472  0.708528  0.291472  1
  O  O11  1  0.998922  0.001078  0.998922  1
  O  O12  1  0.707187  0.292813  0.707187  1
  O  O13  1  0.957821  0.541138  0.543161  1
  O  O14  1  0.292179  0.708862  0.706839  1
  O  O15  1  0.542813  0.957187  0.542813  1
  O  O16  1  0.251078  0.248922  0.251078  1
  O  O17  1  0.958528  0.541472  0.958528  1
  O  O18  1  0.543161  0.541138  0.957821  1
  O  O19  1  0.957821  0.957881  0.543161  1
  O  O20  1  0.543161  0.957881  0.957821  1
  O  O21  1  0.292179  0.292119  0.706839  1
