# generated using pymatgen
data_CeLuReB6
_symmetry_space_group_name_H-M   'P 1'
_cell_length_a   3.69226400
_cell_length_b   9.13905300
_cell_length_c   11.53663900
_cell_angle_alpha   90.00000000
_cell_angle_beta   90.00000000
_cell_angle_gamma   90.00000000
_symmetry_Int_Tables_number   1
_chemical_formula_structural   CeLuReB6
_chemical_formula_sum   'Ce4 Lu4 Re4 B24'
_cell_volume   389.28999739
_cell_formula_units_Z   4
loop_
 _symmetry_equiv_pos_site_id
 _symmetry_equiv_pos_as_xyz
  1  'x, y, z'
loop_
 _atom_site_type_symbol
 _atom_site_label
 _atom_site_symmetry_multiplicity
 _atom_site_fract_x
 _atom_site_fract_y
 _atom_site_fract_z
 _atom_site_occupancy
  Ce  Ce0  1  0.000000  0.322117  0.414029  1
  Ce  Ce1  1  0.000000  0.677883  0.585971  1
  Ce  Ce2  1  0.000000  0.822117  0.085971  1
  Ce  Ce3  1  0.000000  0.177883  0.914029  1
  Lu  Lu4  1  0.000000  0.944942  0.372628  1
  Lu  Lu5  1  0.000000  0.055058  0.627372  1
  Lu  Lu6  1  0.000000  0.444942  0.127372  1
  Lu  Lu7  1  0.000000  0.555058  0.872628  1
  Re  Re8  1  0.000000  0.639553  0.320443  1
  Re  Re9  1  0.000000  0.360447  0.679557  1
  Re  Re10  1  0.000000  0.139553  0.179557  1
  Re  Re11  1  0.000000  0.860447  0.820443  1
  B  B12  1  0.500000  0.555170  0.431621  1
  B  B13  1  0.500000  0.444830  0.568379  1
  B  B14  1  0.500000  0.055170  0.068379  1
  B  B15  1  0.500000  0.944830  0.931621  1
  B  B16  1  0.500000  0.750847  0.418599  1
  B  B17  1  0.500000  0.249153  0.581401  1
  B  B18  1  0.500000  0.250847  0.081401  1
  B  B19  1  0.500000  0.749153  0.918599  1
  B  B20  1  0.500000  0.792682  0.265922  1
  B  B21  1  0.500000  0.207318  0.734078  1
  B  B22  1  0.500000  0.292682  0.234078  1
  B  B23  1  0.500000  0.707318  0.765922  1
  B  B24  1  0.500000  0.630786  0.185340  1
  B  B25  1  0.500000  0.369214  0.814660  1
  B  B26  1  0.500000  0.130786  0.314660  1
  B  B27  1  0.500000  0.869214  0.685340  1
  B  B28  1  0.500000  0.983414  0.213445  1
  B  B29  1  0.500000  0.016586  0.786555  1
  B  B30  1  0.500000  0.483414  0.286555  1
  B  B31  1  0.500000  0.516586  0.713445  1
  B  B32  1  0.500000  0.602386  0.028283  1
  B  B33  1  0.500000  0.397614  0.971717  1
  B  B34  1  0.500000  0.102386  0.471717  1
  B  B35  1  0.500000  0.897614  0.528283  1
