# generated using pymatgen
data_Hg5(AsI2)2
_symmetry_space_group_name_H-M   'P 1'
_cell_length_a   13.62173000
_cell_length_b   8.20005121
_cell_length_c   8.27008541
_cell_angle_alpha   63.06691049
_cell_angle_beta   90.00000000
_cell_angle_gamma   90.00000000
_symmetry_Int_Tables_number   1
_chemical_formula_structural   Hg5(AsI2)2
_chemical_formula_sum   'Hg10 As4 I8'
_cell_volume   823.56476127
_cell_formula_units_Z   2
loop_
 _symmetry_equiv_pos_site_id
 _symmetry_equiv_pos_as_xyz
  1  'x, y, z'
loop_
 _atom_site_type_symbol
 _atom_site_label
 _atom_site_symmetry_multiplicity
 _atom_site_fract_x
 _atom_site_fract_y
 _atom_site_fract_z
 _atom_site_occupancy
  Hg  Hg0  1  0.836081  0.997377  0.002698  1
  Hg  Hg1  1  0.336081  0.002623  0.997302  1
  Hg  Hg2  1  0.791263  0.675301  0.666973  1
  Hg  Hg3  1  0.549805  0.027997  0.574689  1
  Hg  Hg4  1  0.049805  0.972003  0.425311  1
  Hg  Hg5  1  0.551950  0.516000  0.052922  1
  Hg  Hg6  1  0.291263  0.324699  0.333027  1
  Hg  Hg7  1  0.025472  0.474123  0.448268  1
  Hg  Hg8  1  0.525472  0.525877  0.551732  1
  Hg  Hg9  1  0.051950  0.484000  0.947078  1
  As  As10  1  0.477778  0.348663  0.374137  1
  As  As11  1  0.605279  0.691393  0.718395  1
  As  As12  1  0.977778  0.651337  0.625863  1
  As  As13  1  0.105279  0.308607  0.281605  1
  I  I14  1  0.239055  0.324816  0.742267  1
  I  I15  1  0.313764  0.705669  0.914641  1
  I  I16  1  0.039925  0.881143  0.069632  1
  I  I17  1  0.739055  0.675184  0.257733  1
  I  I18  1  0.539925  0.118857  0.930368  1
  I  I19  1  0.813764  0.294331  0.085359  1
  I  I20  1  0.808360  0.111325  0.628666  1
  I  I21  1  0.308360  0.888675  0.371334  1
