# generated using pymatgen
data_RbGaSb4
_symmetry_space_group_name_H-M   'P 1'
_cell_length_a   4.32309600
_cell_length_b   10.68250800
_cell_length_c   18.46511400
_cell_angle_alpha   90.00000000
_cell_angle_beta   90.00000000
_cell_angle_gamma   90.00000000
_symmetry_Int_Tables_number   1
_chemical_formula_structural   RbGaSb4
_chemical_formula_sum   'Rb4 Ga4 Sb16'
_cell_volume   852.74680261
_cell_formula_units_Z   4
loop_
 _symmetry_equiv_pos_site_id
 _symmetry_equiv_pos_as_xyz
  1  'x, y, z'
loop_
 _atom_site_type_symbol
 _atom_site_label
 _atom_site_symmetry_multiplicity
 _atom_site_fract_x
 _atom_site_fract_y
 _atom_site_fract_z
 _atom_site_occupancy
  Rb  Rb0  1  0.750000  0.179436  0.434022  1
  Rb  Rb1  1  0.250000  0.820564  0.565978  1
  Rb  Rb2  1  0.750000  0.679436  0.065978  1
  Rb  Rb3  1  0.250000  0.320564  0.934022  1
  Ga  Ga4  1  0.750000  0.317290  0.631079  1
  Ga  Ga5  1  0.250000  0.682710  0.368921  1
  Ga  Ga6  1  0.750000  0.817290  0.868921  1
  Ga  Ga7  1  0.250000  0.182710  0.131079  1
  Sb  Sb8  1  0.750000  0.828430  0.395794  1
  Sb  Sb9  1  0.250000  0.171570  0.604206  1
  Sb  Sb10  1  0.750000  0.328430  0.104206  1
  Sb  Sb11  1  0.250000  0.671570  0.895794  1
  Sb  Sb12  1  0.750000  0.390684  0.771362  1
  Sb  Sb13  1  0.250000  0.609316  0.228638  1
  Sb  Sb14  1  0.750000  0.890684  0.728638  1
  Sb  Sb15  1  0.250000  0.109316  0.271362  1
  Sb  Sb16  1  0.750000  0.530061  0.549701  1
  Sb  Sb17  1  0.250000  0.469939  0.450299  1
  Sb  Sb18  1  0.750000  0.030061  0.950299  1
  Sb  Sb19  1  0.250000  0.969939  0.049701  1
  Sb  Sb20  1  0.750000  0.929925  0.251459  1
  Sb  Sb21  1  0.250000  0.070075  0.748541  1
  Sb  Sb22  1  0.750000  0.429925  0.248541  1
  Sb  Sb23  1  0.250000  0.570075  0.751459  1
