# generated using pymatgen
data_Yb3Pr(MgRh)4
_symmetry_space_group_name_H-M   'P 1'
_cell_length_a   4.19124900
_cell_length_b   7.13321380
_cell_length_c   8.44905120
_cell_angle_alpha   89.75727990
_cell_angle_beta   90.00000000
_cell_angle_gamma   90.00000000
_symmetry_Int_Tables_number   1
_chemical_formula_structural   Yb3Pr(MgRh)4
_chemical_formula_sum   'Yb3 Pr1 Mg4 Rh4'
_cell_volume   252.59965237
_cell_formula_units_Z   1
loop_
 _symmetry_equiv_pos_site_id
 _symmetry_equiv_pos_as_xyz
  1  'x, y, z'
loop_
 _atom_site_type_symbol
 _atom_site_label
 _atom_site_symmetry_multiplicity
 _atom_site_fract_x
 _atom_site_fract_y
 _atom_site_fract_z
 _atom_site_occupancy
  Yb  Yb0  1  0.250000  0.032734  0.326982  1
  Yb  Yb1  1  0.750000  0.967663  0.671880  1
  Yb  Yb2  1  0.250000  0.533042  0.177862  1
  Pr  Pr3  1  0.750000  0.465559  0.827154  1
  Mg  Mg4  1  0.250000  0.132854  0.946031  1
  Mg  Mg5  1  0.750000  0.863848  0.059895  1
  Mg  Mg6  1  0.250000  0.640045  0.553963  1
  Mg  Mg7  1  0.750000  0.363604  0.440088  1
  Rh  Rh8  1  0.750000  0.238024  0.131127  1
  Rh  Rh9  1  0.250000  0.760911  0.866305  1
  Rh  Rh10  1  0.750000  0.740929  0.367621  1
  Rh  Rh11  1  0.250000  0.260786  0.631091  1
