# generated using pymatgen
data_Dy2Ho2Ga7Ag5
_symmetry_space_group_name_H-M   'P 1'
_cell_length_a   4.35598900
_cell_length_b   7.00776184
_cell_length_c   10.29697725
_cell_angle_alpha   89.95268005
_cell_angle_beta   90.00000000
_cell_angle_gamma   90.00000000
_symmetry_Int_Tables_number   1
_chemical_formula_structural   Dy2Ho2Ga7Ag5
_chemical_formula_sum   'Dy2 Ho2 Ga7 Ag5'
_cell_volume   314.32267634
_cell_formula_units_Z   1
loop_
 _symmetry_equiv_pos_site_id
 _symmetry_equiv_pos_as_xyz
  1  'x, y, z'
loop_
 _atom_site_type_symbol
 _atom_site_label
 _atom_site_symmetry_multiplicity
 _atom_site_fract_x
 _atom_site_fract_y
 _atom_site_fract_z
 _atom_site_occupancy
  Dy  Dy0  1  0.500000  0.781997  0.172367  1
  Dy  Dy1  1  0.000000  0.215352  0.829738  1
  Ho  Ho2  1  0.500000  0.278821  0.328506  1
  Ho  Ho3  1  0.000000  0.721339  0.670177  1
  Ga  Ga4  1  0.500000  0.923049  0.846436  1
  Ga  Ga5  1  0.500000  0.425501  0.654679  1
  Ga  Ga6  1  0.000000  0.077882  0.153395  1
  Ga  Ga7  1  0.000000  0.575086  0.344574  1
  Ga  Ga8  1  0.500000  0.202759  0.036196  1
  Ga  Ga9  1  0.000000  0.299394  0.535631  1
  Ga  Ga10  1  0.000000  0.795659  0.963804  1
  Ag  Ag11  1  0.500000  0.540700  0.903235  1
  Ag  Ag12  1  0.500000  0.046290  0.600807  1
  Ag  Ag13  1  0.000000  0.457781  0.097145  1
  Ag  Ag14  1  0.000000  0.961431  0.401433  1
  Ag  Ag15  1  0.500000  0.696963  0.461879  1
