# generated using pymatgen
data_TbGa2Ni2Pd
_symmetry_space_group_name_H-M   'P 1'
_cell_length_a   4.17331600
_cell_length_b   8.94330200
_cell_length_c   8.94330110
_cell_angle_alpha   60.06456636
_cell_angle_beta   90.00000000
_cell_angle_gamma   90.00000000
_symmetry_Int_Tables_number   1
_chemical_formula_structural   TbGa2Ni2Pd
_chemical_formula_sum   'Tb3 Ga6 Ni6 Pd3'
_cell_volume   289.26097201
_cell_formula_units_Z   3
loop_
 _symmetry_equiv_pos_site_id
 _symmetry_equiv_pos_as_xyz
  1  'x, y, z'
loop_
 _atom_site_type_symbol
 _atom_site_label
 _atom_site_symmetry_multiplicity
 _atom_site_fract_x
 _atom_site_fract_y
 _atom_site_fract_z
 _atom_site_occupancy
  Tb  Tb0  1  0.500000  0.333381  0.333407  1
  Tb  Tb1  1  0.500000  0.666593  0.666619  1
  Tb  Tb2  1  0.000000  0.999850  0.000150  1
  Ga  Ga3  1  0.500000  0.716130  0.283870  1
  Ga  Ga4  1  0.500000  0.283823  0.000050  1
  Ga  Ga5  1  0.500000  0.999950  0.716177  1
  Ga  Ga6  1  0.000000  0.466473  0.533527  1
  Ga  Ga7  1  0.000000  0.533510  0.000000  1
  Ga  Ga8  1  0.000000  0.000000  0.466490  1
  Ni  Ni9  1  0.000000  0.220273  0.165673  1
  Ni  Ni10  1  0.000000  0.165698  0.614093  1
  Ni  Ni11  1  0.000000  0.614087  0.220446  1
  Ni  Ni12  1  0.000000  0.834326  0.779727  1
  Ni  Ni13  1  0.000000  0.385907  0.834302  1
  Ni  Ni14  1  0.000000  0.779554  0.385913  1
  Pd  Pd15  1  0.500000  0.286037  0.713963  1
  Pd  Pd16  1  0.500000  0.714226  0.999917  1
  Pd  Pd17  1  0.500000  0.000083  0.285774  1
