# generated using pymatgen
data_PrFeAs3Rh4
_symmetry_space_group_name_H-M   'P 1'
_cell_length_a   3.99389300
_cell_length_b   11.28198600
_cell_length_c   12.93929900
_cell_angle_alpha   90.00000000
_cell_angle_beta   90.00000000
_cell_angle_gamma   90.00000000
_symmetry_Int_Tables_number   1
_chemical_formula_structural   PrFeAs3Rh4
_chemical_formula_sum   'Pr4 Fe4 As12 Rh16'
_cell_volume   583.03245476
_cell_formula_units_Z   4
loop_
 _symmetry_equiv_pos_site_id
 _symmetry_equiv_pos_as_xyz
  1  'x, y, z'
loop_
 _atom_site_type_symbol
 _atom_site_label
 _atom_site_symmetry_multiplicity
 _atom_site_fract_x
 _atom_site_fract_y
 _atom_site_fract_z
 _atom_site_occupancy
  Pr  Pr0  1  0.250000  0.583164  0.705962  1
  Pr  Pr1  1  0.250000  0.916836  0.205962  1
  Pr  Pr2  1  0.750000  0.416836  0.294038  1
  Pr  Pr3  1  0.750000  0.083164  0.794038  1
  Fe  Fe4  1  0.250000  0.466039  0.936563  1
  Fe  Fe5  1  0.250000  0.033961  0.436563  1
  Fe  Fe6  1  0.750000  0.533961  0.063437  1
  Fe  Fe7  1  0.750000  0.966039  0.563437  1
  As  As8  1  0.250000  0.420933  0.109407  1
  As  As9  1  0.250000  0.079067  0.609407  1
  As  As10  1  0.750000  0.579067  0.890593  1
  As  As11  1  0.750000  0.920933  0.390593  1
  As  As12  1  0.250000  0.272671  0.872162  1
  As  As13  1  0.250000  0.227329  0.372162  1
  As  As14  1  0.750000  0.727329  0.127838  1
  As  As15  1  0.750000  0.772671  0.627838  1
  As  As16  1  0.250000  0.603240  0.390402  1
  As  As17  1  0.250000  0.896760  0.890402  1
  As  As18  1  0.750000  0.396760  0.609598  1
  As  As19  1  0.750000  0.103240  0.109598  1
  Rh  Rh20  1  0.250000  0.706839  0.987121  1
  Rh  Rh21  1  0.250000  0.793161  0.487121  1
  Rh  Rh22  1  0.750000  0.293161  0.012879  1
  Rh  Rh23  1  0.750000  0.206839  0.512879  1
  Rh  Rh24  1  0.250000  0.407953  0.482823  1
  Rh  Rh25  1  0.250000  0.092047  0.982823  1
  Rh  Rh26  1  0.750000  0.592047  0.517177  1
  Rh  Rh27  1  0.750000  0.907953  0.017177  1
  Rh  Rh28  1  0.250000  0.221454  0.176933  1
  Rh  Rh29  1  0.250000  0.278546  0.676933  1
  Rh  Rh30  1  0.750000  0.778546  0.823067  1
  Rh  Rh31  1  0.750000  0.721454  0.323067  1
  Rh  Rh32  1  0.250000  0.885009  0.697201  1
  Rh  Rh33  1  0.250000  0.614991  0.197201  1
  Rh  Rh34  1  0.750000  0.114991  0.302799  1
  Rh  Rh35  1  0.750000  0.385009  0.802799  1
