# generated using pymatgen
data_Ce2BeB10
_symmetry_space_group_name_H-M   'P 1'
_cell_length_a   4.14403800
_cell_length_b   5.56269900
_cell_length_c   11.00586400
_cell_angle_alpha   90.00000000
_cell_angle_beta   90.00000000
_cell_angle_gamma   90.00000000
_symmetry_Int_Tables_number   1
_chemical_formula_structural   Ce2BeB10
_chemical_formula_sum   'Ce4 Be2 B20'
_cell_volume   253.70757356
_cell_formula_units_Z   2
loop_
 _symmetry_equiv_pos_site_id
 _symmetry_equiv_pos_as_xyz
  1  'x, y, z'
loop_
 _atom_site_type_symbol
 _atom_site_label
 _atom_site_symmetry_multiplicity
 _atom_site_fract_x
 _atom_site_fract_y
 _atom_site_fract_z
 _atom_site_occupancy
  Ce  Ce0  1  0.500000  0.305399  0.864872  1
  Ce  Ce1  1  0.500000  0.694601  0.135128  1
  Ce  Ce2  1  0.500000  0.805399  0.635128  1
  Ce  Ce3  1  0.500000  0.194601  0.364872  1
  Be  Be4  1  0.000000  0.500000  0.500000  1
  Be  Be5  1  0.000000  0.000000  0.000000  1
  B  B6  1  0.000000  0.128127  0.538799  1
  B  B7  1  0.000000  0.871873  0.461201  1
  B  B8  1  0.000000  0.628127  0.961201  1
  B  B9  1  0.000000  0.371873  0.038799  1
  B  B10  1  0.000000  0.160275  0.697162  1
  B  B11  1  0.000000  0.839725  0.302838  1
  B  B12  1  0.300438  0.197658  0.111506  1
  B  B13  1  0.300438  0.802342  0.888494  1
  B  B14  1  0.699562  0.697658  0.388494  1
  B  B15  1  0.699562  0.302342  0.611506  1
  B  B16  1  0.699562  0.802342  0.888494  1
  B  B17  1  0.699562  0.197658  0.111506  1
  B  B18  1  0.300438  0.302342  0.611506  1
  B  B19  1  0.300438  0.697658  0.388494  1
  B  B20  1  0.000000  0.027399  0.185833  1
  B  B21  1  0.000000  0.972601  0.814167  1
  B  B22  1  0.000000  0.527399  0.314167  1
  B  B23  1  0.000000  0.472601  0.685833  1
  B  B24  1  0.000000  0.339725  0.197162  1
  B  B25  1  0.000000  0.660275  0.802838  1
