# generated using pymatgen
data_Er4Zn25(GaCu2)3
_symmetry_space_group_name_H-M   'P 1'
_cell_length_a   8.91706800
_cell_length_b   8.91706864
_cell_length_c   8.59607400
_cell_angle_alpha   90.00000000
_cell_angle_beta   90.00000000
_cell_angle_gamma   120.00001246
_symmetry_Int_Tables_number   1
_chemical_formula_structural   Er4Zn25(GaCu2)3
_chemical_formula_sum   'Er4 Zn25 Ga3 Cu6'
_cell_volume   591.93621456
_cell_formula_units_Z   1
loop_
 _symmetry_equiv_pos_site_id
 _symmetry_equiv_pos_as_xyz
  1  'x, y, z'
loop_
 _atom_site_type_symbol
 _atom_site_label
 _atom_site_symmetry_multiplicity
 _atom_site_fract_x
 _atom_site_fract_y
 _atom_site_fract_z
 _atom_site_occupancy
  Er  Er0  1  0.000000  0.000000  0.249790  1
  Er  Er1  1  0.000000  0.000000  0.751691  1
  Er  Er2  1  0.333333  0.666667  0.749504  1
  Er  Er3  1  0.666667  0.333333  0.249513  1
  Zn  Zn4  1  0.333333  0.666667  0.095803  1
  Zn  Zn5  1  0.332343  0.366289  0.249227  1
  Zn  Zn6  1  0.633711  0.966055  0.249227  1
  Zn  Zn7  1  0.033945  0.667657  0.249227  1
  Zn  Zn8  1  0.633711  0.667657  0.249227  1
  Zn  Zn9  1  0.033945  0.366289  0.249227  1
  Zn  Zn10  1  0.332343  0.966055  0.249227  1
  Zn  Zn11  1  0.667740  0.635309  0.750165  1
  Zn  Zn12  1  0.364691  0.032431  0.750165  1
  Zn  Zn13  1  0.967569  0.332260  0.750165  1
  Zn  Zn14  1  0.364691  0.332260  0.750165  1
  Zn  Zn15  1  0.967569  0.635309  0.750165  1
  Zn  Zn16  1  0.667740  0.032431  0.750165  1
  Zn  Zn17  1  0.162945  0.837055  0.518975  1
  Zn  Zn18  1  0.162945  0.325891  0.518975  1
  Zn  Zn19  1  0.674109  0.837055  0.518975  1
  Zn  Zn20  1  0.836702  0.163298  0.479626  1
  Zn  Zn21  1  0.836702  0.673402  0.479626  1
  Zn  Zn22  1  0.326598  0.163298  0.479626  1
  Zn  Zn23  1  0.836773  0.163227  0.019292  1
  Zn  Zn24  1  0.836773  0.673544  0.019292  1
  Zn  Zn25  1  0.326456  0.163227  0.019292  1
  Zn  Zn26  1  0.164793  0.835207  0.981728  1
  Zn  Zn27  1  0.164793  0.329588  0.981728  1
  Zn  Zn28  1  0.670412  0.835207  0.981728  1
  Ga  Ga29  1  0.333333  0.666667  0.406621  1
  Ga  Ga30  1  0.666667  0.333333  0.594583  1
  Ga  Ga31  1  0.666667  0.333333  0.905900  1
  Cu  Cu32  1  0.500376  0.499624  0.500279  1
  Cu  Cu33  1  0.500376  0.000753  0.500279  1
  Cu  Cu34  1  0.999247  0.499624  0.500279  1
  Cu  Cu35  1  0.500027  0.499973  0.000180  1
  Cu  Cu36  1  0.500027  0.000053  0.000180  1
  Cu  Cu37  1  0.999947  0.499973  0.000180  1
