# generated using pymatgen
data_TbLuB6Os
_symmetry_space_group_name_H-M   'P 1'
_cell_length_a   3.62717700
_cell_length_b   9.09160300
_cell_length_c   11.49067500
_cell_angle_alpha   90.00000000
_cell_angle_beta   90.00000000
_cell_angle_gamma   90.00000000
_symmetry_Int_Tables_number   1
_chemical_formula_structural   TbLuB6Os
_chemical_formula_sum   'Tb4 Lu4 B24 Os4'
_cell_volume   378.92630373
_cell_formula_units_Z   4
loop_
 _symmetry_equiv_pos_site_id
 _symmetry_equiv_pos_as_xyz
  1  'x, y, z'
loop_
 _atom_site_type_symbol
 _atom_site_label
 _atom_site_symmetry_multiplicity
 _atom_site_fract_x
 _atom_site_fract_y
 _atom_site_fract_z
 _atom_site_occupancy
  Tb  Tb0  1  0.000000  0.321562  0.413919  1
  Tb  Tb1  1  0.000000  0.678438  0.586081  1
  Tb  Tb2  1  0.000000  0.821562  0.086081  1
  Tb  Tb3  1  0.000000  0.178438  0.913919  1
  Lu  Lu4  1  0.000000  0.944569  0.373221  1
  Lu  Lu5  1  0.000000  0.055431  0.626779  1
  Lu  Lu6  1  0.000000  0.444569  0.126779  1
  Lu  Lu7  1  0.000000  0.555431  0.873221  1
  B  B8  1  0.500000  0.554610  0.432605  1
  B  B9  1  0.500000  0.445390  0.567395  1
  B  B10  1  0.500000  0.054610  0.067395  1
  B  B11  1  0.500000  0.945390  0.932605  1
  B  B12  1  0.500000  0.749996  0.419423  1
  B  B13  1  0.500000  0.250004  0.580577  1
  B  B14  1  0.500000  0.249996  0.080577  1
  B  B15  1  0.500000  0.750004  0.919423  1
  B  B16  1  0.500000  0.792256  0.266374  1
  B  B17  1  0.500000  0.207744  0.733625  1
  B  B18  1  0.500000  0.292256  0.233626  1
  B  B19  1  0.500000  0.707744  0.766375  1
  B  B20  1  0.500000  0.630998  0.184600  1
  B  B21  1  0.500000  0.369002  0.815400  1
  B  B22  1  0.500000  0.130998  0.315400  1
  B  B23  1  0.500000  0.869002  0.684600  1
  B  B24  1  0.500000  0.983123  0.213899  1
  B  B25  1  0.500000  0.016877  0.786101  1
  B  B26  1  0.500000  0.483123  0.286101  1
  B  B27  1  0.500000  0.516877  0.713899  1
  B  B28  1  0.500000  0.603501  0.028527  1
  B  B29  1  0.500000  0.396499  0.971473  1
  B  B30  1  0.500000  0.103501  0.471473  1
  B  B31  1  0.500000  0.896499  0.528527  1
  Os  Os32  1  0.000000  0.638714  0.320331  1
  Os  Os33  1  0.000000  0.361286  0.679669  1
  Os  Os34  1  0.000000  0.138714  0.179669  1
  Os  Os35  1  0.000000  0.861286  0.820331  1
