# generated using pymatgen
data_Zr6Ti2Al14AsIr6Rh
_symmetry_space_group_name_H-M   'P 1'
_cell_length_a   8.82265373
_cell_length_b   8.82265367
_cell_length_c   8.82265370
_cell_angle_alpha   120.06910461
_cell_angle_beta   119.79518999
_cell_angle_gamma   90.11773710
_symmetry_Int_Tables_number   1
_chemical_formula_structural   Zr6Ti2Al14AsIr6Rh
_chemical_formula_sum   'Zr6 Ti2 Al14 As1 Ir6 Rh1'
_cell_volume   486.09791776
_cell_formula_units_Z   1
loop_
 _symmetry_equiv_pos_site_id
 _symmetry_equiv_pos_as_xyz
  1  'x, y, z'
loop_
 _atom_site_type_symbol
 _atom_site_label
 _atom_site_symmetry_multiplicity
 _atom_site_fract_x
 _atom_site_fract_y
 _atom_site_fract_z
 _atom_site_occupancy
  Zr  Zr0  1  0.796644  0.293883  0.084366  1
  Zr  Zr1  1  0.209515  0.293883  0.497239  1
  Zr  Zr2  1  0.205992  0.705992  0.500000  1
  Zr  Zr3  1  0.209515  0.712278  0.915634  1
  Zr  Zr4  1  0.796644  0.712278  0.502761  1
  Zr  Zr5  1  0.790030  0.290030  0.500000  1
  Ti  Ti6  1  0.380138  0.123268  0.743131  1
  Ti  Ti7  1  0.380138  0.637009  0.256869  1
  Al  Al8  1  0.164134  0.335086  0.170950  1
  Al  Al9  1  0.164134  0.993186  0.829050  1
  Al  Al10  1  0.160540  0.336367  0.824173  1
  Al  Al11  1  0.512193  0.336367  0.175827  1
  Al  Al12  1  0.834553  0.663739  0.829187  1
  Al  Al13  1  0.834553  0.005366  0.170813  1
  Al  Al14  1  0.833719  0.664784  0.168936  1
  Al  Al15  1  0.495848  0.664784  0.831064  1
  Al  Al16  1  0.380749  0.119759  0.260991  1
  Al  Al17  1  0.858770  0.119759  0.739009  1
  Al  Al18  1  0.618820  0.878452  0.259632  1
  Al  Al19  1  0.618820  0.359188  0.740368  1
  Al  Al20  1  0.618616  0.879337  0.739278  1
  Al  Al21  1  0.140058  0.879337  0.260722  1
  As  As22  1  0.998173  0.498173  0.500000  1
  Ir  Ir23  1  0.002178  0.000423  0.501799  1
  Ir  Ir24  1  0.498623  0.000423  0.998245  1
  Ir  Ir25  1  0.497642  0.497642  0.000000  1
  Ir  Ir26  1  0.498623  0.500377  0.498201  1
  Ir  Ir27  1  0.002178  0.500377  0.001755  1
  Ir  Ir28  1  0.000740  0.000740  0.000000  1
  Rh  Rh29  1  0.497710  0.997710  0.500000  1
