# generated using pymatgen
data_Ca20Cd3Ni8Ag
_symmetry_space_group_name_H-M   'P 1'
_cell_length_a   7.65806000
_cell_length_b   7.65806000
_cell_length_c   14.98045100
_cell_angle_alpha   90.00000000
_cell_angle_beta   90.00000000
_cell_angle_gamma   90.00000000
_symmetry_Int_Tables_number   1
_chemical_formula_structural   Ca20Cd3Ni8Ag
_chemical_formula_sum   'Ca20 Cd3 Ni8 Ag1'
_cell_volume   878.54177609
_cell_formula_units_Z   1
loop_
 _symmetry_equiv_pos_site_id
 _symmetry_equiv_pos_as_xyz
  1  'x, y, z'
loop_
 _atom_site_type_symbol
 _atom_site_label
 _atom_site_symmetry_multiplicity
 _atom_site_fract_x
 _atom_site_fract_y
 _atom_site_fract_z
 _atom_site_occupancy
  Ca  Ca0  1  0.675049  0.167645  0.114873  1
  Ca  Ca1  1  0.172146  0.669959  0.619086  1
  Ca  Ca2  1  0.324951  0.832355  0.114873  1
  Ca  Ca3  1  0.827854  0.330041  0.619086  1
  Ca  Ca4  1  0.832355  0.675049  0.114873  1
  Ca  Ca5  1  0.330041  0.172146  0.619086  1
  Ca  Ca6  1  0.167645  0.324951  0.114873  1
  Ca  Ca7  1  0.669959  0.827854  0.619086  1
  Ca  Ca8  1  0.832355  0.324951  0.885127  1
  Ca  Ca9  1  0.330041  0.827854  0.380914  1
  Ca  Ca10  1  0.167645  0.675049  0.885127  1
  Ca  Ca11  1  0.669959  0.172146  0.380914  1
  Ca  Ca12  1  0.675049  0.832355  0.885127  1
  Ca  Ca13  1  0.172146  0.330041  0.380914  1
  Ca  Ca14  1  0.324951  0.167645  0.885127  1
  Ca  Ca15  1  0.827854  0.669959  0.380914  1
  Ca  Ca16  1  0.500000  0.500000  0.754888  1
  Ca  Ca17  1  0.000000  0.000000  0.250481  1
  Ca  Ca18  1  0.000000  0.000000  0.749519  1
  Ca  Ca19  1  0.500000  0.500000  0.245112  1
  Cd  Cd20  1  0.500000  0.500000  0.500000  1
  Cd  Cd21  1  0.500000  0.500000  0.000000  1
  Cd  Cd22  1  0.000000  0.000000  0.500000  1
  Ni  Ni23  1  0.610157  0.109984  0.752273  1
  Ni  Ni24  1  0.109984  0.610157  0.247727  1
  Ni  Ni25  1  0.890016  0.389843  0.247727  1
  Ni  Ni26  1  0.389843  0.890016  0.752273  1
  Ni  Ni27  1  0.890016  0.610157  0.752273  1
  Ni  Ni28  1  0.389843  0.109984  0.247727  1
  Ni  Ni29  1  0.109984  0.389843  0.752273  1
  Ni  Ni30  1  0.610157  0.890016  0.247727  1
  Ag  Ag31  1  0.000000  0.000000  0.000000  1
