# generated using pymatgen
data_Th3Ni8MoP6
_symmetry_space_group_name_H-M   'P 1'
_cell_length_a   3.83491400
_cell_length_b   10.77491700
_cell_length_c   12.48148700
_cell_angle_alpha   90.00000000
_cell_angle_beta   90.00000000
_cell_angle_gamma   90.00000000
_symmetry_Int_Tables_number   1
_chemical_formula_structural   Th3Ni8MoP6
_chemical_formula_sum   'Th6 Ni16 Mo2 P12'
_cell_volume   515.74602720
_cell_formula_units_Z   2
loop_
 _symmetry_equiv_pos_site_id
 _symmetry_equiv_pos_as_xyz
  1  'x, y, z'
loop_
 _atom_site_type_symbol
 _atom_site_label
 _atom_site_symmetry_multiplicity
 _atom_site_fract_x
 _atom_site_fract_y
 _atom_site_fract_z
 _atom_site_occupancy
  Th  Th0  1  0.000000  0.500000  0.520698  1
  Th  Th1  1  0.500000  0.000000  0.479302  1
  Th  Th2  1  0.500000  0.816752  0.206437  1
  Th  Th3  1  0.500000  0.183248  0.206437  1
  Th  Th4  1  0.000000  0.683248  0.793563  1
  Th  Th5  1  0.000000  0.316752  0.793563  1
  Ni  Ni6  1  0.500000  0.500000  0.698473  1
  Ni  Ni7  1  0.000000  0.000000  0.301527  1
  Ni  Ni8  1  0.000000  0.500000  0.983279  1
  Ni  Ni9  1  0.500000  0.000000  0.016721  1
  Ni  Ni10  1  0.500000  0.330753  0.989625  1
  Ni  Ni11  1  0.500000  0.669247  0.989625  1
  Ni  Ni12  1  0.000000  0.169247  0.010375  1
  Ni  Ni13  1  0.000000  0.830753  0.010375  1
  Ni  Ni14  1  0.500000  0.305089  0.424912  1
  Ni  Ni15  1  0.500000  0.694911  0.424912  1
  Ni  Ni16  1  0.000000  0.194911  0.575088  1
  Ni  Ni17  1  0.000000  0.805089  0.575088  1
  Ni  Ni18  1  0.500000  0.882335  0.712896  1
  Ni  Ni19  1  0.500000  0.117665  0.712896  1
  Ni  Ni20  1  0.000000  0.617665  0.287104  1
  Ni  Ni21  1  0.000000  0.382335  0.287104  1
  Mo  Mo22  1  0.500000  0.500000  0.148990  1
  Mo  Mo23  1  0.000000  0.000000  0.851010  1
  P  P24  1  0.500000  0.500000  0.881828  1
  P  P25  1  0.000000  0.000000  0.118172  1
  P  P26  1  0.500000  0.500000  0.339244  1
  P  P27  1  0.000000  0.000000  0.660756  1
  P  P28  1  0.500000  0.308213  0.610319  1
  P  P29  1  0.500000  0.691787  0.610319  1
  P  P30  1  0.000000  0.191787  0.389681  1
  P  P31  1  0.000000  0.808213  0.389681  1
  P  P32  1  0.500000  0.848529  0.896724  1
  P  P33  1  0.500000  0.151471  0.896724  1
  P  P34  1  0.000000  0.651471  0.103276  1
  P  P35  1  0.000000  0.348529  0.103276  1
