# generated using pymatgen
data_Hf3NbRe2N
_symmetry_space_group_name_H-M   'P 1'
_cell_length_a   8.70013035
_cell_length_b   8.70012962
_cell_length_c   8.70012900
_cell_angle_alpha   59.99999854
_cell_angle_beta   60.00000133
_cell_angle_gamma   60.00000030
_symmetry_Int_Tables_number   1
_chemical_formula_structural   Hf3NbRe2N
_chemical_formula_sum   'Hf12 Nb4 Re8 N4'
_cell_volume   465.65275550
_cell_formula_units_Z   4
loop_
 _symmetry_equiv_pos_site_id
 _symmetry_equiv_pos_as_xyz
  1  'x, y, z'
loop_
 _atom_site_type_symbol
 _atom_site_label
 _atom_site_symmetry_multiplicity
 _atom_site_fract_x
 _atom_site_fract_y
 _atom_site_fract_z
 _atom_site_occupancy
  Hf  Hf0  1  0.813003  0.813003  0.186997  1
  Hf  Hf1  1  0.186997  0.186997  0.813003  1
  Hf  Hf2  1  0.813003  0.186997  0.813003  1
  Hf  Hf3  1  0.186997  0.813003  0.186997  1
  Hf  Hf4  1  0.186997  0.813003  0.813003  1
  Hf  Hf5  1  0.813003  0.186997  0.186997  1
  Hf  Hf6  1  0.436997  0.436997  0.063003  1
  Hf  Hf7  1  0.063003  0.063003  0.436997  1
  Hf  Hf8  1  0.436997  0.063003  0.436997  1
  Hf  Hf9  1  0.063003  0.436997  0.063003  1
  Hf  Hf10  1  0.063003  0.436997  0.436997  1
  Hf  Hf11  1  0.436997  0.063003  0.063003  1
  Nb  Nb12  1  0.125000  0.625000  0.625000  1
  Nb  Nb13  1  0.625000  0.125000  0.625000  1
  Nb  Nb14  1  0.625000  0.625000  0.125000  1
  Nb  Nb15  1  0.625000  0.625000  0.625000  1
  Re  Re16  1  0.748965  0.417012  0.417012  1
  Re  Re17  1  0.417012  0.748965  0.417012  1
  Re  Re18  1  0.417012  0.417012  0.748965  1
  Re  Re19  1  0.417012  0.417012  0.417012  1
  Re  Re20  1  0.501035  0.832988  0.832988  1
  Re  Re21  1  0.832988  0.501035  0.832988  1
  Re  Re22  1  0.832988  0.832988  0.501035  1
  Re  Re23  1  0.832988  0.832988  0.832988  1
  N  N24  1  0.625000  0.125000  0.125000  1
  N  N25  1  0.125000  0.625000  0.125000  1
  N  N26  1  0.125000  0.125000  0.625000  1
  N  N27  1  0.125000  0.125000  0.125000  1
