# generated using pymatgen
data_HoTm6Lu13Pb16
_symmetry_space_group_name_H-M   'P 1'
_cell_length_a   8.11414452
_cell_length_b   8.15488912
_cell_length_c   15.39169440
_cell_angle_alpha   89.99072217
_cell_angle_beta   90.10781318
_cell_angle_gamma   89.94950699
_symmetry_Int_Tables_number   1
_chemical_formula_structural   HoTm6Lu13Pb16
_chemical_formula_sum   'Ho1 Tm6 Lu13 Pb16'
_cell_volume   1018.46541953
_cell_formula_units_Z   1
loop_
 _symmetry_equiv_pos_site_id
 _symmetry_equiv_pos_as_xyz
  1  'x, y, z'
loop_
 _atom_site_type_symbol
 _atom_site_label
 _atom_site_symmetry_multiplicity
 _atom_site_fract_x
 _atom_site_fract_y
 _atom_site_fract_z
 _atom_site_occupancy
  Ho  Ho0  1  0.040974  0.176068  0.599479  1
  Tm  Tm1  1  0.458680  0.675740  0.400398  1
  Tm  Tm2  1  0.957930  0.824605  0.099716  1
  Tm  Tm3  1  0.458757  0.675222  0.099751  1
  Tm  Tm4  1  0.959004  0.824090  0.400528  1
  Tm  Tm5  1  0.540874  0.324160  0.599535  1
  Tm  Tm6  1  0.041529  0.175658  0.900484  1
  Lu  Lu7  1  0.377984  0.842831  0.878054  1
  Lu  Lu8  1  0.877767  0.656729  0.622076  1
  Lu  Lu9  1  0.622464  0.156678  0.377992  1
  Lu  Lu10  1  0.121898  0.342704  0.121983  1
  Lu  Lu11  1  0.621398  0.157080  0.121689  1
  Lu  Lu12  1  0.121993  0.343343  0.377819  1
  Lu  Lu13  1  0.377681  0.843633  0.622157  1
  Lu  Lu14  1  0.878598  0.656755  0.877959  1
  Lu  Lu15  1  0.543037  0.324983  0.899846  1
  Lu  Lu16  1  0.209736  0.505577  0.750165  1
  Lu  Lu17  1  0.708956  0.994589  0.750290  1
  Lu  Lu18  1  0.790245  0.494614  0.249702  1
  Lu  Lu19  1  0.290439  0.005111  0.249915  1
  Pb  Pb20  1  0.279958  0.032558  0.043075  1
  Pb  Pb21  1  0.780839  0.466317  0.457275  1
  Pb  Pb22  1  0.718800  0.966323  0.543183  1
  Pb  Pb23  1  0.220788  0.532406  0.957105  1
  Pb  Pb24  1  0.719040  0.966675  0.957012  1
  Pb  Pb25  1  0.219384  0.534563  0.542916  1
  Pb  Pb26  1  0.280995  0.033887  0.457064  1
  Pb  Pb27  1  0.780986  0.466291  0.042430  1
  Pb  Pb28  1  0.571544  0.626706  0.749979  1
  Pb  Pb29  1  0.071550  0.873363  0.749933  1
  Pb  Pb30  1  0.428302  0.373070  0.249876  1
  Pb  Pb31  1  0.928142  0.127119  0.249961  1
  Pb  Pb32  1  0.353122  0.157731  0.750506  1
  Pb  Pb33  1  0.852489  0.342959  0.750337  1
  Pb  Pb34  1  0.647209  0.842929  0.250001  1
  Pb  Pb35  1  0.146907  0.656936  0.249806  1
