# generated using pymatgen
data_Sc3Al3IrAu2
_symmetry_space_group_name_H-M   'P 1'
_cell_length_a   7.19678600
_cell_length_b   7.19678593
_cell_length_c   7.35068300
_cell_angle_alpha   90.00000000
_cell_angle_beta   90.00000000
_cell_angle_gamma   119.99999112
_symmetry_Int_Tables_number   1
_chemical_formula_structural   Sc3Al3IrAu2
_chemical_formula_sum   'Sc6 Al6 Ir2 Au4'
_cell_volume   329.71259567
_cell_formula_units_Z   2
loop_
 _symmetry_equiv_pos_site_id
 _symmetry_equiv_pos_as_xyz
  1  'x, y, z'
loop_
 _atom_site_type_symbol
 _atom_site_label
 _atom_site_symmetry_multiplicity
 _atom_site_fract_x
 _atom_site_fract_y
 _atom_site_fract_z
 _atom_site_occupancy
  Sc  Sc0  1  0.594522  0.986946  0.750000  1
  Sc  Sc1  1  0.013054  0.607576  0.750000  1
  Sc  Sc2  1  0.392424  0.405478  0.750000  1
  Sc  Sc3  1  0.986946  0.594522  0.250000  1
  Sc  Sc4  1  0.607576  0.013054  0.250000  1
  Sc  Sc5  1  0.405478  0.392424  0.250000  1
  Al  Al6  1  0.748607  0.748607  0.000000  1
  Al  Al7  1  0.251393  0.000000  0.000000  1
  Al  Al8  1  0.000000  0.251393  0.000000  1
  Al  Al9  1  0.748607  0.748607  0.500000  1
  Al  Al10  1  0.251393  0.000000  0.500000  1
  Al  Al11  1  0.000000  0.251393  0.500000  1
  Ir  Ir12  1  0.000000  0.000000  0.750000  1
  Ir  Ir13  1  0.000000  0.000000  0.250000  1
  Au  Au14  1  0.666667  0.333333  0.982897  1
  Au  Au15  1  0.666667  0.333333  0.517103  1
  Au  Au16  1  0.333333  0.666667  0.482897  1
  Au  Au17  1  0.333333  0.666667  0.017103  1
