# generated using pymatgen
data_EuV3(PO4)3
_symmetry_space_group_name_H-M   'P 1'
_cell_length_a   9.28335551
_cell_length_b   9.28335509
_cell_length_c   9.28335543
_cell_angle_alpha   137.83138063
_cell_angle_beta   110.32213197
_cell_angle_gamma   84.92438780
_symmetry_Int_Tables_number   1
_chemical_formula_structural   EuV3(PO4)3
_chemical_formula_sum   'Eu2 V6 P6 O24'
_cell_volume   485.17791815
_cell_formula_units_Z   2
loop_
 _symmetry_equiv_pos_site_id
 _symmetry_equiv_pos_as_xyz
  1  'x, y, z'
loop_
 _atom_site_type_symbol
 _atom_site_label
 _atom_site_symmetry_multiplicity
 _atom_site_fract_x
 _atom_site_fract_y
 _atom_site_fract_z
 _atom_site_occupancy
  Eu  Eu0  1  0.250000  0.649076  0.399076  1
  Eu  Eu1  1  0.750000  0.350924  0.600924  1
  V  V2  1  0.380697  0.880697  0.000000  1
  V  V3  1  0.000000  0.000000  0.000000  1
  V  V4  1  0.119303  0.119303  0.500000  1
  V  V5  1  0.619303  0.119303  0.000000  1
  V  V6  1  0.880697  0.880697  0.500000  1
  V  V7  1  0.500000  0.500000  0.000000  1
  P  P8  1  0.675782  0.675782  0.500000  1
  P  P9  1  0.175782  0.675782  0.000000  1
  P  P10  1  0.750000  0.839185  0.089185  1
  P  P11  1  0.250000  0.160815  0.910815  1
  P  P12  1  0.824218  0.324218  0.000000  1
  P  P13  1  0.324218  0.324218  0.500000  1
  O  O14  1  0.360307  0.703021  0.061412  1
  O  O15  1  0.656845  0.434842  0.365106  1
  O  O16  1  0.930263  0.565158  0.222003  1
  O  O17  1  0.341270  0.387431  0.046159  1
  O  O18  1  0.139693  0.201104  0.342713  1
  O  O19  1  0.658730  0.612569  0.953841  1
  O  O20  1  0.858391  0.201104  0.061412  1
  O  O21  1  0.069737  0.434842  0.777997  1
  O  O22  1  0.430263  0.208260  0.365106  1
  O  O23  1  0.865616  0.985320  0.350936  1
  O  O24  1  0.141609  0.798896  0.938588  1
  O  O25  1  0.641609  0.703021  0.342713  1
  O  O26  1  0.358391  0.296979  0.657287  1
  O  O27  1  0.634384  0.985320  0.119705  1
  O  O28  1  0.365616  0.014680  0.880295  1
  O  O29  1  0.158730  0.204889  0.046159  1
  O  O30  1  0.639693  0.296979  0.938588  1
  O  O31  1  0.841270  0.795111  0.953841  1
  O  O32  1  0.860307  0.798896  0.657287  1
  O  O33  1  0.156845  0.791740  0.222003  1
  O  O34  1  0.843155  0.208260  0.777997  1
  O  O35  1  0.343155  0.565158  0.634894  1
  O  O36  1  0.134384  0.014680  0.649064  1
  O  O37  1  0.569737  0.791740  0.634894  1
