# generated using pymatgen
data_Ho12Ir3I16
_symmetry_space_group_name_H-M   'P 1'
_cell_length_a   9.65726486
_cell_length_b   12.27218977
_cell_length_c   12.94567727
_cell_angle_alpha   116.79310396
_cell_angle_beta   101.47515653
_cell_angle_gamma   101.00841490
_symmetry_Int_Tables_number   1
_chemical_formula_structural   Ho12Ir3I16
_chemical_formula_sum   'Ho12 Ir3 I16'
_cell_volume   1271.23679043
_cell_formula_units_Z   1
loop_
 _symmetry_equiv_pos_site_id
 _symmetry_equiv_pos_as_xyz
  1  'x, y, z'
loop_
 _atom_site_type_symbol
 _atom_site_label
 _atom_site_symmetry_multiplicity
 _atom_site_fract_x
 _atom_site_fract_y
 _atom_site_fract_z
 _atom_site_occupancy
  Ho  Ho0  1  0.084230  0.264658  0.354862  1
  Ho  Ho1  1  0.915770  0.735342  0.645138  1
  Ho  Ho2  1  0.784639  0.534675  0.330150  1
  Ho  Ho3  1  0.215361  0.465325  0.669850  1
  Ho  Ho4  1  0.276770  0.736130  0.644585  1
  Ho  Ho5  1  0.723230  0.263870  0.355415  1
  Ho  Ho6  1  0.141064  0.535165  0.329838  1
  Ho  Ho7  1  0.858936  0.464835  0.670162  1
  Ho  Ho8  1  0.403886  0.355985  0.269264  1
  Ho  Ho9  1  0.596114  0.644015  0.730736  1
  Ho  Ho10  1  0.459002  0.310883  0.520879  1
  Ho  Ho11  1  0.540998  0.689117  0.479121  1
  Ir  Ir12  1  0.000000  0.500000  0.500000  1
  Ir  Ir13  1  0.341313  0.500164  0.499533  1
  Ir  Ir14  1  0.658688  0.499836  0.500467  1
  I  I15  1  0.392744  0.744218  0.891824  1
  I  I16  1  0.607256  0.255782  0.108176  1
  I  I17  1  0.193782  0.978327  0.790941  1
  I  I18  1  0.806218  0.021673  0.209059  1
  I  I19  1  0.334447  0.087126  0.246963  1
  I  I20  1  0.665553  0.912874  0.753037  1
  I  I21  1  0.560176  0.436072  0.804950  1
  I  I22  1  0.439824  0.563928  0.195050  1
  I  I23  1  0.303565  0.832659  0.460995  1
  I  I24  1  0.696435  0.167341  0.539005  1
  I  I25  1  0.160742  0.167662  0.536957  1
  I  I26  1  0.839258  0.832338  0.463043  1
  I  I27  1  0.925132  0.578616  0.154209  1
  I  I28  1  0.074868  0.421384  0.845791  1
  I  I29  1  0.933064  0.742939  0.892310  1
  I  I30  1  0.066936  0.257061  0.107690  1
