# generated using pymatgen
data_Ce6Al21Si3(Tc3Ru)2
_symmetry_space_group_name_H-M   'P 1'
_cell_length_a   8.85419600
_cell_length_b   8.85419492
_cell_length_c   9.66778200
_cell_angle_alpha   90.00000000
_cell_angle_beta   90.00000000
_cell_angle_gamma   119.99999655
_symmetry_Int_Tables_number   1
_chemical_formula_structural   Ce6Al21Si3(Tc3Ru)2
_chemical_formula_sum   'Ce6 Al21 Si3 Tc6 Ru2'
_cell_volume   656.38055350
_cell_formula_units_Z   1
loop_
 _symmetry_equiv_pos_site_id
 _symmetry_equiv_pos_as_xyz
  1  'x, y, z'
loop_
 _atom_site_type_symbol
 _atom_site_label
 _atom_site_symmetry_multiplicity
 _atom_site_fract_x
 _atom_site_fract_y
 _atom_site_fract_z
 _atom_site_occupancy
  Ce  Ce0  1  0.804051  0.608102  0.747583  1
  Ce  Ce1  1  0.194821  0.805179  0.253739  1
  Ce  Ce2  1  0.610359  0.805179  0.253739  1
  Ce  Ce3  1  0.391898  0.195949  0.747583  1
  Ce  Ce4  1  0.804051  0.195949  0.747583  1
  Ce  Ce5  1  0.194821  0.389641  0.253739  1
  Al  Al6  1  0.333333  0.666667  0.003225  1
  Al  Al7  1  0.163027  0.326056  0.578518  1
  Al  Al8  1  0.673944  0.836973  0.578518  1
  Al  Al9  1  0.163027  0.836973  0.578518  1
  Al  Al10  1  0.837567  0.162433  0.078043  1
  Al  Al11  1  0.836704  0.163296  0.423563  1
  Al  Al12  1  0.837567  0.675133  0.078043  1
  Al  Al13  1  0.324867  0.162433  0.078043  1
  Al  Al14  1  0.677471  0.838736  0.923426  1
  Al  Al15  1  0.161264  0.322529  0.923426  1
  Al  Al16  1  0.836704  0.673407  0.423563  1
  Al  Al17  1  0.000000  0.000000  0.250911  1
  Al  Al18  1  0.000000  0.000000  0.750440  1
  Al  Al19  1  0.564106  0.128211  0.251398  1
  Al  Al20  1  0.436878  0.563122  0.750269  1
  Al  Al21  1  0.126245  0.563122  0.750269  1
  Al  Al22  1  0.871789  0.435894  0.251398  1
  Al  Al23  1  0.564106  0.435894  0.251398  1
  Al  Al24  1  0.436878  0.873755  0.750269  1
  Al  Al25  1  0.161264  0.838736  0.923426  1
  Al  Al26  1  0.326593  0.163296  0.423563  1
  Si  Si27  1  0.333333  0.666667  0.473554  1
  Si  Si28  1  0.666667  0.333333  0.974422  1
  Si  Si29  1  0.666667  0.333333  0.528270  1
  Tc  Tc30  1  0.499564  0.999128  0.500608  1
  Tc  Tc31  1  0.503873  0.496127  0.998696  1
  Tc  Tc32  1  0.992253  0.496127  0.998696  1
  Tc  Tc33  1  0.000872  0.500436  0.500608  1
  Tc  Tc34  1  0.499564  0.500436  0.500608  1
  Tc  Tc35  1  0.503873  0.007747  0.998696  1
  Ru  Ru36  1  0.000000  0.000000  0.500805  1
  Ru  Ru37  1  0.000000  0.000000  0.000844  1
