# generated using pymatgen
data_Lu3Ga2Co9B4
_symmetry_space_group_name_H-M   'P 1'
_cell_length_a   5.09240800
_cell_length_b   5.09271694
_cell_length_c   9.50940200
_cell_angle_alpha   89.99954678
_cell_angle_beta   90.00089524
_cell_angle_gamma   119.99798032
_symmetry_Int_Tables_number   1
_chemical_formula_structural   Lu3Ga2Co9B4
_chemical_formula_sum   'Lu3 Ga2 Co9 B4'
_cell_volume   213.58237274
_cell_formula_units_Z   1
loop_
 _symmetry_equiv_pos_site_id
 _symmetry_equiv_pos_as_xyz
  1  'x, y, z'
loop_
 _atom_site_type_symbol
 _atom_site_label
 _atom_site_symmetry_multiplicity
 _atom_site_fract_x
 _atom_site_fract_y
 _atom_site_fract_z
 _atom_site_occupancy
  Lu  Lu0  1  0.999993  0.000000  0.999991  1
  Lu  Lu1  1  0.999991  0.000000  0.339464  1
  Lu  Lu2  1  0.999981  0.000000  0.660479  1
  Ga  Ga3  1  0.333396  0.666805  0.000029  1
  Ga  Ga4  1  0.666590  0.333195  0.000029  1
  Co  Co5  1  0.499991  0.000000  0.499995  1
  Co  Co6  1  0.499996  0.499996  0.500014  1
  Co  Co7  1  0.000000  0.500004  0.500014  1
  Co  Co8  1  0.499999  0.000000  0.206980  1
  Co  Co9  1  0.499988  0.500000  0.207001  1
  Co  Co10  1  0.999988  0.500000  0.207001  1
  Co  Co11  1  0.499999  0.000000  0.793028  1
  Co  Co12  1  0.499999  0.500003  0.793016  1
  Co  Co13  1  0.999996  0.499997  0.793016  1
  B  B14  1  0.333331  0.666682  0.348987  1
  B  B15  1  0.666649  0.333318  0.348987  1
  B  B16  1  0.666661  0.333309  0.650985  1
  B  B17  1  0.333351  0.666691  0.650985  1
