# generated using pymatgen
data_NdTh3C2Cl3
_symmetry_space_group_name_H-M   'P 1'
_cell_length_a   3.79079300
_cell_length_b   10.90802700
_cell_length_c   20.74999900
_cell_angle_alpha   90.00000000
_cell_angle_beta   90.00000000
_cell_angle_gamma   90.00000000
_symmetry_Int_Tables_number   1
_chemical_formula_structural   NdTh3C2Cl3
_chemical_formula_sum   'Nd4 Th12 C8 Cl12'
_cell_volume   858.01396085
_cell_formula_units_Z   4
loop_
 _symmetry_equiv_pos_site_id
 _symmetry_equiv_pos_as_xyz
  1  'x, y, z'
loop_
 _atom_site_type_symbol
 _atom_site_label
 _atom_site_symmetry_multiplicity
 _atom_site_fract_x
 _atom_site_fract_y
 _atom_site_fract_z
 _atom_site_occupancy
  Nd  Nd0  1  0.250000  0.863792  0.572748  1
  Nd  Nd1  1  0.750000  0.136208  0.427252  1
  Nd  Nd2  1  0.750000  0.636208  0.072748  1
  Nd  Nd3  1  0.250000  0.363792  0.927252  1
  Th  Th4  1  0.250000  0.863436  0.742382  1
  Th  Th5  1  0.750000  0.136564  0.257618  1
  Th  Th6  1  0.750000  0.636564  0.242382  1
  Th  Th7  1  0.250000  0.363436  0.757618  1
  Th  Th8  1  0.250000  0.870605  0.165434  1
  Th  Th9  1  0.750000  0.129395  0.834566  1
  Th  Th10  1  0.750000  0.629395  0.665434  1
  Th  Th11  1  0.250000  0.370605  0.334566  1
  Th  Th12  1  0.250000  0.902373  0.334856  1
  Th  Th13  1  0.750000  0.097627  0.665144  1
  Th  Th14  1  0.750000  0.597627  0.834856  1
  Th  Th15  1  0.250000  0.402373  0.165144  1
  C  C16  1  0.250000  0.612817  0.751107  1
  C  C17  1  0.750000  0.387183  0.248893  1
  C  C18  1  0.750000  0.887183  0.251107  1
  C  C19  1  0.250000  0.112817  0.748893  1
  C  C20  1  0.250000  0.636852  0.156641  1
  C  C21  1  0.750000  0.363148  0.843359  1
  C  C22  1  0.750000  0.863148  0.656641  1
  C  C23  1  0.250000  0.136852  0.343359  1
  Cl  Cl24  1  0.250000  0.608799  0.556986  1
  Cl  Cl25  1  0.750000  0.391201  0.443014  1
  Cl  Cl26  1  0.750000  0.891201  0.056986  1
  Cl  Cl27  1  0.250000  0.108799  0.943014  1
  Cl  Cl28  1  0.250000  0.627259  0.952391  1
  Cl  Cl29  1  0.750000  0.372741  0.047609  1
  Cl  Cl30  1  0.750000  0.872741  0.452391  1
  Cl  Cl31  1  0.250000  0.127259  0.547609  1
  Cl  Cl32  1  0.250000  0.636809  0.356025  1
  Cl  Cl33  1  0.750000  0.363191  0.643975  1
  Cl  Cl34  1  0.750000  0.863191  0.856025  1
  Cl  Cl35  1  0.250000  0.136809  0.143975  1
