# generated using pymatgen
data_TbErTm8(In2Pt)4
_symmetry_space_group_name_H-M   'P 1'
_cell_length_a   3.58608000
_cell_length_b   8.11195315
_cell_length_c   18.15395233
_cell_angle_alpha   89.97808318
_cell_angle_beta   90.00000000
_cell_angle_gamma   90.00000000
_symmetry_Int_Tables_number   1
_chemical_formula_structural   TbErTm8(In2Pt)4
_chemical_formula_sum   'Tb1 Er1 Tm8 In8 Pt4'
_cell_volume   528.10048512
_cell_formula_units_Z   1
loop_
 _symmetry_equiv_pos_site_id
 _symmetry_equiv_pos_as_xyz
  1  'x, y, z'
loop_
 _atom_site_type_symbol
 _atom_site_label
 _atom_site_symmetry_multiplicity
 _atom_site_fract_x
 _atom_site_fract_y
 _atom_site_fract_z
 _atom_site_occupancy
  Tb  Tb0  1  0.000000  0.000000  0.000000  1
  Er  Er1  1  0.000000  0.500000  0.500000  1
  Tm  Tm2  1  0.000000  0.116524  0.414672  1
  Tm  Tm3  1  0.000000  0.883476  0.585328  1
  Tm  Tm4  1  0.000000  0.383195  0.914540  1
  Tm  Tm5  1  0.000000  0.616805  0.085460  1
  Tm  Tm6  1  0.000000  0.243368  0.220853  1
  Tm  Tm7  1  0.000000  0.756632  0.779147  1
  Tm  Tm8  1  0.000000  0.256577  0.720743  1
  Tm  Tm9  1  0.000000  0.743423  0.279257  1
  In  In10  1  0.500000  0.423273  0.351321  1
  In  In11  1  0.500000  0.576727  0.648679  1
  In  In12  1  0.500000  0.077201  0.850649  1
  In  In13  1  0.500000  0.922799  0.149351  1
  In  In14  1  0.500000  0.294096  0.066973  1
  In  In15  1  0.500000  0.705904  0.933027  1
  In  In16  1  0.500000  0.207611  0.566506  1
  In  In17  1  0.500000  0.792389  0.433494  1
  Pt  Pt18  1  0.500000  0.025324  0.303764  1
  Pt  Pt19  1  0.500000  0.974676  0.696236  1
  Pt  Pt20  1  0.500000  0.474740  0.803428  1
  Pt  Pt21  1  0.500000  0.525260  0.196572  1
