# generated using pymatgen
data_Y8Er8MgHg3Rh4
_symmetry_space_group_name_H-M   'P 1'
_cell_length_a   9.60488820
_cell_length_b   9.57627009
_cell_length_c   9.60954800
_cell_angle_alpha   59.88498682
_cell_angle_beta   59.98395699
_cell_angle_gamma   60.10491629
_symmetry_Int_Tables_number   1
_chemical_formula_structural   Y8Er8MgHg3Rh4
_chemical_formula_sum   'Y8 Er8 Mg1 Hg3 Rh4'
_cell_volume   624.86707573
_cell_formula_units_Z   1
loop_
 _symmetry_equiv_pos_site_id
 _symmetry_equiv_pos_as_xyz
  1  'x, y, z'
loop_
 _atom_site_type_symbol
 _atom_site_label
 _atom_site_symmetry_multiplicity
 _atom_site_fract_x
 _atom_site_fract_y
 _atom_site_fract_z
 _atom_site_occupancy
  Y  Y0  1  0.436262  0.437356  0.063190  1
  Y  Y1  1  0.059581  0.060515  0.439953  1
  Y  Y2  1  0.186892  0.812535  0.812576  1
  Y  Y3  1  0.812158  0.187710  0.186574  1
  Y  Y4  1  0.812158  0.187710  0.813558  1
  Y  Y5  1  0.186892  0.812535  0.187996  1
  Y  Y6  1  0.811624  0.813023  0.187677  1
  Y  Y7  1  0.186629  0.189320  0.812025  1
  Er  Er8  1  0.599839  0.597691  0.596859  1
  Er  Er9  1  0.599839  0.597691  0.205613  1
  Er  Er10  1  0.601006  0.204708  0.597144  1
  Er  Er11  1  0.192362  0.603198  0.602221  1
  Er  Er12  1  0.058832  0.440008  0.440684  1
  Er  Er13  1  0.436128  0.062106  0.063262  1
  Er  Er14  1  0.436128  0.062106  0.438504  1
  Er  Er15  1  0.058832  0.440008  0.060477  1
  Mg  Mg16  1  0.535066  0.821262  0.821835  1
  Hg  Hg17  1  0.832094  0.835997  0.836086  1
  Hg  Hg18  1  0.832094  0.835997  0.495821  1
  Hg  Hg19  1  0.832016  0.495176  0.836403  1
  Rh  Rh20  1  0.388897  0.393479  0.396866  1
  Rh  Rh21  1  0.388897  0.393479  0.820759  1
  Rh  Rh22  1  0.393388  0.820791  0.392911  1
  Rh  Rh23  1  0.822388  0.395602  0.391005  1
