# generated using pymatgen
data_ZrPCl9
_symmetry_space_group_name_H-M   'P 1'
_cell_length_a   7.42160502
_cell_length_b   9.43101635
_cell_length_c   10.04652319
_cell_angle_alpha   101.40977486
_cell_angle_beta   96.38518933
_cell_angle_gamma   95.07422101
_symmetry_Int_Tables_number   1
_chemical_formula_structural   ZrPCl9
_chemical_formula_sum   'Zr2 P2 Cl18'
_cell_volume   680.59945914
_cell_formula_units_Z   2
loop_
 _symmetry_equiv_pos_site_id
 _symmetry_equiv_pos_as_xyz
  1  'x, y, z'
loop_
 _atom_site_type_symbol
 _atom_site_label
 _atom_site_symmetry_multiplicity
 _atom_site_fract_x
 _atom_site_fract_y
 _atom_site_fract_z
 _atom_site_occupancy
  Zr  Zr0  1  0.611695  0.639897  0.679220  1
  Zr  Zr1  1  0.388305  0.360103  0.320780  1
  P  P2  1  0.049663  0.193698  0.778090  1
  P  P3  1  0.950337  0.806302  0.221910  1
  Cl  Cl4  1  0.375732  0.575594  0.216714  1
  Cl  Cl5  1  0.624268  0.424406  0.783286  1
  Cl  Cl6  1  0.420545  0.161556  0.442702  1
  Cl  Cl7  1  0.579455  0.838444  0.557298  1
  Cl  Cl8  1  0.067835  0.281968  0.244001  1
  Cl  Cl9  1  0.932165  0.718032  0.755999  1
  Cl  Cl10  1  0.519538  0.228878  0.128553  1
  Cl  Cl11  1  0.480462  0.771122  0.871447  1
  Cl  Cl12  1  0.292539  0.517930  0.547263  1
  Cl  Cl13  1  0.707461  0.482070  0.452737  1
  Cl  Cl14  1  0.845092  0.613858  0.118442  1
  Cl  Cl15  1  0.154908  0.386142  0.881558  1
  Cl  Cl16  1  0.947657  0.206426  0.593585  1
  Cl  Cl17  1  0.052343  0.793574  0.406415  1
  Cl  Cl18  1  0.240312  0.062368  0.768210  1
  Cl  Cl19  1  0.759688  0.937632  0.231790  1
  Cl  Cl20  1  0.856502  0.116457  0.870628  1
  Cl  Cl21  1  0.143498  0.883543  0.129372  1
