# generated using pymatgen
data_Ho19HfN19
_symmetry_space_group_name_H-M   'P 1'
_cell_length_a   9.08631322
_cell_length_b   9.08795424
_cell_length_c   9.08789100
_cell_angle_alpha   106.56472912
_cell_angle_beta   106.59973687
_cell_angle_gamma   115.43259347
_symmetry_Int_Tables_number   1
_chemical_formula_structural   Ho19HfN19
_chemical_formula_sum   'Ho19 Hf1 N19'
_cell_volume   572.85871211
_cell_formula_units_Z   1
loop_
 _symmetry_equiv_pos_site_id
 _symmetry_equiv_pos_as_xyz
  1  'x, y, z'
loop_
 _atom_site_type_symbol
 _atom_site_label
 _atom_site_symmetry_multiplicity
 _atom_site_fract_x
 _atom_site_fract_y
 _atom_site_fract_z
 _atom_site_occupancy
  Ho  Ho0  1  0.395058  0.706681  0.103386  1
  Ho  Ho1  1  0.100045  0.798287  0.899499  1
  Ho  Ho2  1  0.758670  0.757498  0.000250  1
  Ho  Ho3  1  0.798610  0.899951  0.698573  1
  Ho  Ho4  1  0.450144  0.847678  0.800302  1
  Ho  Ho5  1  0.498813  0.999157  0.499037  1
  Ho  Ho6  1  0.152457  0.951476  0.601157  1
  Ho  Ho7  1  0.201376  0.099256  0.301055  1
  Ho  Ho8  1  0.846984  0.048436  0.397949  1
  Ho  Ho9  1  0.900866  0.202462  0.101474  1
  Ho  Ho10  1  0.551225  0.153236  0.200605  1
  Ho  Ho11  1  0.605042  0.293765  0.897177  1
  Ho  Ho12  1  0.242472  0.241389  0.999653  1
  Ho  Ho13  1  0.293252  0.396252  0.689178  1
  Ho  Ho14  1  0.952700  0.350803  0.800680  1
  Ho  Ho15  1  0.000168  0.500309  0.499509  1
  Ho  Ho16  1  0.649992  0.449360  0.601713  1
  Ho  Ho17  1  0.707965  0.604202  0.310819  1
  Ho  Ho18  1  0.349050  0.550668  0.397097  1
  Hf  Hf19  1  0.047439  0.649913  0.201048  1
  N  N20  1  0.897777  0.698528  0.598096  1
  N  N21  1  0.550556  0.650408  0.702017  1
  N  N22  1  0.600630  0.799422  0.399046  1
  N  N23  1  0.239380  0.744568  0.484168  1
  N  N24  1  0.289284  0.887500  0.199017  1
  N  N25  1  0.953784  0.838072  0.293364  1
  N  N26  1  0.000723  0.001699  0.000998  1
  N  N27  1  0.649089  0.948955  0.099466  1
  N  N28  1  0.697903  0.101169  0.800550  1
  N  N29  1  0.350003  0.052215  0.901495  1
  N  N30  1  0.051591  0.151320  0.701842  1
  N  N31  1  0.749439  0.248934  0.498294  1
  N  N32  1  0.401113  0.201258  0.601554  1
  N  N33  1  0.450518  0.348991  0.298857  1
  N  N34  1  0.101210  0.299314  0.401948  1
  N  N35  1  0.145315  0.458908  0.104578  1
  N  N36  1  0.200404  0.600953  0.800174  1
  N  N37  1  0.810633  0.411720  0.199534  1
  N  N38  1  0.858317  0.555290  0.914842  1
