# generated using pymatgen
data_Sc5Sn3As
_symmetry_space_group_name_H-M   'P 1'
_cell_length_a   8.66250000
_cell_length_b   8.66249995
_cell_length_c   6.20490900
_cell_angle_alpha   90.00000000
_cell_angle_beta   90.00000000
_cell_angle_gamma   120.00000020
_symmetry_Int_Tables_number   1
_chemical_formula_structural   Sc5Sn3As
_chemical_formula_sum   'Sc10 Sn6 As2'
_cell_volume   403.22972539
_cell_formula_units_Z   2
loop_
 _symmetry_equiv_pos_site_id
 _symmetry_equiv_pos_as_xyz
  1  'x, y, z'
loop_
 _atom_site_type_symbol
 _atom_site_label
 _atom_site_symmetry_multiplicity
 _atom_site_fract_x
 _atom_site_fract_y
 _atom_site_fract_z
 _atom_site_occupancy
  Sc  Sc0  1  0.666667  0.333333  0.000000  1
  Sc  Sc1  1  0.333333  0.666667  0.000000  1
  Sc  Sc2  1  0.333333  0.666667  0.500000  1
  Sc  Sc3  1  0.666667  0.333333  0.500000  1
  Sc  Sc4  1  0.748652  0.748652  0.750000  1
  Sc  Sc5  1  0.251348  0.000000  0.750000  1
  Sc  Sc6  1  0.000000  0.251348  0.750000  1
  Sc  Sc7  1  0.251348  0.251348  0.250000  1
  Sc  Sc8  1  0.748652  0.000000  0.250000  1
  Sc  Sc9  1  0.000000  0.748652  0.250000  1
  Sn  Sn10  1  0.396203  0.396203  0.750000  1
  Sn  Sn11  1  0.603797  0.000000  0.750000  1
  Sn  Sn12  1  0.000000  0.603797  0.750000  1
  Sn  Sn13  1  0.603797  0.603797  0.250000  1
  Sn  Sn14  1  0.396203  0.000000  0.250000  1
  Sn  Sn15  1  0.000000  0.396203  0.250000  1
  As  As16  1  0.000000  0.000000  0.000000  1
  As  As17  1  0.000000  0.000000  0.500000  1
