# generated using pymatgen
data_Mn5V3Si3Ni
_symmetry_space_group_name_H-M   'P 1'
_cell_length_a   3.98853000
_cell_length_b   5.73393001
_cell_length_c   11.90960702
_cell_angle_alpha   89.99376972
_cell_angle_beta   90.00131988
_cell_angle_gamma   89.99985826
_symmetry_Int_Tables_number   1
_chemical_formula_structural   Mn5V3Si3Ni
_chemical_formula_sum   'Mn10 V6 Si6 Ni2'
_cell_volume   272.37213748
_cell_formula_units_Z   2
loop_
 _symmetry_equiv_pos_site_id
 _symmetry_equiv_pos_as_xyz
  1  'x, y, z'
loop_
 _atom_site_type_symbol
 _atom_site_label
 _atom_site_symmetry_multiplicity
 _atom_site_fract_x
 _atom_site_fract_y
 _atom_site_fract_z
 _atom_site_occupancy
  Mn  Mn0  1  0.999899  0.250812  0.162108  1
  Mn  Mn1  1  0.999886  0.749171  0.162222  1
  Mn  Mn2  1  0.499930  0.249865  0.331401  1
  Mn  Mn3  1  0.499913  0.750172  0.331378  1
  Mn  Mn4  1  0.000009  0.249642  0.500011  1
  Mn  Mn5  1  0.999988  0.750288  0.499975  1
  Mn  Mn6  1  0.500087  0.249847  0.668615  1
  Mn  Mn7  1  0.500067  0.750155  0.668623  1
  Mn  Mn8  1  0.000132  0.250817  0.837829  1
  Mn  Mn9  1  0.000089  0.749240  0.837826  1
  V  V10  1  0.000002  0.500161  0.999996  1
  V  V11  1  0.499901  0.999770  0.175249  1
  V  V12  1  0.999930  0.500398  0.333113  1
  V  V13  1  0.500000  0.999591  0.500004  1
  V  V14  1  0.000071  0.500255  0.666889  1
  V  V15  1  0.500100  0.999872  0.824747  1
  Si  Si16  1  0.000003  0.999885  0.000000  1
  Si  Si17  1  0.499913  0.500175  0.166156  1
  Si  Si18  1  0.999926  0.999748  0.333160  1
  Si  Si19  1  0.499999  0.500272  0.500004  1
  Si  Si20  1  0.000074  0.999764  0.666836  1
  Si  Si21  1  0.500088  0.500106  0.833844  1
  Ni  Ni22  1  0.499994  0.242082  0.000001  1
  Ni  Ni23  1  0.499999  0.757914  0.000012  1
