# generated using pymatgen
data_Hf6FeTc5As6
_symmetry_space_group_name_H-M   'P 1'
_cell_length_a   7.67602277
_cell_length_b   7.74582514
_cell_length_c   7.70186391
_cell_angle_alpha   127.47718847
_cell_angle_beta   122.92003751
_cell_angle_gamma   81.11073730
_symmetry_Int_Tables_number   1
_chemical_formula_structural   Hf6FeTc5As6
_chemical_formula_sum   'Hf6 Fe1 Tc5 As6'
_cell_volume   294.20130668
_cell_formula_units_Z   1
loop_
 _symmetry_equiv_pos_site_id
 _symmetry_equiv_pos_as_xyz
  1  'x, y, z'
loop_
 _atom_site_type_symbol
 _atom_site_label
 _atom_site_symmetry_multiplicity
 _atom_site_fract_x
 _atom_site_fract_y
 _atom_site_fract_z
 _atom_site_occupancy
  Hf  Hf0  1  0.464380  0.687003  0.725125  1
  Hf  Hf1  1  0.537351  0.254027  0.216617  1
  Hf  Hf2  1  0.749788  0.840261  0.596465  1
  Hf  Hf3  1  0.245204  0.837102  0.085199  1
  Hf  Hf4  1  0.050061  0.255268  0.702302  1
  Hf  Hf5  1  0.943605  0.653974  0.205561  1
  Fe  Fe6  1  0.659522  0.252506  0.663564  1
  Tc  Tc7  1  0.480243  0.499731  0.979517  1
  Tc  Tc8  1  0.013414  0.497499  0.514340  1
  Tc  Tc9  1  0.100566  0.252182  0.103303  1
  Tc  Tc10  1  0.896868  0.007768  0.155596  1
  Tc  Tc11  1  0.348029  0.006603  0.600803  1
  As  As12  1  0.290071  0.260153  0.486632  1
  As  As13  1  0.730295  0.239895  0.000022  1
  As  As14  1  0.329231  0.586295  0.250921  1
  As  As15  1  0.667546  0.928292  0.267932  1
  As  As16  1  0.163134  0.921067  0.750085  1
  As  As17  1  0.830691  0.579975  0.755617  1
