# generated using pymatgen
data_Yb3Al12(OsPt)2
_symmetry_space_group_name_H-M   'P 1'
_cell_length_a   8.89798769
_cell_length_b   8.89798865
_cell_length_c   9.56861843
_cell_angle_alpha   90.46298829
_cell_angle_beta   89.53701497
_cell_angle_gamma   119.96815740
_symmetry_Int_Tables_number   1
_chemical_formula_structural   Yb3Al12(OsPt)2
_chemical_formula_sum   'Yb6 Al24 Os4 Pt4'
_cell_volume   656.27198486
_cell_formula_units_Z   2
loop_
 _symmetry_equiv_pos_site_id
 _symmetry_equiv_pos_as_xyz
  1  'x, y, z'
loop_
 _atom_site_type_symbol
 _atom_site_label
 _atom_site_symmetry_multiplicity
 _atom_site_fract_x
 _atom_site_fract_y
 _atom_site_fract_z
 _atom_site_occupancy
  Yb  Yb0  1  0.189636  0.382997  0.254365  1
  Yb  Yb1  1  0.810364  0.617003  0.745635  1
  Yb  Yb2  1  0.617003  0.810364  0.254365  1
  Yb  Yb3  1  0.382997  0.189636  0.745635  1
  Yb  Yb4  1  0.193375  0.806625  0.254739  1
  Yb  Yb5  1  0.806625  0.193375  0.745261  1
  Al  Al6  1  0.333287  0.666713  0.004295  1
  Al  Al7  1  0.666713  0.333287  0.995705  1
  Al  Al8  1  0.670009  0.329991  0.505334  1
  Al  Al9  1  0.329991  0.670009  0.494666  1
  Al  Al10  1  0.156420  0.322355  0.578988  1
  Al  Al11  1  0.843580  0.677645  0.421012  1
  Al  Al12  1  0.677645  0.843580  0.578988  1
  Al  Al13  1  0.839879  0.679682  0.080903  1
  Al  Al14  1  0.322355  0.156420  0.421012  1
  Al  Al15  1  0.160121  0.320318  0.919097  1
  Al  Al16  1  0.161832  0.838168  0.577801  1
  Al  Al17  1  0.320318  0.160121  0.080903  1
  Al  Al18  1  0.838168  0.161832  0.422199  1
  Al  Al19  1  0.679682  0.839879  0.919097  1
  Al  Al20  1  0.839308  0.160692  0.080451  1
  Al  Al21  1  0.160692  0.839308  0.919549  1
  Al  Al22  1  0.563460  0.124725  0.251486  1
  Al  Al23  1  0.436540  0.875275  0.748514  1
  Al  Al24  1  0.875275  0.436540  0.251486  1
  Al  Al25  1  0.124725  0.563460  0.748514  1
  Al  Al26  1  0.563497  0.436503  0.248069  1
  Al  Al27  1  0.436503  0.563497  0.751931  1
  Al  Al28  1  0.000427  0.999573  0.250454  1
  Al  Al29  1  0.999573  0.000427  0.749546  1
  Os  Os30  1  0.500000  0.000000  0.500000  1
  Os  Os31  1  0.000000  0.500000  0.500000  1
  Os  Os32  1  0.000000  0.000000  0.000000  1
  Os  Os33  1  0.000000  0.000000  0.500000  1
  Pt  Pt34  1  0.500000  0.000000  0.000000  1
  Pt  Pt35  1  0.000000  0.500000  0.000000  1
  Pt  Pt36  1  0.500000  0.500000  0.000000  1
  Pt  Pt37  1  0.500000  0.500000  0.500000  1
