# generated using pymatgen
data_TbHo2(Ga2Co3)3
_symmetry_space_group_name_H-M   'P 1'
_cell_length_a   4.05227800
_cell_length_b   8.73287721
_cell_length_c   8.72381111
_cell_angle_alpha   59.96407579
_cell_angle_beta   90.00000000
_cell_angle_gamma   90.00000000
_symmetry_Int_Tables_number   1
_chemical_formula_structural   TbHo2(Ga2Co3)3
_chemical_formula_sum   'Tb1 Ho2 Ga6 Co9'
_cell_volume   267.26134138
_cell_formula_units_Z   1
loop_
 _symmetry_equiv_pos_site_id
 _symmetry_equiv_pos_as_xyz
  1  'x, y, z'
loop_
 _atom_site_type_symbol
 _atom_site_label
 _atom_site_symmetry_multiplicity
 _atom_site_fract_x
 _atom_site_fract_y
 _atom_site_fract_z
 _atom_site_occupancy
  Tb  Tb0  1  0.500000  0.666690  0.666679  1
  Ho  Ho1  1  0.500000  0.333466  0.333082  1
  Ho  Ho2  1  0.000000  0.000013  0.000357  1
  Ga  Ga3  1  0.000000  0.496282  0.503291  1
  Ga  Ga4  1  0.000000  0.503256  0.000606  1
  Ga  Ga5  1  0.000000  0.000552  0.495888  1
  Ga  Ga6  1  0.500000  0.728422  0.271227  1
  Ga  Ga7  1  0.500000  0.271371  0.000515  1
  Ga  Ga8  1  0.500000  0.000035  0.728377  1
  Co  Co9  1  0.000000  0.180467  0.180849  1
  Co  Co10  1  0.000000  0.180959  0.638839  1
  Co  Co11  1  0.000000  0.638830  0.180167  1
  Co  Co12  1  0.000000  0.819325  0.820590  1
  Co  Co13  1  0.000000  0.360222  0.819577  1
  Co  Co14  1  0.000000  0.820355  0.360170  1
  Co  Co15  1  0.500000  0.296970  0.702585  1
  Co  Co16  1  0.500000  0.702388  0.000202  1
  Co  Co17  1  0.500000  0.000297  0.297096  1
