# generated using pymatgen
data_CdHg2Bi(Ir2O7)2
_symmetry_space_group_name_H-M   'P 1'
_cell_length_a   7.25396305
_cell_length_b   7.32867028
_cell_length_c   7.28900831
_cell_angle_alpha   60.66264111
_cell_angle_beta   60.15891747
_cell_angle_gamma   60.33663774
_symmetry_Int_Tables_number   1
_chemical_formula_structural   CdHg2Bi(Ir2O7)2
_chemical_formula_sum   'Cd1 Hg2 Bi1 Ir4 O14'
_cell_volume   276.38372195
_cell_formula_units_Z   1
loop_
 _symmetry_equiv_pos_site_id
 _symmetry_equiv_pos_as_xyz
  1  'x, y, z'
loop_
 _atom_site_type_symbol
 _atom_site_label
 _atom_site_symmetry_multiplicity
 _atom_site_fract_x
 _atom_site_fract_y
 _atom_site_fract_z
 _atom_site_occupancy
  Cd  Cd0  1  0.125000  0.125000  0.625000  1
  Hg  Hg1  1  0.625000  0.125000  0.125000  1
  Hg  Hg2  1  0.125000  0.125000  0.125000  1
  Bi  Bi3  1  0.125000  0.625000  0.125000  1
  Ir  Ir4  1  0.125000  0.625000  0.625000  1
  Ir  Ir5  1  0.625000  0.125000  0.625000  1
  Ir  Ir6  1  0.625000  0.625000  0.125000  1
  Ir  Ir7  1  0.625000  0.625000  0.625000  1
  O  O8  1  0.710455  0.692665  0.299227  1
  O  O9  1  0.302448  0.306553  0.690048  1
  O  O10  1  0.700951  0.306553  0.690048  1
  O  O11  1  0.297654  0.692665  0.299227  1
  O  O12  1  0.294903  0.700187  0.710008  1
  O  O13  1  0.693546  0.308140  0.304767  1
  O  O14  1  0.539545  0.557335  0.950773  1
  O  O15  1  0.947552  0.943447  0.559952  1
  O  O16  1  0.549049  0.943447  0.559952  1
  O  O17  1  0.952346  0.557335  0.950773  1
  O  O18  1  0.955097  0.549813  0.539992  1
  O  O19  1  0.556454  0.941860  0.945233  1
  O  O20  1  0.255888  0.237816  0.250408  1
  O  O21  1  0.994112  0.012184  0.999592  1
