# generated using pymatgen
data_ReTc5PdPt
_symmetry_space_group_name_H-M   'P 1'
_cell_length_a   5.56069289
_cell_length_b   5.56069329
_cell_length_c   4.41191200
_cell_angle_alpha   90.00000000
_cell_angle_beta   90.00000000
_cell_angle_gamma   119.93508404
_symmetry_Int_Tables_number   1
_chemical_formula_structural   ReTc5PdPt
_chemical_formula_sum   'Re1 Tc5 Pd1 Pt1'
_cell_volume   118.22220108
_cell_formula_units_Z   1
loop_
 _symmetry_equiv_pos_site_id
 _symmetry_equiv_pos_as_xyz
  1  'x, y, z'
loop_
 _atom_site_type_symbol
 _atom_site_label
 _atom_site_symmetry_multiplicity
 _atom_site_fract_x
 _atom_site_fract_y
 _atom_site_fract_z
 _atom_site_occupancy
  Re  Re0  1  0.842575  0.157425  0.750000  1
  Tc  Tc1  1  0.314630  0.157125  0.750000  1
  Tc  Tc2  1  0.842875  0.685370  0.750000  1
  Tc  Tc3  1  0.157980  0.842020  0.250000  1
  Tc  Tc4  1  0.683991  0.841472  0.250000  1
  Tc  Tc5  1  0.158528  0.316009  0.250000  1
  Pd  Pd6  1  0.333149  0.666851  0.750000  1
  Pt  Pt7  1  0.666271  0.333729  0.250000  1
