# generated using pymatgen
data_Dy4Mg(CoTe)2
_symmetry_space_group_name_H-M   'P 1'
_cell_length_a   7.69368494
_cell_length_b   7.69369009
_cell_length_c   15.03562000
_cell_angle_alpha   89.99983937
_cell_angle_beta   90.00014645
_cell_angle_gamma   150.60578187
_symmetry_Int_Tables_number   1
_chemical_formula_structural   Dy4Mg(CoTe)2
_chemical_formula_sum   'Dy8 Mg2 Co4 Te4'
_cell_volume   436.82651558
_cell_formula_units_Z   2
loop_
 _symmetry_equiv_pos_site_id
 _symmetry_equiv_pos_as_xyz
  1  'x, y, z'
loop_
 _atom_site_type_symbol
 _atom_site_label
 _atom_site_symmetry_multiplicity
 _atom_site_fract_x
 _atom_site_fract_y
 _atom_site_fract_z
 _atom_site_occupancy
  Dy  Dy0  1  0.967354  0.032645  0.129661  1
  Dy  Dy1  1  0.032632  0.967369  0.870192  1
  Dy  Dy2  1  0.032631  0.967368  0.629810  1
  Dy  Dy3  1  0.967354  0.032645  0.370337  1
  Dy  Dy4  1  0.746545  0.253454  0.632670  1
  Dy  Dy5  1  0.253467  0.746535  0.367334  1
  Dy  Dy6  1  0.253466  0.746535  0.132664  1
  Dy  Dy7  1  0.746545  0.253453  0.867333  1
  Mg  Mg8  1  0.607349  0.392650  0.249998  1
  Mg  Mg9  1  0.392531  0.607469  0.750002  1
  Co  Co10  1  0.409553  0.590448  0.249999  1
  Co  Co11  1  0.590442  0.409558  0.750001  1
  Co  Co12  1  0.818076  0.181926  0.249999  1
  Co  Co13  1  0.182060  0.817939  0.750001  1
  Te  Te14  1  0.618552  0.381447  0.033593  1
  Te  Te15  1  0.381445  0.618556  0.966355  1
  Te  Te16  1  0.381445  0.618556  0.533646  1
  Te  Te17  1  0.618553  0.381447  0.466406  1
