# generated using pymatgen
data_La10Al4IrOs5
_symmetry_space_group_name_H-M   'P 1'
_cell_length_a   8.67325024
_cell_length_b   8.69032346
_cell_length_c   8.69032744
_cell_angle_alpha   109.53019898
_cell_angle_beta   109.50733598
_cell_angle_gamma   109.45604132
_symmetry_Int_Tables_number   1
_chemical_formula_structural   La10Al4IrOs5
_chemical_formula_sum   'La10 Al4 Ir1 Os5'
_cell_volume   503.73585139
_cell_formula_units_Z   1
loop_
 _symmetry_equiv_pos_site_id
 _symmetry_equiv_pos_as_xyz
  1  'x, y, z'
loop_
 _atom_site_type_symbol
 _atom_site_label
 _atom_site_symmetry_multiplicity
 _atom_site_fract_x
 _atom_site_fract_y
 _atom_site_fract_z
 _atom_site_occupancy
  La  La0  1  0.249997  0.686887  0.436888  1
  La  La1  1  0.749997  0.812654  0.062656  1
  La  La2  1  0.439238  0.251239  0.685980  1
  La  La3  1  0.688146  0.438012  0.250804  1
  La  La4  1  0.060769  0.746745  0.812001  1
  La  La5  1  0.811853  0.062656  0.749867  1
  La  La6  1  0.210049  0.210819  0.212019  1
  La  La7  1  0.500369  0.000008  0.290181  1
  La  La8  1  0.289954  0.501975  0.000771  1
  La  La9  1  0.999632  0.289816  0.499643  1
  Al  Al10  1  0.500766  0.999698  0.912879  1
  Al  Al11  1  0.587025  0.586840  0.586781  1
  Al  Al12  1  0.912975  0.499757  0.999815  1
  Al  Al13  1  0.999234  0.912113  0.498934  1
  Ir  Ir14  1  0.250000  0.114749  0.864748  1
  Os  Os15  1  0.750002  0.384937  0.634937  1
  Os  Os16  1  0.864740  0.250023  0.115008  1
  Os  Os17  1  0.115773  0.866129  0.250454  1
  Os  Os18  1  0.635259  0.750267  0.385281  1
  Os  Os19  1  0.384224  0.634678  0.750355  1
