# generated using pymatgen
data_Tb20Ir7Rh4Au
_symmetry_space_group_name_H-M   'P 1'
_cell_length_a   11.00794244
_cell_length_b   11.00794244
_cell_length_c   6.40997600
_cell_angle_alpha   90.00144766
_cell_angle_beta   90.00144766
_cell_angle_gamma   89.55384103
_symmetry_Int_Tables_number   1
_chemical_formula_structural   Tb20Ir7Rh4Au
_chemical_formula_sum   'Tb20 Ir7 Rh4 Au1'
_cell_volume   776.70398930
_cell_formula_units_Z   1
loop_
 _symmetry_equiv_pos_site_id
 _symmetry_equiv_pos_as_xyz
  1  'x, y, z'
loop_
 _atom_site_type_symbol
 _atom_site_label
 _atom_site_symmetry_multiplicity
 _atom_site_fract_x
 _atom_site_fract_y
 _atom_site_fract_z
 _atom_site_occupancy
  Tb  Tb0  1  0.289769  0.089206  0.379356  1
  Tb  Tb1  1  0.292287  0.909560  0.878797  1
  Tb  Tb2  1  0.704223  0.085657  0.867070  1
  Tb  Tb3  1  0.705787  0.903413  0.382433  1
  Tb  Tb4  1  0.589169  0.789888  0.881735  1
  Tb  Tb5  1  0.580530  0.211037  0.381111  1
  Tb  Tb6  1  0.409432  0.790070  0.380919  1
  Tb  Tb7  1  0.408643  0.209148  0.881013  1
  Tb  Tb8  1  0.210112  0.410831  0.618265  1
  Tb  Tb9  1  0.209930  0.590568  0.119081  1
  Tb  Tb10  1  0.788963  0.419470  0.118889  1
  Tb  Tb11  1  0.790852  0.591357  0.618987  1
  Tb  Tb12  1  0.910794  0.710231  0.120644  1
  Tb  Tb13  1  0.914343  0.295777  0.632930  1
  Tb  Tb14  1  0.090440  0.707713  0.621203  1
  Tb  Tb15  1  0.096587  0.294213  0.117567  1
  Tb  Tb16  1  0.003230  0.995762  0.501641  1
  Tb  Tb17  1  0.004238  0.996770  0.998359  1
  Tb  Tb18  1  0.498888  0.499256  0.998965  1
  Tb  Tb19  1  0.500744  0.501112  0.501035  1
  Ir  Ir20  1  0.846016  0.847550  0.749734  1
  Ir  Ir21  1  0.152450  0.153984  0.750266  1
  Ir  Ir22  1  0.155337  0.844663  0.250000  1
  Ir  Ir23  1  0.655741  0.344259  0.750000  1
  Ir  Ir24  1  0.654461  0.652957  0.248659  1
  Ir  Ir25  1  0.347043  0.345539  0.251341  1
  Ir  Ir26  1  0.345806  0.654194  0.750000  1
  Rh  Rh27  1  0.500848  0.999995  0.125424  1
  Rh  Rh28  1  0.499997  0.000583  0.621601  1
  Rh  Rh29  1  0.999417  0.500003  0.878399  1
  Rh  Rh30  1  0.000005  0.499152  0.374576  1
  Au  Au31  1  0.843920  0.156080  0.250000  1
