# generated using pymatgen
data_Er4V3FeB16
_symmetry_space_group_name_H-M   'P 1'
_cell_length_a   3.41175500
_cell_length_b   5.95574611
_cell_length_c   11.50932421
_cell_angle_alpha   89.97807555
_cell_angle_beta   90.00000000
_cell_angle_gamma   90.00000000
_symmetry_Int_Tables_number   1
_chemical_formula_structural   Er4V3FeB16
_chemical_formula_sum   'Er4 V3 Fe1 B16'
_cell_volume   233.86423212
_cell_formula_units_Z   1
loop_
 _symmetry_equiv_pos_site_id
 _symmetry_equiv_pos_as_xyz
  1  'x, y, z'
loop_
 _atom_site_type_symbol
 _atom_site_label
 _atom_site_symmetry_multiplicity
 _atom_site_fract_x
 _atom_site_fract_y
 _atom_site_fract_z
 _atom_site_occupancy
  Er  Er0  1  0.000000  0.626697  0.348932  1
  Er  Er1  1  0.000000  0.375061  0.651306  1
  Er  Er2  1  0.000000  0.124933  0.150164  1
  Er  Er3  1  0.000000  0.874898  0.849187  1
  V  V4  1  0.000000  0.627503  0.083003  1
  V  V5  1  0.000000  0.372474  0.914262  1
  V  V6  1  0.000000  0.127621  0.419816  1
  Fe  Fe7  1  0.000000  0.873146  0.581810  1
  B  B8  1  0.500000  0.786924  0.186609  1
  B  B9  1  0.500000  0.211810  0.812304  1
  B  B10  1  0.500000  0.285324  0.315099  1
  B  B11  1  0.500000  0.719333  0.682727  1
  B  B12  1  0.500000  0.865458  0.032537  1
  B  B13  1  0.500000  0.134120  0.967107  1
  B  B14  1  0.500000  0.365784  0.469808  1
  B  B15  1  0.500000  0.638027  0.532978  1
  B  B16  1  0.500000  0.883463  0.455508  1
  B  B17  1  0.500000  0.109170  0.549782  1
  B  B18  1  0.500000  0.384935  0.046889  1
  B  B19  1  0.500000  0.614756  0.951973  1
  B  B20  1  0.500000  0.975869  0.308470  1
  B  B21  1  0.500000  0.020628  0.691246  1
  B  B22  1  0.500000  0.475450  0.193093  1
  B  B23  1  0.500000  0.526617  0.805390  1
