# generated using pymatgen
data_Li3Nd4HfPt4
_symmetry_space_group_name_H-M   'P 1'
_cell_length_a   4.17970400
_cell_length_b   7.27217226
_cell_length_c   8.77229989
_cell_angle_alpha   92.35786843
_cell_angle_beta   90.00000000
_cell_angle_gamma   90.00000000
_symmetry_Int_Tables_number   1
_chemical_formula_structural   Li3Nd4HfPt4
_chemical_formula_sum   'Li3 Nd4 Hf1 Pt4'
_cell_volume   266.41293334
_cell_formula_units_Z   1
loop_
 _symmetry_equiv_pos_site_id
 _symmetry_equiv_pos_as_xyz
  1  'x, y, z'
loop_
 _atom_site_type_symbol
 _atom_site_label
 _atom_site_symmetry_multiplicity
 _atom_site_fract_x
 _atom_site_fract_y
 _atom_site_fract_z
 _atom_site_occupancy
  Li  Li0  1  0.250000  0.129830  0.059337  1
  Li  Li1  1  0.250000  0.638869  0.432299  1
  Li  Li2  1  0.750000  0.875343  0.946185  1
  Nd  Nd3  1  0.250000  0.022898  0.693779  1
  Nd  Nd4  1  0.250000  0.548203  0.830337  1
  Nd  Nd5  1  0.750000  0.957596  0.312935  1
  Nd  Nd6  1  0.750000  0.463564  0.175560  1
  Hf  Hf7  1  0.750000  0.372435  0.556111  1
  Pt  Pt8  1  0.250000  0.249813  0.398589  1
  Pt  Pt9  1  0.250000  0.754750  0.120501  1
  Pt  Pt10  1  0.750000  0.732088  0.615038  1
  Pt  Pt11  1  0.750000  0.254610  0.859330  1
