# generated using pymatgen
data_La3Pr2In11Ni6
_symmetry_space_group_name_H-M   'P 1'
_cell_length_a   10.44284876
_cell_length_b   10.44284774
_cell_length_c   4.47903100
_cell_angle_alpha   90.00000000
_cell_angle_beta   90.00000000
_cell_angle_gamma   89.78259800
_symmetry_Int_Tables_number   1
_chemical_formula_structural   La3Pr2In11Ni6
_chemical_formula_sum   'La3 Pr2 In11 Ni6'
_cell_volume   488.44860794
_cell_formula_units_Z   1
loop_
 _symmetry_equiv_pos_site_id
 _symmetry_equiv_pos_as_xyz
  1  'x, y, z'
loop_
 _atom_site_type_symbol
 _atom_site_label
 _atom_site_symmetry_multiplicity
 _atom_site_fract_x
 _atom_site_fract_y
 _atom_site_fract_z
 _atom_site_occupancy
  La  La0  1  0.035658  0.687392  0.000000  1
  La  La1  1  0.312608  0.964342  0.000000  1
  La  La2  1  0.500668  0.499332  0.500000  1
  Pr  Pr3  1  0.688664  0.034651  0.000000  1
  Pr  Pr4  1  0.965349  0.311336  0.000000  1
  In  In5  1  0.304974  0.306016  0.000000  1
  In  In6  1  0.693984  0.695026  0.000000  1
  In  In7  1  0.727459  0.272541  0.500000  1
  In  In8  1  0.847107  0.534405  0.500000  1
  In  In9  1  0.161229  0.162022  0.500000  1
  In  In10  1  0.837978  0.838771  0.500000  1
  In  In11  1  0.152548  0.462941  0.500000  1
  In  In12  1  0.274292  0.725708  0.500000  1
  In  In13  1  0.537059  0.847452  0.500000  1
  In  In14  1  0.999107  0.000893  0.000000  1
  In  In15  1  0.465595  0.152893  0.500000  1
  Ni  Ni16  1  0.908284  0.091716  0.500000  1
  Ni  Ni17  1  0.554481  0.279784  0.000000  1
  Ni  Ni18  1  0.443799  0.722256  0.000000  1
  Ni  Ni19  1  0.091199  0.908801  0.500000  1
  Ni  Ni20  1  0.720216  0.445519  0.000000  1
  Ni  Ni21  1  0.277744  0.556201  0.000000  1
