# generated using pymatgen
data_Er8Cd2IrPt
_symmetry_space_group_name_H-M   'P 1'
_cell_length_a   9.57564269
_cell_length_b   9.57564288
_cell_length_c   9.55508600
_cell_angle_alpha   60.07098983
_cell_angle_beta   60.07098916
_cell_angle_gamma   60.15552068
_symmetry_Int_Tables_number   1
_chemical_formula_structural   Er8Cd2IrPt
_chemical_formula_sum   'Er16 Cd4 Ir2 Pt2'
_cell_volume   620.91133414
_cell_formula_units_Z   2
loop_
 _symmetry_equiv_pos_site_id
 _symmetry_equiv_pos_as_xyz
  1  'x, y, z'
loop_
 _atom_site_type_symbol
 _atom_site_label
 _atom_site_symmetry_multiplicity
 _atom_site_fract_x
 _atom_site_fract_y
 _atom_site_fract_z
 _atom_site_occupancy
  Er  Er0  1  0.600717  0.600717  0.596187  1
  Er  Er1  1  0.600717  0.600717  0.202379  1
  Er  Er2  1  0.606738  0.192825  0.600218  1
  Er  Er3  1  0.192825  0.606738  0.600218  1
  Er  Er4  1  0.056648  0.440351  0.440718  1
  Er  Er5  1  0.440351  0.056648  0.062284  1
  Er  Er6  1  0.440351  0.056648  0.440718  1
  Er  Er7  1  0.056648  0.440351  0.062284  1
  Er  Er8  1  0.441193  0.441193  0.058807  1
  Er  Er9  1  0.061276  0.061276  0.438724  1
  Er  Er10  1  0.187264  0.815116  0.812050  1
  Er  Er11  1  0.815116  0.187264  0.185570  1
  Er  Er12  1  0.815116  0.187264  0.812050  1
  Er  Er13  1  0.187264  0.815116  0.185570  1
  Er  Er14  1  0.814450  0.814450  0.185550  1
  Er  Er15  1  0.187163  0.187163  0.812837  1
  Cd  Cd16  1  0.831369  0.831369  0.831730  1
  Cd  Cd17  1  0.831369  0.831369  0.505532  1
  Cd  Cd18  1  0.830006  0.505800  0.832097  1
  Cd  Cd19  1  0.505800  0.830006  0.832097  1
  Ir  Ir20  1  0.390470  0.823554  0.392987  1
  Ir  Ir21  1  0.823554  0.390470  0.392987  1
  Pt  Pt22  1  0.391798  0.391798  0.395377  1
  Pt  Pt23  1  0.391798  0.391798  0.821026  1
