# generated using pymatgen
data_SrPr5SmFeI12
_symmetry_space_group_name_H-M   'P 1'
_cell_length_a   10.15536556
_cell_length_b   10.04323518
_cell_length_c   10.04117649
_cell_angle_alpha   106.29384136
_cell_angle_beta   106.13784567
_cell_angle_gamma   106.65466997
_symmetry_Int_Tables_number   1
_chemical_formula_structural   SrPr5SmFeI12
_chemical_formula_sum   'Sr1 Pr5 Sm1 Fe1 I12'
_cell_volume   867.30150072
_cell_formula_units_Z   1
loop_
 _symmetry_equiv_pos_site_id
 _symmetry_equiv_pos_as_xyz
  1  'x, y, z'
loop_
 _atom_site_type_symbol
 _atom_site_label
 _atom_site_symmetry_multiplicity
 _atom_site_fract_x
 _atom_site_fract_y
 _atom_site_fract_z
 _atom_site_occupancy
  Sr  Sr0  1  0.499643  0.500879  0.500282  1
  Pr  Pr1  1  0.091849  0.289629  0.020703  1
  Pr  Pr2  1  0.020937  0.092444  0.288886  1
  Pr  Pr3  1  0.305254  0.021369  0.097631  1
  Pr  Pr4  1  0.906016  0.709877  0.978655  1
  Pr  Pr5  1  0.979717  0.907364  0.710987  1
  Sm  Sm6  1  0.701336  0.978329  0.903717  1
  Fe  Fe7  1  0.000121  0.999498  0.999854  1
  I  I8  1  0.450171  0.372763  0.142662  1
  I  I9  1  0.144751  0.452306  0.372357  1
  I  I10  1  0.370060  0.143067  0.452185  1
  I  I11  1  0.549708  0.633976  0.858277  1
  I  I12  1  0.854167  0.547309  0.627612  1
  I  I13  1  0.630440  0.860641  0.554210  1
  I  I14  1  0.772587  0.313254  0.925254  1
  I  I15  1  0.925315  0.774024  0.319085  1
  I  I16  1  0.321175  0.926468  0.774305  1
  I  I17  1  0.221900  0.678730  0.072559  1
  I  I18  1  0.073945  0.225791  0.680848  1
  I  I19  1  0.680907  0.072281  0.219931  1
