# generated using pymatgen
data_CdSn6Ir2Ru
_symmetry_space_group_name_H-M   'P 1'
_cell_length_a   8.22967095
_cell_length_b   8.22682234
_cell_length_c   8.22682259
_cell_angle_alpha   110.40501933
_cell_angle_beta   110.78591031
_cell_angle_gamma   107.23210944
_symmetry_Int_Tables_number   1
_chemical_formula_structural   CdSn6Ir2Ru
_chemical_formula_sum   'Cd2 Sn12 Ir4 Ru2'
_cell_volume   428.35123039
_cell_formula_units_Z   2
loop_
 _symmetry_equiv_pos_site_id
 _symmetry_equiv_pos_as_xyz
  1  'x, y, z'
loop_
 _atom_site_type_symbol
 _atom_site_label
 _atom_site_symmetry_multiplicity
 _atom_site_fract_x
 _atom_site_fract_y
 _atom_site_fract_z
 _atom_site_occupancy
  Cd  Cd0  1  0.252214  0.750808  0.501405  1
  Cd  Cd1  1  0.752145  0.250611  0.501534  1
  Sn  Sn2  1  0.754852  0.502165  0.252687  1
  Sn  Sn3  1  0.251059  0.502181  0.748876  1
  Sn  Sn4  1  0.504937  0.755458  0.255695  1
  Sn  Sn5  1  0.504937  0.249242  0.749479  1
  Sn  Sn6  1  0.999323  0.999585  0.324875  1
  Sn  Sn7  1  0.674232  0.999241  0.996510  1
  Sn  Sn8  1  0.999323  0.674449  0.999737  1
  Sn  Sn9  1  0.325176  0.325696  0.328158  1
  Sn  Sn10  1  0.994074  0.322002  0.996357  1
  Sn  Sn11  1  0.674232  0.677721  0.674990  1
  Sn  Sn12  1  0.325176  0.997019  0.999481  1
  Sn  Sn13  1  0.994074  0.997717  0.672073  1
  Ir  Ir14  1  0.339843  0.000072  0.339771  1
  Ir  Ir15  1  0.000259  0.340562  0.340566  1
  Ir  Ir16  1  0.000259  0.659693  0.659696  1
  Ir  Ir17  1  0.343558  0.343192  0.000367  1
  Ru  Ru18  1  0.652917  0.652417  0.000501  1
  Ru  Ru19  1  0.657413  0.000171  0.657242  1
