# generated using pymatgen
data_Ce7PuPa2O20
_symmetry_space_group_name_H-M   'P 1'
_cell_length_a   6.69955556
_cell_length_b   7.73223291
_cell_length_c   8.64757200
_cell_angle_alpha   102.70006794
_cell_angle_beta   97.26991514
_cell_angle_gamma   106.87995995
_symmetry_Int_Tables_number   1
_chemical_formula_structural   Ce7PuPa2O20
_chemical_formula_sum   'Ce7 Pu1 Pa2 O20'
_cell_volume   409.38908981
_cell_formula_units_Z   1
loop_
 _symmetry_equiv_pos_site_id
 _symmetry_equiv_pos_as_xyz
  1  'x, y, z'
loop_
 _atom_site_type_symbol
 _atom_site_label
 _atom_site_symmetry_multiplicity
 _atom_site_fract_x
 _atom_site_fract_y
 _atom_site_fract_z
 _atom_site_occupancy
  Ce  Ce0  1  0.002987  0.501498  0.001085  1
  Ce  Ce1  1  0.800752  0.099513  0.603058  1
  Ce  Ce2  1  0.600317  0.700844  0.197587  1
  Ce  Ce3  1  0.199396  0.399311  0.398965  1
  Ce  Ce4  1  0.396817  0.297665  0.799562  1
  Ce  Ce5  1  0.198986  0.900375  0.398571  1
  Ce  Ce6  1  0.400058  0.800743  0.800571  1
  Pu  Pu7  1  0.000259  0.000151  0.000485  1
  Pa  Pa8  1  0.800595  0.601046  0.601734  1
  Pa  Pa9  1  0.599853  0.199120  0.198738  1
  O  O10  1  0.841203  0.329309  0.448221  1
  O  O11  1  0.649104  0.933226  0.051139  1
  O  O12  1  0.949106  0.779186  0.149279  1
  O  O13  1  0.844175  0.816592  0.454277  1
  O  O14  1  0.460267  0.527210  0.644719  1
  O  O15  1  0.649157  0.417049  0.053888  1
  O  O16  1  0.754334  0.383311  0.746455  1
  O  O17  1  0.260190  0.129496  0.247551  1
  O  O18  1  0.451163  0.024033  0.649611  1
  O  O19  1  0.941432  0.270607  0.155126  1
  O  O20  1  0.554477  0.982851  0.344257  1
  O  O21  1  0.045153  0.725268  0.845185  1
  O  O22  1  0.251962  0.625616  0.252442  1
  O  O23  1  0.752801  0.867176  0.748620  1
  O  O24  1  0.352185  0.574723  0.947794  1
  O  O25  1  0.047531  0.221403  0.853209  1
  O  O26  1  0.557143  0.470373  0.350465  1
  O  O27  1  0.146202  0.175441  0.548568  1
  O  O28  1  0.354777  0.076912  0.956618  1
  O  O29  1  0.137617  0.669950  0.552216  1
