# generated using pymatgen
data_TbEr6Sn23Os6
_symmetry_space_group_name_H-M   'P 1'
_cell_length_a   9.84072300
_cell_length_b   9.84072316
_cell_length_c   10.09557300
_cell_angle_alpha   90.00000000
_cell_angle_beta   90.00000000
_cell_angle_gamma   120.00000284
_symmetry_Int_Tables_number   1
_chemical_formula_structural   TbEr6Sn23Os6
_chemical_formula_sum   'Tb1 Er6 Sn23 Os6'
_cell_volume   846.67281217
_cell_formula_units_Z   1
loop_
 _symmetry_equiv_pos_site_id
 _symmetry_equiv_pos_as_xyz
  1  'x, y, z'
loop_
 _atom_site_type_symbol
 _atom_site_label
 _atom_site_symmetry_multiplicity
 _atom_site_fract_x
 _atom_site_fract_y
 _atom_site_fract_z
 _atom_site_occupancy
  Tb  Tb0  1  0.000000  0.000000  0.000000  1
  Er  Er1  1  0.486891  0.513109  0.300998  1
  Er  Er2  1  0.513109  0.486891  0.699002  1
  Er  Er3  1  0.486891  0.973784  0.300998  1
  Er  Er4  1  0.513109  0.026216  0.699002  1
  Er  Er5  1  0.026216  0.513109  0.300998  1
  Er  Er6  1  0.973784  0.486891  0.699002  1
  Sn  Sn7  1  0.118038  0.881962  0.277394  1
  Sn  Sn8  1  0.881962  0.118038  0.722606  1
  Sn  Sn9  1  0.118038  0.236074  0.277394  1
  Sn  Sn10  1  0.881962  0.763926  0.722606  1
  Sn  Sn11  1  0.763926  0.881962  0.277394  1
  Sn  Sn12  1  0.236074  0.118038  0.722606  1
  Sn  Sn13  1  0.779117  0.220883  0.464406  1
  Sn  Sn14  1  0.220883  0.779117  0.535594  1
  Sn  Sn15  1  0.779117  0.558234  0.464406  1
  Sn  Sn16  1  0.220883  0.441766  0.535594  1
  Sn  Sn17  1  0.441766  0.220883  0.464406  1
  Sn  Sn18  1  0.558234  0.779117  0.535594  1
  Sn  Sn19  1  0.349961  0.000000  0.000000  1
  Sn  Sn20  1  0.650039  0.000000  0.000000  1
  Sn  Sn21  1  0.000000  0.349961  0.000000  1
  Sn  Sn22  1  0.000000  0.650039  0.000000  1
  Sn  Sn23  1  0.650039  0.650039  0.000000  1
  Sn  Sn24  1  0.349961  0.349961  0.000000  1
  Sn  Sn25  1  0.333333  0.666667  0.133998  1
  Sn  Sn26  1  0.666667  0.333333  0.866002  1
  Sn  Sn27  1  0.333333  0.666667  0.828226  1
  Sn  Sn28  1  0.666667  0.333333  0.171774  1
  Sn  Sn29  1  0.000000  0.000000  0.500000  1
  Os  Os30  1  0.829160  0.170840  0.202782  1
  Os  Os31  1  0.170840  0.829160  0.797218  1
  Os  Os32  1  0.829160  0.658323  0.202782  1
  Os  Os33  1  0.170840  0.341677  0.797218  1
  Os  Os34  1  0.341677  0.170840  0.202782  1
  Os  Os35  1  0.658323  0.829160  0.797218  1
