# generated using pymatgen
data_Dy6Al24Os5Pt2Rh
_symmetry_space_group_name_H-M   'P 1'
_cell_length_a   8.83764458
_cell_length_b   8.82556170
_cell_length_c   9.54472477
_cell_angle_alpha   90.34748975
_cell_angle_beta   89.92284289
_cell_angle_gamma   119.62736391
_symmetry_Int_Tables_number   1
_chemical_formula_structural   Dy6Al24Os5Pt2Rh
_chemical_formula_sum   'Dy6 Al24 Os5 Pt2 Rh1'
_cell_volume   647.11681657
_cell_formula_units_Z   1
loop_
 _symmetry_equiv_pos_site_id
 _symmetry_equiv_pos_as_xyz
  1  'x, y, z'
loop_
 _atom_site_type_symbol
 _atom_site_label
 _atom_site_symmetry_multiplicity
 _atom_site_fract_x
 _atom_site_fract_y
 _atom_site_fract_z
 _atom_site_occupancy
  Dy  Dy0  1  0.186578  0.387042  0.252066  1
  Dy  Dy1  1  0.813422  0.612958  0.747934  1
  Dy  Dy2  1  0.614969  0.811046  0.251953  1
  Dy  Dy3  1  0.385031  0.188954  0.748047  1
  Dy  Dy4  1  0.190596  0.803991  0.250741  1
  Dy  Dy5  1  0.809404  0.196009  0.749259  1
  Al  Al6  1  0.330879  0.662598  0.025483  1
  Al  Al7  1  0.669121  0.337402  0.974517  1
  Al  Al8  1  0.668555  0.330917  0.523445  1
  Al  Al9  1  0.331445  0.669083  0.476555  1
  Al  Al10  1  0.159365  0.325622  0.576393  1
  Al  Al11  1  0.840635  0.674378  0.423607  1
  Al  Al12  1  0.675310  0.841689  0.577192  1
  Al  Al13  1  0.838202  0.674276  0.076354  1
  Al  Al14  1  0.324690  0.158311  0.422808  1
  Al  Al15  1  0.161798  0.325724  0.923646  1
  Al  Al16  1  0.164140  0.836086  0.575153  1
  Al  Al17  1  0.324080  0.165988  0.078010  1
  Al  Al18  1  0.835860  0.163914  0.424847  1
  Al  Al19  1  0.675920  0.834012  0.921990  1
  Al  Al20  1  0.840469  0.167630  0.075675  1
  Al  Al21  1  0.159531  0.832370  0.924325  1
  Al  Al22  1  0.561473  0.125972  0.252957  1
  Al  Al23  1  0.438527  0.874028  0.747043  1
  Al  Al24  1  0.874177  0.438296  0.249713  1
  Al  Al25  1  0.125823  0.561704  0.750287  1
  Al  Al26  1  0.560726  0.438503  0.246623  1
  Al  Al27  1  0.439274  0.561497  0.753377  1
  Al  Al28  1  0.998230  0.000472  0.250127  1
  Al  Al29  1  0.001770  0.999528  0.749873  1
  Os  Os30  1  0.000000  0.500000  0.000000  1
  Os  Os31  1  0.500000  0.000000  0.500000  1
  Os  Os32  1  0.000000  0.500000  0.500000  1
  Os  Os33  1  0.000000  0.000000  0.000000  1
  Os  Os34  1  0.000000  0.000000  0.500000  1
  Pt  Pt35  1  0.500000  0.000000  0.000000  1
  Pt  Pt36  1  0.500000  0.500000  0.500000  1
  Rh  Rh37  1  0.500000  0.500000  0.000000  1
