# generated using pymatgen
data_LuVAg(P2O7)2
_symmetry_space_group_name_H-M   'P 1'
_cell_length_a   4.97227696
_cell_length_b   7.30462588
_cell_length_c   8.26115929
_cell_angle_alpha   90.94611655
_cell_angle_beta   93.36514440
_cell_angle_gamma   104.75307509
_symmetry_Int_Tables_number   1
_chemical_formula_structural   LuVAg(P2O7)2
_chemical_formula_sum   'Lu1 V1 Ag1 P4 O14'
_cell_volume   289.50430339
_cell_formula_units_Z   1
loop_
 _symmetry_equiv_pos_site_id
 _symmetry_equiv_pos_as_xyz
  1  'x, y, z'
loop_
 _atom_site_type_symbol
 _atom_site_label
 _atom_site_symmetry_multiplicity
 _atom_site_fract_x
 _atom_site_fract_y
 _atom_site_fract_z
 _atom_site_occupancy
  Lu  Lu0  1  0.000000  0.000000  0.000000  1
  V  V1  1  0.500000  0.500000  0.500000  1
  Ag  Ag2  1  0.000000  0.000000  0.500000  1
  P  P3  1  0.011956  0.620017  0.264796  1
  P  P4  1  0.988044  0.379983  0.735204  1
  P  P5  1  0.632106  0.242118  0.210779  1
  P  P6  1  0.367894  0.757882  0.789221  1
  O  O7  1  0.815145  0.449128  0.157553  1
  O  O8  1  0.184855  0.550872  0.842447  1
  O  O9  1  0.538342  0.272892  0.383154  1
  O  O10  1  0.461658  0.727108  0.616846  1
  O  O11  1  0.270907  0.554378  0.325456  1
  O  O12  1  0.729093  0.445622  0.674544  1
  O  O13  1  0.844353  0.660818  0.408771  1
  O  O14  1  0.176391  0.891560  0.784072  1
  O  O15  1  0.823609  0.108440  0.215928  1
  O  O16  1  0.908338  0.212023  0.840522  1
  O  O17  1  0.091662  0.787977  0.159478  1
  O  O18  1  0.605775  0.810779  0.916678  1
  O  O19  1  0.394225  0.189221  0.083322  1
  O  O20  1  0.155647  0.339182  0.591229  1
