# generated using pymatgen
data_Ce8MnSi3N16
_symmetry_space_group_name_H-M   'P 1'
_cell_length_a   5.63468759
_cell_length_b   6.92229685
_cell_length_c   11.47029671
_cell_angle_alpha   90.04470270
_cell_angle_beta   123.53047853
_cell_angle_gamma   89.95400312
_symmetry_Int_Tables_number   1
_chemical_formula_structural   Ce8MnSi3N16
_chemical_formula_sum   'Ce8 Mn1 Si3 N16'
_cell_volume   372.94786770
_cell_formula_units_Z   1
loop_
 _symmetry_equiv_pos_site_id
 _symmetry_equiv_pos_as_xyz
  1  'x, y, z'
loop_
 _atom_site_type_symbol
 _atom_site_label
 _atom_site_symmetry_multiplicity
 _atom_site_fract_x
 _atom_site_fract_y
 _atom_site_fract_z
 _atom_site_occupancy
  Ce  Ce0  1  0.328550  0.849932  0.067076  1
  Ce  Ce1  1  0.921614  0.510600  0.199943  1
  Ce  Ce2  1  0.079985  0.003020  0.306042  1
  Ce  Ce3  1  0.672362  0.344760  0.432657  1
  Ce  Ce4  1  0.335990  0.654330  0.573229  1
  Ce  Ce5  1  0.923943  0.989420  0.695139  1
  Ce  Ce6  1  0.075300  0.492139  0.800415  1
  Ce  Ce7  1  0.664578  0.160241  0.926315  1
  Mn  Mn8  1  0.320777  0.286769  0.085006  1
  Si  Si9  1  0.676746  0.783487  0.415500  1
  Si  Si10  1  0.319172  0.214374  0.582619  1
  Si  Si11  1  0.682522  0.717809  0.917932  1
  N  N12  1  0.353979  0.527608  0.062451  1
  N  N13  1  0.924912  0.831384  0.079335  1
  N  N14  1  0.642132  0.167476  0.140705  1
  N  N15  1  0.196933  0.245679  0.191146  1
  N  N16  1  0.789065  0.749437  0.303355  1
  N  N17  1  0.357739  0.665165  0.363327  1
  N  N18  1  0.082494  0.329255  0.421160  1
  N  N19  1  0.649759  0.029352  0.437009  1
  N  N20  1  0.341225  0.967819  0.560478  1
  N  N21  1  0.917342  0.668734  0.577409  1
  N  N22  1  0.642090  0.330548  0.640799  1
  N  N23  1  0.199989  0.250718  0.691889  1
  N  N24  1  0.799473  0.750696  0.807175  1
  N  N25  1  0.360906  0.835557  0.862230  1
  N  N26  1  0.085209  0.171538  0.920011  1
  N  N27  1  0.655206  0.472155  0.939647  1
