# generated using pymatgen
data_Nd2Si4Ni16IrRh
_symmetry_space_group_name_H-M   'P 1'
_cell_length_a   7.67680363
_cell_length_b   7.67531025
_cell_length_c   7.67680602
_cell_angle_alpha   99.51656197
_cell_angle_beta   99.53889781
_cell_angle_gamma   131.99862014
_symmetry_Int_Tables_number   1
_chemical_formula_structural   Nd2Si4Ni16IrRh
_chemical_formula_sum   'Nd2 Si4 Ni16 Ir1 Rh1'
_cell_volume   307.06147047
_cell_formula_units_Z   1
loop_
 _symmetry_equiv_pos_site_id
 _symmetry_equiv_pos_as_xyz
  1  'x, y, z'
loop_
 _atom_site_type_symbol
 _atom_site_label
 _atom_site_symmetry_multiplicity
 _atom_site_fract_x
 _atom_site_fract_y
 _atom_site_fract_z
 _atom_site_occupancy
  Nd  Nd0  1  0.499844  0.499829  0.999984  1
  Nd  Nd1  1  0.749812  0.249782  0.499970  1
  Si  Si2  1  0.625548  0.875734  0.749857  1
  Si  Si3  1  0.124350  0.374509  0.250159  1
  Si  Si4  1  0.124413  0.874269  0.749856  1
  Si  Si5  1  0.125878  0.875734  0.250186  1
  Ni  Ni6  1  0.687083  0.018977  0.081434  1
  Ni  Ni7  1  0.686991  0.605587  0.668052  1
  Ni  Ni8  1  0.268710  0.437064  0.581781  1
  Ni  Ni9  1  0.268753  0.686976  0.831671  1
  Ni  Ni10  1  0.937542  0.018977  0.331895  1
  Ni  Ni11  1  0.937535  0.605587  0.918597  1
  Ni  Ni12  1  0.855282  0.437064  0.168354  1
  Ni  Ni13  1  0.855305  0.686976  0.418224  1
  Ni  Ni14  1  0.562995  0.731309  0.418208  1
  Ni  Ni15  1  0.562952  0.144727  0.831714  1
  Ni  Ni16  1  0.981048  0.312953  0.918567  1
  Ni  Ni17  1  0.981110  0.062525  0.668073  1
  Ni  Ni18  1  0.313102  0.731309  0.168314  1
  Ni  Ni19  1  0.313013  0.144727  0.581775  1
  Ni  Ni20  1  0.394386  0.312953  0.331905  1
  Ni  Ni21  1  0.394451  0.062525  0.081414  1
  Ir  Ir22  1  0.249950  0.749936  0.499986  1
  Rh  Rh23  1  0.999949  0.999972  0.000023  1
