# generated using pymatgen
data_Hf4Cu4Si4W
_symmetry_space_group_name_H-M   'P 1'
_cell_length_a   7.54813630
_cell_length_b   7.54813543
_cell_length_c   7.54814212
_cell_angle_alpha   93.47998190
_cell_angle_beta   93.48152867
_cell_angle_gamma   151.47105423
_symmetry_Int_Tables_number   1
_chemical_formula_structural   Hf4Cu4Si4W
_chemical_formula_sum   'Hf4 Cu4 Si4 W1'
_cell_volume   199.06047736
_cell_formula_units_Z   1
loop_
 _symmetry_equiv_pos_site_id
 _symmetry_equiv_pos_as_xyz
  1  'x, y, z'
loop_
 _atom_site_type_symbol
 _atom_site_label
 _atom_site_symmetry_multiplicity
 _atom_site_fract_x
 _atom_site_fract_y
 _atom_site_fract_z
 _atom_site_occupancy
  Hf  Hf0  1  0.126657  0.805024  0.931682  1
  Hf  Hf1  1  0.194975  0.126658  0.321632  1
  Hf  Hf2  1  0.805025  0.873342  0.678368  1
  Hf  Hf3  1  0.873343  0.194976  0.068318  1
  Cu  Cu4  1  0.395698  0.918201  0.313897  1
  Cu  Cu5  1  0.604302  0.081799  0.686103  1
  Cu  Cu6  1  0.918196  0.604307  0.522503  1
  Cu  Cu7  1  0.081804  0.395693  0.477497  1
  Si  Si8  1  0.246478  0.558641  0.805120  1
  Si  Si9  1  0.441357  0.246477  0.687834  1
  Si  Si10  1  0.558643  0.753523  0.312166  1
  Si  Si11  1  0.753522  0.441359  0.194880  1
  W  W12  1  0.500000  0.500000  0.000000  1
