# generated using pymatgen
data_Ca8Mn2CuN8
_symmetry_space_group_name_H-M   'P 1'
_cell_length_a   9.27739812
_cell_length_b   9.27739818
_cell_length_c   7.13959287
_cell_angle_alpha   74.78180092
_cell_angle_beta   74.78180335
_cell_angle_gamma   31.10524866
_symmetry_Int_Tables_number   1
_chemical_formula_structural   Ca8Mn2CuN8
_chemical_formula_sum   'Ca8 Mn2 Cu1 N8'
_cell_volume   305.44924745
_cell_formula_units_Z   1
loop_
 _symmetry_equiv_pos_site_id
 _symmetry_equiv_pos_as_xyz
  1  'x, y, z'
loop_
 _atom_site_type_symbol
 _atom_site_label
 _atom_site_symmetry_multiplicity
 _atom_site_fract_x
 _atom_site_fract_y
 _atom_site_fract_z
 _atom_site_occupancy
  Ca  Ca0  1  0.407852  0.407852  0.971837  1
  Ca  Ca1  1  0.335506  0.335506  0.464617  1
  Ca  Ca2  1  0.970959  0.970959  0.251926  1
  Ca  Ca3  1  0.201070  0.201070  0.191172  1
  Ca  Ca4  1  0.798930  0.798930  0.808828  1
  Ca  Ca5  1  0.029041  0.029041  0.748074  1
  Ca  Ca6  1  0.664494  0.664494  0.535383  1
  Ca  Ca7  1  0.592148  0.592148  0.028163  1
  Mn  Mn8  1  0.811475  0.811475  0.208739  1
  Mn  Mn9  1  0.188525  0.188525  0.791261  1
  Cu  Cu10  1  0.500000  0.500000  0.500000  1
  N  N11  1  0.282251  0.282251  0.821884  1
  N  N12  1  0.824923  0.824923  0.439952  1
  N  N13  1  0.106368  0.106368  0.996484  1
  N  N14  1  0.893632  0.893632  0.003516  1
  N  N15  1  0.175077  0.175077  0.560048  1
  N  N16  1  0.471215  0.471215  0.266949  1
  N  N17  1  0.717749  0.717749  0.178116  1
  N  N18  1  0.528785  0.528785  0.733051  1
