# generated using pymatgen
data_SrSmTe2(RhO6)2
_symmetry_space_group_name_H-M   'P 1'
_cell_length_a   5.28367501
_cell_length_b   5.28360602
_cell_length_c   10.44337602
_cell_angle_alpha   90.00492361
_cell_angle_beta   90.00109479
_cell_angle_gamma   119.99502323
_symmetry_Int_Tables_number   1
_chemical_formula_structural   SrSmTe2(RhO6)2
_chemical_formula_sum   'Sr1 Sm1 Te2 Rh2 O12'
_cell_volume   252.49910599
_cell_formula_units_Z   1
loop_
 _symmetry_equiv_pos_site_id
 _symmetry_equiv_pos_as_xyz
  1  'x, y, z'
loop_
 _atom_site_type_symbol
 _atom_site_label
 _atom_site_symmetry_multiplicity
 _atom_site_fract_x
 _atom_site_fract_y
 _atom_site_fract_z
 _atom_site_occupancy
  Sr  Sr0  1  0.000001  0.000008  0.999995  1
  Sm  Sm1  1  0.000005  0.000010  0.500106  1
  Te  Te2  1  0.666660  0.333306  0.257189  1
  Te  Te3  1  0.333331  0.666681  0.742808  1
  Rh  Rh4  1  0.333317  0.666657  0.259917  1
  Rh  Rh5  1  0.666671  0.333327  0.740044  1
  O  O6  1  0.629640  0.623633  0.154674  1
  O  O7  1  0.994002  0.370313  0.154671  1
  O  O8  1  0.376352  0.005977  0.154653  1
  O  O9  1  0.988550  0.636122  0.363958  1
  O  O10  1  0.363888  0.352443  0.363942  1
  O  O11  1  0.647593  0.011508  0.363947  1
  O  O12  1  0.352398  0.988318  0.635995  1
  O  O13  1  0.011631  0.364065  0.635982  1
  O  O14  1  0.635983  0.647588  0.636018  1
  O  O15  1  0.623486  0.994155  0.845377  1
  O  O16  1  0.005832  0.629375  0.845363  1
  O  O17  1  0.370667  0.376521  0.845364  1
