# generated using pymatgen
data_YbSbRhF12
_symmetry_space_group_name_H-M   'P 1'
_cell_length_a   5.43072131
_cell_length_b   5.78818496
_cell_length_c   9.44195899
_cell_angle_alpha   72.83344148
_cell_angle_beta   87.88423772
_cell_angle_gamma   62.27335507
_symmetry_Int_Tables_number   1
_chemical_formula_structural   YbSbRhF12
_chemical_formula_sum   'Yb1 Sb1 Rh1 F12'
_cell_volume   249.24051743
_cell_formula_units_Z   1
loop_
 _symmetry_equiv_pos_site_id
 _symmetry_equiv_pos_as_xyz
  1  'x, y, z'
loop_
 _atom_site_type_symbol
 _atom_site_label
 _atom_site_symmetry_multiplicity
 _atom_site_fract_x
 _atom_site_fract_y
 _atom_site_fract_z
 _atom_site_occupancy
  Yb  Yb0  1  0.501502  0.501795  0.498872  1
  Sb  Sb1  1  0.229441  0.991486  0.761649  1
  Rh  Rh2  1  0.770260  0.004458  0.244326  1
  F  F3  1  0.947034  0.223235  0.197819  1
  F  F4  1  0.057695  0.764083  0.798314  1
  F  F5  1  0.003972  0.772498  0.139158  1
  F  F6  1  0.460624  0.780161  0.633662  1
  F  F7  1  0.536411  0.232282  0.364000  1
  F  F8  1  0.960392  0.228751  0.579389  1
  F  F9  1  0.044485  0.769502  0.421391  1
  F  F10  1  0.401884  0.228502  0.686240  1
  F  F11  1  0.594369  0.770549  0.310903  1
  F  F12  1  0.511705  0.775259  0.924822  1
  F  F13  1  0.498330  0.221163  0.080386  1
  F  F14  1  0.981895  0.236278  0.859069  1
