# generated using pymatgen
data_TmCoP3IrRh3
_symmetry_space_group_name_H-M   'P 1'
_cell_length_a   3.84797900
_cell_length_b   10.74753500
_cell_length_c   12.41072600
_cell_angle_alpha   90.00000000
_cell_angle_beta   90.00000000
_cell_angle_gamma   90.00000000
_symmetry_Int_Tables_number   1
_chemical_formula_structural   TmCoP3IrRh3
_chemical_formula_sum   'Tm4 Co4 P12 Ir4 Rh12'
_cell_volume   513.26157093
_cell_formula_units_Z   4
loop_
 _symmetry_equiv_pos_site_id
 _symmetry_equiv_pos_as_xyz
  1  'x, y, z'
loop_
 _atom_site_type_symbol
 _atom_site_label
 _atom_site_symmetry_multiplicity
 _atom_site_fract_x
 _atom_site_fract_y
 _atom_site_fract_z
 _atom_site_occupancy
  Tm  Tm0  1  0.250000  0.583858  0.708475  1
  Tm  Tm1  1  0.250000  0.916142  0.208475  1
  Tm  Tm2  1  0.750000  0.416142  0.291525  1
  Tm  Tm3  1  0.750000  0.083858  0.791525  1
  Co  Co4  1  0.250000  0.461337  0.933880  1
  Co  Co5  1  0.250000  0.038663  0.433880  1
  Co  Co6  1  0.750000  0.538663  0.066120  1
  Co  Co7  1  0.750000  0.961337  0.566120  1
  P  P8  1  0.250000  0.424678  0.106278  1
  P  P9  1  0.250000  0.075322  0.606278  1
  P  P10  1  0.750000  0.575322  0.893722  1
  P  P11  1  0.750000  0.924678  0.393722  1
  P  P12  1  0.250000  0.269516  0.871457  1
  P  P13  1  0.250000  0.230484  0.371457  1
  P  P14  1  0.750000  0.730484  0.128543  1
  P  P15  1  0.750000  0.769516  0.628543  1
  P  P16  1  0.250000  0.598175  0.387602  1
  P  P17  1  0.250000  0.901825  0.887602  1
  P  P18  1  0.750000  0.401825  0.612398  1
  P  P19  1  0.750000  0.098175  0.112398  1
  Ir  Ir20  1  0.250000  0.886571  0.698960  1
  Ir  Ir21  1  0.250000  0.613429  0.198960  1
  Ir  Ir22  1  0.750000  0.113429  0.301040  1
  Ir  Ir23  1  0.750000  0.386571  0.801040  1
  Rh  Rh24  1  0.250000  0.714627  0.984218  1
  Rh  Rh25  1  0.250000  0.785373  0.484218  1
  Rh  Rh26  1  0.750000  0.285373  0.015782  1
  Rh  Rh27  1  0.750000  0.214627  0.515782  1
  Rh  Rh28  1  0.250000  0.407771  0.478565  1
  Rh  Rh29  1  0.250000  0.092229  0.978565  1
  Rh  Rh30  1  0.750000  0.592229  0.521435  1
  Rh  Rh31  1  0.750000  0.907771  0.021435  1
  Rh  Rh32  1  0.250000  0.229915  0.179050  1
  Rh  Rh33  1  0.250000  0.270085  0.679050  1
  Rh  Rh34  1  0.750000  0.770085  0.820950  1
  Rh  Rh35  1  0.750000  0.729915  0.320950  1
