# generated using pymatgen
data_Hf5Co16Si7Ru
_symmetry_space_group_name_H-M   'P 1'
_cell_length_a   7.96425310
_cell_length_b   7.98504687
_cell_length_c   7.98504864
_cell_angle_alpha   59.82777252
_cell_angle_beta   60.08612467
_cell_angle_gamma   60.08611946
_symmetry_Int_Tables_number   1
_chemical_formula_structural   Hf5Co16Si7Ru
_chemical_formula_sum   'Hf5 Co16 Si7 Ru1'
_cell_volume   359.07012168
_cell_formula_units_Z   1
loop_
 _symmetry_equiv_pos_site_id
 _symmetry_equiv_pos_as_xyz
  1  'x, y, z'
loop_
 _atom_site_type_symbol
 _atom_site_label
 _atom_site_symmetry_multiplicity
 _atom_site_fract_x
 _atom_site_fract_y
 _atom_site_fract_z
 _atom_site_occupancy
  Hf  Hf0  1  0.799479  0.792287  0.200521  1
  Hf  Hf1  1  0.788057  0.211943  0.211943  1
  Hf  Hf2  1  0.207713  0.200521  0.792287  1
  Hf  Hf3  1  0.799479  0.200521  0.792287  1
  Hf  Hf4  1  0.207713  0.792287  0.200521  1
  Co  Co5  1  0.620727  0.618229  0.140318  1
  Co  Co6  1  0.169367  0.483725  0.177544  1
  Co  Co7  1  0.859682  0.379273  0.379273  1
  Co  Co8  1  0.516275  0.830633  0.830633  1
  Co  Co9  1  0.497505  0.168578  0.168578  1
  Co  Co10  1  0.831422  0.834660  0.502495  1
  Co  Co11  1  0.169367  0.177544  0.483725  1
  Co  Co12  1  0.145633  0.620186  0.620186  1
  Co  Co13  1  0.165340  0.168578  0.168578  1
  Co  Co14  1  0.379814  0.386004  0.854367  1
  Co  Co15  1  0.613996  0.620186  0.620186  1
  Co  Co16  1  0.379814  0.854367  0.386004  1
  Co  Co17  1  0.381771  0.379273  0.379273  1
  Co  Co18  1  0.822456  0.830633  0.830633  1
  Co  Co19  1  0.620727  0.140318  0.618229  1
  Co  Co20  1  0.831422  0.502495  0.834660  1
  Si  Si21  1  0.491414  0.989504  0.508586  1
  Si  Si22  1  0.491414  0.508586  0.989504  1
  Si  Si23  1  0.504057  0.495943  0.495943  1
  Si  Si24  1  0.010496  0.989504  0.508586  1
  Si  Si25  1  0.010496  0.508586  0.989504  1
  Si  Si26  1  0.996601  0.503399  0.503399  1
  Si  Si27  1  0.496601  0.003399  0.003399  1
  Ru  Ru28  1  0.191161  0.808839  0.808839  1
