# generated using pymatgen
data_DyNp7VS17
_symmetry_space_group_name_H-M   'P 1'
_cell_length_a   7.80359207
_cell_length_b   7.81171671
_cell_length_c   10.35055700
_cell_angle_alpha   80.76970250
_cell_angle_beta   80.64638527
_cell_angle_gamma   64.72050775
_symmetry_Int_Tables_number   1
_chemical_formula_structural   DyNp7VS17
_chemical_formula_sum   'Dy1 Np7 V1 S17'
_cell_volume   560.01871652
_cell_formula_units_Z   1
loop_
 _symmetry_equiv_pos_site_id
 _symmetry_equiv_pos_as_xyz
  1  'x, y, z'
loop_
 _atom_site_type_symbol
 _atom_site_label
 _atom_site_symmetry_multiplicity
 _atom_site_fract_x
 _atom_site_fract_y
 _atom_site_fract_z
 _atom_site_occupancy
  Dy  Dy0  1  0.811918  0.306172  0.298552  1
  Np  Np1  1  0.297994  0.819661  0.296900  1
  Np  Np2  1  0.183513  0.699519  0.701175  1
  Np  Np3  1  0.700547  0.182141  0.703740  1
  Np  Np4  1  0.206186  0.206199  0.543167  1
  Np  Np5  1  0.793361  0.794994  0.454910  1
  Np  Np6  1  0.682381  0.678586  0.980003  1
  Np  Np7  1  0.316085  0.318722  0.021130  1
  V  V8  1  0.002072  0.997094  0.998137  1
  S  S9  1  0.824066  0.430667  0.537665  1
  S  S10  1  0.431644  0.821718  0.534361  1
  S  S11  1  0.177085  0.567959  0.465520  1
  S  S12  1  0.571293  0.173450  0.470390  1
  S  S13  1  0.941490  0.321496  0.025695  1
  S  S14  1  0.322266  0.945059  0.028705  1
  S  S15  1  0.057334  0.677848  0.971679  1
  S  S16  1  0.678029  0.057280  0.970754  1
  S  S17  1  0.213385  0.208030  0.279500  1
  S  S18  1  0.791999  0.788415  0.721067  1
  S  S19  1  0.062655  0.057679  0.772418  1
  S  S20  1  0.941333  0.939513  0.226739  1
  S  S21  1  0.303789  0.303893  0.755696  1
  S  S22  1  0.691242  0.705017  0.242913  1
  S  S23  1  0.519865  0.522500  0.829528  1
  S  S24  1  0.473022  0.484741  0.165680  1
  S  S25  1  0.005445  0.991651  0.503975  1
