# generated using pymatgen
data_SrAsPtO6
_symmetry_space_group_name_H-M   'P 1'
_cell_length_a   5.14313700
_cell_length_b   5.14313786
_cell_length_c   5.43809300
_cell_angle_alpha   90.00000000
_cell_angle_beta   90.00000000
_cell_angle_gamma   120.00000091
_symmetry_Int_Tables_number   1
_chemical_formula_structural   SrAsPtO6
_chemical_formula_sum   'Sr1 As1 Pt1 O6'
_cell_volume   124.57575175
_cell_formula_units_Z   1
loop_
 _symmetry_equiv_pos_site_id
 _symmetry_equiv_pos_as_xyz
  1  'x, y, z'
loop_
 _atom_site_type_symbol
 _atom_site_label
 _atom_site_symmetry_multiplicity
 _atom_site_fract_x
 _atom_site_fract_y
 _atom_site_fract_z
 _atom_site_occupancy
  Sr  Sr0  1  0.333333  0.666667  0.000000  1
  As  As1  1  0.666667  0.333333  0.500000  1
  Pt  Pt2  1  0.000000  0.000000  0.500000  1
  O  O3  1  0.698384  0.050814  0.696337  1
  O  O4  1  0.949186  0.647571  0.696337  1
  O  O5  1  0.352429  0.301616  0.696337  1
  O  O6  1  0.698384  0.647571  0.303663  1
  O  O7  1  0.352429  0.050814  0.303663  1
  O  O8  1  0.949186  0.301616  0.303663  1
