# generated using pymatgen
data_Tb12Ga2Co3Tc
_symmetry_space_group_name_H-M   'P 1'
_cell_length_a   8.35195607
_cell_length_b   8.35195741
_cell_length_c   8.35195629
_cell_angle_alpha   112.43984711
_cell_angle_beta   109.91568438
_cell_angle_gamma   106.11998830
_symmetry_Int_Tables_number   1
_chemical_formula_structural   Tb12Ga2Co3Tc
_chemical_formula_sum   'Tb12 Ga2 Co3 Tc1'
_cell_volume   447.10635914
_cell_formula_units_Z   1
loop_
 _symmetry_equiv_pos_site_id
 _symmetry_equiv_pos_as_xyz
  1  'x, y, z'
loop_
 _atom_site_type_symbol
 _atom_site_label
 _atom_site_symmetry_multiplicity
 _atom_site_fract_x
 _atom_site_fract_y
 _atom_site_fract_z
 _atom_site_occupancy
  Tb  Tb0  1  0.056645  0.749643  0.307003  1
  Tb  Tb1  1  0.961803  0.266872  0.694931  1
  Tb  Tb2  1  0.557359  0.250357  0.307003  1
  Tb  Tb3  1  0.428060  0.733128  0.694931  1
  Tb  Tb4  1  0.675181  0.858678  0.186636  1
  Tb  Tb5  1  0.327959  0.511456  0.186636  1
  Tb  Tb6  1  0.327959  0.141322  0.816503  1
  Tb  Tb7  1  0.675181  0.488544  0.816503  1
  Tb  Tb8  1  0.175113  0.221915  0.397028  1
  Tb  Tb9  1  0.814628  0.217227  0.031855  1
  Tb  Tb10  1  0.175113  0.778085  0.953198  1
  Tb  Tb11  1  0.814628  0.782773  0.597401  1
  Ga  Ga12  1  0.984156  0.500000  0.484156  1
  Ga  Ga13  1  0.508542  0.000000  0.508542  1
  Co  Co14  1  0.335876  0.500000  0.835876  1
  Co  Co15  1  0.887999  0.887613  0.000386  1
  Co  Co16  1  0.112773  0.112387  0.000386  1
  Tc  Tc17  1  0.681024  0.500000  0.181024  1
