# generated using pymatgen
data_Ho5Er3Sc11Si16Ru
_symmetry_space_group_name_H-M   'P 1'
_cell_length_a   6.98412703
_cell_length_b   7.34107029
_cell_length_c   13.86105604
_cell_angle_alpha   89.99564616
_cell_angle_beta   89.99255100
_cell_angle_gamma   90.09180335
_symmetry_Int_Tables_number   1
_chemical_formula_structural   Ho5Er3Sc11Si16Ru
_chemical_formula_sum   'Ho5 Er3 Sc11 Si16 Ru1'
_cell_volume   710.66883299
_cell_formula_units_Z   1
loop_
 _symmetry_equiv_pos_site_id
 _symmetry_equiv_pos_as_xyz
  1  'x, y, z'
loop_
 _atom_site_type_symbol
 _atom_site_label
 _atom_site_symmetry_multiplicity
 _atom_site_fract_x
 _atom_site_fract_y
 _atom_site_fract_z
 _atom_site_occupancy
  Ho  Ho0  1  0.992570  0.817974  0.598906  1
  Ho  Ho1  1  0.511187  0.323340  0.094830  1
  Ho  Ho2  1  0.012012  0.178292  0.406566  1
  Ho  Ho3  1  0.511170  0.323355  0.405143  1
  Ho  Ho4  1  0.488635  0.673207  0.597625  1
  Er  Er5  1  0.012019  0.178318  0.093469  1
  Er  Er6  1  0.992579  0.817865  0.901042  1
  Er  Er7  1  0.488587  0.673232  0.902332  1
  Sc  Sc8  1  0.841165  0.495848  0.249980  1
  Sc  Sc9  1  0.341759  0.003575  0.249987  1
  Sc  Sc10  1  0.657518  0.995880  0.750029  1
  Sc  Sc11  1  0.325982  0.177026  0.627133  1
  Sc  Sc12  1  0.672072  0.824725  0.374381  1
  Sc  Sc13  1  0.172735  0.674014  0.376588  1
  Sc  Sc14  1  0.672078  0.824716  0.125588  1
  Sc  Sc15  1  0.826172  0.330914  0.628280  1
  Sc  Sc16  1  0.325984  0.177040  0.872898  1
  Sc  Sc17  1  0.826154  0.330915  0.871747  1
  Sc  Sc18  1  0.172724  0.674063  0.123379  1
  Si  Si19  1  0.028957  0.116409  0.750036  1
  Si  Si20  1  0.973145  0.885905  0.249976  1
  Si  Si21  1  0.469168  0.615291  0.249992  1
  Si  Si22  1  0.515795  0.395477  0.750046  1
  Si  Si23  1  0.284802  0.863156  0.750087  1
  Si  Si24  1  0.716575  0.129802  0.249959  1
  Si  Si25  1  0.214738  0.370616  0.249964  1
  Si  Si26  1  0.794590  0.629673  0.750082  1
  Si  Si27  1  0.157088  0.465445  0.546987  1
  Si  Si28  1  0.843077  0.535785  0.463321  1
  Si  Si29  1  0.344930  0.964806  0.463107  1
  Si  Si30  1  0.843097  0.535793  0.036662  1
  Si  Si31  1  0.658971  0.034457  0.539802  1
  Si  Si32  1  0.157163  0.465557  0.953001  1
  Si  Si33  1  0.659085  0.034341  0.960174  1
  Si  Si34  1  0.344799  0.964775  0.036873  1
  Ru  Ru35  1  0.150919  0.498416  0.750028  1
