# generated using pymatgen
data_La7HgAu2
_symmetry_space_group_name_H-M   'P 1'
_cell_length_a   3.97101100
_cell_length_b   12.89872100
_cell_length_c   12.89872100
_cell_angle_alpha   90.00000000
_cell_angle_beta   90.00000000
_cell_angle_gamma   90.00000000
_symmetry_Int_Tables_number   1
_chemical_formula_structural   La7HgAu2
_chemical_formula_sum   'La14 Hg2 Au4'
_cell_volume   660.68491079
_cell_formula_units_Z   2
loop_
 _symmetry_equiv_pos_site_id
 _symmetry_equiv_pos_as_xyz
  1  'x, y, z'
loop_
 _atom_site_type_symbol
 _atom_site_label
 _atom_site_symmetry_multiplicity
 _atom_site_fract_x
 _atom_site_fract_y
 _atom_site_fract_z
 _atom_site_occupancy
  La  La0  1  0.500000  0.000000  0.500000  1
  La  La1  1  0.500000  0.500000  0.000000  1
  La  La2  1  0.000000  0.320517  0.820517  1
  La  La3  1  0.000000  0.679483  0.179483  1
  La  La4  1  0.000000  0.179483  0.320517  1
  La  La5  1  0.000000  0.820517  0.679483  1
  La  La6  1  0.500000  0.553949  0.696385  1
  La  La7  1  0.500000  0.446051  0.303615  1
  La  La8  1  0.500000  0.946051  0.196385  1
  La  La9  1  0.500000  0.053949  0.803615  1
  La  La10  1  0.500000  0.696385  0.446051  1
  La  La11  1  0.500000  0.303615  0.553949  1
  La  La12  1  0.500000  0.196385  0.053949  1
  La  La13  1  0.500000  0.803615  0.946051  1
  Hg  Hg14  1  0.000000  0.500000  0.500000  1
  Hg  Hg15  1  0.000000  0.000000  0.000000  1
  Au  Au16  1  0.000000  0.133764  0.633764  1
  Au  Au17  1  0.000000  0.866236  0.366236  1
  Au  Au18  1  0.000000  0.366236  0.133764  1
  Au  Au19  1  0.000000  0.633764  0.866236  1
