# generated using pymatgen
data_Na3Al7S12
_symmetry_space_group_name_H-M   'P 1'
_cell_length_a   12.62746000
_cell_length_b   9.20508483
_cell_length_c   9.73425100
_cell_angle_alpha   83.89618646
_cell_angle_beta   90.00000000
_cell_angle_gamma   90.00000000
_symmetry_Int_Tables_number   1
_chemical_formula_structural   Na3Al7S12
_chemical_formula_sum   'Na6 Al14 S24'
_cell_volume   1125.06408067
_cell_formula_units_Z   2
loop_
 _symmetry_equiv_pos_site_id
 _symmetry_equiv_pos_as_xyz
  1  'x, y, z'
loop_
 _atom_site_type_symbol
 _atom_site_label
 _atom_site_symmetry_multiplicity
 _atom_site_fract_x
 _atom_site_fract_y
 _atom_site_fract_z
 _atom_site_occupancy
  Na  Na0  1  0.286820  0.013047  0.490414  1
  Na  Na1  1  0.786820  0.986953  0.509586  1
  Na  Na2  1  0.014340  0.140172  0.176492  1
  Na  Na3  1  0.514340  0.859828  0.823508  1
  Na  Na4  1  0.000664  0.628875  0.173619  1
  Na  Na5  1  0.500664  0.371125  0.826381  1
  Al  Al6  1  0.285223  0.034309  0.028418  1
  Al  Al7  1  0.785223  0.965691  0.971582  1
  Al  Al8  1  0.764777  0.291128  0.189052  1
  Al  Al9  1  0.264777  0.708872  0.810948  1
  Al  Al10  1  0.372912  0.696560  0.178910  1
  Al  Al11  1  0.872912  0.303440  0.821090  1
  Al  Al12  1  0.767726  0.473494  0.477743  1
  Al  Al13  1  0.267726  0.526506  0.522257  1
  Al  Al14  1  0.670865  0.668542  0.171604  1
  Al  Al15  1  0.170865  0.331458  0.828396  1
  Al  Al16  1  0.537337  0.024556  0.192783  1
  Al  Al17  1  0.037337  0.975444  0.807217  1
  Al  Al18  1  0.515726  0.369320  0.363123  1
  Al  Al19  1  0.015726  0.630680  0.636877  1
  S  S20  1  0.959841  0.916235  0.013791  1
  S  S21  1  0.199950  0.244026  0.049068  1
  S  S22  1  0.304825  0.329097  0.676717  1
  S  S23  1  0.804825  0.670903  0.323283  1
  S  S24  1  0.699950  0.755974  0.950932  1
  S  S25  1  0.611733  0.428663  0.158177  1
  S  S26  1  0.849727  0.522489  0.682794  1
  S  S27  1  0.349727  0.477511  0.317206  1
  S  S28  1  0.338063  0.728508  0.600728  1
  S  S29  1  0.838063  0.271492  0.399272  1
  S  S30  1  0.596376  0.452006  0.543413  1
  S  S31  1  0.096376  0.547994  0.456587  1
  S  S32  1  0.393202  0.634157  0.961101  1
  S  S33  1  0.893202  0.365843  0.038899  1
  S  S34  1  0.749587  0.133457  0.791016  1
  S  S35  1  0.249587  0.866543  0.208984  1
  S  S36  1  0.528349  0.778658  0.267488  1
  S  S37  1  0.028349  0.221342  0.732512  1
  S  S38  1  0.719981  0.050594  0.173877  1
  S  S39  1  0.219981  0.949406  0.826123  1
  S  S40  1  0.488934  0.125080  0.384263  1
  S  S41  1  0.988934  0.874920  0.615737  1
  S  S42  1  0.111733  0.571337  0.841823  1
  S  S43  1  0.459841  0.083765  0.986209  1
