# generated using pymatgen
data_TbY3Co20As11P
_symmetry_space_group_name_H-M   'P 1'
_cell_length_a   3.77389900
_cell_length_b   12.14766405
_cell_length_c   10.64660804
_cell_angle_alpha   89.99011517
_cell_angle_beta   90.00000000
_cell_angle_gamma   90.00000000
_symmetry_Int_Tables_number   1
_chemical_formula_structural   TbY3Co20As11P
_chemical_formula_sum   'Tb1 Y3 Co20 As11 P1'
_cell_volume   488.08370061
_cell_formula_units_Z   1
loop_
 _symmetry_equiv_pos_site_id
 _symmetry_equiv_pos_as_xyz
  1  'x, y, z'
loop_
 _atom_site_type_symbol
 _atom_site_label
 _atom_site_symmetry_multiplicity
 _atom_site_fract_x
 _atom_site_fract_y
 _atom_site_fract_z
 _atom_site_occupancy
  Tb  Tb0  1  0.750000  0.700324  0.082168  1
  Y  Y1  1  0.250000  0.298118  0.918117  1
  Y  Y2  1  0.250000  0.793180  0.583301  1
  Y  Y3  1  0.750000  0.203748  0.417692  1
  Co  Co4  1  0.750000  0.694979  0.390389  1
  Co  Co5  1  0.250000  0.305215  0.615766  1
  Co  Co6  1  0.250000  0.801606  0.882373  1
  Co  Co7  1  0.750000  0.196766  0.115931  1
  Co  Co8  1  0.750000  0.990092  0.212169  1
  Co  Co9  1  0.250000  0.008685  0.788458  1
  Co  Co10  1  0.250000  0.514649  0.706859  1
  Co  Co11  1  0.750000  0.490699  0.288659  1
  Co  Co12  1  0.750000  0.674081  0.772339  1
  Co  Co13  1  0.250000  0.322217  0.217056  1
  Co  Co14  1  0.250000  0.820877  0.285233  1
  Co  Co15  1  0.750000  0.178206  0.715188  1
  Co  Co16  1  0.750000  0.931229  0.968969  1
  Co  Co17  1  0.250000  0.067066  0.030483  1
  Co  Co18  1  0.250000  0.571412  0.476617  1
  Co  Co19  1  0.750000  0.439037  0.533606  1
  Co  Co20  1  0.750000  0.988297  0.593297  1
  Co  Co21  1  0.250000  0.011227  0.407391  1
  Co  Co22  1  0.250000  0.511351  0.093394  1
  Co  Co23  1  0.750000  0.489311  0.906179  1
  As  As24  1  0.250000  0.389212  0.416033  1
  As  As25  1  0.250000  0.885040  0.084973  1
  As  As26  1  0.750000  0.113349  0.914794  1
  As  As27  1  0.750000  0.889549  0.400651  1
  As  As28  1  0.250000  0.109823  0.600493  1
  As  As29  1  0.250000  0.609098  0.897749  1
  As  As30  1  0.750000  0.390677  0.100769  1
  As  As31  1  0.750000  0.868920  0.768364  1
  As  As32  1  0.250000  0.128957  0.231102  1
  As  As33  1  0.250000  0.628419  0.271879  1
  As  As34  1  0.750000  0.371246  0.730955  1
  P  P35  1  0.750000  0.613330  0.580603  1
