# generated using pymatgen
data_Lu8Ti7Re5Si16
_symmetry_space_group_name_H-M   'P 1'
_cell_length_a   6.63952694
_cell_length_b   6.86320396
_cell_length_c   13.00090574
_cell_angle_alpha   90.02698045
_cell_angle_beta   89.90647976
_cell_angle_gamma   90.07730592
_symmetry_Int_Tables_number   1
_chemical_formula_structural   Lu8Ti7Re5Si16
_chemical_formula_sum   'Lu8 Ti7 Re5 Si16'
_cell_volume   592.42943845
_cell_formula_units_Z   1
loop_
 _symmetry_equiv_pos_site_id
 _symmetry_equiv_pos_as_xyz
  1  'x, y, z'
loop_
 _atom_site_type_symbol
 _atom_site_label
 _atom_site_symmetry_multiplicity
 _atom_site_fract_x
 _atom_site_fract_y
 _atom_site_fract_z
 _atom_site_occupancy
  Lu  Lu0  1  0.500333  0.329084  0.094599  1
  Lu  Lu1  1  0.998826  0.172008  0.404967  1
  Lu  Lu2  1  0.500769  0.672892  0.593692  1
  Lu  Lu3  1  0.000719  0.830005  0.905945  1
  Lu  Lu4  1  0.500208  0.670304  0.905488  1
  Lu  Lu5  1  0.000873  0.830371  0.593522  1
  Lu  Lu6  1  0.499764  0.329482  0.405996  1
  Lu  Lu7  1  0.000401  0.171707  0.095113  1
  Ti  Ti8  1  0.836455  0.330480  0.625922  1
  Ti  Ti9  1  0.330722  0.170572  0.872780  1
  Ti  Ti10  1  0.168888  0.669625  0.126083  1
  Ti  Ti11  1  0.665991  0.832863  0.375557  1
  Ti  Ti12  1  0.169928  0.668127  0.376661  1
  Ti  Ti13  1  0.669362  0.830469  0.125639  1
  Ti  Ti14  1  0.830253  0.330171  0.873020  1
  Re  Re15  1  0.327500  0.165215  0.622582  1
  Re  Re16  1  0.666417  0.006483  0.749301  1
  Re  Re17  1  0.159223  0.495543  0.748967  1
  Re  Re18  1  0.337732  0.993679  0.250744  1
  Re  Re19  1  0.839211  0.508492  0.250654  1
  Si  Si20  1  0.658579  0.040937  0.545104  1
  Si  Si21  1  0.164189  0.459785  0.957112  1
  Si  Si22  1  0.335384  0.959501  0.042463  1
  Si  Si23  1  0.834974  0.540438  0.457533  1
  Si  Si24  1  0.334244  0.957494  0.458527  1
  Si  Si25  1  0.835900  0.539361  0.042459  1
  Si  Si26  1  0.663435  0.039847  0.957317  1
  Si  Si27  1  0.168021  0.456442  0.543922  1
  Si  Si28  1  0.528907  0.371587  0.747278  1
  Si  Si29  1  0.036182  0.124726  0.750061  1
  Si  Si30  1  0.466461  0.624736  0.250695  1
  Si  Si31  1  0.966743  0.875364  0.250934  1
  Si  Si32  1  0.798654  0.631719  0.748996  1
  Si  Si33  1  0.302648  0.869796  0.750623  1
  Si  Si34  1  0.201676  0.368595  0.250003  1
  Si  Si35  1  0.700431  0.132099  0.249735  1
