# generated using pymatgen
data_Fe2HI9
_symmetry_space_group_name_H-M   'P 1'
_cell_length_a   7.99047116
_cell_length_b   10.13565148
_cell_length_c   18.23908690
_cell_angle_alpha   90.85886019
_cell_angle_beta   89.04755612
_cell_angle_gamma   81.65236720
_symmetry_Int_Tables_number   1
_chemical_formula_structural   Fe2HI9
_chemical_formula_sum   'Fe4 H2 I18'
_cell_volume   1461.08077309
_cell_formula_units_Z   2
loop_
 _symmetry_equiv_pos_site_id
 _symmetry_equiv_pos_as_xyz
  1  'x, y, z'
loop_
 _atom_site_type_symbol
 _atom_site_label
 _atom_site_symmetry_multiplicity
 _atom_site_fract_x
 _atom_site_fract_y
 _atom_site_fract_z
 _atom_site_occupancy
  Fe  Fe0  1  0.123743  0.706470  0.608186  1
  Fe  Fe1  1  0.876257  0.293530  0.391814  1
  Fe  Fe2  1  0.636334  0.284958  0.913091  1
  Fe  Fe3  1  0.363666  0.715042  0.086909  1
  H  H4  1  0.445603  0.615911  0.904273  1
  H  H5  1  0.554397  0.384089  0.095727  1
  I  I6  1  0.999838  0.126453  0.600224  1
  I  I7  1  0.000162  0.873547  0.399776  1
  I  I8  1  0.262058  0.509471  0.675764  1
  I  I9  1  0.737942  0.490529  0.324236  1
  I  I10  1  0.643675  0.521577  0.854832  1
  I  I11  1  0.356325  0.478423  0.145168  1
  I  I12  1  0.236699  0.915620  0.666741  1
  I  I13  1  0.763301  0.084380  0.333259  1
  I  I14  1  0.838618  0.119505  0.841803  1
  I  I15  1  0.161382  0.880495  0.158197  1
  I  I16  1  0.247290  0.710631  0.952200  1
  I  I17  1  0.752710  0.289369  0.047800  1
  I  I18  1  0.762486  0.328988  0.528210  1
  I  I19  1  0.237514  0.671012  0.471790  1
  I  I20  1  0.808929  0.742136  0.611804  1
  I  I21  1  0.191071  0.257864  0.388196  1
  I  I22  1  0.339543  0.236190  0.916557  1
  I  I23  1  0.660457  0.763810  0.083443  1
