# generated using pymatgen
data_Y4Er8InCo4Pd
_symmetry_space_group_name_H-M   'P 1'
_cell_length_a   8.27708470
_cell_length_b   8.27708425
_cell_length_c   8.27708442
_cell_angle_alpha   110.63113029
_cell_angle_beta   110.58110796
_cell_angle_gamma   107.22451891
_symmetry_Int_Tables_number   1
_chemical_formula_structural   Y4Er8InCo4Pd
_chemical_formula_sum   'Y4 Er8 In1 Co4 Pd1'
_cell_volume   436.02513014
_cell_formula_units_Z   1
loop_
 _symmetry_equiv_pos_site_id
 _symmetry_equiv_pos_as_xyz
  1  'x, y, z'
loop_
 _atom_site_type_symbol
 _atom_site_label
 _atom_site_symmetry_multiplicity
 _atom_site_fract_x
 _atom_site_fract_y
 _atom_site_fract_z
 _atom_site_occupancy
  Y  Y0  1  0.190018  0.292945  0.482964  1
  Y  Y1  1  0.809982  0.707055  0.517036  1
  Y  Y2  1  0.190018  0.707055  0.897073  1
  Y  Y3  1  0.809982  0.292945  0.102927  1
  Er  Er4  1  0.314250  0.620195  0.305945  1
  Er  Er5  1  0.685750  0.379805  0.694055  1
  Er  Er6  1  0.314250  0.008304  0.694055  1
  Er  Er7  1  0.685750  0.991696  0.305945  1
  Er  Er8  1  0.413411  0.214653  0.198757  1
  Er  Er9  1  0.586589  0.785347  0.801243  1
  Er  Er10  1  0.015896  0.214653  0.801243  1
  Er  Er11  1  0.984104  0.785347  0.198757  1
  In  In12  1  0.500000  0.500000  0.000000  1
  Co  Co13  1  0.112683  0.612683  0.500000  1
  Co  Co14  1  0.887317  0.387317  0.500000  1
  Co  Co15  1  0.379738  0.000000  0.379738  1
  Co  Co16  1  0.620262  0.000000  0.620262  1
  Pd  Pd17  1  0.000000  0.000000  0.000000  1
