# generated using pymatgen
data_LiDyHo4(P2Ru3)6
_symmetry_space_group_name_H-M   'P 1'
_cell_length_a   12.61686494
_cell_length_b   12.41868090
_cell_length_c   3.97025100
_cell_angle_alpha   90.00000000
_cell_angle_beta   90.00000000
_cell_angle_gamma   119.48173479
_symmetry_Int_Tables_number   1
_chemical_formula_structural   LiDyHo4(P2Ru3)6
_chemical_formula_sum   'Li1 Dy1 Ho4 P12 Ru18'
_cell_volume   541.52680980
_cell_formula_units_Z   1
loop_
 _symmetry_equiv_pos_site_id
 _symmetry_equiv_pos_as_xyz
  1  'x, y, z'
loop_
 _atom_site_type_symbol
 _atom_site_label
 _atom_site_symmetry_multiplicity
 _atom_site_fract_x
 _atom_site_fract_y
 _atom_site_fract_z
 _atom_site_occupancy
  Li  Li0  1  0.000000  0.561499  0.000000  1
  Dy  Dy1  1  0.000000  0.181919  0.500000  1
  Ho  Ho2  1  0.817316  0.816420  0.500000  1
  Ho  Ho3  1  0.182684  0.999103  0.500000  1
  Ho  Ho4  1  0.658915  0.328820  0.000000  1
  Ho  Ho5  1  0.341085  0.669905  0.000000  1
  P  P6  1  0.000000  0.807991  0.000000  1
  P  P7  1  0.181553  0.183113  0.000000  1
  P  P8  1  0.818447  0.001559  0.000000  1
  P  P9  1  0.691748  0.173212  0.500000  1
  P  P10  1  0.819294  0.518439  0.500000  1
  P  P11  1  0.473549  0.306661  0.500000  1
  P  P12  1  0.180706  0.699145  0.500000  1
  P  P13  1  0.526451  0.833112  0.500000  1
  P  P14  1  0.308252  0.481464  0.500000  1
  P  P15  1  0.000000  0.367734  0.000000  1
  P  P16  1  0.626238  0.625292  0.000000  1
  P  P17  1  0.373762  0.999053  0.000000  1
  Ru  Ru18  1  0.444111  0.444604  0.000000  1
  Ru  Ru19  1  0.555889  0.000493  0.000000  1
  Ru  Ru20  1  0.000000  0.711850  0.500000  1
  Ru  Ru21  1  0.280253  0.283049  0.500000  1
  Ru  Ru22  1  0.719747  0.002796  0.500000  1
  Ru  Ru23  1  0.805864  0.186576  0.000000  1
  Ru  Ru24  1  0.812793  0.618445  0.000000  1
  Ru  Ru25  1  0.371929  0.188489  0.000000  1
  Ru  Ru26  1  0.187207  0.805653  0.000000  1
  Ru  Ru27  1  0.628071  0.816561  0.000000  1
  Ru  Ru28  1  0.194136  0.380712  0.000000  1
  Ru  Ru29  1  0.875905  0.367339  0.500000  1
  Ru  Ru30  1  0.630520  0.508644  0.500000  1
  Ru  Ru31  1  0.492160  0.128623  0.500000  1
  Ru  Ru32  1  0.369480  0.878124  0.500000  1
  Ru  Ru33  1  0.507840  0.636463  0.500000  1
  Ru  Ru34  1  0.124095  0.491434  0.500000  1
  Ru  Ru35  1  0.000000  0.995702  0.000000  1
