# generated using pymatgen
data_Y2Er8FeAg3
_symmetry_space_group_name_H-M   'P 1'
_cell_length_a   9.44426500
_cell_length_b   9.44226213
_cell_length_c   9.53582000
_cell_angle_alpha   90.00000000
_cell_angle_beta   90.00000000
_cell_angle_gamma   119.99373571
_symmetry_Int_Tables_number   1
_chemical_formula_structural   Y2Er8FeAg3
_chemical_formula_sum   'Y4 Er16 Fe2 Ag6'
_cell_volume   736.47889254
_cell_formula_units_Z   2
loop_
 _symmetry_equiv_pos_site_id
 _symmetry_equiv_pos_as_xyz
  1  'x, y, z'
loop_
 _atom_site_type_symbol
 _atom_site_label
 _atom_site_symmetry_multiplicity
 _atom_site_fract_x
 _atom_site_fract_y
 _atom_site_fract_z
 _atom_site_occupancy
  Y  Y0  1  0.914854  0.457456  0.250000  1
  Y  Y1  1  0.458227  0.541572  0.750000  1
  Y  Y2  1  0.458237  0.916638  0.750000  1
  Y  Y3  1  0.082867  0.541416  0.750000  1
  Er  Er4  1  0.000363  0.000199  0.499599  1
  Er  Er5  1  0.000363  0.000199  0.000401  1
  Er  Er6  1  0.541219  0.457884  0.250000  1
  Er  Er7  1  0.541237  0.083388  0.250000  1
  Er  Er8  1  0.212067  0.789427  0.436465  1
  Er  Er9  1  0.212093  0.422679  0.436483  1
  Er  Er10  1  0.577686  0.788831  0.436130  1
  Er  Er11  1  0.788164  0.210684  0.562416  1
  Er  Er12  1  0.788123  0.577426  0.562385  1
  Er  Er13  1  0.423126  0.211581  0.561855  1
  Er  Er14  1  0.788164  0.210684  0.937584  1
  Er  Er15  1  0.788123  0.577426  0.937615  1
  Er  Er16  1  0.423126  0.211581  0.938145  1
  Er  Er17  1  0.212067  0.789427  0.063535  1
  Er  Er18  1  0.212093  0.422679  0.063517  1
  Er  Er19  1  0.577686  0.788831  0.063870  1
  Fe  Fe20  1  0.334040  0.666983  0.250000  1
  Fe  Fe21  1  0.666763  0.333377  0.750000  1
  Ag  Ag22  1  0.883073  0.114203  0.250000  1
  Ag  Ag23  1  0.883103  0.768856  0.250000  1
  Ag  Ag24  1  0.232836  0.116383  0.250000  1
  Ag  Ag25  1  0.114786  0.885385  0.750000  1
  Ag  Ag26  1  0.114770  0.229413  0.750000  1
  Ag  Ag27  1  0.770742  0.885392  0.750000  1
