# generated using pymatgen
data_Tm2Ni7(P2Ru)3
_symmetry_space_group_name_H-M   'P 1'
_cell_length_a   3.72407500
_cell_length_b   10.54650000
_cell_length_c   11.91818800
_cell_angle_alpha   90.00000000
_cell_angle_beta   90.00000000
_cell_angle_gamma   90.00000000
_symmetry_Int_Tables_number   1
_chemical_formula_structural   Tm2Ni7(P2Ru)3
_chemical_formula_sum   'Tm4 Ni14 P12 Ru6'
_cell_volume   468.09823926
_cell_formula_units_Z   2
loop_
 _symmetry_equiv_pos_site_id
 _symmetry_equiv_pos_as_xyz
  1  'x, y, z'
loop_
 _atom_site_type_symbol
 _atom_site_label
 _atom_site_symmetry_multiplicity
 _atom_site_fract_x
 _atom_site_fract_y
 _atom_site_fract_z
 _atom_site_occupancy
  Tm  Tm0  1  0.250000  0.589277  0.706028  1
  Tm  Tm1  1  0.250000  0.910723  0.206028  1
  Tm  Tm2  1  0.750000  0.412258  0.291147  1
  Tm  Tm3  1  0.750000  0.087742  0.791147  1
  Ni  Ni4  1  0.750000  0.594346  0.513407  1
  Ni  Ni5  1  0.750000  0.905654  0.013407  1
  Ni  Ni6  1  0.250000  0.224376  0.183022  1
  Ni  Ni7  1  0.250000  0.275624  0.683022  1
  Ni  Ni8  1  0.750000  0.778366  0.818729  1
  Ni  Ni9  1  0.750000  0.721634  0.318729  1
  Ni  Ni10  1  0.250000  0.886225  0.701765  1
  Ni  Ni11  1  0.250000  0.613775  0.201765  1
  Ni  Ni12  1  0.750000  0.110760  0.297588  1
  Ni  Ni13  1  0.750000  0.389240  0.797588  1
  Ni  Ni14  1  0.250000  0.466513  0.929304  1
  Ni  Ni15  1  0.250000  0.033487  0.429304  1
  Ni  Ni16  1  0.750000  0.536198  0.068825  1
  Ni  Ni17  1  0.750000  0.963802  0.568825  1
  P  P18  1  0.250000  0.417845  0.111921  1
  P  P19  1  0.250000  0.082155  0.611921  1
  P  P20  1  0.750000  0.583957  0.887107  1
  P  P21  1  0.750000  0.916043  0.387107  1
  P  P22  1  0.250000  0.269425  0.872527  1
  P  P23  1  0.250000  0.230575  0.372527  1
  P  P24  1  0.750000  0.731733  0.127793  1
  P  P25  1  0.750000  0.768267  0.627793  1
  P  P26  1  0.250000  0.598463  0.386698  1
  P  P27  1  0.250000  0.901537  0.886698  1
  P  P28  1  0.750000  0.403344  0.612905  1
  P  P29  1  0.750000  0.096656  0.112905  1
  Ru  Ru30  1  0.250000  0.715007  0.987890  1
  Ru  Ru31  1  0.250000  0.784993  0.487890  1
  Ru  Ru32  1  0.750000  0.289504  0.013798  1
  Ru  Ru33  1  0.750000  0.210496  0.513798  1
  Ru  Ru34  1  0.250000  0.411557  0.489542  1
  Ru  Ru35  1  0.250000  0.088443  0.989542  1
