# generated using pymatgen
data_Tm8MgAlPt2
_symmetry_space_group_name_H-M   'P 1'
_cell_length_a   9.55469437
_cell_length_b   9.55469384
_cell_length_c   9.49803900
_cell_angle_alpha   60.19595073
_cell_angle_beta   60.19595255
_cell_angle_gamma   60.52631828
_symmetry_Int_Tables_number   1
_chemical_formula_structural   Tm8MgAlPt2
_chemical_formula_sum   'Tm16 Mg2 Al2 Pt4'
_cell_volume   617.36285745
_cell_formula_units_Z   2
loop_
 _symmetry_equiv_pos_site_id
 _symmetry_equiv_pos_as_xyz
  1  'x, y, z'
loop_
 _atom_site_type_symbol
 _atom_site_label
 _atom_site_symmetry_multiplicity
 _atom_site_fract_x
 _atom_site_fract_y
 _atom_site_fract_z
 _atom_site_occupancy
  Tm  Tm0  1  0.350726  0.350726  0.348236  1
  Tm  Tm1  1  0.350726  0.350726  0.950313  1
  Tm  Tm2  1  0.357809  0.939008  0.351592  1
  Tm  Tm3  1  0.939008  0.357809  0.351592  1
  Tm  Tm4  1  0.807948  0.193530  0.190591  1
  Tm  Tm5  1  0.193530  0.807948  0.807932  1
  Tm  Tm6  1  0.193530  0.807948  0.190591  1
  Tm  Tm7  1  0.807948  0.193530  0.807932  1
  Tm  Tm8  1  0.188171  0.188171  0.811829  1
  Tm  Tm9  1  0.805105  0.805105  0.194895  1
  Tm  Tm10  1  0.930521  0.564801  0.565917  1
  Tm  Tm11  1  0.564801  0.930521  0.938762  1
  Tm  Tm12  1  0.564801  0.930521  0.565917  1
  Tm  Tm13  1  0.930521  0.564801  0.938762  1
  Tm  Tm14  1  0.566626  0.566626  0.933374  1
  Tm  Tm15  1  0.936165  0.936165  0.563835  1
  Mg  Mg16  1  0.578903  0.269531  0.575783  1
  Mg  Mg17  1  0.269531  0.578903  0.575783  1
  Al  Al18  1  0.583469  0.583469  0.576926  1
  Al  Al19  1  0.583469  0.583469  0.256136  1
  Pt  Pt20  1  0.141765  0.141765  0.146341  1
  Pt  Pt21  1  0.141765  0.141765  0.570130  1
  Pt  Pt22  1  0.138821  0.574347  0.143417  1
  Pt  Pt23  1  0.574347  0.138821  0.143417  1
