# generated using pymatgen
data_Yb4Ga4SiNi9
_symmetry_space_group_name_H-M   'P 1'
_cell_length_a   5.18812407
_cell_length_b   5.18812456
_cell_length_c   11.83413900
_cell_angle_alpha   77.33787017
_cell_angle_beta   77.33786895
_cell_angle_gamma   60.00000125
_symmetry_Int_Tables_number   1
_chemical_formula_structural   Yb4Ga4SiNi9
_chemical_formula_sum   'Yb4 Ga4 Si1 Ni9'
_cell_volume   266.87675088
_cell_formula_units_Z   1
loop_
 _symmetry_equiv_pos_site_id
 _symmetry_equiv_pos_as_xyz
  1  'x, y, z'
loop_
 _atom_site_type_symbol
 _atom_site_label
 _atom_site_symmetry_multiplicity
 _atom_site_fract_x
 _atom_site_fract_y
 _atom_site_fract_z
 _atom_site_occupancy
  Yb  Yb0  1  0.951697  0.951697  0.144913  1
  Yb  Yb1  1  0.048303  0.048303  0.855087  1
  Yb  Yb2  1  0.854892  0.854892  0.435323  1
  Yb  Yb3  1  0.145108  0.145108  0.564677  1
  Ga  Ga4  1  0.723647  0.723647  0.829056  1
  Ga  Ga5  1  0.276353  0.276353  0.170944  1
  Ga  Ga6  1  0.609926  0.609926  0.170223  1
  Ga  Ga7  1  0.390074  0.390074  0.829777  1
  Si  Si8  1  0.500000  0.500000  0.500000  1
  Ni  Ni9  1  0.000000  0.500000  0.000000  1
  Ni  Ni10  1  0.500000  0.000000  0.000000  1
  Ni  Ni11  1  0.500000  0.500000  0.000000  1
  Ni  Ni12  1  0.385574  0.385574  0.340142  1
  Ni  Ni13  1  0.888710  0.385574  0.340142  1
  Ni  Ni14  1  0.385574  0.888710  0.340142  1
  Ni  Ni15  1  0.614426  0.614426  0.659858  1
  Ni  Ni16  1  0.111290  0.614426  0.659858  1
  Ni  Ni17  1  0.614426  0.111290  0.659858  1
