# generated using pymatgen
data_TbDy2Er9(GaCo2)2
_symmetry_space_group_name_H-M   'P 1'
_cell_length_a   8.22041607
_cell_length_b   8.22041694
_cell_length_c   8.19948405
_cell_angle_alpha   106.94114632
_cell_angle_beta   109.43213819
_cell_angle_gamma   112.17952331
_symmetry_Int_Tables_number   1
_chemical_formula_structural   TbDy2Er9(GaCo2)2
_chemical_formula_sum   'Tb1 Dy2 Er9 Ga2 Co4'
_cell_volume   425.13034950
_cell_formula_units_Z   1
loop_
 _symmetry_equiv_pos_site_id
 _symmetry_equiv_pos_as_xyz
  1  'x, y, z'
loop_
 _atom_site_type_symbol
 _atom_site_label
 _atom_site_symmetry_multiplicity
 _atom_site_fract_x
 _atom_site_fract_y
 _atom_site_fract_z
 _atom_site_occupancy
  Tb  Tb0  1  0.696767  0.263303  0.960070  1
  Dy  Dy1  1  0.300844  0.738332  0.039176  1
  Dy  Dy2  1  0.697753  0.739045  0.436798  1
  Er  Er3  1  0.301487  0.261017  0.562503  1
  Er  Er4  1  0.811901  0.137327  0.327083  1
  Er  Er5  1  0.810483  0.484205  0.672110  1
  Er  Er6  1  0.187905  0.861627  0.672110  1
  Er  Er7  1  0.189756  0.515182  0.327083  1
  Er  Er8  1  0.600627  0.780716  0.819961  1
  Er  Er9  1  0.961583  0.781073  0.180584  1
  Er  Er10  1  0.039245  0.219333  0.819961  1
  Er  Er11  1  0.399512  0.219002  0.180584  1
  Ga  Ga12  1  0.497268  0.501443  0.998711  1
  Ga  Ga13  1  0.498598  0.999630  0.498226  1
  Co  Co14  1  0.840507  0.500538  0.341045  1
  Co  Co15  1  0.162874  0.499226  0.662101  1
  Co  Co16  1  0.004754  0.114568  0.119322  1
  Co  Co17  1  0.998135  0.884438  0.882573  1
