# generated using pymatgen
data_Zr10Zn2Sn5Sb
_symmetry_space_group_name_H-M   'P 1'
_cell_length_a   8.70929363
_cell_length_b   8.70929276
_cell_length_c   5.89818600
_cell_angle_alpha   90.00000000
_cell_angle_beta   90.00000000
_cell_angle_gamma   119.95634687
_symmetry_Int_Tables_number   1
_chemical_formula_structural   Zr10Zn2Sn5Sb
_chemical_formula_sum   'Zr10 Zn2 Sn5 Sb1'
_cell_volume   387.61965149
_cell_formula_units_Z   1
loop_
 _symmetry_equiv_pos_site_id
 _symmetry_equiv_pos_as_xyz
  1  'x, y, z'
loop_
 _atom_site_type_symbol
 _atom_site_label
 _atom_site_symmetry_multiplicity
 _atom_site_fract_x
 _atom_site_fract_y
 _atom_site_fract_z
 _atom_site_occupancy
  Zr  Zr0  1  0.666079  0.333457  0.000368  1
  Zr  Zr1  1  0.333457  0.666079  0.000368  1
  Zr  Zr2  1  0.333457  0.666079  0.499632  1
  Zr  Zr3  1  0.666079  0.333457  0.499632  1
  Zr  Zr4  1  0.731113  0.731113  0.750000  1
  Zr  Zr5  1  0.268211  0.000935  0.750000  1
  Zr  Zr6  1  0.000935  0.268211  0.750000  1
  Zr  Zr7  1  0.268766  0.268766  0.250000  1
  Zr  Zr8  1  0.731582  0.999982  0.250000  1
  Zr  Zr9  1  0.999982  0.731582  0.250000  1
  Zn  Zn10  1  0.999120  0.999120  0.000828  1
  Zn  Zn11  1  0.999120  0.999120  0.499172  1
  Sn  Sn12  1  0.616003  0.000253  0.750000  1
  Sn  Sn13  1  0.000253  0.616003  0.750000  1
  Sn  Sn14  1  0.616971  0.616971  0.250000  1
  Sn  Sn15  1  0.384191  0.999534  0.250000  1
  Sn  Sn16  1  0.999534  0.384191  0.250000  1
  Sb  Sb17  1  0.385146  0.385146  0.750000  1
