# generated using pymatgen
data_Ba2Cd(BrO)2
_symmetry_space_group_name_H-M   'P 1'
_cell_length_a   6.67202239
_cell_length_b   6.67202271
_cell_length_c   8.18648218
_cell_angle_alpha   119.47638440
_cell_angle_beta   119.47638754
_cell_angle_gamma   37.82011770
_symmetry_Int_Tables_number   1
_chemical_formula_structural   Ba2Cd(BrO)2
_chemical_formula_sum   'Ba2 Cd1 Br2 O2'
_cell_volume   190.85490963
_cell_formula_units_Z   1
loop_
 _symmetry_equiv_pos_site_id
 _symmetry_equiv_pos_as_xyz
  1  'x, y, z'
loop_
 _atom_site_type_symbol
 _atom_site_label
 _atom_site_symmetry_multiplicity
 _atom_site_fract_x
 _atom_site_fract_y
 _atom_site_fract_z
 _atom_site_occupancy
  Ba  Ba0  1  0.801999  0.801999  0.238698  1
  Ba  Ba1  1  0.198001  0.198001  0.761303  1
  Cd  Cd2  1  0.000000  0.000000  0.000000  1
  Br  Br3  1  0.565932  0.565932  0.342380  1
  Br  Br4  1  0.434068  0.434068  0.657621  1
  O  O5  1  0.181517  0.181517  0.069258  1
  O  O6  1  0.818483  0.818483  0.930741  1
