# generated using pymatgen
data_Sc2Be2FeIrRh4
_symmetry_space_group_name_H-M   'P 1'
_cell_length_a   9.43232800
_cell_length_b   9.43232800
_cell_length_c   3.12870400
_cell_angle_alpha   90.00000000
_cell_angle_beta   90.00000000
_cell_angle_gamma   90.00000000
_symmetry_Int_Tables_number   1
_chemical_formula_structural   Sc2Be2FeIrRh4
_chemical_formula_sum   'Sc4 Be4 Fe2 Ir2 Rh8'
_cell_volume   278.35707641
_cell_formula_units_Z   2
loop_
 _symmetry_equiv_pos_site_id
 _symmetry_equiv_pos_as_xyz
  1  'x, y, z'
loop_
 _atom_site_type_symbol
 _atom_site_label
 _atom_site_symmetry_multiplicity
 _atom_site_fract_x
 _atom_site_fract_y
 _atom_site_fract_z
 _atom_site_occupancy
  Sc  Sc0  1  0.824790  0.324790  0.000000  1
  Sc  Sc1  1  0.324790  0.175210  0.000000  1
  Sc  Sc2  1  0.675210  0.824790  0.000000  1
  Sc  Sc3  1  0.175210  0.675210  0.000000  1
  Be  Be4  1  0.624357  0.124357  0.000000  1
  Be  Be5  1  0.124357  0.375643  0.000000  1
  Be  Be6  1  0.875643  0.624357  0.000000  1
  Be  Be7  1  0.375643  0.875643  0.000000  1
  Fe  Fe8  1  0.000000  0.000000  0.000000  1
  Fe  Fe9  1  0.500000  0.500000  0.000000  1
  Ir  Ir10  1  0.500000  0.000000  0.500000  1
  Ir  Ir11  1  0.000000  0.500000  0.500000  1
  Rh  Rh12  1  0.069452  0.207996  0.500000  1
  Rh  Rh13  1  0.207996  0.930548  0.500000  1
  Rh  Rh14  1  0.792004  0.069452  0.500000  1
  Rh  Rh15  1  0.930548  0.792004  0.500000  1
  Rh  Rh16  1  0.430548  0.707996  0.500000  1
  Rh  Rh17  1  0.569452  0.292004  0.500000  1
  Rh  Rh18  1  0.707996  0.569452  0.500000  1
  Rh  Rh19  1  0.292004  0.430548  0.500000  1
