# generated using pymatgen
data_Er4Al18Pd5W
_symmetry_space_group_name_H-M   'P 1'
_cell_length_a   7.61356463
_cell_length_b   7.61356529
_cell_length_c   9.50574380
_cell_angle_alpha   89.58538230
_cell_angle_beta   89.58538329
_cell_angle_gamma   118.82493886
_symmetry_Int_Tables_number   1
_chemical_formula_structural   Er4Al18Pd5W
_chemical_formula_sum   'Er4 Al18 Pd5 W1'
_cell_volume   482.69238563
_cell_formula_units_Z   1
loop_
 _symmetry_equiv_pos_site_id
 _symmetry_equiv_pos_as_xyz
  1  'x, y, z'
loop_
 _atom_site_type_symbol
 _atom_site_label
 _atom_site_symmetry_multiplicity
 _atom_site_fract_x
 _atom_site_fract_y
 _atom_site_fract_z
 _atom_site_occupancy
  Er  Er0  1  0.995063  0.678944  0.246417  1
  Er  Er1  1  0.004937  0.321056  0.753583  1
  Er  Er2  1  0.678944  0.995063  0.246417  1
  Er  Er3  1  0.321056  0.004937  0.753583  1
  Al  Al4  1  0.134964  0.134964  0.249359  1
  Al  Al5  1  0.865036  0.865036  0.750641  1
  Al  Al6  1  0.002665  0.335778  0.076809  1
  Al  Al7  1  0.997335  0.664222  0.923191  1
  Al  Al8  1  0.998777  0.660777  0.578437  1
  Al  Al9  1  0.339223  0.001223  0.421563  1
  Al  Al10  1  0.001223  0.339223  0.421563  1
  Al  Al11  1  0.660777  0.998777  0.578437  1
  Al  Al12  1  0.664222  0.997335  0.923191  1
  Al  Al13  1  0.335778  0.002665  0.076809  1
  Al  Al14  1  0.333173  0.333173  0.556128  1
  Al  Al15  1  0.666827  0.666827  0.443872  1
  Al  Al16  1  0.666792  0.666792  0.053849  1
  Al  Al17  1  0.333208  0.333208  0.946151  1
  Al  Al18  1  0.341817  0.551109  0.250163  1
  Al  Al19  1  0.658183  0.448891  0.749837  1
  Al  Al20  1  0.551109  0.341817  0.250163  1
  Al  Al21  1  0.448891  0.658183  0.749837  1
  Pd  Pd22  1  0.672376  0.327624  0.000000  1
  Pd  Pd23  1  0.327624  0.672376  0.000000  1
  Pd  Pd24  1  0.328221  0.671779  0.500000  1
  Pd  Pd25  1  0.671779  0.328221  0.500000  1
  Pd  Pd26  1  0.000000  0.000000  0.500000  1
  W  W27  1  0.000000  0.000000  0.000000  1
