# generated using pymatgen
data_CeHo3Te4
_symmetry_space_group_name_H-M   'P 1'
_cell_length_a   4.30185300
_cell_length_b   4.30185463
_cell_length_c   15.09257000
_cell_angle_alpha   90.00000000
_cell_angle_beta   90.00000000
_cell_angle_gamma   120.00001052
_symmetry_Int_Tables_number   1
_chemical_formula_structural   CeHo3Te4
_chemical_formula_sum   'Ce1 Ho3 Te4'
_cell_volume   241.88285221
_cell_formula_units_Z   1
loop_
 _symmetry_equiv_pos_site_id
 _symmetry_equiv_pos_as_xyz
  1  'x, y, z'
loop_
 _atom_site_type_symbol
 _atom_site_label
 _atom_site_symmetry_multiplicity
 _atom_site_fract_x
 _atom_site_fract_y
 _atom_site_fract_z
 _atom_site_occupancy
  Ce  Ce0  1  0.333333  0.666667  0.619466  1
  Ho  Ho1  1  0.333333  0.666667  0.886204  1
  Ho  Ho2  1  0.666667  0.333333  0.119059  1
  Ho  Ho3  1  0.666667  0.333333  0.375292  1
  Te  Te4  1  0.333333  0.666667  0.247120  1
  Te  Te5  1  0.666667  0.333333  0.759996  1
  Te  Te6  1  0.000000  0.000000  0.489618  1
  Te  Te7  1  0.000000  0.000000  0.003246  1
