# generated using pymatgen
data_HoNb8CdSe16
_symmetry_space_group_name_H-M   'P 1'
_cell_length_a   7.01996400
_cell_length_b   7.01991260
_cell_length_c   14.43330801
_cell_angle_alpha   90.00243863
_cell_angle_beta   90.00269662
_cell_angle_gamma   120.00007573
_symmetry_Int_Tables_number   1
_chemical_formula_structural   HoNb8CdSe16
_chemical_formula_sum   'Ho1 Nb8 Cd1 Se16'
_cell_volume   615.97454933
_cell_formula_units_Z   1
loop_
 _symmetry_equiv_pos_site_id
 _symmetry_equiv_pos_as_xyz
  1  'x, y, z'
loop_
 _atom_site_type_symbol
 _atom_site_label
 _atom_site_symmetry_multiplicity
 _atom_site_fract_x
 _atom_site_fract_y
 _atom_site_fract_z
 _atom_site_occupancy
  Ho  Ho0  1  0.000000  0.000000  0.500000  1
  Nb  Nb1  1  0.999993  0.999993  0.252479  1
  Nb  Nb2  1  0.000007  0.000007  0.747521  1
  Nb  Nb3  1  0.506753  0.013518  0.249528  1
  Nb  Nb4  1  0.986427  0.493192  0.249527  1
  Nb  Nb5  1  0.506738  0.493192  0.249527  1
  Nb  Nb6  1  0.493247  0.986482  0.750472  1
  Nb  Nb7  1  0.013573  0.506808  0.750473  1
  Nb  Nb8  1  0.493262  0.506808  0.750473  1
  Cd  Cd9  1  0.000000  0.000000  0.000000  1
  Se  Se10  1  0.333373  0.666712  0.869120  1
  Se  Se11  1  0.666627  0.333288  0.130880  1
  Se  Se12  1  0.666664  0.333332  0.369508  1
  Se  Se13  1  0.333336  0.666668  0.630492  1
  Se  Se14  1  0.169951  0.830028  0.365621  1
  Se  Se15  1  0.169949  0.339912  0.365638  1
  Se  Se16  1  0.660078  0.830031  0.365617  1
  Se  Se17  1  0.830049  0.169972  0.634379  1
  Se  Se18  1  0.830051  0.660088  0.634362  1
  Se  Se19  1  0.339922  0.169969  0.634383  1
  Se  Se20  1  0.832484  0.167604  0.863719  1
  Se  Se21  1  0.832480  0.664926  0.863724  1
  Se  Se22  1  0.335141  0.167602  0.863720  1
  Se  Se23  1  0.167516  0.832396  0.136281  1
  Se  Se24  1  0.167520  0.335074  0.136276  1
  Se  Se25  1  0.664859  0.832398  0.136280  1
