# generated using pymatgen
data_TbDy4Zr5Pb6
_symmetry_space_group_name_H-M   'P 1'
_cell_length_a   8.88362100
_cell_length_b   8.89259562
_cell_length_c   6.10711800
_cell_angle_alpha   90.00000000
_cell_angle_beta   90.00000000
_cell_angle_gamma   119.56281322
_symmetry_Int_Tables_number   1
_chemical_formula_structural   TbDy4Zr5Pb6
_chemical_formula_sum   'Tb1 Dy4 Zr5 Pb6'
_cell_volume   419.64488618
_cell_formula_units_Z   1
loop_
 _symmetry_equiv_pos_site_id
 _symmetry_equiv_pos_as_xyz
  1  'x, y, z'
loop_
 _atom_site_type_symbol
 _atom_site_label
 _atom_site_symmetry_multiplicity
 _atom_site_fract_x
 _atom_site_fract_y
 _atom_site_fract_z
 _atom_site_occupancy
  Tb  Tb0  1  0.763800  0.001780  0.750000  1
  Dy  Dy1  1  0.755682  0.755600  0.250000  1
  Dy  Dy2  1  0.001374  0.238280  0.250000  1
  Dy  Dy3  1  0.237861  0.001140  0.250000  1
  Dy  Dy4  1  0.001900  0.763572  0.750000  1
  Zr  Zr5  1  0.332642  0.664989  0.500343  1
  Zr  Zr6  1  0.664685  0.332316  0.500299  1
  Zr  Zr7  1  0.332642  0.664989  0.999657  1
  Zr  Zr8  1  0.247525  0.247442  0.750000  1
  Zr  Zr9  1  0.664685  0.332316  0.999701  1
  Pb  Pb10  1  0.600265  0.599861  0.750000  1
  Pb  Pb11  1  0.395562  0.003194  0.750000  1
  Pb  Pb12  1  0.601024  0.000213  0.250000  1
  Pb  Pb13  1  0.003412  0.396357  0.750000  1
  Pb  Pb14  1  0.396922  0.396974  0.250000  1
  Pb  Pb15  1  0.000018  0.600978  0.250000  1
