# generated using pymatgen
data_NdDy2Ho5(CdPt)2
_symmetry_space_group_name_H-M   'P 1'
_cell_length_a   9.69314594
_cell_length_b   9.69314574
_cell_length_c   9.67406100
_cell_angle_alpha   60.06511243
_cell_angle_beta   60.06511310
_cell_angle_gamma   59.86977540
_symmetry_Int_Tables_number   1
_chemical_formula_structural   NdDy2Ho5(CdPt)2
_chemical_formula_sum   'Nd2 Dy4 Ho10 Cd4 Pt4'
_cell_volume   642.71725523
_cell_formula_units_Z   2
loop_
 _symmetry_equiv_pos_site_id
 _symmetry_equiv_pos_as_xyz
  1  'x, y, z'
loop_
 _atom_site_type_symbol
 _atom_site_label
 _atom_site_symmetry_multiplicity
 _atom_site_fract_x
 _atom_site_fract_y
 _atom_site_fract_z
 _atom_site_occupancy
  Nd  Nd0  1  0.566964  0.566964  0.933036  1
  Nd  Nd1  1  0.933036  0.933036  0.566964  1
  Dy  Dy2  1  0.937926  0.562074  0.562074  1
  Dy  Dy3  1  0.562074  0.937926  0.937926  1
  Dy  Dy4  1  0.562074  0.937926  0.562074  1
  Dy  Dy5  1  0.937926  0.562074  0.937926  1
  Ho  Ho6  1  0.351283  0.351283  0.351309  1
  Ho  Ho7  1  0.351283  0.351283  0.946124  1
  Ho  Ho8  1  0.351309  0.946124  0.351283  1
  Ho  Ho9  1  0.946124  0.351309  0.351283  1
  Ho  Ho10  1  0.810345  0.189655  0.189655  1
  Ho  Ho11  1  0.189655  0.810345  0.810345  1
  Ho  Ho12  1  0.189655  0.810345  0.189655  1
  Ho  Ho13  1  0.810345  0.189655  0.810345  1
  Ho  Ho14  1  0.189693  0.189693  0.810307  1
  Ho  Ho15  1  0.810307  0.810307  0.189693  1
  Cd  Cd16  1  0.582260  0.582260  0.578560  1
  Cd  Cd17  1  0.582260  0.582260  0.256922  1
  Cd  Cd18  1  0.578560  0.256922  0.582260  1
  Cd  Cd19  1  0.256922  0.578560  0.582260  1
  Pt  Pt20  1  0.143924  0.143924  0.140882  1
  Pt  Pt21  1  0.143924  0.143924  0.571271  1
  Pt  Pt22  1  0.140882  0.571271  0.143924  1
  Pt  Pt23  1  0.571271  0.140882  0.143924  1
