# generated using pymatgen
data_Yb4As6Pd5Rh2
_symmetry_space_group_name_H-M   'P 1'
_cell_length_a   7.37827380
_cell_length_b   7.37827466
_cell_length_c   7.37575277
_cell_angle_alpha   109.68947924
_cell_angle_beta   109.68947519
_cell_angle_gamma   109.04954598
_symmetry_Int_Tables_number   1
_chemical_formula_structural   Yb4As6Pd5Rh2
_chemical_formula_sum   'Yb4 As6 Pd5 Rh2'
_cell_volume   309.03023303
_cell_formula_units_Z   1
loop_
 _symmetry_equiv_pos_site_id
 _symmetry_equiv_pos_as_xyz
  1  'x, y, z'
loop_
 _atom_site_type_symbol
 _atom_site_label
 _atom_site_symmetry_multiplicity
 _atom_site_fract_x
 _atom_site_fract_y
 _atom_site_fract_z
 _atom_site_occupancy
  Yb  Yb0  1  0.500286  0.499714  0.500000  1
  Yb  Yb1  1  0.998709  0.498502  0.000000  1
  Yb  Yb2  1  0.501498  0.001291  0.000000  1
  Yb  Yb3  1  0.000286  0.999714  0.500000  1
  As  As4  1  0.677780  0.003244  0.681024  1
  As  As5  1  0.675794  0.666657  0.000000  1
  As  As6  1  0.333343  0.324206  0.000000  1
  As  As7  1  0.996703  0.678910  0.675613  1
  As  As8  1  0.996756  0.322220  0.318976  1
  As  As9  1  0.321090  0.003297  0.324387  1
  Pd  Pd10  1  0.500695  0.751290  0.251985  1
  Pd  Pd11  1  0.748836  0.251164  0.500000  1
  Pd  Pd12  1  0.248836  0.751164  0.500000  1
  Pd  Pd13  1  0.248710  0.499305  0.748015  1
  Pd  Pd14  1  0.999006  0.000994  0.000000  1
  Rh  Rh15  1  0.500399  0.248726  0.749125  1
  Rh  Rh16  1  0.751274  0.499601  0.250875  1
