# generated using pymatgen
data_Th2CdCoNi
_symmetry_space_group_name_H-M   'P 1'
_cell_length_a   7.60201400
_cell_length_b   7.59619500
_cell_length_c   3.67510400
_cell_angle_alpha   90.00000000
_cell_angle_beta   90.00000000
_cell_angle_gamma   90.00000000
_symmetry_Int_Tables_number   1
_chemical_formula_structural   Th2CdCoNi
_chemical_formula_sum   'Th4 Cd2 Co2 Ni2'
_cell_volume   212.22395483
_cell_formula_units_Z   2
loop_
 _symmetry_equiv_pos_site_id
 _symmetry_equiv_pos_as_xyz
  1  'x, y, z'
loop_
 _atom_site_type_symbol
 _atom_site_label
 _atom_site_symmetry_multiplicity
 _atom_site_fract_x
 _atom_site_fract_y
 _atom_site_fract_z
 _atom_site_occupancy
  Th  Th0  1  0.329745  0.840326  0.500000  1
  Th  Th1  1  0.829745  0.659674  0.500000  1
  Th  Th2  1  0.169808  0.321212  0.500000  1
  Th  Th3  1  0.669808  0.178788  0.500000  1
  Cd  Cd4  1  0.994812  0.995839  0.000000  1
  Cd  Cd5  1  0.494812  0.504161  0.000000  1
  Co  Co6  1  0.376979  0.124919  0.000000  1
  Co  Co7  1  0.876979  0.375081  0.000000  1
  Ni  Ni8  1  0.128656  0.625925  0.000000  1
  Ni  Ni9  1  0.628656  0.874075  0.000000  1
