# generated using pymatgen
data_YbPa(Be12Cu)2
_symmetry_space_group_name_H-M   'P 1'
_cell_length_a   7.29156393
_cell_length_b   7.33937976
_cell_length_c   7.27420091
_cell_angle_alpha   59.86020211
_cell_angle_beta   59.78707443
_cell_angle_gamma   59.62603507
_symmetry_Int_Tables_number   1
_chemical_formula_structural   YbPa(Be12Cu)2
_chemical_formula_sum   'Yb1 Pa1 Be24 Cu2'
_cell_volume   273.74815137
_cell_formula_units_Z   1
loop_
 _symmetry_equiv_pos_site_id
 _symmetry_equiv_pos_as_xyz
  1  'x, y, z'
loop_
 _atom_site_type_symbol
 _atom_site_label
 _atom_site_symmetry_multiplicity
 _atom_site_fract_x
 _atom_site_fract_y
 _atom_site_fract_z
 _atom_site_occupancy
  Yb  Yb0  1  0.249071  0.250929  0.249071  1
  Pa  Pa1  1  0.748345  0.751655  0.748345  1
  Be  Be2  1  0.499506  0.500494  0.499506  1
  Be  Be3  1  0.999782  0.000218  0.999782  1
  Be  Be4  1  0.566620  0.790993  0.437377  1
  Be  Be5  1  0.437377  0.205011  0.566620  1
  Be  Be6  1  0.292564  0.935708  0.710550  1
  Be  Be7  1  0.710550  0.061178  0.292564  1
  Be  Be8  1  0.928980  0.280132  0.067325  1
  Be  Be9  1  0.067325  0.723563  0.928980  1
  Be  Be10  1  0.207403  0.796748  0.557769  1
  Be  Be11  1  0.788615  0.200361  0.444395  1
  Be  Be12  1  0.444395  0.566629  0.788615  1
  Be  Be13  1  0.557769  0.438080  0.207403  1
  Be  Be14  1  0.712668  0.289744  0.934994  1
  Be  Be15  1  0.292064  0.715347  0.059725  1
  Be  Be16  1  0.059725  0.932865  0.292064  1
  Be  Be17  1  0.934994  0.062594  0.712668  1
  Be  Be18  1  0.567699  0.204654  0.789736  1
  Be  Be19  1  0.435445  0.791864  0.206901  1
  Be  Be20  1  0.789736  0.437911  0.567699  1
  Be  Be21  1  0.206901  0.565790  0.435445  1
  Be  Be22  1  0.935349  0.714042  0.292830  1
  Be  Be23  1  0.060636  0.289218  0.711547  1
  Be  Be24  1  0.292830  0.057778  0.935349  1
  Be  Be25  1  0.711547  0.938599  0.060636  1
  Cu  Cu26  1  0.804895  0.556250  0.197210  1
  Cu  Cu27  1  0.197210  0.441644  0.804895  1
