# generated using pymatgen
data_Nd6Cd4Pd9Pt4
_symmetry_space_group_name_H-M   'P 1'
_cell_length_a   8.55724858
_cell_length_b   8.55724937
_cell_length_c   8.56723200
_cell_angle_alpha   109.49485371
_cell_angle_beta   109.49485558
_cell_angle_gamma   109.44758017
_symmetry_Int_Tables_number   1
_chemical_formula_structural   Nd6Cd4Pd9Pt4
_chemical_formula_sum   'Nd6 Cd4 Pd9 Pt4'
_cell_volume   482.79214544
_cell_formula_units_Z   1
loop_
 _symmetry_equiv_pos_site_id
 _symmetry_equiv_pos_as_xyz
  1  'x, y, z'
loop_
 _atom_site_type_symbol
 _atom_site_label
 _atom_site_symmetry_multiplicity
 _atom_site_fract_x
 _atom_site_fract_y
 _atom_site_fract_z
 _atom_site_occupancy
  Nd  Nd0  1  0.702388  0.702388  0.002571  1
  Nd  Nd1  1  0.297612  0.000000  0.300183  1
  Nd  Nd2  1  0.000000  0.297612  0.300183  1
  Nd  Nd3  1  0.299705  0.299705  0.999220  1
  Nd  Nd4  1  0.700295  0.000000  0.699515  1
  Nd  Nd5  1  0.000000  0.700295  0.699515  1
  Cd  Cd6  1  0.000000  0.000000  0.502095  1
  Cd  Cd7  1  0.000000  0.498808  0.998413  1
  Cd  Cd8  1  0.498808  0.000000  0.998413  1
  Cd  Cd9  1  0.501192  0.501192  0.499605  1
  Pd  Pd10  1  0.659049  0.343189  0.000832  1
  Pd  Pd11  1  0.340951  0.684141  0.341783  1
  Pd  Pd12  1  0.000000  0.341702  0.657564  1
  Pd  Pd13  1  0.343189  0.659049  0.000832  1
  Pd  Pd14  1  0.341702  0.000000  0.657564  1
  Pd  Pd15  1  0.684141  0.340951  0.341783  1
  Pd  Pd16  1  0.658298  0.658298  0.315859  1
  Pd  Pd17  1  0.656811  0.315859  0.657643  1
  Pd  Pd18  1  0.315859  0.656811  0.657643  1
  Pt  Pt19  1  0.344242  0.344242  0.686220  1
  Pt  Pt20  1  0.655758  0.000000  0.341977  1
  Pt  Pt21  1  0.000000  0.655758  0.341977  1
  Pt  Pt22  1  0.000000  0.000000  0.998613  1
