# generated using pymatgen
data_YbDy4Hf5(Si5Ir2)4
_symmetry_space_group_name_H-M   'P 1'
_cell_length_a   12.47443600
_cell_length_b   12.47443600
_cell_length_c   4.16485200
_cell_angle_alpha   90.00000000
_cell_angle_beta   90.00000000
_cell_angle_gamma   90.00000000
_symmetry_Int_Tables_number   1
_chemical_formula_structural   YbDy4Hf5(Si5Ir2)4
_chemical_formula_sum   'Yb1 Dy4 Hf5 Si20 Ir8'
_cell_volume   648.09908989
_cell_formula_units_Z   1
loop_
 _symmetry_equiv_pos_site_id
 _symmetry_equiv_pos_as_xyz
  1  'x, y, z'
loop_
 _atom_site_type_symbol
 _atom_site_label
 _atom_site_symmetry_multiplicity
 _atom_site_fract_x
 _atom_site_fract_y
 _atom_site_fract_z
 _atom_site_occupancy
  Yb  Yb0  1  0.000000  0.000000  0.000000  1
  Dy  Dy1  1  0.884241  0.384725  0.500000  1
  Dy  Dy2  1  0.115759  0.615275  0.500000  1
  Dy  Dy3  1  0.384725  0.115759  0.500000  1
  Dy  Dy4  1  0.615275  0.884241  0.500000  1
  Hf  Hf5  1  0.500000  0.500000  0.000000  1
  Hf  Hf6  1  0.673914  0.174702  0.500000  1
  Hf  Hf7  1  0.326086  0.825298  0.500000  1
  Hf  Hf8  1  0.174702  0.326086  0.500000  1
  Hf  Hf9  1  0.825298  0.673914  0.500000  1
  Si  Si10  1  0.565839  0.068209  0.000000  1
  Si  Si11  1  0.434161  0.931791  0.000000  1
  Si  Si12  1  0.068209  0.434161  0.000000  1
  Si  Si13  1  0.931791  0.565839  0.000000  1
  Si  Si14  1  0.666165  0.702242  0.000000  1
  Si  Si15  1  0.333835  0.297758  0.000000  1
  Si  Si16  1  0.162532  0.801930  0.000000  1
  Si  Si17  1  0.837468  0.198070  0.000000  1
  Si  Si18  1  0.297758  0.666165  0.000000  1
  Si  Si19  1  0.702242  0.333835  0.000000  1
  Si  Si20  1  0.198070  0.162532  0.000000  1
  Si  Si21  1  0.801930  0.837468  0.000000  1
  Si  Si22  1  0.650980  0.508059  0.500000  1
  Si  Si23  1  0.349020  0.491941  0.500000  1
  Si  Si24  1  0.154340  0.992130  0.500000  1
  Si  Si25  1  0.845660  0.007870  0.500000  1
  Si  Si26  1  0.491941  0.650980  0.500000  1
  Si  Si27  1  0.508059  0.349020  0.500000  1
  Si  Si28  1  0.007870  0.154340  0.500000  1
  Si  Si29  1  0.992130  0.845660  0.500000  1
  Ir  Ir30  1  0.741720  0.521724  0.000000  1
  Ir  Ir31  1  0.258280  0.478276  0.000000  1
  Ir  Ir32  1  0.247061  0.977632  0.000000  1
  Ir  Ir33  1  0.752939  0.022368  0.000000  1
  Ir  Ir34  1  0.478276  0.741720  0.000000  1
  Ir  Ir35  1  0.521724  0.258280  0.000000  1
  Ir  Ir36  1  0.022368  0.247061  0.000000  1
  Ir  Ir37  1  0.977632  0.752939  0.000000  1
