# generated using pymatgen
data_LiTi2VPt12
_symmetry_space_group_name_H-M   'P 1'
_cell_length_a   5.55595300
_cell_length_b   5.55595287
_cell_length_c   9.03113700
_cell_angle_alpha   90.00000000
_cell_angle_beta   90.00000000
_cell_angle_gamma   120.00000674
_symmetry_Int_Tables_number   1
_chemical_formula_structural   LiTi2VPt12
_chemical_formula_sum   'Li1 Ti2 V1 Pt12'
_cell_volume   241.42939654
_cell_formula_units_Z   1
loop_
 _symmetry_equiv_pos_site_id
 _symmetry_equiv_pos_as_xyz
  1  'x, y, z'
loop_
 _atom_site_type_symbol
 _atom_site_label
 _atom_site_symmetry_multiplicity
 _atom_site_fract_x
 _atom_site_fract_y
 _atom_site_fract_z
 _atom_site_occupancy
  Li  Li0  1  0.333333  0.666667  0.249860  1
  Ti  Ti1  1  0.000000  0.000000  0.005817  1
  Ti  Ti2  1  0.666667  0.333333  0.750958  1
  V  V3  1  0.000000  0.000000  0.492817  1
  Pt  Pt4  1  0.500863  0.499137  0.501310  1
  Pt  Pt5  1  0.500863  0.001726  0.501310  1
  Pt  Pt6  1  0.998274  0.499137  0.501310  1
  Pt  Pt7  1  0.500963  0.499037  0.998620  1
  Pt  Pt8  1  0.500963  0.001925  0.998620  1
  Pt  Pt9  1  0.998075  0.499037  0.998620  1
  Pt  Pt10  1  0.833203  0.666406  0.251371  1
  Pt  Pt11  1  0.333594  0.166797  0.251371  1
  Pt  Pt12  1  0.833203  0.166797  0.251371  1
  Pt  Pt13  1  0.166292  0.332584  0.748881  1
  Pt  Pt14  1  0.667416  0.833708  0.748881  1
  Pt  Pt15  1  0.166292  0.833708  0.748881  1
