# generated using pymatgen
data_Zr4P4Ir3Rh
_symmetry_space_group_name_H-M   'P 1'
_cell_length_a   3.83984300
_cell_length_b   6.56402472
_cell_length_c   7.43489584
_cell_angle_alpha   90.05403296
_cell_angle_beta   90.00000000
_cell_angle_gamma   90.00000000
_symmetry_Int_Tables_number   1
_chemical_formula_structural   Zr4P4Ir3Rh
_chemical_formula_sum   'Zr4 P4 Ir3 Rh1'
_cell_volume   187.39516049
_cell_formula_units_Z   1
loop_
 _symmetry_equiv_pos_site_id
 _symmetry_equiv_pos_as_xyz
  1  'x, y, z'
loop_
 _atom_site_type_symbol
 _atom_site_label
 _atom_site_symmetry_multiplicity
 _atom_site_fract_x
 _atom_site_fract_y
 _atom_site_fract_z
 _atom_site_occupancy
  Zr  Zr0  1  0.250000  0.026445  0.821410  1
  Zr  Zr1  1  0.250000  0.526649  0.677570  1
  Zr  Zr2  1  0.750000  0.973961  0.178274  1
  Zr  Zr3  1  0.750000  0.472854  0.322692  1
  P  P4  1  0.250000  0.761406  0.376758  1
  P  P5  1  0.250000  0.262560  0.123077  1
  P  P6  1  0.750000  0.238394  0.623375  1
  P  P7  1  0.750000  0.738715  0.877447  1
  Ir  Ir8  1  0.250000  0.143950  0.437550  1
  Ir  Ir9  1  0.250000  0.644806  0.062619  1
  Ir  Ir10  1  0.750000  0.854287  0.562119  1
  Rh  Rh11  1  0.750000  0.355973  0.937109  1
