# generated using pymatgen
data_Cs6ScSe4
_symmetry_space_group_name_H-M   'P 1'
_cell_length_a   11.53072000
_cell_length_b   11.53072048
_cell_length_c   8.74668300
_cell_angle_alpha   90.00000000
_cell_angle_beta   90.00000000
_cell_angle_gamma   119.99999862
_symmetry_Int_Tables_number   1
_chemical_formula_structural   Cs6ScSe4
_chemical_formula_sum   'Cs12 Sc2 Se8'
_cell_volume   1007.13316016
_cell_formula_units_Z   2
loop_
 _symmetry_equiv_pos_site_id
 _symmetry_equiv_pos_as_xyz
  1  'x, y, z'
loop_
 _atom_site_type_symbol
 _atom_site_label
 _atom_site_symmetry_multiplicity
 _atom_site_fract_x
 _atom_site_fract_y
 _atom_site_fract_z
 _atom_site_occupancy
  Cs  Cs0  1  0.135530  0.864470  0.546732  1
  Cs  Cs1  1  0.271060  0.135530  0.046732  1
  Cs  Cs2  1  0.864470  0.728940  0.046732  1
  Cs  Cs3  1  0.135530  0.271060  0.546732  1
  Cs  Cs4  1  0.728940  0.864470  0.546732  1
  Cs  Cs5  1  0.864470  0.135530  0.046732  1
  Cs  Cs6  1  0.531663  0.468337  0.360884  1
  Cs  Cs7  1  0.063326  0.531663  0.860884  1
  Cs  Cs8  1  0.468337  0.936674  0.860884  1
  Cs  Cs9  1  0.531663  0.063326  0.360884  1
  Cs  Cs10  1  0.936674  0.468337  0.360884  1
  Cs  Cs11  1  0.468337  0.531663  0.860884  1
  Sc  Sc12  1  0.333333  0.666667  0.256817  1
  Sc  Sc13  1  0.666667  0.333333  0.756817  1
  Se  Se14  1  0.333333  0.666667  0.555078  1
  Se  Se15  1  0.666667  0.333333  0.055078  1
  Se  Se16  1  0.210167  0.789833  0.158320  1
  Se  Se17  1  0.420334  0.210167  0.658320  1
  Se  Se18  1  0.789833  0.579666  0.658320  1
  Se  Se19  1  0.210167  0.420334  0.158320  1
  Se  Se20  1  0.579666  0.789833  0.158320  1
  Se  Se21  1  0.789833  0.210167  0.658320  1
