# generated using pymatgen
data_Sr5AcPr2(Si3Pd)4
_symmetry_space_group_name_H-M   'P 1'
_cell_length_a   8.45055100
_cell_length_b   8.41950407
_cell_length_c   8.81784400
_cell_angle_alpha   90.00000000
_cell_angle_beta   90.00000000
_cell_angle_gamma   120.12206852
_symmetry_Int_Tables_number   1
_chemical_formula_structural   Sr5AcPr2(Si3Pd)4
_chemical_formula_sum   'Sr5 Ac1 Pr2 Si12 Pd4'
_cell_volume   542.66156724
_cell_formula_units_Z   1
loop_
 _symmetry_equiv_pos_site_id
 _symmetry_equiv_pos_as_xyz
  1  'x, y, z'
loop_
 _atom_site_type_symbol
 _atom_site_label
 _atom_site_symmetry_multiplicity
 _atom_site_fract_x
 _atom_site_fract_y
 _atom_site_fract_z
 _atom_site_occupancy
  Sr  Sr0  1  0.499610  0.500301  0.750000  1
  Sr  Sr1  1  0.500454  0.499712  0.250000  1
  Sr  Sr2  1  0.000691  0.500301  0.750000  1
  Sr  Sr3  1  0.999258  0.499712  0.250000  1
  Sr  Sr4  1  0.499667  0.999333  0.750000  1
  Ac  Ac5  1  0.500247  0.000492  0.250000  1
  Pr  Pr6  1  0.000014  0.000029  0.750000  1
  Pr  Pr7  1  0.999990  0.999981  0.250000  1
  Si  Si8  1  0.838839  0.163443  0.000467  1
  Si  Si9  1  0.161161  0.836565  0.000673  1
  Si  Si10  1  0.324604  0.163443  0.000467  1
  Si  Si11  1  0.161161  0.836565  0.499327  1
  Si  Si12  1  0.675404  0.836565  0.000673  1
  Si  Si13  1  0.838839  0.163443  0.499533  1
  Si  Si14  1  0.836436  0.672874  0.000988  1
  Si  Si15  1  0.675404  0.836565  0.499327  1
  Si  Si16  1  0.163576  0.327154  0.001349  1
  Si  Si17  1  0.324604  0.163443  0.499533  1
  Si  Si18  1  0.163576  0.327154  0.498651  1
  Si  Si19  1  0.836436  0.672874  0.499012  1
  Pd  Pd20  1  0.665805  0.331607  0.001800  1
  Pd  Pd21  1  0.334208  0.668418  0.003504  1
  Pd  Pd22  1  0.334208  0.668418  0.496496  1
  Pd  Pd23  1  0.665805  0.331607  0.498200  1
