# generated using pymatgen
data_Zr8MnBi4Os
_symmetry_space_group_name_H-M   'P 1'
_cell_length_a   8.39291979
_cell_length_b   8.39292059
_cell_length_c   8.39292037
_cell_angle_alpha   95.92209503
_cell_angle_beta   95.92209727
_cell_angle_gamma   142.52771439
_symmetry_Int_Tables_number   1
_chemical_formula_structural   Zr8MnBi4Os
_chemical_formula_sum   'Zr8 Mn1 Bi4 Os1'
_cell_volume   340.61681926
_cell_formula_units_Z   1
loop_
 _symmetry_equiv_pos_site_id
 _symmetry_equiv_pos_as_xyz
  1  'x, y, z'
loop_
 _atom_site_type_symbol
 _atom_site_label
 _atom_site_symmetry_multiplicity
 _atom_site_fract_x
 _atom_site_fract_y
 _atom_site_fract_z
 _atom_site_occupancy
  Zr  Zr0  1  0.701780  0.585538  0.282153  1
  Zr  Zr1  1  0.303385  0.419627  0.717847  1
  Zr  Zr2  1  0.585538  0.303385  0.883757  1
  Zr  Zr3  1  0.080373  0.196615  0.282153  1
  Zr  Zr4  1  0.798220  0.080373  0.883757  1
  Zr  Zr5  1  0.419627  0.701780  0.116243  1
  Zr  Zr6  1  0.914462  0.798220  0.717847  1
  Zr  Zr7  1  0.196615  0.914462  0.116243  1
  Mn  Mn8  1  0.750000  0.750000  0.000000  1
  Bi  Bi9  1  0.140126  0.640126  0.780253  1
  Bi  Bi10  1  0.359874  0.140126  0.500000  1
  Bi  Bi11  1  0.859874  0.359874  0.219747  1
  Bi  Bi12  1  0.640126  0.859874  0.500000  1
  Os  Os13  1  0.250000  0.250000  0.000000  1
