# generated using pymatgen
data_NdSm5Mn2(Co4P3)4
_symmetry_space_group_name_H-M   'P 1'
_cell_length_a   3.72748500
_cell_length_b   10.61454700
_cell_length_c   12.28517900
_cell_angle_alpha   90.00000000
_cell_angle_beta   90.00000000
_cell_angle_gamma   90.00000000
_symmetry_Int_Tables_number   1
_chemical_formula_structural   NdSm5Mn2(Co4P3)4
_chemical_formula_sum   'Nd1 Sm5 Mn2 Co16 P12'
_cell_volume   486.07004487
_cell_formula_units_Z   1
loop_
 _symmetry_equiv_pos_site_id
 _symmetry_equiv_pos_as_xyz
  1  'x, y, z'
loop_
 _atom_site_type_symbol
 _atom_site_label
 _atom_site_symmetry_multiplicity
 _atom_site_fract_x
 _atom_site_fract_y
 _atom_site_fract_z
 _atom_site_occupancy
  Nd  Nd0  1  0.000000  0.500000  0.522333  1
  Sm  Sm1  1  0.500000  0.000000  0.477739  1
  Sm  Sm2  1  0.500000  0.818137  0.205000  1
  Sm  Sm3  1  0.500000  0.181863  0.205000  1
  Sm  Sm4  1  0.000000  0.681848  0.795279  1
  Sm  Sm5  1  0.000000  0.318152  0.795279  1
  Mn  Mn6  1  0.500000  0.500000  0.156808  1
  Mn  Mn7  1  0.000000  0.000000  0.842557  1
  Co  Co8  1  0.500000  0.500000  0.704385  1
  Co  Co9  1  0.000000  0.000000  0.296402  1
  Co  Co10  1  0.000000  0.500000  0.987282  1
  Co  Co11  1  0.500000  0.000000  0.012906  1
  Co  Co12  1  0.500000  0.333236  0.995038  1
  Co  Co13  1  0.500000  0.666764  0.995038  1
  Co  Co14  1  0.000000  0.166579  0.004979  1
  Co  Co15  1  0.000000  0.833421  0.004979  1
  Co  Co16  1  0.500000  0.295318  0.429739  1
  Co  Co17  1  0.500000  0.704682  0.429739  1
  Co  Co18  1  0.000000  0.202496  0.570227  1
  Co  Co19  1  0.000000  0.797504  0.570227  1
  Co  Co20  1  0.500000  0.881108  0.710730  1
  Co  Co21  1  0.500000  0.118892  0.710730  1
  Co  Co22  1  0.000000  0.619329  0.289095  1
  Co  Co23  1  0.000000  0.380671  0.289095  1
  P  P24  1  0.500000  0.500000  0.885415  1
  P  P25  1  0.000000  0.000000  0.114897  1
  P  P26  1  0.500000  0.500000  0.340850  1
  P  P27  1  0.000000  0.000000  0.657472  1
  P  P28  1  0.500000  0.307210  0.615523  1
  P  P29  1  0.500000  0.692790  0.615523  1
  P  P30  1  0.000000  0.191026  0.384913  1
  P  P31  1  0.000000  0.808974  0.384913  1
  P  P32  1  0.500000  0.847817  0.894509  1
  P  P33  1  0.500000  0.152183  0.894509  1
  P  P34  1  0.000000  0.652380  0.105445  1
  P  P35  1  0.000000  0.347620  0.105445  1
