# generated using pymatgen
data_Lu2PaCoOs2
_symmetry_space_group_name_H-M   'P 1'
_cell_length_a   5.09361449
_cell_length_b   5.31730902
_cell_length_c   5.31731049
_cell_angle_alpha   65.45563405
_cell_angle_beta   65.24182822
_cell_angle_gamma   65.24183480
_symmetry_Int_Tables_number   1
_chemical_formula_structural   Lu2PaCoOs2
_chemical_formula_sum   'Lu2 Pa1 Co1 Os2'
_cell_volume   113.61596839
_cell_formula_units_Z   1
loop_
 _symmetry_equiv_pos_site_id
 _symmetry_equiv_pos_as_xyz
  1  'x, y, z'
loop_
 _atom_site_type_symbol
 _atom_site_label
 _atom_site_symmetry_multiplicity
 _atom_site_fract_x
 _atom_site_fract_y
 _atom_site_fract_z
 _atom_site_occupancy
  Lu  Lu0  1  0.625940  0.625999  0.625999  1
  Lu  Lu1  1  0.374060  0.374001  0.374001  1
  Pa  Pa2  1  0.000000  0.000000  0.000000  1
  Co  Co3  1  0.500000  0.000000  0.000000  1
  Os  Os4  1  0.000000  0.500000  0.000000  1
  Os  Os5  1  0.000000  0.000000  0.500000  1
