# generated using pymatgen
data_Tb3CeDy(FeB3)2
_symmetry_space_group_name_H-M   'P 1'
_cell_length_a   5.45491804
_cell_length_b   5.45491779
_cell_length_c   8.07601073
_cell_angle_alpha   70.26175088
_cell_angle_beta   70.26175897
_cell_angle_gamma   59.99998357
_symmetry_Int_Tables_number   1
_chemical_formula_structural   Tb3CeDy(FeB3)2
_chemical_formula_sum   'Tb3 Ce1 Dy1 Fe2 B6'
_cell_volume   191.63828463
_cell_formula_units_Z   1
loop_
 _symmetry_equiv_pos_site_id
 _symmetry_equiv_pos_as_xyz
  1  'x, y, z'
loop_
 _atom_site_type_symbol
 _atom_site_label
 _atom_site_symmetry_multiplicity
 _atom_site_fract_x
 _atom_site_fract_y
 _atom_site_fract_z
 _atom_site_occupancy
  Tb  Tb0  1  0.252945  0.252945  0.241165  1
  Tb  Tb1  1  0.747061  0.747061  0.758817  1
  Tb  Tb2  1  0.414374  0.414374  0.756880  1
  Ce  Ce3  1  0.999675  0.999675  0.000975  1
  Dy  Dy4  1  0.585080  0.585080  0.244760  1
  Fe  Fe5  1  0.111246  0.111246  0.666261  1
  Fe  Fe6  1  0.888977  0.888977  0.333069  1
  B  B7  1  0.166815  0.833555  0.499679  1
  B  B8  1  0.833555  0.499951  0.499679  1
  B  B9  1  0.499951  0.166815  0.499679  1
  B  B10  1  0.166815  0.499951  0.499679  1
  B  B11  1  0.499951  0.833555  0.499679  1
  B  B12  1  0.833555  0.166815  0.499679  1
