# generated using pymatgen
data_Zr5Mn3(Fe4P3)4
_symmetry_space_group_name_H-M   'P 1'
_cell_length_a   11.85896100
_cell_length_b   11.85896206
_cell_length_c   3.61924800
_cell_angle_alpha   90.00000000
_cell_angle_beta   90.00000000
_cell_angle_gamma   119.99999426
_symmetry_Int_Tables_number   1
_chemical_formula_structural   Zr5Mn3(Fe4P3)4
_chemical_formula_sum   'Zr5 Mn3 Fe16 P12'
_cell_volume   440.80074550
_cell_formula_units_Z   1
loop_
 _symmetry_equiv_pos_site_id
 _symmetry_equiv_pos_as_xyz
  1  'x, y, z'
loop_
 _atom_site_type_symbol
 _atom_site_label
 _atom_site_symmetry_multiplicity
 _atom_site_fract_x
 _atom_site_fract_y
 _atom_site_fract_z
 _atom_site_occupancy
  Zr  Zr0  1  0.666667  0.333333  0.000000  1
  Zr  Zr1  1  0.333333  0.666667  0.000000  1
  Zr  Zr2  1  0.814398  0.814398  0.500000  1
  Zr  Zr3  1  0.185602  0.000000  0.500000  1
  Zr  Zr4  1  0.000000  0.185602  0.500000  1
  Mn  Mn5  1  0.440978  0.440978  0.000000  1
  Mn  Mn6  1  0.559022  0.000000  0.000000  1
  Mn  Mn7  1  0.000000  0.559022  0.000000  1
  Fe  Fe8  1  0.197092  0.377521  0.000000  1
  Fe  Fe9  1  0.180428  0.802908  0.000000  1
  Fe  Fe10  1  0.819572  0.622479  0.000000  1
  Fe  Fe11  1  0.802908  0.180428  0.000000  1
  Fe  Fe12  1  0.377521  0.197092  0.000000  1
  Fe  Fe13  1  0.123052  0.483634  0.500000  1
  Fe  Fe14  1  0.360582  0.876948  0.500000  1
  Fe  Fe15  1  0.516366  0.639418  0.500000  1
  Fe  Fe16  1  0.639418  0.516366  0.500000  1
  Fe  Fe17  1  0.876948  0.360582  0.500000  1
  Fe  Fe18  1  0.483634  0.123052  0.500000  1
  Fe  Fe19  1  0.000000  0.000000  0.000000  1
  Fe  Fe20  1  0.716143  0.000000  0.500000  1
  Fe  Fe21  1  0.000000  0.716143  0.500000  1
  Fe  Fe22  1  0.622479  0.819572  0.000000  1
  Fe  Fe23  1  0.283857  0.283857  0.500000  1
  P  P24  1  0.638096  0.638096  0.000000  1
  P  P25  1  0.361904  0.000000  0.000000  1
  P  P26  1  0.000000  0.361904  0.000000  1
  P  P27  1  0.481269  0.311717  0.500000  1
  P  P28  1  0.688283  0.169553  0.500000  1
  P  P29  1  0.830447  0.518731  0.500000  1
  P  P30  1  0.518731  0.830447  0.500000  1
  P  P31  1  0.169553  0.688283  0.500000  1
  P  P32  1  0.818706  0.000000  0.000000  1
  P  P33  1  0.000000  0.818706  0.000000  1
  P  P34  1  0.311717  0.481269  0.500000  1
  P  P35  1  0.181294  0.181294  0.000000  1
