# generated using pymatgen
data_TbPrEr2(Ir2O7)2
_symmetry_space_group_name_H-M   'P 1'
_cell_length_a   7.30193899
_cell_length_b   7.23695601
_cell_length_c   7.24583034
_cell_angle_alpha   60.04050663
_cell_angle_beta   60.32165984
_cell_angle_gamma   60.29395149
_symmetry_Int_Tables_number   1
_chemical_formula_structural   TbPrEr2(Ir2O7)2
_chemical_formula_sum   'Tb1 Pr1 Er2 Ir4 O14'
_cell_volume   272.08600113
_cell_formula_units_Z   1
loop_
 _symmetry_equiv_pos_site_id
 _symmetry_equiv_pos_as_xyz
  1  'x, y, z'
loop_
 _atom_site_type_symbol
 _atom_site_label
 _atom_site_symmetry_multiplicity
 _atom_site_fract_x
 _atom_site_fract_y
 _atom_site_fract_z
 _atom_site_occupancy
  Tb  Tb0  1  0.125000  0.125000  0.625000  1
  Pr  Pr1  1  0.625000  0.125000  0.125000  1
  Er  Er2  1  0.125000  0.125000  0.125000  1
  Er  Er3  1  0.125000  0.625000  0.125000  1
  Ir  Ir4  1  0.625000  0.625000  0.625000  1
  Ir  Ir5  1  0.125000  0.625000  0.625000  1
  Ir  Ir6  1  0.625000  0.125000  0.625000  1
  Ir  Ir7  1  0.625000  0.625000  0.125000  1
  O  O8  1  0.961818  0.540553  0.536852  1
  O  O9  1  0.288182  0.289223  0.713148  1
  O  O10  1  0.962388  0.538235  0.961141  1
  O  O11  1  0.722624  0.288656  0.288718  1
  O  O12  1  0.527376  0.549997  0.961282  1
  O  O13  1  0.529882  0.960853  0.548413  1
  O  O14  1  0.527376  0.961344  0.961282  1
  O  O15  1  0.237349  0.256071  0.250510  1
  O  O16  1  0.288182  0.709447  0.713148  1
  O  O17  1  0.720118  0.289147  0.701587  1
  O  O18  1  0.012651  0.993929  0.999490  1
  O  O19  1  0.961818  0.960777  0.536852  1
  O  O20  1  0.287612  0.711765  0.288859  1
  O  O21  1  0.722624  0.700003  0.288718  1
