# generated using pymatgen
data_Dy3YTc3B8Ru
_symmetry_space_group_name_H-M   'P 1'
_cell_length_a   5.95331532
_cell_length_b   5.29795600
_cell_length_c   6.43113200
_cell_angle_alpha   90.00000000
_cell_angle_beta   90.11390101
_cell_angle_gamma   90.00000000
_symmetry_Int_Tables_number   1
_chemical_formula_structural   Dy3YTc3B8Ru
_chemical_formula_sum   'Dy3 Y1 Tc3 B8 Ru1'
_cell_volume   202.84009188
_cell_formula_units_Z   1
loop_
 _symmetry_equiv_pos_site_id
 _symmetry_equiv_pos_as_xyz
  1  'x, y, z'
loop_
 _atom_site_type_symbol
 _atom_site_label
 _atom_site_symmetry_multiplicity
 _atom_site_fract_x
 _atom_site_fract_y
 _atom_site_fract_z
 _atom_site_occupancy
  Dy  Dy0  1  0.512779  0.250000  0.161227  1
  Dy  Dy1  1  0.986829  0.750000  0.660926  1
  Dy  Dy2  1  0.485982  0.750000  0.838322  1
  Y  Y3  1  0.013890  0.250000  0.339235  1
  Tc  Tc4  1  0.181957  0.250000  0.815107  1
  Tc  Tc5  1  0.679713  0.250000  0.684754  1
  Tc  Tc6  1  0.819565  0.750000  0.185195  1
  B  B7  1  0.371304  0.079681  0.537927  1
  B  B8  1  0.871130  0.421433  0.962997  1
  B  B9  1  0.629680  0.580716  0.463200  1
  B  B10  1  0.129158  0.919336  0.035886  1
  B  B11  1  0.629680  0.919284  0.463200  1
  B  B12  1  0.129158  0.580664  0.035886  1
  B  B13  1  0.371304  0.420319  0.537927  1
  B  B14  1  0.871130  0.078567  0.962997  1
  Ru  Ru15  1  0.316743  0.750000  0.315218  1
