# generated using pymatgen
data_NaAc3Au5
_symmetry_space_group_name_H-M   'P 1'
_cell_length_a   8.49944378
_cell_length_b   8.49944419
_cell_length_c   8.49944392
_cell_angle_alpha   66.17104484
_cell_angle_beta   66.17104913
_cell_angle_gamma   66.17103468
_symmetry_Int_Tables_number   1
_chemical_formula_structural   NaAc3Au5
_chemical_formula_sum   'Na2 Ac6 Au10'
_cell_volume   492.05457550
_cell_formula_units_Z   2
loop_
 _symmetry_equiv_pos_site_id
 _symmetry_equiv_pos_as_xyz
  1  'x, y, z'
loop_
 _atom_site_type_symbol
 _atom_site_label
 _atom_site_symmetry_multiplicity
 _atom_site_fract_x
 _atom_site_fract_y
 _atom_site_fract_z
 _atom_site_occupancy
  Na  Na0  1  0.655357  0.655357  0.655357  1
  Na  Na1  1  0.344643  0.344643  0.344643  1
  Ac  Ac2  1  0.891394  0.196363  0.622843  1
  Ac  Ac3  1  0.622843  0.891394  0.196363  1
  Ac  Ac4  1  0.196363  0.622843  0.891394  1
  Ac  Ac5  1  0.108606  0.803637  0.377157  1
  Ac  Ac6  1  0.377157  0.108606  0.803637  1
  Ac  Ac7  1  0.803637  0.377157  0.108606  1
  Au  Au8  1  0.000000  0.000000  0.000000  1
  Au  Au9  1  0.500000  0.500000  0.500000  1
  Au  Au10  1  0.801669  0.801669  0.801669  1
  Au  Au11  1  0.198331  0.198331  0.198331  1
  Au  Au12  1  0.946303  0.546919  0.307401  1
  Au  Au13  1  0.307401  0.946303  0.546919  1
  Au  Au14  1  0.546919  0.307401  0.946303  1
  Au  Au15  1  0.053697  0.453081  0.692599  1
  Au  Au16  1  0.692599  0.053697  0.453081  1
  Au  Au17  1  0.453081  0.692599  0.053697  1
