# generated using pymatgen
data_Ba20TaRu11O48
_symmetry_space_group_name_H-M   'P 1'
_cell_length_a   5.98756800
_cell_length_b   11.02429130
_cell_length_c   20.12045400
_cell_angle_alpha   89.69685974
_cell_angle_beta   90.00000000
_cell_angle_gamma   90.00000000
_symmetry_Int_Tables_number   1
_chemical_formula_structural   Ba20TaRu11O48
_chemical_formula_sum   'Ba20 Ta1 Ru11 O48'
_cell_volume   1328.10629850
_cell_formula_units_Z   1
loop_
 _symmetry_equiv_pos_site_id
 _symmetry_equiv_pos_as_xyz
  1  'x, y, z'
loop_
 _atom_site_type_symbol
 _atom_site_label
 _atom_site_symmetry_multiplicity
 _atom_site_fract_x
 _atom_site_fract_y
 _atom_site_fract_z
 _atom_site_occupancy
  Ba  Ba0  1  0.000000  0.885562  0.971427  1
  Ba  Ba1  1  0.000000  0.387863  0.529738  1
  Ba  Ba2  1  0.500000  0.108287  0.029518  1
  Ba  Ba3  1  0.500000  0.613795  0.470631  1
  Ba  Ba4  1  0.000000  0.697851  0.755082  1
  Ba  Ba5  1  0.000000  0.198302  0.742559  1
  Ba  Ba6  1  0.500000  0.300391  0.243575  1
  Ba  Ba7  1  0.500000  0.801541  0.257000  1
  Ba  Ba8  1  0.000000  0.039675  0.178634  1
  Ba  Ba9  1  0.000000  0.547557  0.324240  1
  Ba  Ba10  1  0.500000  0.952389  0.823314  1
  Ba  Ba11  1  0.500000  0.454147  0.676377  1
  Ba  Ba12  1  0.000000  0.685017  0.131243  1
  Ba  Ba13  1  0.000000  0.184959  0.370222  1
  Ba  Ba14  1  0.500000  0.316765  0.868988  1
  Ba  Ba15  1  0.500000  0.814510  0.629831  1
  Ba  Ba16  1  0.000000  0.529842  0.922399  1
  Ba  Ba17  1  0.000000  0.023411  0.573409  1
  Ba  Ba18  1  0.500000  0.481812  0.074914  1
  Ba  Ba19  1  0.500000  0.975983  0.424289  1
  Ta  Ta20  1  0.000000  0.285978  0.056823  1
  Ru  Ru21  1  0.000000  0.378453  0.176368  1
  Ru  Ru22  1  0.000000  0.874945  0.328105  1
  Ru  Ru23  1  0.500000  0.626045  0.826987  1
  Ru  Ru24  1  0.500000  0.122931  0.672715  1
  Ru  Ru25  1  0.000000  0.193196  0.929111  1
  Ru  Ru26  1  0.000000  0.694632  0.570270  1
  Ru  Ru27  1  0.500000  0.804066  0.069343  1
  Ru  Ru28  1  0.500000  0.307005  0.431283  1
  Ru  Ru29  1  0.000000  0.785028  0.441847  1
  Ru  Ru30  1  0.500000  0.715347  0.941950  1
  Ru  Ru31  1  0.500000  0.215083  0.558069  1
  O  O32  1  0.229530  0.308281  0.983229  1
  O  O33  1  0.776099  0.805790  0.516550  1
  O  O34  1  0.726200  0.693623  0.016724  1
  O  O35  1  0.276539  0.192119  0.484372  1
  O  O36  1  0.273800  0.693623  0.016724  1
  O  O37  1  0.723461  0.192119  0.484372  1
  O  O38  1  0.770470  0.308281  0.983229  1
  O  O39  1  0.223901  0.805790  0.516550  1
  O  O40  1  0.000000  0.110276  0.025003  1
  O  O41  1  0.000000  0.614372  0.475849  1
  O  O42  1  0.500000  0.885208  0.973930  1
  O  O43  1  0.500000  0.389016  0.524391  1
  O  O44  1  0.236747  0.254411  0.126535  1
  O  O45  1  0.762264  0.756191  0.369944  1
  O  O46  1  0.739725  0.742006  0.869450  1
  O  O47  1  0.263985  0.242935  0.629585  1
  O  O48  1  0.260275  0.742006  0.869450  1
  O  O49  1  0.736015  0.242935  0.629585  1
  O  O50  1  0.763253  0.254411  0.126535  1
  O  O51  1  0.237736  0.756191  0.369944  1
  O  O52  1  0.000000  0.307260  0.858727  1
  O  O53  1  0.000000  0.808354  0.641053  1
  O  O54  1  0.500000  0.693354  0.141829  1
  O  O55  1  0.500000  0.193764  0.359917  1
  O  O56  1  0.765431  0.093748  0.898228  1
  O  O57  1  0.234066  0.594483  0.603462  1
  O  O58  1  0.265818  0.904961  0.101598  1
  O  O59  1  0.734968  0.406148  0.398258  1
  O  O60  1  0.734182  0.904961  0.101598  1
  O  O61  1  0.265032  0.406148  0.398258  1
  O  O62  1  0.234569  0.093748  0.898228  1
  O  O63  1  0.765934  0.594483  0.603462  1
  O  O64  1  0.000000  0.462727  0.077670  1
  O  O65  1  0.000000  0.962186  0.420456  1
  O  O66  1  0.500000  0.540074  0.919950  1
  O  O67  1  0.500000  0.036035  0.581153  1
  O  O68  1  0.000000  0.276153  0.253226  1
  O  O69  1  0.000000  0.781888  0.247196  1
  O  O70  1  0.500000  0.721756  0.747096  1
  O  O71  1  0.500000  0.220534  0.752085  1
  O  O72  1  0.767166  0.483994  0.205802  1
  O  O73  1  0.229069  0.981775  0.295235  1
  O  O74  1  0.271858  0.518823  0.794964  1
  O  O75  1  0.728667  0.018052  0.706170  1
  O  O76  1  0.728142  0.518823  0.794964  1
  O  O77  1  0.271333  0.018052  0.706170  1
  O  O78  1  0.232834  0.483994  0.205802  1
  O  O79  1  0.770931  0.981775  0.295235  1
