# generated using pymatgen
data_Ho14Er6Co3Bi8Os
_symmetry_space_group_name_H-M   'P 1'
_cell_length_a   7.91731682
_cell_length_b   8.89588565
_cell_length_c   12.35366535
_cell_angle_alpha   89.98014724
_cell_angle_beta   89.76777674
_cell_angle_gamma   90.03916791
_symmetry_Int_Tables_number   1
_chemical_formula_structural   Ho14Er6Co3Bi8Os
_chemical_formula_sum   'Ho14 Er6 Co3 Bi8 Os1'
_cell_volume   870.08033467
_cell_formula_units_Z   1
loop_
 _symmetry_equiv_pos_site_id
 _symmetry_equiv_pos_as_xyz
  1  'x, y, z'
loop_
 _atom_site_type_symbol
 _atom_site_label
 _atom_site_symmetry_multiplicity
 _atom_site_fract_x
 _atom_site_fract_y
 _atom_site_fract_z
 _atom_site_occupancy
  Ho  Ho0  1  0.346571  0.749898  0.700810  1
  Ho  Ho1  1  0.652561  0.250143  0.300905  1
  Ho  Ho2  1  0.847566  0.250273  0.799668  1
  Ho  Ho3  1  0.154894  0.749808  0.206581  1
  Ho  Ho4  1  0.880786  0.749589  0.805470  1
  Ho  Ho5  1  0.114693  0.250513  0.189068  1
  Ho  Ho6  1  0.385072  0.250064  0.687639  1
  Ho  Ho7  1  0.614822  0.750012  0.313547  1
  Ho  Ho8  1  0.824653  0.962475  0.063730  1
  Ho  Ho9  1  0.176423  0.042896  0.935198  1
  Ho  Ho10  1  0.053083  0.749964  0.497928  1
  Ho  Ho11  1  0.946517  0.250015  0.502581  1
  Ho  Ho12  1  0.555228  0.250408  0.003005  1
  Ho  Ho13  1  0.444054  0.749549  0.996585  1
  Er  Er14  1  0.673742  0.537102  0.563077  1
  Er  Er15  1  0.325428  0.461310  0.437019  1
  Er  Er16  1  0.175440  0.456646  0.935339  1
  Er  Er17  1  0.325416  0.038632  0.437064  1
  Er  Er18  1  0.825595  0.537808  0.063670  1
  Er  Er19  1  0.673743  0.962927  0.563021  1
  Co  Co20  1  0.930734  0.250487  0.008844  1
  Co  Co21  1  0.564278  0.249992  0.507568  1
  Co  Co22  1  0.434211  0.750037  0.492835  1
  Bi  Bi23  1  0.571451  0.508404  0.826241  1
  Bi  Bi24  1  0.430030  0.491100  0.173454  1
  Bi  Bi25  1  0.071779  0.490410  0.672028  1
  Bi  Bi26  1  0.429373  0.008949  0.173430  1
  Bi  Bi27  1  0.928001  0.508705  0.327594  1
  Bi  Bi28  1  0.572026  0.991624  0.826251  1
  Bi  Bi29  1  0.928225  0.991398  0.327677  1
  Bi  Bi30  1  0.071550  0.009538  0.671989  1
  Os  Os31  1  0.072054  0.749323  0.990182  1
