# generated using pymatgen
data_Pr12AlCoI17
_symmetry_space_group_name_H-M   'P 1'
_cell_length_a   10.10116486
_cell_length_b   12.07977558
_cell_length_c   12.02016037
_cell_angle_alpha   93.75816197
_cell_angle_beta   104.67049001
_cell_angle_gamma   114.69861351
_symmetry_Int_Tables_number   1
_chemical_formula_structural   Pr12AlCoI17
_chemical_formula_sum   'Pr12 Al1 Co1 I17'
_cell_volume   1264.33790218
_cell_formula_units_Z   1
loop_
 _symmetry_equiv_pos_site_id
 _symmetry_equiv_pos_as_xyz
  1  'x, y, z'
loop_
 _atom_site_type_symbol
 _atom_site_label
 _atom_site_symmetry_multiplicity
 _atom_site_fract_x
 _atom_site_fract_y
 _atom_site_fract_z
 _atom_site_occupancy
  Pr  Pr0  1  0.065211  0.523309  0.329071  1
  Pr  Pr1  1  0.988705  0.808111  0.581542  1
  Pr  Pr2  1  0.630151  0.237902  0.285097  1
  Pr  Pr3  1  0.014879  0.185847  0.426657  1
  Pr  Pr4  1  0.223350  0.671146  0.989680  1
  Pr  Pr5  1  0.260663  0.984153  0.894027  1
  Pr  Pr6  1  0.353155  0.758986  0.716157  1
  Pr  Pr7  1  0.944126  0.489998  0.677644  1
  Pr  Pr8  1  0.726933  0.999877  0.100172  1
  Pr  Pr9  1  0.163450  0.289347  0.147280  1
  Pr  Pr10  1  0.774729  0.335582  0.999493  1
  Pr  Pr11  1  0.852009  0.712779  0.850882  1
  Al  Al12  1  0.894743  0.261508  0.213897  1
  Co  Co13  1  0.104047  0.738269  0.785468  1
  I  I14  1  0.782178  0.526937  0.416193  1
  I  I15  1  0.635410  0.418838  0.752846  1
  I  I16  1  0.842890  0.893698  0.324821  1
  I  I17  1  0.325383  0.212255  0.371596  1
  I  I18  1  0.158146  0.104688  0.677238  1
  I  I19  1  0.588324  0.054121  0.842161  1
  I  I20  1  0.754703  0.182959  0.539405  1
  I  I21  1  0.546737  0.700069  0.951529  1
  I  I22  1  0.361269  0.582996  0.242738  1
  I  I23  1  0.217042  0.470400  0.581478  1
  I  I24  1  0.056328  0.366585  0.895825  1
  I  I25  1  0.453864  0.295598  0.044905  1
  I  I26  1  0.999777  0.001090  0.000867  1
  I  I27  1  0.250470  0.824253  0.462748  1
  I  I28  1  0.411722  0.947719  0.160701  1
  I  I29  1  0.674439  0.787538  0.631782  1
  I  I30  1  0.945167  0.633445  0.106102  1
