# generated using pymatgen
data_Sr2LuTcO6
_symmetry_space_group_name_H-M   'P 1'
_cell_length_a   5.77378667
_cell_length_b   5.80891900
_cell_length_c   8.16699521
_cell_angle_alpha   90.00000000
_cell_angle_beta   90.21707129
_cell_angle_gamma   90.00000000
_symmetry_Int_Tables_number   1
_chemical_formula_structural   Sr2LuTcO6
_chemical_formula_sum   'Sr4 Lu2 Tc2 O12'
_cell_volume   273.91463578
_cell_formula_units_Z   2
loop_
 _symmetry_equiv_pos_site_id
 _symmetry_equiv_pos_as_xyz
  1  'x, y, z'
loop_
 _atom_site_type_symbol
 _atom_site_label
 _atom_site_symmetry_multiplicity
 _atom_site_fract_x
 _atom_site_fract_y
 _atom_site_fract_z
 _atom_site_occupancy
  Sr  Sr0  1  0.006450  0.029500  0.249350  1
  Sr  Sr1  1  0.493550  0.529501  0.250649  1
  Sr  Sr2  1  0.506451  0.470499  0.749351  1
  Sr  Sr3  1  0.993550  0.970500  0.750650  1
  Lu  Lu4  1  0.499999  0.000000  0.999999  1
  Lu  Lu5  1  0.999999  0.500001  0.500000  1
  Tc  Tc6  1  0.000000  0.500001  0.000000  1
  Tc  Tc7  1  0.500000  0.000000  0.499999  1
  O  O8  1  0.269023  0.292344  0.034866  1
  O  O9  1  0.205627  0.770206  0.035809  1
  O  O10  1  0.934127  0.485849  0.237789  1
  O  O11  1  0.565874  0.985850  0.262210  1
  O  O12  1  0.294373  0.270207  0.464191  1
  O  O13  1  0.230977  0.792345  0.465134  1
  O  O14  1  0.769023  0.207655  0.534866  1
  O  O15  1  0.705627  0.729795  0.535809  1
  O  O16  1  0.434127  0.014150  0.737790  1
  O  O17  1  0.065873  0.514151  0.762211  1
  O  O18  1  0.794373  0.229794  0.964191  1
  O  O19  1  0.730977  0.707656  0.965134  1
