# generated using pymatgen
data_Tm4Mn4Fe9Ni7P12
_symmetry_space_group_name_H-M   'P 1'
_cell_length_a   3.67661500
_cell_length_b   10.26203968
_cell_length_c   11.92569981
_cell_angle_alpha   89.95806465
_cell_angle_beta   90.00000000
_cell_angle_gamma   90.00000000
_symmetry_Int_Tables_number   1
_chemical_formula_structural   Tm4Mn4Fe9Ni7P12
_chemical_formula_sum   'Tm4 Mn4 Fe9 Ni7 P12'
_cell_volume   449.95139344
_cell_formula_units_Z   1
loop_
 _symmetry_equiv_pos_site_id
 _symmetry_equiv_pos_as_xyz
  1  'x, y, z'
loop_
 _atom_site_type_symbol
 _atom_site_label
 _atom_site_symmetry_multiplicity
 _atom_site_fract_x
 _atom_site_fract_y
 _atom_site_fract_z
 _atom_site_occupancy
  Tm  Tm0  1  0.250000  0.578997  0.707796  1
  Tm  Tm1  1  0.250000  0.921175  0.207872  1
  Tm  Tm2  1  0.750000  0.421730  0.292591  1
  Tm  Tm3  1  0.750000  0.078601  0.792190  1
  Mn  Mn4  1  0.250000  0.702998  0.992621  1
  Mn  Mn5  1  0.250000  0.798913  0.490548  1
  Mn  Mn6  1  0.750000  0.296523  0.008522  1
  Mn  Mn7  1  0.750000  0.202740  0.508620  1
  Fe  Fe8  1  0.750000  0.723317  0.331350  1
  Fe  Fe9  1  0.250000  0.875073  0.701655  1
  Fe  Fe10  1  0.250000  0.624773  0.200570  1
  Fe  Fe11  1  0.750000  0.125209  0.298912  1
  Fe  Fe12  1  0.750000  0.374290  0.797756  1
  Fe  Fe13  1  0.250000  0.460717  0.931930  1
  Fe  Fe14  1  0.250000  0.039384  0.432498  1
  Fe  Fe15  1  0.750000  0.539402  0.066972  1
  Fe  Fe16  1  0.750000  0.962022  0.567153  1
  Ni  Ni17  1  0.250000  0.408603  0.484866  1
  Ni  Ni18  1  0.250000  0.092091  0.985560  1
  Ni  Ni19  1  0.750000  0.592892  0.515878  1
  Ni  Ni20  1  0.750000  0.907142  0.014241  1
  Ni  Ni21  1  0.250000  0.225200  0.170597  1
  Ni  Ni22  1  0.250000  0.274025  0.670750  1
  Ni  Ni23  1  0.750000  0.774254  0.828683  1
  P  P24  1  0.250000  0.431768  0.113184  1
  P  P25  1  0.250000  0.068247  0.613159  1
  P  P26  1  0.750000  0.568134  0.886322  1
  P  P27  1  0.750000  0.927658  0.386310  1
  P  P28  1  0.250000  0.268484  0.861247  1
  P  P29  1  0.250000  0.231451  0.361205  1
  P  P30  1  0.750000  0.730628  0.143352  1
  P  P31  1  0.750000  0.769421  0.638093  1
  P  P32  1  0.250000  0.605150  0.385857  1
  P  P33  1  0.250000  0.899042  0.887827  1
  P  P34  1  0.750000  0.400018  0.611087  1
  P  P35  1  0.750000  0.099929  0.112226  1
