# generated using pymatgen
data_DyYTiWO8
_symmetry_space_group_name_H-M   'P 1'
_cell_length_a   5.50072000
_cell_length_b   5.10357163
_cell_length_c   5.32494926
_cell_angle_alpha   82.57175643
_cell_angle_beta   90.00000000
_cell_angle_gamma   90.00000000
_symmetry_Int_Tables_number   1
_chemical_formula_structural   DyYTiWO8
_chemical_formula_sum   'Dy1 Y1 Ti1 W1 O8'
_cell_volume   148.23441829
_cell_formula_units_Z   1
loop_
 _symmetry_equiv_pos_site_id
 _symmetry_equiv_pos_as_xyz
  1  'x, y, z'
loop_
 _atom_site_type_symbol
 _atom_site_label
 _atom_site_symmetry_multiplicity
 _atom_site_fract_x
 _atom_site_fract_y
 _atom_site_fract_z
 _atom_site_occupancy
  Dy  Dy0  1  0.271734  0.500000  0.750000  1
  Y  Y1  1  0.737226  0.500000  0.250000  1
  Ti  Ti2  1  0.797350  0.000000  0.750000  1
  W  W3  1  0.174204  0.000000  0.250000  1
  O  O4  1  0.073451  0.238238  0.489293  1
  O  O5  1  0.935343  0.220000  0.005054  1
  O  O6  1  0.593276  0.254921  0.608664  1
  O  O7  1  0.407674  0.241194  0.108159  1
  O  O8  1  0.593276  0.745079  0.891336  1
  O  O9  1  0.407674  0.758806  0.391841  1
  O  O10  1  0.073451  0.761762  0.010707  1
  O  O11  1  0.935343  0.780000  0.494946  1
