# generated using pymatgen
data_Pm(BRu)2
_symmetry_space_group_name_H-M   'P 1'
_cell_length_a   5.58439468
_cell_length_b   5.58439688
_cell_length_c   5.58439584
_cell_angle_alpha   137.75572659
_cell_angle_beta   137.75573899
_cell_angle_gamma   61.27731194
_symmetry_Int_Tables_number   1
_chemical_formula_structural   Pm(BRu)2
_chemical_formula_sum   'Pm1 B2 Ru2'
_cell_volume   77.83134405
_cell_formula_units_Z   1
loop_
 _symmetry_equiv_pos_site_id
 _symmetry_equiv_pos_as_xyz
  1  'x, y, z'
loop_
 _atom_site_type_symbol
 _atom_site_label
 _atom_site_symmetry_multiplicity
 _atom_site_fract_x
 _atom_site_fract_y
 _atom_site_fract_z
 _atom_site_occupancy
  Pm  Pm0  1  0.000000  0.000000  0.000000  1
  B  B1  1  0.318001  0.318001  0.000000  1
  B  B2  1  0.681998  0.681998  0.000000  1
  Ru  Ru3  1  0.750000  0.250000  0.500000  1
  Ru  Ru4  1  0.250000  0.750000  0.500000  1
