# generated using pymatgen
data_DyLuHf2(NiAs)4
_symmetry_space_group_name_H-M   'P 1'
_cell_length_a   3.98403400
_cell_length_b   3.98403293
_cell_length_c   14.68407300
_cell_angle_alpha   90.00000000
_cell_angle_beta   90.00000000
_cell_angle_gamma   119.99999224
_symmetry_Int_Tables_number   1
_chemical_formula_structural   DyLuHf2(NiAs)4
_chemical_formula_sum   'Dy1 Lu1 Hf2 Ni4 As4'
_cell_volume   201.84739852
_cell_formula_units_Z   1
loop_
 _symmetry_equiv_pos_site_id
 _symmetry_equiv_pos_as_xyz
  1  'x, y, z'
loop_
 _atom_site_type_symbol
 _atom_site_label
 _atom_site_symmetry_multiplicity
 _atom_site_fract_x
 _atom_site_fract_y
 _atom_site_fract_z
 _atom_site_occupancy
  Dy  Dy0  1  0.000000  0.000000  0.500000  1
  Lu  Lu1  1  0.000000  0.000000  0.000000  1
  Hf  Hf2  1  0.000000  0.000000  0.248022  1
  Hf  Hf3  1  0.000000  0.000000  0.751978  1
  Ni  Ni4  1  0.333333  0.666667  0.153132  1
  Ni  Ni5  1  0.666667  0.333333  0.846868  1
  Ni  Ni6  1  0.666667  0.333333  0.658414  1
  Ni  Ni7  1  0.333333  0.666667  0.341586  1
  As  As8  1  0.333333  0.666667  0.622991  1
  As  As9  1  0.666667  0.333333  0.377009  1
  As  As10  1  0.666667  0.333333  0.118149  1
  As  As11  1  0.333333  0.666667  0.881851  1
