# generated using pymatgen
data_Y2Ho3Sc3Co15NiP12
_symmetry_space_group_name_H-M   'P 1'
_cell_length_a   12.23996100
_cell_length_b   12.23996074
_cell_length_c   3.71837400
_cell_angle_alpha   90.00000000
_cell_angle_beta   90.00000000
_cell_angle_gamma   120.00000881
_symmetry_Int_Tables_number   1
_chemical_formula_structural   Y2Ho3Sc3Co15NiP12
_chemical_formula_sum   'Y2 Ho3 Sc3 Co15 Ni1 P12'
_cell_volume   482.44045856
_cell_formula_units_Z   1
loop_
 _symmetry_equiv_pos_site_id
 _symmetry_equiv_pos_as_xyz
  1  'x, y, z'
loop_
 _atom_site_type_symbol
 _atom_site_label
 _atom_site_symmetry_multiplicity
 _atom_site_fract_x
 _atom_site_fract_y
 _atom_site_fract_z
 _atom_site_occupancy
  Y  Y0  1  0.665867  0.333367  0.000000  1
  Y  Y1  1  0.333509  0.666764  0.000000  1
  Ho  Ho2  1  0.816169  0.816384  0.500000  1
  Ho  Ho3  1  0.184213  0.999454  0.500000  1
  Ho  Ho4  1  0.000244  0.182489  0.500000  1
  Sc  Sc5  1  0.441036  0.440023  0.000000  1
  Sc  Sc6  1  0.559776  0.999847  0.000000  1
  Sc  Sc7  1  0.999580  0.559251  0.000000  1
  Co  Co8  1  0.643484  0.520541  0.500000  1
  Co  Co9  1  0.479282  0.123959  0.500000  1
  Co  Co10  1  0.354827  0.875325  0.500000  1
  Co  Co11  1  0.520657  0.645166  0.500000  1
  Co  Co12  1  0.122632  0.476482  0.500000  1
  Co  Co13  1  0.806322  0.180834  0.000000  1
  Co  Co14  1  0.821113  0.627182  0.000000  1
  Co  Co15  1  0.373471  0.194385  0.000000  1
  Co  Co16  1  0.177977  0.804178  0.000000  1
  Co  Co17  1  0.626738  0.821972  0.000000  1
  Co  Co18  1  0.196946  0.373979  0.000000  1
  Co  Co19  1  0.278300  0.278037  0.500000  1
  Co  Co20  1  0.722246  0.000951  0.500000  1
  Co  Co21  1  0.999637  0.721551  0.500000  1
  Co  Co22  1  0.000221  0.000346  0.000000  1
  Ni  Ni23  1  0.874537  0.355644  0.500000  1
  P  P24  1  0.690445  0.168592  0.500000  1
  P  P25  1  0.827838  0.525391  0.500000  1
  P  P26  1  0.477535  0.306966  0.500000  1
  P  P27  1  0.170240  0.691995  0.500000  1
  P  P28  1  0.521850  0.829547  0.500000  1
  P  P29  1  0.308652  0.478492  0.500000  1
  P  P30  1  0.179189  0.178450  0.000000  1
  P  P31  1  0.821283  0.000455  0.000000  1
  P  P32  1  0.000340  0.821805  0.000000  1
  P  P33  1  0.645141  0.646604  0.000000  1
  P  P34  1  0.354127  0.999349  0.000000  1
  P  P35  1  0.004576  0.354241  0.000000  1
