# generated using pymatgen
data_La4ErPb3
_symmetry_space_group_name_H-M   'P 1'
_cell_length_a   9.46870901
_cell_length_b   9.46870939
_cell_length_c   9.46871000
_cell_angle_alpha   96.25723291
_cell_angle_beta   96.25723316
_cell_angle_gamma   141.44544922
_symmetry_Int_Tables_number   1
_chemical_formula_structural   La4ErPb3
_chemical_formula_sum   'La8 Er2 Pb6'
_cell_volume   499.43846922
_cell_formula_units_Z   2
loop_
 _symmetry_equiv_pos_site_id
 _symmetry_equiv_pos_as_xyz
  1  'x, y, z'
loop_
 _atom_site_type_symbol
 _atom_site_label
 _atom_site_symmetry_multiplicity
 _atom_site_fract_x
 _atom_site_fract_y
 _atom_site_fract_z
 _atom_site_occupancy
  La  La0  1  0.910080  0.223758  0.133840  1
  La  La1  1  0.223756  0.089881  0.313628  1
  La  La2  1  0.776244  0.910119  0.686372  1
  La  La3  1  0.089920  0.776242  0.866160  1
  La  La4  1  0.723746  0.410119  0.133875  1
  La  La5  1  0.276254  0.589881  0.866125  1
  La  La6  1  0.589918  0.723758  0.313678  1
  La  La7  1  0.410082  0.276242  0.686322  1
  Er  Er8  1  0.750036  0.250000  0.500036  1
  Er  Er9  1  0.249964  0.750000  0.499964  1
  Pb  Pb10  1  0.750011  0.750000  0.000011  1
  Pb  Pb11  1  0.249989  0.250000  0.999989  1
  Pb  Pb12  1  0.845925  0.654033  0.500011  1
  Pb  Pb13  1  0.654022  0.154033  0.808109  1
  Pb  Pb14  1  0.345978  0.845967  0.191891  1
  Pb  Pb15  1  0.154075  0.345967  0.499989  1
