# generated using pymatgen
data_TiMn2Cr3(FeP2)2
_symmetry_space_group_name_H-M   'P 1'
_cell_length_a   3.55178700
_cell_length_b   5.84137784
_cell_length_c   6.72465429
_cell_angle_alpha   90.93138963
_cell_angle_beta   90.00000000
_cell_angle_gamma   90.00000000
_symmetry_Int_Tables_number   1
_chemical_formula_structural   TiMn2Cr3(FeP2)2
_chemical_formula_sum   'Ti1 Mn2 Cr3 Fe2 P4'
_cell_volume   139.50018724
_cell_formula_units_Z   1
loop_
 _symmetry_equiv_pos_site_id
 _symmetry_equiv_pos_as_xyz
  1  'x, y, z'
loop_
 _atom_site_type_symbol
 _atom_site_label
 _atom_site_symmetry_multiplicity
 _atom_site_fract_x
 _atom_site_fract_y
 _atom_site_fract_z
 _atom_site_occupancy
  Ti  Ti0  1  0.750000  0.972085  0.179797  1
  Mn  Mn1  1  0.250000  0.644898  0.056060  1
  Mn  Mn2  1  0.750000  0.357391  0.939376  1
  Cr  Cr3  1  0.250000  0.033310  0.822857  1
  Cr  Cr4  1  0.750000  0.473934  0.331691  1
  Cr  Cr5  1  0.250000  0.521610  0.668912  1
  Fe  Fe6  1  0.250000  0.144945  0.441067  1
  Fe  Fe7  1  0.750000  0.854650  0.561158  1
  P  P8  1  0.250000  0.272999  0.133295  1
  P  P9  1  0.750000  0.732279  0.860803  1
  P  P10  1  0.250000  0.758527  0.383566  1
  P  P11  1  0.750000  0.233373  0.621417  1
