# generated using pymatgen
data_Sc5Pa(Tc2W)6
_symmetry_space_group_name_H-M   'P 1'
_cell_length_a   4.49475700
_cell_length_b   6.37508000
_cell_length_c   13.56889200
_cell_angle_alpha   90.00000000
_cell_angle_beta   89.99962722
_cell_angle_gamma   90.00000000
_symmetry_Int_Tables_number   1
_chemical_formula_structural   Sc5Pa(Tc2W)6
_chemical_formula_sum   'Sc5 Pa1 Tc12 W6'
_cell_volume   388.80894001
_cell_formula_units_Z   1
loop_
 _symmetry_equiv_pos_site_id
 _symmetry_equiv_pos_as_xyz
  1  'x, y, z'
loop_
 _atom_site_type_symbol
 _atom_site_label
 _atom_site_symmetry_multiplicity
 _atom_site_fract_x
 _atom_site_fract_y
 _atom_site_fract_z
 _atom_site_occupancy
  Sc  Sc0  1  0.499955  0.500000  0.168483  1
  Sc  Sc1  1  0.999958  0.000000  0.337017  1
  Sc  Sc2  1  0.500004  0.500000  0.500059  1
  Sc  Sc3  1  0.000047  0.000000  0.663030  1
  Sc  Sc4  1  0.500006  0.500000  0.831436  1
  Pa  Pa5  1  0.000003  0.000000  0.000013  1
  Tc  Tc6  1  0.500004  0.244915  0.999957  1
  Tc  Tc7  1  0.500004  0.755086  0.999957  1
  Tc  Tc8  1  0.999964  0.248545  0.165969  1
  Tc  Tc9  1  0.999964  0.751454  0.165969  1
  Tc  Tc10  1  0.499961  0.249933  0.332986  1
  Tc  Tc11  1  0.499961  0.750066  0.332986  1
  Tc  Tc12  1  0.000013  0.253036  0.500034  1
  Tc  Tc13  1  0.000013  0.746963  0.500034  1
  Tc  Tc14  1  0.500056  0.249940  0.667037  1
  Tc  Tc15  1  0.500056  0.750059  0.667037  1
  Tc  Tc16  1  0.000045  0.248538  0.833989  1
  Tc  Tc17  1  0.000045  0.751461  0.833989  1
  W  W18  1  0.000004  0.500000  0.000041  1
  W  W19  1  0.499967  0.000000  0.179261  1
  W  W20  1  0.999970  0.500000  0.335037  1
  W  W21  1  0.500008  0.000000  0.499987  1
  W  W22  1  0.000050  0.500000  0.664930  1
  W  W23  1  0.500045  0.000000  0.820758  1
