# generated using pymatgen
data_SrTbEr2(NiAs)4
_symmetry_space_group_name_H-M   'P 1'
_cell_length_a   4.06729700
_cell_length_b   4.06729679
_cell_length_c   16.06439000
_cell_angle_alpha   90.00000000
_cell_angle_beta   90.00000000
_cell_angle_gamma   120.00000981
_symmetry_Int_Tables_number   1
_chemical_formula_structural   SrTbEr2(NiAs)4
_chemical_formula_sum   'Sr1 Tb1 Er2 Ni4 As4'
_cell_volume   230.14766795
_cell_formula_units_Z   1
loop_
 _symmetry_equiv_pos_site_id
 _symmetry_equiv_pos_as_xyz
  1  'x, y, z'
loop_
 _atom_site_type_symbol
 _atom_site_label
 _atom_site_symmetry_multiplicity
 _atom_site_fract_x
 _atom_site_fract_y
 _atom_site_fract_z
 _atom_site_occupancy
  Sr  Sr0  1  0.000000  0.000000  0.000000  1
  Tb  Tb1  1  0.000000  0.000000  0.500000  1
  Er  Er2  1  0.000000  0.000000  0.257575  1
  Er  Er3  1  0.000000  0.000000  0.742425  1
  Ni  Ni4  1  0.333333  0.666667  0.150139  1
  Ni  Ni5  1  0.666667  0.333333  0.849861  1
  Ni  Ni6  1  0.666667  0.333333  0.629041  1
  Ni  Ni7  1  0.333333  0.666667  0.370959  1
  As  As8  1  0.333333  0.666667  0.617604  1
  As  As9  1  0.666667  0.333333  0.382396  1
  As  As10  1  0.666667  0.333333  0.136603  1
  As  As11  1  0.333333  0.666667  0.863397  1
