# generated using pymatgen
data_Li3U(AlRh3)2
_symmetry_space_group_name_H-M   'P 1'
_cell_length_a   4.31028921
_cell_length_b   6.20008203
_cell_length_c   12.74924268
_cell_angle_alpha   90.01049845
_cell_angle_beta   90.03595654
_cell_angle_gamma   89.99884457
_symmetry_Int_Tables_number   1
_chemical_formula_structural   Li3U(AlRh3)2
_chemical_formula_sum   'Li6 U2 Al4 Rh12'
_cell_volume   340.71255852
_cell_formula_units_Z   2
loop_
 _symmetry_equiv_pos_site_id
 _symmetry_equiv_pos_as_xyz
  1  'x, y, z'
loop_
 _atom_site_type_symbol
 _atom_site_label
 _atom_site_symmetry_multiplicity
 _atom_site_fract_x
 _atom_site_fract_y
 _atom_site_fract_z
 _atom_site_occupancy
  Li  Li0  1  0.000157  0.499897  0.996832  1
  Li  Li1  1  0.499635  0.000093  0.169929  1
  Li  Li2  1  0.999678  0.499903  0.345985  1
  Li  Li3  1  0.499964  0.000087  0.502547  1
  Li  Li4  1  0.000246  0.499916  0.664131  1
  Li  Li5  1  0.500283  0.000102  0.820591  1
  U  U6  1  0.000436  0.000049  0.988343  1
  U  U7  1  0.499389  0.499939  0.178269  1
  Al  Al8  1  0.999666  0.000104  0.349312  1
  Al  Al9  1  0.499980  0.499891  0.507621  1
  Al  Al10  1  0.000265  0.000109  0.659057  1
  Al  Al11  1  0.500332  0.499897  0.817337  1
  Rh  Rh12  1  0.500460  0.268182  0.993291  1
  Rh  Rh13  1  0.500391  0.731967  0.993363  1
  Rh  Rh14  1  0.999374  0.232148  0.173417  1
  Rh  Rh15  1  0.999437  0.767681  0.173327  1
  Rh  Rh16  1  0.499581  0.250933  0.335579  1
  Rh  Rh17  1  0.499592  0.749087  0.335557  1
  Rh  Rh18  1  0.999932  0.254961  0.501571  1
  Rh  Rh19  1  0.999923  0.745034  0.501573  1
  Rh  Rh20  1  0.500248  0.245020  0.665141  1
  Rh  Rh21  1  0.500255  0.754993  0.665141  1
  Rh  Rh22  1  0.000393  0.249280  0.831029  1
  Rh  Rh23  1  0.000385  0.750733  0.831054  1
