# generated using pymatgen
data_GdDyI6
_symmetry_space_group_name_H-M   'P 1'
_cell_length_a   8.77383468
_cell_length_b   8.77383541
_cell_length_c   8.77383530
_cell_angle_alpha   52.43524466
_cell_angle_beta   52.43524012
_cell_angle_gamma   52.43524869
_symmetry_Int_Tables_number   1
_chemical_formula_structural   GdDyI6
_chemical_formula_sum   'Gd1 Dy1 I6'
_cell_volume   392.75665363
_cell_formula_units_Z   1
loop_
 _symmetry_equiv_pos_site_id
 _symmetry_equiv_pos_as_xyz
  1  'x, y, z'
loop_
 _atom_site_type_symbol
 _atom_site_label
 _atom_site_symmetry_multiplicity
 _atom_site_fract_x
 _atom_site_fract_y
 _atom_site_fract_z
 _atom_site_occupancy
  Gd  Gd0  1  0.166459  0.166459  0.166459  1
  Dy  Dy1  1  0.833475  0.833475  0.833475  1
  I  I2  1  0.219425  0.580975  0.932992  1
  I  I3  1  0.932992  0.219425  0.580975  1
  I  I4  1  0.580975  0.932992  0.219425  1
  I  I5  1  0.776793  0.425611  0.064269  1
  I  I6  1  0.064269  0.776793  0.425611  1
  I  I7  1  0.425611  0.064269  0.776793  1
