# generated using pymatgen
data_RbCr3Se5
_symmetry_space_group_name_H-M   'P 1'
_cell_length_a   10.40178787
_cell_length_b   10.40178891
_cell_length_c   12.89670701
_cell_angle_alpha   57.60302920
_cell_angle_beta   57.60302563
_cell_angle_gamma   20.77897609
_symmetry_Int_Tables_number   1
_chemical_formula_structural   RbCr3Se5
_chemical_formula_sum   'Rb2 Cr6 Se10'
_cell_volume   415.14597829
_cell_formula_units_Z   2
loop_
 _symmetry_equiv_pos_site_id
 _symmetry_equiv_pos_as_xyz
  1  'x, y, z'
loop_
 _atom_site_type_symbol
 _atom_site_label
 _atom_site_symmetry_multiplicity
 _atom_site_fract_x
 _atom_site_fract_y
 _atom_site_fract_z
 _atom_site_occupancy
  Rb  Rb0  1  0.745681  0.745681  0.166393  1
  Rb  Rb1  1  0.254319  0.254319  0.833607  1
  Cr  Cr2  1  0.015545  0.015545  0.230071  1
  Cr  Cr3  1  0.164387  0.164387  0.611038  1
  Cr  Cr4  1  0.500000  0.500000  0.000000  1
  Cr  Cr5  1  0.984455  0.984455  0.769929  1
  Cr  Cr6  1  0.835613  0.835613  0.388962  1
  Cr  Cr7  1  0.500000  0.500000  0.500000  1
  Se  Se8  1  0.591547  0.591547  0.081544  1
  Se  Se9  1  0.575293  0.575293  0.607398  1
  Se  Se10  1  0.925263  0.925263  0.150977  1
  Se  Se11  1  0.424707  0.424707  0.392602  1
  Se  Se12  1  0.080110  0.080110  0.349077  1
  Se  Se13  1  0.074737  0.074737  0.849023  1
  Se  Se14  1  0.743801  0.743801  0.616837  1
  Se  Se15  1  0.408453  0.408453  0.918456  1
  Se  Se16  1  0.256199  0.256199  0.383163  1
  Se  Se17  1  0.919890  0.919890  0.650923  1
