# generated using pymatgen
data_Nd5Ag2Ru
_symmetry_space_group_name_H-M   'P 1'
_cell_length_a   8.55807300
_cell_length_b   8.69855400
_cell_length_c   12.26905200
_cell_angle_alpha   90.00000000
_cell_angle_beta   90.00000000
_cell_angle_gamma   90.00000000
_symmetry_Int_Tables_number   1
_chemical_formula_structural   Nd5Ag2Ru
_chemical_formula_sum   'Nd20 Ag8 Ru4'
_cell_volume   913.34332192
_cell_formula_units_Z   4
loop_
 _symmetry_equiv_pos_site_id
 _symmetry_equiv_pos_as_xyz
  1  'x, y, z'
loop_
 _atom_site_type_symbol
 _atom_site_label
 _atom_site_symmetry_multiplicity
 _atom_site_fract_x
 _atom_site_fract_y
 _atom_site_fract_z
 _atom_site_occupancy
  Nd  Nd0  1  0.646628  0.750000  0.718703  1
  Nd  Nd1  1  0.353372  0.250000  0.281297  1
  Nd  Nd2  1  0.146628  0.250000  0.781297  1
  Nd  Nd3  1  0.853372  0.750000  0.218703  1
  Nd  Nd4  1  0.100621  0.750000  0.797153  1
  Nd  Nd5  1  0.899379  0.250000  0.202847  1
  Nd  Nd6  1  0.600621  0.250000  0.702847  1
  Nd  Nd7  1  0.399379  0.750000  0.297153  1
  Nd  Nd8  1  0.558400  0.750000  0.011335  1
  Nd  Nd9  1  0.441600  0.250000  0.988665  1
  Nd  Nd10  1  0.058400  0.250000  0.488665  1
  Nd  Nd11  1  0.941600  0.750000  0.511335  1
  Nd  Nd12  1  0.821213  0.458193  0.929532  1
  Nd  Nd13  1  0.178787  0.541807  0.070468  1
  Nd  Nd14  1  0.321213  0.541807  0.570468  1
  Nd  Nd15  1  0.178787  0.958193  0.070468  1
  Nd  Nd16  1  0.678787  0.458193  0.429532  1
  Nd  Nd17  1  0.821213  0.041807  0.929532  1
  Nd  Nd18  1  0.678787  0.041807  0.429532  1
  Nd  Nd19  1  0.321213  0.958193  0.570468  1
  Ag  Ag20  1  0.908523  0.029517  0.666502  1
  Ag  Ag21  1  0.091477  0.970483  0.333498  1
  Ag  Ag22  1  0.408523  0.970483  0.833498  1
  Ag  Ag23  1  0.091477  0.529517  0.333498  1
  Ag  Ag24  1  0.591477  0.029517  0.166502  1
  Ag  Ag25  1  0.908523  0.470483  0.666502  1
  Ag  Ag26  1  0.591477  0.470483  0.166502  1
  Ag  Ag27  1  0.408523  0.529517  0.833498  1
  Ru  Ru28  1  0.929795  0.750000  0.992052  1
  Ru  Ru29  1  0.070205  0.250000  0.007948  1
  Ru  Ru30  1  0.429795  0.250000  0.507948  1
  Ru  Ru31  1  0.570205  0.750000  0.492052  1
