# generated using pymatgen
data_Sc2Co10Re2P7
_symmetry_space_group_name_H-M   'P 1'
_cell_length_a   8.89929817
_cell_length_b   8.97942800
_cell_length_c   3.63660000
_cell_angle_alpha   90.00000000
_cell_angle_beta   90.00000000
_cell_angle_gamma   119.58468518
_symmetry_Int_Tables_number   1
_chemical_formula_structural   Sc2Co10Re2P7
_chemical_formula_sum   'Sc2 Co10 Re2 P7'
_cell_volume   252.71611902
_cell_formula_units_Z   1
loop_
 _symmetry_equiv_pos_site_id
 _symmetry_equiv_pos_as_xyz
  1  'x, y, z'
loop_
 _atom_site_type_symbol
 _atom_site_label
 _atom_site_symmetry_multiplicity
 _atom_site_fract_x
 _atom_site_fract_y
 _atom_site_fract_z
 _atom_site_occupancy
  Sc  Sc0  1  0.667326  0.334067  0.500000  1
  Sc  Sc1  1  0.339147  0.669166  0.000000  1
  Co  Co2  1  0.721033  0.879246  0.000000  1
  Co  Co3  1  0.936855  0.372941  0.000000  1
  Co  Co4  1  0.162330  0.285797  0.000000  1
  Co  Co5  1  0.386193  0.440275  0.500000  1
  Co  Co6  1  0.119105  0.837659  0.000000  1
  Co  Co7  1  0.434896  0.063803  0.000000  1
  Co  Co8  1  0.051631  0.614264  0.500000  1
  Co  Co9  1  0.561162  0.945203  0.500000  1
  Co  Co10  1  0.625459  0.563202  0.000000  1
  Co  Co11  1  0.863410  0.759229  0.500000  1
  Re  Re12  1  0.216578  0.099305  0.500000  1
  Re  Re13  1  0.909051  0.131248  0.500000  1
  P  P14  1  0.417597  0.299910  0.000000  1
  P  P15  1  0.289027  0.877499  0.500000  1
  P  P16  1  0.701575  0.116659  0.000000  1
  P  P17  1  0.592048  0.709225  0.500000  1
  P  P18  1  0.881823  0.586507  0.000000  1
  P  P19  1  0.124546  0.418600  0.500000  1
  P  P20  1  0.999208  0.996194  0.000000  1
