# generated using pymatgen
data_Tb11Ho9Si15Tc
_symmetry_space_group_name_H-M   'P 1'
_cell_length_a   7.38092311
_cell_length_b   7.74985595
_cell_length_c   14.56935200
_cell_angle_alpha   90.03166483
_cell_angle_beta   90.06742670
_cell_angle_gamma   90.08612238
_symmetry_Int_Tables_number   1
_chemical_formula_structural   Tb11Ho9Si15Tc
_chemical_formula_sum   'Tb11 Ho9 Si15 Tc1'
_cell_volume   833.38118088
_cell_formula_units_Z   1
loop_
 _symmetry_equiv_pos_site_id
 _symmetry_equiv_pos_as_xyz
  1  'x, y, z'
loop_
 _atom_site_type_symbol
 _atom_site_label
 _atom_site_symmetry_multiplicity
 _atom_site_fract_x
 _atom_site_fract_y
 _atom_site_fract_z
 _atom_site_occupancy
  Tb  Tb0  1  0.817116  0.678182  0.123460  1
  Tb  Tb1  1  0.671458  0.185205  0.874969  1
  Tb  Tb2  1  0.192126  0.324657  0.626573  1
  Tb  Tb3  1  0.522480  0.673875  0.596152  1
  Tb  Tb4  1  0.025892  0.817076  0.903231  1
  Tb  Tb5  1  0.472864  0.316139  0.097830  1
  Tb  Tb6  1  0.974424  0.182873  0.402499  1
  Tb  Tb7  1  0.473883  0.316163  0.402578  1
  Tb  Tb8  1  0.974092  0.182876  0.097518  1
  Tb  Tb9  1  0.521503  0.673553  0.903545  1
  Tb  Tb10  1  0.025871  0.816586  0.596567  1
  Ho  Ho11  1  0.672269  0.184617  0.624873  1
  Ho  Ho12  1  0.192036  0.324831  0.873253  1
  Ho  Ho13  1  0.318565  0.819433  0.124183  1
  Ho  Ho14  1  0.817773  0.678211  0.376401  1
  Ho  Ho15  1  0.318717  0.819729  0.376005  1
  Ho  Ho16  1  0.841168  0.512413  0.749821  1
  Ho  Ho17  1  0.354415  0.986252  0.750057  1
  Ho  Ho18  1  0.150607  0.484790  0.250027  1
  Ho  Ho19  1  0.650223  0.013922  0.250065  1
  Si  Si20  1  0.646762  0.970553  0.460353  1
  Si  Si21  1  0.150374  0.528810  0.039480  1
  Si  Si22  1  0.347286  0.025414  0.961489  1
  Si  Si23  1  0.855152  0.471405  0.538558  1
  Si  Si24  1  0.349966  0.024663  0.538838  1
  Si  Si25  1  0.858584  0.471069  0.960392  1
  Si  Si26  1  0.644657  0.971018  0.040072  1
  Si  Si27  1  0.148578  0.529682  0.459822  1
  Si  Si28  1  0.979202  0.101216  0.749711  1
  Si  Si29  1  0.522578  0.604873  0.250523  1
  Si  Si30  1  0.020802  0.894300  0.250494  1
  Si  Si31  1  0.740669  0.875657  0.749568  1
  Si  Si32  1  0.230266  0.633513  0.750628  1
  Si  Si33  1  0.267676  0.127854  0.250091  1
  Si  Si34  1  0.769279  0.371921  0.250438  1
  Tc  Tc35  1  0.480686  0.406663  0.749936  1
