# generated using pymatgen
data_Ta6Re5Si6Mo
_symmetry_space_group_name_H-M   'P 1'
_cell_length_a   7.58337705
_cell_length_b   7.59050486
_cell_length_c   7.59050565
_cell_angle_alpha   126.96400026
_cell_angle_beta   125.63194847
_cell_angle_gamma   79.42545937
_symmetry_Int_Tables_number   1
_chemical_formula_structural   Ta6Re5Si6Mo
_chemical_formula_sum   'Ta6 Re5 Si6 Mo1'
_cell_volume   274.22704840
_cell_formula_units_Z   1
loop_
 _symmetry_equiv_pos_site_id
 _symmetry_equiv_pos_as_xyz
  1  'x, y, z'
loop_
 _atom_site_type_symbol
 _atom_site_label
 _atom_site_symmetry_multiplicity
 _atom_site_fract_x
 _atom_site_fract_y
 _atom_site_fract_z
 _atom_site_occupancy
  Ta  Ta0  1  0.556093  0.097472  0.040590  1
  Ta  Ta1  1  0.443907  0.484497  0.541380  1
  Ta  Ta2  1  0.959205  0.498004  0.037329  1
  Ta  Ta3  1  0.040795  0.078124  0.538799  1
  Ta  Ta4  1  0.753157  0.910561  0.656065  1
  Ta  Ta5  1  0.246843  0.902908  0.157404  1
  Re  Re6  1  0.000000  0.244353  0.244353  1
  Re  Re7  1  0.157826  0.750972  0.654121  1
  Re  Re8  1  0.842174  0.496294  0.593146  1
  Re  Re9  1  0.595755  0.752544  0.092099  1
  Re  Re10  1  0.404245  0.496344  0.156789  1
  Si  Si11  1  0.772400  0.530691  0.257658  1
  Si  Si12  1  0.227600  0.485258  0.758292  1
  Si  Si13  1  0.335550  0.823332  0.496336  1
  Si  Si14  1  0.664450  0.160786  0.487782  1
  Si  Si15  1  0.827915  0.825176  0.989259  1
  Si  Si16  1  0.172085  0.161345  0.997262  1
  Mo  Mo17  1  0.500000  0.243535  0.743535  1
