# generated using pymatgen
data_YNp5(Ni3Sb4)2
_symmetry_space_group_name_H-M   'P 1'
_cell_length_a   8.20615691
_cell_length_b   8.19897278
_cell_length_c   8.21369745
_cell_angle_alpha   109.51372855
_cell_angle_beta   109.45507318
_cell_angle_gamma   109.46697334
_symmetry_Int_Tables_number   1
_chemical_formula_structural   YNp5(Ni3Sb4)2
_chemical_formula_sum   'Y1 Np5 Ni6 Sb8'
_cell_volume   425.30197391
_cell_formula_units_Z   1
loop_
 _symmetry_equiv_pos_site_id
 _symmetry_equiv_pos_as_xyz
  1  'x, y, z'
loop_
 _atom_site_type_symbol
 _atom_site_label
 _atom_site_symmetry_multiplicity
 _atom_site_fract_x
 _atom_site_fract_y
 _atom_site_fract_z
 _atom_site_occupancy
  Y  Y0  1  0.875646  0.250800  0.125818  1
  Np  Np1  1  0.623755  0.746783  0.374991  1
  Np  Np2  1  0.252283  0.125423  0.877018  1
  Np  Np3  1  0.751949  0.374255  0.626417  1
  Np  Np4  1  0.122989  0.871897  0.247897  1
  Np  Np5  1  0.376604  0.626549  0.751406  1
  Ni  Ni6  1  0.375416  0.249879  0.626351  1
  Ni  Ni7  1  0.124905  0.750286  0.875825  1
  Ni  Ni8  1  0.254563  0.628502  0.375813  1
  Ni  Ni9  1  0.748219  0.871258  0.124775  1
  Ni  Ni10  1  0.622765  0.377405  0.249215  1
  Ni  Ni11  1  0.873859  0.123730  0.746067  1
  Sb  Sb12  1  0.661619  0.501720  0.998517  1
  Sb  Sb13  1  0.498384  0.000458  0.661530  1
  Sb  Sb14  1  0.999532  0.661166  0.498956  1
  Sb  Sb15  1  0.837262  0.840361  0.838179  1
  Sb  Sb16  1  0.500955  0.001334  0.162254  1
  Sb  Sb17  1  0.161007  0.500095  0.000228  1
  Sb  Sb18  1  0.000139  0.161114  0.500731  1
  Sb  Sb19  1  0.338150  0.336986  0.338013  1
