# generated using pymatgen
data_TmPa3(AlTc)4
_symmetry_space_group_name_H-M   'P 1'
_cell_length_a   3.91609700
_cell_length_b   6.95633204
_cell_length_c   8.40747044
_cell_angle_alpha   89.48840629
_cell_angle_beta   90.00000000
_cell_angle_gamma   90.00000000
_symmetry_Int_Tables_number   1
_chemical_formula_structural   TmPa3(AlTc)4
_chemical_formula_sum   'Tm1 Pa3 Al4 Tc4'
_cell_volume   229.02441390
_cell_formula_units_Z   1
loop_
 _symmetry_equiv_pos_site_id
 _symmetry_equiv_pos_as_xyz
  1  'x, y, z'
loop_
 _atom_site_type_symbol
 _atom_site_label
 _atom_site_symmetry_multiplicity
 _atom_site_fract_x
 _atom_site_fract_y
 _atom_site_fract_z
 _atom_site_occupancy
  Tm  Tm0  1  0.750000  0.040153  0.683146  1
  Pa  Pa1  1  0.250000  0.967711  0.317552  1
  Pa  Pa2  1  0.750000  0.533957  0.808507  1
  Pa  Pa3  1  0.250000  0.470702  0.184843  1
  Al  Al4  1  0.750000  0.629077  0.446977  1
  Al  Al5  1  0.750000  0.133498  0.051749  1
  Al  Al6  1  0.250000  0.355540  0.554879  1
  Al  Al7  1  0.250000  0.873473  0.940622  1
  Tc  Tc8  1  0.750000  0.749860  0.141156  1
  Tc  Tc9  1  0.750000  0.245204  0.356111  1
  Tc  Tc10  1  0.250000  0.268990  0.876243  1
  Tc  Tc11  1  0.250000  0.731832  0.638216  1
