# generated using pymatgen
data_CaTa2Nb3(B2Ru5)2
_symmetry_space_group_name_H-M   'P 1'
_cell_length_a   9.53987209
_cell_length_b   9.53987080
_cell_length_c   3.04262500
_cell_angle_alpha   90.00000000
_cell_angle_beta   90.00000000
_cell_angle_gamma   90.42320579
_symmetry_Int_Tables_number   1
_chemical_formula_structural   CaTa2Nb3(B2Ru5)2
_chemical_formula_sum   'Ca1 Ta2 Nb3 B4 Ru10'
_cell_volume   276.89915264
_cell_formula_units_Z   1
loop_
 _symmetry_equiv_pos_site_id
 _symmetry_equiv_pos_as_xyz
  1  'x, y, z'
loop_
 _atom_site_type_symbol
 _atom_site_label
 _atom_site_symmetry_multiplicity
 _atom_site_fract_x
 _atom_site_fract_y
 _atom_site_fract_z
 _atom_site_occupancy
  Ca  Ca0  1  0.824504  0.675496  0.000000  1
  Ta  Ta1  1  0.503908  0.501745  0.000000  1
  Ta  Ta2  1  0.998255  0.996092  0.000000  1
  Nb  Nb3  1  0.177888  0.322112  0.000000  1
  Nb  Nb4  1  0.324785  0.824170  0.000000  1
  Nb  Nb5  1  0.675830  0.175215  0.000000  1
  B  B6  1  0.618946  0.881054  0.000000  1
  B  B7  1  0.376606  0.123394  0.000000  1
  B  B8  1  0.123377  0.618560  0.000000  1
  B  B9  1  0.881440  0.376623  0.000000  1
  Ru  Ru10  1  0.554347  0.726719  0.500000  1
  Ru  Ru11  1  0.426543  0.283846  0.500000  1
  Ru  Ru12  1  0.085459  0.782929  0.500000  1
  Ru  Ru13  1  0.931114  0.214948  0.500000  1
  Ru  Ru14  1  0.285052  0.568886  0.500000  1
  Ru  Ru15  1  0.717071  0.414541  0.500000  1
  Ru  Ru16  1  0.216154  0.073457  0.500000  1
  Ru  Ru17  1  0.773281  0.945653  0.500000  1
  Ru  Ru18  1  0.494916  0.005084  0.500000  1
  Ru  Ru19  1  0.010528  0.489472  0.500000  1
