# generated using pymatgen
data_Na6ScGaAs4
_symmetry_space_group_name_H-M   'P 1'
_cell_length_a   8.46656574
_cell_length_b   8.46656562
_cell_length_c   8.46656651
_cell_angle_alpha   130.93662938
_cell_angle_beta   67.33623693
_cell_angle_gamma   136.89466318
_symmetry_Int_Tables_number   1
_chemical_formula_structural   Na6ScGaAs4
_chemical_formula_sum   'Na6 Sc1 Ga1 As4'
_cell_volume   308.16509899
_cell_formula_units_Z   1
loop_
 _symmetry_equiv_pos_site_id
 _symmetry_equiv_pos_as_xyz
  1  'x, y, z'
loop_
 _atom_site_type_symbol
 _atom_site_label
 _atom_site_symmetry_multiplicity
 _atom_site_fract_x
 _atom_site_fract_y
 _atom_site_fract_z
 _atom_site_occupancy
  Na  Na0  1  0.807209  0.185014  0.000547  1
  Na  Na1  1  0.692789  0.693336  0.377805  1
  Na  Na2  1  0.750000  0.250000  0.500000  1
  Na  Na3  1  0.250000  0.750000  0.500000  1
  Na  Na4  1  0.315532  0.314985  0.622195  1
  Na  Na5  1  0.184468  0.806663  0.999453  1
  Sc  Sc6  1  0.250000  0.250000  0.000000  1
  Ga  Ga7  1  0.750001  0.750001  0.000000  1
  As  As8  1  0.402406  0.717675  0.100351  1
  As  As9  1  0.097594  0.197945  0.315270  1
  As  As10  1  0.882675  0.782324  0.684731  1
  As  As11  1  0.617325  0.302055  0.899649  1
