# generated using pymatgen
data_Zr9Nb11Ge16
_symmetry_space_group_name_H-M   'P 1'
_cell_length_a   6.87918272
_cell_length_b   6.99629908
_cell_length_c   13.43191275
_cell_angle_alpha   89.93426248
_cell_angle_beta   89.94514858
_cell_angle_gamma   89.87798468
_symmetry_Int_Tables_number   1
_chemical_formula_structural   Zr9Nb11Ge16
_chemical_formula_sum   'Zr9 Nb11 Ge16'
_cell_volume   646.45992116
_cell_formula_units_Z   1
loop_
 _symmetry_equiv_pos_site_id
 _symmetry_equiv_pos_as_xyz
  1  'x, y, z'
loop_
 _atom_site_type_symbol
 _atom_site_label
 _atom_site_symmetry_multiplicity
 _atom_site_fract_x
 _atom_site_fract_y
 _atom_site_fract_z
 _atom_site_occupancy
  Zr  Zr0  1  0.011978  0.324490  0.908084  1
  Zr  Zr1  1  0.510780  0.176308  0.591839  1
  Zr  Zr2  1  0.489196  0.824325  0.092429  1
  Zr  Zr3  1  0.987920  0.675850  0.407849  1
  Zr  Zr4  1  0.012106  0.325004  0.591069  1
  Zr  Zr5  1  0.510546  0.177329  0.907991  1
  Zr  Zr6  1  0.488459  0.824717  0.408089  1
  Zr  Zr7  1  0.988657  0.673814  0.094164  1
  Zr  Zr8  1  0.843500  0.831869  0.876418  1
  Nb  Nb9  1  0.344694  0.665912  0.623396  1
  Nb  Nb10  1  0.654738  0.334086  0.127079  1
  Nb  Nb11  1  0.155673  0.166767  0.375326  1
  Nb  Nb12  1  0.157446  0.166833  0.125294  1
  Nb  Nb13  1  0.655623  0.334107  0.375316  1
  Nb  Nb14  1  0.343445  0.666594  0.874499  1
  Nb  Nb15  1  0.845207  0.832415  0.623704  1
  Nb  Nb16  1  0.169281  0.992153  0.747563  1
  Nb  Nb17  1  0.667247  0.508106  0.747830  1
  Nb  Nb18  1  0.331633  0.490938  0.250228  1
  Nb  Nb19  1  0.831315  0.009696  0.251136  1
  Ge  Ge20  1  0.681179  0.534414  0.962419  1
  Ge  Ge21  1  0.183868  0.960048  0.538601  1
  Ge  Ge22  1  0.815718  0.041437  0.042353  1
  Ge  Ge23  1  0.315788  0.459932  0.460043  1
  Ge  Ge24  1  0.316576  0.460829  0.039392  1
  Ge  Ge25  1  0.816199  0.040082  0.460698  1
  Ge  Ge26  1  0.189113  0.961592  0.961543  1
  Ge  Ge27  1  0.683426  0.539859  0.538623  1
  Ge  Ge28  1  0.310323  0.351087  0.749662  1
  Ge  Ge29  1  0.810315  0.150188  0.749200  1
  Ge  Ge30  1  0.189505  0.851380  0.250157  1
  Ge  Ge31  1  0.688915  0.649653  0.250418  1
  Ge  Ge32  1  0.044258  0.611501  0.748179  1
  Ge  Ge33  1  0.541026  0.887510  0.748160  1
  Ge  Ge34  1  0.457055  0.112371  0.250759  1
  Ge  Ge35  1  0.957292  0.386802  0.250490  1
