# generated using pymatgen
data_Ce3MnPt4F28
_symmetry_space_group_name_H-M   'P 1'
_cell_length_a   5.63965880
_cell_length_b   9.00912350
_cell_length_c   12.13273190
_cell_angle_alpha   62.68051474
_cell_angle_beta   90.35123027
_cell_angle_gamma   89.82627280
_symmetry_Int_Tables_number   1
_chemical_formula_structural   Ce3MnPt4F28
_chemical_formula_sum   'Ce3 Mn1 Pt4 F28'
_cell_volume   547.66486381
_cell_formula_units_Z   1
loop_
 _symmetry_equiv_pos_site_id
 _symmetry_equiv_pos_as_xyz
  1  'x, y, z'
loop_
 _atom_site_type_symbol
 _atom_site_label
 _atom_site_symmetry_multiplicity
 _atom_site_fract_x
 _atom_site_fract_y
 _atom_site_fract_z
 _atom_site_occupancy
  Ce  Ce0  1  0.262544  0.178834  0.735251  1
  Ce  Ce1  1  0.241545  0.191595  0.234605  1
  Ce  Ce2  1  0.741997  0.806351  0.265680  1
  Mn  Mn3  1  0.766048  0.813256  0.759267  1
  Pt  Pt4  1  0.756711  0.276865  0.955075  1
  Pt  Pt5  1  0.261962  0.728865  0.548879  1
  Pt  Pt6  1  0.238229  0.727086  0.039037  1
  Pt  Pt7  1  0.745822  0.270057  0.458382  1
  F  F8  1  0.429798  0.701634  0.916677  1
  F  F9  1  0.940990  0.295425  0.584755  1
  F  F10  1  0.559575  0.294485  0.083772  1
  F  F11  1  0.061144  0.708637  0.420576  1
  F  F12  1  0.446780  0.279057  0.541881  1
  F  F13  1  0.946583  0.721541  0.952418  1
  F  F14  1  0.551506  0.722553  0.457653  1
  F  F15  1  0.052743  0.281995  0.043246  1
  F  F16  1  0.765347  0.520520  0.857181  1
  F  F17  1  0.272859  0.482399  0.643775  1
  F  F18  1  0.226016  0.482174  0.138123  1
  F  F19  1  0.731884  0.517729  0.360593  1
  F  F20  1  0.756533  0.029012  0.052467  1
  F  F21  1  0.259751  0.974836  0.451212  1
  F  F22  1  0.243769  0.971860  0.950623  1
  F  F23  1  0.749811  0.027210  0.547034  1
  F  F24  1  0.977273  0.729304  0.640853  1
  F  F25  1  0.468118  0.270651  0.863597  1
  F  F26  1  0.036644  0.273227  0.364486  1
  F  F27  1  0.527420  0.725443  0.134962  1
  F  F28  1  0.051073  0.745162  0.171918  1
  F  F29  1  0.555592  0.254599  0.325299  1
  F  F30  1  0.950236  0.256053  0.826776  1
  F  F31  1  0.459279  0.747918  0.675991  1
  F  F32  1  0.404258  0.965681  0.231734  1
  F  F33  1  0.908305  0.033737  0.268167  1
  F  F34  1  0.578603  0.021460  0.764981  1
  F  F35  1  0.073251  0.972791  0.733078  1
