# generated using pymatgen
data_Ce12BeSi5Ru6
_symmetry_space_group_name_H-M   'P 1'
_cell_length_a   7.65266600
_cell_length_b   7.65266449
_cell_length_c   9.68618200
_cell_angle_alpha   90.00000000
_cell_angle_beta   90.00000000
_cell_angle_gamma   119.99999787
_symmetry_Int_Tables_number   1
_chemical_formula_structural   Ce12BeSi5Ru6
_chemical_formula_sum   'Ce12 Be1 Si5 Ru6'
_cell_volume   491.25693978
_cell_formula_units_Z   1
loop_
 _symmetry_equiv_pos_site_id
 _symmetry_equiv_pos_as_xyz
  1  'x, y, z'
loop_
 _atom_site_type_symbol
 _atom_site_label
 _atom_site_symmetry_multiplicity
 _atom_site_fract_x
 _atom_site_fract_y
 _atom_site_fract_z
 _atom_site_occupancy
  Ce  Ce0  1  0.000000  0.592916  0.502990  1
  Ce  Ce1  1  0.592916  0.000000  0.502990  1
  Ce  Ce2  1  0.407084  0.407084  0.502990  1
  Ce  Ce3  1  0.000000  0.405144  0.004455  1
  Ce  Ce4  1  0.405144  0.000000  0.004455  1
  Ce  Ce5  1  0.594856  0.594856  0.004455  1
  Ce  Ce6  1  0.000000  0.736222  0.171258  1
  Ce  Ce7  1  0.736222  0.000000  0.171258  1
  Ce  Ce8  1  0.263778  0.263778  0.171258  1
  Ce  Ce9  1  0.000000  0.255902  0.677445  1
  Ce  Ce10  1  0.255902  0.000000  0.677445  1
  Ce  Ce11  1  0.744098  0.744098  0.677445  1
  Be  Be12  1  0.000000  0.000000  0.919160  1
  Si  Si13  1  0.666667  0.333333  0.273887  1
  Si  Si14  1  0.333333  0.666667  0.273887  1
  Si  Si15  1  0.333333  0.666667  0.770513  1
  Si  Si16  1  0.666667  0.333333  0.770513  1
  Si  Si17  1  0.000000  0.000000  0.417779  1
  Ru  Ru18  1  0.000000  0.340496  0.339738  1
  Ru  Ru19  1  0.340496  0.000000  0.339738  1
  Ru  Ru20  1  0.659504  0.659504  0.339738  1
  Ru  Ru21  1  0.000000  0.654457  0.838618  1
  Ru  Ru22  1  0.654457  0.000000  0.838618  1
  Ru  Ru23  1  0.345543  0.345543  0.838618  1
