# generated using pymatgen
data_Ho6C2I11
_symmetry_space_group_name_H-M   'P 1'
_cell_length_a   9.57849160
_cell_length_b   10.87208303
_cell_length_c   15.17598757
_cell_angle_alpha   90.88268787
_cell_angle_beta   104.27836766
_cell_angle_gamma   110.01618990
_symmetry_Int_Tables_number   1
_chemical_formula_structural   Ho6C2I11
_chemical_formula_sum   'Ho12 C4 I22'
_cell_volume   1430.39179654
_cell_formula_units_Z   2
loop_
 _symmetry_equiv_pos_site_id
 _symmetry_equiv_pos_as_xyz
  1  'x, y, z'
loop_
 _atom_site_type_symbol
 _atom_site_label
 _atom_site_symmetry_multiplicity
 _atom_site_fract_x
 _atom_site_fract_y
 _atom_site_fract_z
 _atom_site_occupancy
  Ho  Ho0  1  0.386261  0.479494  0.119905  1
  Ho  Ho1  1  0.613739  0.520506  0.880095  1
  Ho  Ho2  1  0.428754  0.780154  0.266459  1
  Ho  Ho3  1  0.571246  0.219846  0.733541  1
  Ho  Ho4  1  0.626803  0.585028  0.358387  1
  Ho  Ho5  1  0.373197  0.414972  0.641613  1
  Ho  Ho6  1  0.829804  0.649692  0.200891  1
  Ho  Ho7  1  0.170196  0.350308  0.799109  1
  Ho  Ho8  1  0.629155  0.839609  0.106197  1
  Ho  Ho9  1  0.370845  0.160391  0.893803  1
  Ho  Ho10  1  0.859892  0.945398  0.347452  1
  Ho  Ho11  1  0.140108  0.054602  0.652548  1
  C  C12  1  0.431245  0.344764  0.797364  1
  C  C13  1  0.568755  0.655236  0.202636  1
  C  C14  1  0.314923  0.231774  0.740179  1
  C  C15  1  0.685077  0.768226  0.259821  1
  I  I16  1  0.388058  0.312993  0.271333  1
  I  I17  1  0.611942  0.687007  0.728667  1
  I  I18  1  0.125636  0.557718  0.149937  1
  I  I19  1  0.874364  0.442282  0.850063  1
  I  I20  1  0.626256  0.378891  0.061972  1
  I  I21  1  0.373744  0.621109  0.938028  1
  I  I22  1  0.122782  0.207248  0.482393  1
  I  I23  1  0.877218  0.792752  0.517607  1
  I  I24  1  0.618412  0.033682  0.391478  1
  I  I25  1  0.381588  0.966318  0.608522  1
  I  I26  1  0.125055  0.869458  0.305790  1
  I  I27  1  0.874945  0.130542  0.694210  1
  I  I28  1  0.132413  0.526367  0.654212  1
  I  I29  1  0.867587  0.473633  0.345788  1
  I  I30  1  0.614426  0.366332  0.566618  1
  I  I31  1  0.385574  0.633668  0.433382  1
  I  I32  1  0.140017  0.221819  0.976816  1
  I  I33  1  0.859983  0.778181  0.023184  1
  I  I34  1  0.623792  0.059090  0.896045  1
  I  I35  1  0.376208  0.940910  0.103955  1
  I  I36  1  0.129509  0.894873  0.813683  1
  I  I37  1  0.870491  0.105127  0.186317  1
