# generated using pymatgen
data_LaPrB2(Pt3Rh)2
_symmetry_space_group_name_H-M   'P 1'
_cell_length_a   5.51366625
_cell_length_b   5.48398211
_cell_length_c   7.65149500
_cell_angle_alpha   90.00000000
_cell_angle_beta   90.00000000
_cell_angle_gamma   119.82207940
_symmetry_Int_Tables_number   1
_chemical_formula_structural   LaPrB2(Pt3Rh)2
_chemical_formula_sum   'La1 Pr1 B2 Pt6 Rh2'
_cell_volume   200.71936210
_cell_formula_units_Z   1
loop_
 _symmetry_equiv_pos_site_id
 _symmetry_equiv_pos_as_xyz
  1  'x, y, z'
loop_
 _atom_site_type_symbol
 _atom_site_label
 _atom_site_symmetry_multiplicity
 _atom_site_fract_x
 _atom_site_fract_y
 _atom_site_fract_z
 _atom_site_occupancy
  La  La0  1  0.000000  0.000000  0.500000  1
  Pr  Pr1  1  0.000000  0.000000  0.000000  1
  B  B2  1  0.330607  0.665304  0.000000  1
  B  B3  1  0.669393  0.334696  0.000000  1
  Pt  Pt4  1  0.311195  0.655598  0.500000  1
  Pt  Pt5  1  0.688805  0.344402  0.500000  1
  Pt  Pt6  1  0.500000  0.000000  0.201377  1
  Pt  Pt7  1  0.500000  0.000000  0.798623  1
  Pt  Pt8  1  0.500000  0.500000  0.201377  1
  Pt  Pt9  1  0.500000  0.500000  0.798623  1
  Rh  Rh10  1  0.000000  0.500000  0.189517  1
  Rh  Rh11  1  0.000000  0.500000  0.810483  1
