# generated using pymatgen
data_Ba2ScBiO6
_symmetry_space_group_name_H-M   'P 1'
_cell_length_a   6.00911454
_cell_length_b   6.00911461
_cell_length_c   6.00911400
_cell_angle_alpha   119.99999665
_cell_angle_beta   119.99999704
_cell_angle_gamma   59.99998329
_symmetry_Int_Tables_number   1
_chemical_formula_structural   Ba2ScBiO6
_chemical_formula_sum   'Ba2 Sc1 Bi1 O6'
_cell_volume   153.43215343
_cell_formula_units_Z   1
loop_
 _symmetry_equiv_pos_site_id
 _symmetry_equiv_pos_as_xyz
  1  'x, y, z'
loop_
 _atom_site_type_symbol
 _atom_site_label
 _atom_site_symmetry_multiplicity
 _atom_site_fract_x
 _atom_site_fract_y
 _atom_site_fract_z
 _atom_site_occupancy
  Ba  Ba0  1  0.750000  0.750000  0.250002  1
  Ba  Ba1  1  0.250000  0.250000  0.750002  1
  Sc  Sc2  1  0.000000  0.000000  0.000000  1
  Bi  Bi3  1  0.500001  0.500001  0.500001  1
  O  O4  1  0.248784  0.248784  0.248785  1
  O  O5  1  0.751215  0.248785  0.248785  1
  O  O6  1  0.248785  0.751215  0.248785  1
  O  O7  1  0.751215  0.751215  0.751216  1
  O  O8  1  0.751215  0.248785  0.751216  1
  O  O9  1  0.248785  0.751215  0.751216  1
