# generated using pymatgen
data_CdGaIO6
_symmetry_space_group_name_H-M   'P 1'
_cell_length_a   5.16652500
_cell_length_b   5.16652670
_cell_length_c   4.92554600
_cell_angle_alpha   90.00000000
_cell_angle_beta   90.00000000
_cell_angle_gamma   120.00000830
_symmetry_Int_Tables_number   1
_chemical_formula_structural   CdGaIO6
_chemical_formula_sum   'Cd1 Ga1 I1 O6'
_cell_volume   113.86288624
_cell_formula_units_Z   1
loop_
 _symmetry_equiv_pos_site_id
 _symmetry_equiv_pos_as_xyz
  1  'x, y, z'
loop_
 _atom_site_type_symbol
 _atom_site_label
 _atom_site_symmetry_multiplicity
 _atom_site_fract_x
 _atom_site_fract_y
 _atom_site_fract_z
 _atom_site_occupancy
  Cd  Cd0  1  0.333333  0.666667  0.000000  1
  Ga  Ga1  1  0.666667  0.333333  0.500000  1
  I  I2  1  0.000000  0.000000  0.500000  1
  O  O3  1  0.319957  0.028989  0.717802  1
  O  O4  1  0.971011  0.680043  0.282198  1
  O  O5  1  0.319957  0.290968  0.282198  1
  O  O6  1  0.709032  0.028989  0.282198  1
  O  O7  1  0.971011  0.290968  0.717802  1
  O  O8  1  0.709032  0.680043  0.717802  1
