# generated using pymatgen
data_Sr2ScRuO6
_symmetry_space_group_name_H-M   'P 1'
_cell_length_a   5.71170988
_cell_length_b   5.71171084
_cell_length_c   5.71170984
_cell_angle_alpha   120.51685304
_cell_angle_beta   120.51685470
_cell_angle_gamma   89.10709768
_symmetry_Int_Tables_number   1
_chemical_formula_structural   Sr2ScRuO6
_chemical_formula_sum   'Sr2 Sc1 Ru1 O6'
_cell_volume   130.71341025
_cell_formula_units_Z   1
loop_
 _symmetry_equiv_pos_site_id
 _symmetry_equiv_pos_as_xyz
  1  'x, y, z'
loop_
 _atom_site_type_symbol
 _atom_site_label
 _atom_site_symmetry_multiplicity
 _atom_site_fract_x
 _atom_site_fract_y
 _atom_site_fract_z
 _atom_site_occupancy
  Sr  Sr0  1  0.250000  0.750000  0.500000  1
  Sr  Sr1  1  0.750000  0.250000  0.500000  1
  Sc  Sc2  1  0.000000  0.000000  0.000000  1
  Ru  Ru3  1  0.500000  0.500000  0.000000  1
  O  O4  1  0.256985  0.256985  0.000000  1
  O  O5  1  0.743015  0.743015  0.000000  1
  O  O6  1  0.214690  0.300663  0.515355  1
  O  O7  1  0.785310  0.699337  0.484645  1
  O  O8  1  0.300663  0.785310  0.085973  1
  O  O9  1  0.699337  0.214690  0.914027  1
