# generated using pymatgen
data_Tb4Er8InCo4Ni
_symmetry_space_group_name_H-M   'P 1'
_cell_length_a   8.25518964
_cell_length_b   8.25518826
_cell_length_c   8.25518893
_cell_angle_alpha   110.50554264
_cell_angle_beta   110.80272978
_cell_angle_gamma   107.13058732
_symmetry_Int_Tables_number   1
_chemical_formula_structural   Tb4Er8InCo4Ni
_chemical_formula_sum   'Tb4 Er8 In1 Co4 Ni1'
_cell_volume   432.52872744
_cell_formula_units_Z   1
loop_
 _symmetry_equiv_pos_site_id
 _symmetry_equiv_pos_as_xyz
  1  'x, y, z'
loop_
 _atom_site_type_symbol
 _atom_site_label
 _atom_site_symmetry_multiplicity
 _atom_site_fract_x
 _atom_site_fract_y
 _atom_site_fract_z
 _atom_site_occupancy
  Tb  Tb0  1  0.187329  0.291658  0.478986  1
  Tb  Tb1  1  0.812671  0.708342  0.521014  1
  Tb  Tb2  1  0.187329  0.708342  0.895671  1
  Tb  Tb3  1  0.812671  0.291658  0.104329  1
  Er  Er4  1  0.315657  0.622079  0.306422  1
  Er  Er5  1  0.684343  0.377921  0.693578  1
  Er  Er6  1  0.315657  0.009235  0.693578  1
  Er  Er7  1  0.684343  0.990765  0.306422  1
  Er  Er8  1  0.405530  0.211256  0.194274  1
  Er  Er9  1  0.594470  0.788744  0.805726  1
  Er  Er10  1  0.016982  0.211256  0.805726  1
  Er  Er11  1  0.983018  0.788744  0.194274  1
  In  In12  1  0.500000  0.500000  0.000000  1
  Co  Co13  1  0.113047  0.613047  0.500000  1
  Co  Co14  1  0.886953  0.386953  0.500000  1
  Co  Co15  1  0.377833  0.000000  0.377833  1
  Co  Co16  1  0.622167  0.000000  0.622167  1
  Ni  Ni17  1  0.000000  0.000000  0.000000  1
