# generated using pymatgen
data_ScCdNi3Pt
_symmetry_space_group_name_H-M   'P 1'
_cell_length_a   4.90346366
_cell_length_b   4.90346430
_cell_length_c   5.08111751
_cell_angle_alpha   61.15000346
_cell_angle_beta   61.14999467
_cell_angle_gamma   60.00000276
_symmetry_Int_Tables_number   1
_chemical_formula_structural   ScCdNi3Pt
_chemical_formula_sum   'Sc1 Cd1 Ni3 Pt1'
_cell_volume   87.85863992
_cell_formula_units_Z   1
loop_
 _symmetry_equiv_pos_site_id
 _symmetry_equiv_pos_as_xyz
  1  'x, y, z'
loop_
 _atom_site_type_symbol
 _atom_site_label
 _atom_site_symmetry_multiplicity
 _atom_site_fract_x
 _atom_site_fract_y
 _atom_site_fract_z
 _atom_site_occupancy
  Sc  Sc0  1  0.248193  0.248193  0.255420  1
  Cd  Cd1  1  0.004781  0.004781  0.985656  1
  Ni  Ni2  1  0.625242  0.122424  0.627091  1
  Ni  Ni3  1  0.122424  0.625242  0.627091  1
  Ni  Ni4  1  0.625242  0.625242  0.627091  1
  Pt  Pt5  1  0.624116  0.624116  0.127651  1
