# generated using pymatgen
data_Cs3Tb(AsSe2)6
_symmetry_space_group_name_H-M   'P 1'
_cell_length_a   10.07748100
_cell_length_b   10.07748114
_cell_length_c   8.76953400
_cell_angle_alpha   90.00000000
_cell_angle_beta   90.00000000
_cell_angle_gamma   119.99999626
_symmetry_Int_Tables_number   1
_chemical_formula_structural   Cs3Tb(AsSe2)6
_chemical_formula_sum   'Cs3 Tb1 As6 Se12'
_cell_volume   771.27835969
_cell_formula_units_Z   1
loop_
 _symmetry_equiv_pos_site_id
 _symmetry_equiv_pos_as_xyz
  1  'x, y, z'
loop_
 _atom_site_type_symbol
 _atom_site_label
 _atom_site_symmetry_multiplicity
 _atom_site_fract_x
 _atom_site_fract_y
 _atom_site_fract_z
 _atom_site_occupancy
  Cs  Cs0  1  0.000000  0.000000  0.000000  1
  Cs  Cs1  1  0.333333  0.666667  0.854240  1
  Cs  Cs2  1  0.666667  0.333333  0.145760  1
  Tb  Tb3  1  0.000000  0.000000  0.500000  1
  As  As4  1  0.287592  0.836057  0.395664  1
  As  As5  1  0.163943  0.451536  0.395664  1
  As  As6  1  0.548464  0.712408  0.395664  1
  As  As7  1  0.712408  0.163943  0.604336  1
  As  As8  1  0.836057  0.548464  0.604336  1
  As  As9  1  0.451536  0.287592  0.604336  1
  Se  Se10  1  0.256662  0.043824  0.311075  1
  Se  Se11  1  0.956176  0.212840  0.311075  1
  Se  Se12  1  0.787160  0.743338  0.311075  1
  Se  Se13  1  0.743338  0.956176  0.688925  1
  Se  Se14  1  0.043824  0.787160  0.688925  1
  Se  Se15  1  0.212840  0.256662  0.688925  1
  Se  Se16  1  0.522729  0.904102  0.244020  1
  Se  Se17  1  0.095898  0.618626  0.244020  1
  Se  Se18  1  0.381374  0.477271  0.244020  1
  Se  Se19  1  0.477271  0.095898  0.755980  1
  Se  Se20  1  0.904102  0.381374  0.755980  1
  Se  Se21  1  0.618626  0.522729  0.755980  1
