# generated using pymatgen
data_Sc8SiGeI12
_symmetry_space_group_name_H-M   'P 1'
_cell_length_a   4.04547400
_cell_length_b   13.38132320
_cell_length_c   14.19374891
_cell_angle_alpha   89.65898962
_cell_angle_beta   90.00000000
_cell_angle_gamma   90.00000000
_symmetry_Int_Tables_number   1
_chemical_formula_structural   Sc8SiGeI12
_chemical_formula_sum   'Sc8 Si1 Ge1 I12'
_cell_volume   768.34788577
_cell_formula_units_Z   1
loop_
 _symmetry_equiv_pos_site_id
 _symmetry_equiv_pos_as_xyz
  1  'x, y, z'
loop_
 _atom_site_type_symbol
 _atom_site_label
 _atom_site_symmetry_multiplicity
 _atom_site_fract_x
 _atom_site_fract_y
 _atom_site_fract_z
 _atom_site_occupancy
  Sc  Sc0  1  0.500000  0.114313  0.348507  1
  Sc  Sc1  1  0.500000  0.885687  0.651493  1
  Sc  Sc2  1  0.500000  0.612738  0.149390  1
  Sc  Sc3  1  0.500000  0.387262  0.850610  1
  Sc  Sc4  1  0.000000  0.109899  0.574151  1
  Sc  Sc5  1  0.000000  0.890101  0.425849  1
  Sc  Sc6  1  0.000000  0.608556  0.926766  1
  Sc  Sc7  1  0.000000  0.391444  0.073234  1
  Si  Si8  1  0.500000  0.500000  0.000000  1
  Ge  Ge9  1  0.500000  0.000000  0.500000  1
  I  I10  1  0.500000  0.250063  0.162059  1
  I  I11  1  0.500000  0.749937  0.837941  1
  I  I12  1  0.500000  0.750071  0.338091  1
  I  I13  1  0.500000  0.249929  0.661909  1
  I  I14  1  0.000000  0.256080  0.416178  1
  I  I15  1  0.000000  0.743920  0.583822  1
  I  I16  1  0.000000  0.755759  0.083921  1
  I  I17  1  0.000000  0.244241  0.916079  1
  I  I18  1  0.000000  0.000811  0.243410  1
  I  I19  1  0.000000  0.999189  0.756590  1
  I  I20  1  0.000000  0.501034  0.256411  1
  I  I21  1  0.000000  0.498966  0.743589  1
