# generated using pymatgen
data_BaEu3F10
_symmetry_space_group_name_H-M   'P 1'
_cell_length_a   8.52668044
_cell_length_b   8.52668009
_cell_length_c   8.52668000
_cell_angle_alpha   60.00000035
_cell_angle_beta   60.00000171
_cell_angle_gamma   59.99999754
_symmetry_Int_Tables_number   1
_chemical_formula_structural   BaEu3F10
_chemical_formula_sum   'Ba2 Eu6 F20'
_cell_volume   438.35394727
_cell_formula_units_Z   2
loop_
 _symmetry_equiv_pos_site_id
 _symmetry_equiv_pos_as_xyz
  1  'x, y, z'
loop_
 _atom_site_type_symbol
 _atom_site_label
 _atom_site_symmetry_multiplicity
 _atom_site_fract_x
 _atom_site_fract_y
 _atom_site_fract_z
 _atom_site_occupancy
  Ba  Ba0  1  0.250000  0.250000  0.250000  1
  Ba  Ba1  1  0.750000  0.750000  0.750000  1
  Eu  Eu2  1  0.760079  0.239921  0.239921  1
  Eu  Eu3  1  0.239921  0.760079  0.760079  1
  Eu  Eu4  1  0.239921  0.760079  0.239921  1
  Eu  Eu5  1  0.760079  0.239921  0.760079  1
  Eu  Eu6  1  0.239921  0.239921  0.760079  1
  Eu  Eu7  1  0.760079  0.760079  0.239921  1
  F  F8  1  0.836021  0.500000  0.500000  1
  F  F9  1  0.163979  0.500000  0.500000  1
  F  F10  1  0.500000  0.836021  0.163979  1
  F  F11  1  0.500000  0.163979  0.836021  1
  F  F12  1  0.500000  0.836021  0.500000  1
  F  F13  1  0.163979  0.500000  0.836021  1
  F  F14  1  0.500000  0.163979  0.500000  1
  F  F15  1  0.836021  0.500000  0.163979  1
  F  F16  1  0.500000  0.500000  0.836021  1
  F  F17  1  0.500000  0.500000  0.163979  1
  F  F18  1  0.163979  0.836021  0.500000  1
  F  F19  1  0.836021  0.163979  0.500000  1
  F  F20  1  0.116648  0.116648  0.116648  1
  F  F21  1  0.883352  0.883352  0.883352  1
  F  F22  1  0.116648  0.116648  0.650055  1
  F  F23  1  0.116648  0.650055  0.116648  1
  F  F24  1  0.883352  0.883352  0.349945  1
  F  F25  1  0.883352  0.349945  0.883352  1
  F  F26  1  0.650055  0.116648  0.116648  1
  F  F27  1  0.349945  0.883352  0.883352  1
