# generated using pymatgen
data_Er4Ga18IrPd2Rh3
_symmetry_space_group_name_H-M   'P 1'
_cell_length_a   7.59294350
_cell_length_b   7.59268859
_cell_length_c   9.47784100
_cell_angle_alpha   89.99868599
_cell_angle_beta   90.00169138
_cell_angle_gamma   119.85779158
_symmetry_Int_Tables_number   1
_chemical_formula_structural   Er4Ga18IrPd2Rh3
_chemical_formula_sum   'Er4 Ga18 Ir1 Pd2 Rh3'
_cell_volume   473.87779870
_cell_formula_units_Z   1
loop_
 _symmetry_equiv_pos_site_id
 _symmetry_equiv_pos_as_xyz
  1  'x, y, z'
loop_
 _atom_site_type_symbol
 _atom_site_label
 _atom_site_symmetry_multiplicity
 _atom_site_fract_x
 _atom_site_fract_y
 _atom_site_fract_z
 _atom_site_occupancy
  Er  Er0  1  0.996798  0.669056  0.250050  1
  Er  Er1  1  0.003206  0.330904  0.750041  1
  Er  Er2  1  0.669111  0.996808  0.249955  1
  Er  Er3  1  0.330948  0.003225  0.749941  1
  Ga  Ga4  1  0.128154  0.128267  0.250000  1
  Ga  Ga5  1  0.871738  0.871839  0.749996  1
  Ga  Ga6  1  0.999824  0.337360  0.081201  1
  Ga  Ga7  1  0.001954  0.663462  0.918890  1
  Ga  Ga8  1  0.001265  0.662804  0.580844  1
  Ga  Ga9  1  0.337187  0.998725  0.419166  1
  Ga  Ga10  1  0.998838  0.337141  0.419073  1
  Ga  Ga11  1  0.662852  0.001182  0.580922  1
  Ga  Ga12  1  0.662637  0.000156  0.918820  1
  Ga  Ga13  1  0.336545  0.998062  0.081106  1
  Ga  Ga14  1  0.335629  0.335593  0.567289  1
  Ga  Ga15  1  0.664421  0.664364  0.432718  1
  Ga  Ga16  1  0.664463  0.665121  0.067421  1
  Ga  Ga17  1  0.334874  0.335541  0.932581  1
  Ga  Ga18  1  0.337050  0.547224  0.250055  1
  Ga  Ga19  1  0.662734  0.453337  0.749230  1
  Ga  Ga20  1  0.546673  0.337271  0.250758  1
  Ga  Ga21  1  0.452749  0.662912  0.749938  1
  Ir  Ir22  1  0.671778  0.328219  0.999999  1
  Pd  Pd23  1  0.999888  0.000102  0.000000  1
  Pd  Pd24  1  0.000075  0.999924  0.499997  1
  Rh  Rh25  1  0.328470  0.671529  0.000000  1
  Rh  Rh26  1  0.328658  0.671342  0.500002  1
  Rh  Rh27  1  0.671478  0.328529  0.500005  1
