# generated using pymatgen
data_Sc8MnCr(FeB12)2
_symmetry_space_group_name_H-M   'P 1'
_cell_length_a   3.34852900
_cell_length_b   8.82010924
_cell_length_c   11.12534242
_cell_angle_alpha   89.95064880
_cell_angle_beta   90.00000000
_cell_angle_gamma   90.00000000
_symmetry_Int_Tables_number   1
_chemical_formula_structural   Sc8MnCr(FeB12)2
_chemical_formula_sum   'Sc8 Mn1 Cr1 Fe2 B24'
_cell_volume   328.58009749
_cell_formula_units_Z   1
loop_
 _symmetry_equiv_pos_site_id
 _symmetry_equiv_pos_as_xyz
  1  'x, y, z'
loop_
 _atom_site_type_symbol
 _atom_site_label
 _atom_site_symmetry_multiplicity
 _atom_site_fract_x
 _atom_site_fract_y
 _atom_site_fract_z
 _atom_site_occupancy
  Sc  Sc0  1  0.000000  0.822392  0.085037  1
  Sc  Sc1  1  0.000000  0.179400  0.914478  1
  Sc  Sc2  1  0.000000  0.320388  0.414349  1
  Sc  Sc3  1  0.000000  0.678229  0.585384  1
  Sc  Sc4  1  0.000000  0.443022  0.130442  1
  Sc  Sc5  1  0.000000  0.558089  0.871073  1
  Sc  Sc6  1  0.000000  0.942153  0.369644  1
  Sc  Sc7  1  0.000000  0.055387  0.629528  1
  Mn  Mn8  1  0.000000  0.138996  0.180259  1
  Cr  Cr9  1  0.000000  0.360958  0.680052  1
  Fe  Fe10  1  0.000000  0.860700  0.820327  1
  Fe  Fe11  1  0.000000  0.639743  0.319020  1
  B  B12  1  0.500000  0.053771  0.065700  1
  B  B13  1  0.500000  0.946449  0.933477  1
  B  B14  1  0.500000  0.553975  0.433016  1
  B  B15  1  0.500000  0.447895  0.564750  1
  B  B16  1  0.500000  0.250427  0.080488  1
  B  B17  1  0.500000  0.750839  0.919719  1
  B  B18  1  0.500000  0.749080  0.419038  1
  B  B19  1  0.500000  0.248456  0.579193  1
  B  B20  1  0.500000  0.292950  0.236387  1
  B  B21  1  0.500000  0.708108  0.765131  1
  B  B22  1  0.500000  0.792389  0.264051  1
  B  B23  1  0.500000  0.205225  0.736626  1
  B  B24  1  0.500000  0.129942  0.316190  1
  B  B25  1  0.500000  0.869177  0.684321  1
  B  B26  1  0.500000  0.630825  0.183904  1
  B  B27  1  0.500000  0.370023  0.817316  1
  B  B28  1  0.500000  0.482216  0.288223  1
  B  B29  1  0.500000  0.521544  0.712231  1
  B  B30  1  0.500000  0.980975  0.211321  1
  B  B31  1  0.500000  0.017552  0.788265  1
  B  B32  1  0.500000  0.099601  0.472070  1
  B  B33  1  0.500000  0.897286  0.527666  1
  B  B34  1  0.500000  0.601938  0.028182  1
  B  B35  1  0.500000  0.399899  0.973146  1
