# generated using pymatgen
data_Sr5Ca(CuO3)4
_symmetry_space_group_name_H-M   'P 1'
_cell_length_a   6.80738805
_cell_length_b   6.30856909
_cell_length_c   8.15232400
_cell_angle_alpha   112.76236208
_cell_angle_beta   103.71690105
_cell_angle_gamma   89.99838144
_symmetry_Int_Tables_number   1
_chemical_formula_structural   Sr5Ca(CuO3)4
_chemical_formula_sum   'Sr5 Ca1 Cu4 O12'
_cell_volume   311.97825115
_cell_formula_units_Z   1
loop_
 _symmetry_equiv_pos_site_id
 _symmetry_equiv_pos_as_xyz
  1  'x, y, z'
loop_
 _atom_site_type_symbol
 _atom_site_label
 _atom_site_symmetry_multiplicity
 _atom_site_fract_x
 _atom_site_fract_y
 _atom_site_fract_z
 _atom_site_occupancy
  Sr  Sr0  1  0.749926  0.948395  0.000028  1
  Sr  Sr1  1  0.725440  0.398973  0.407476  1
  Sr  Sr2  1  0.231633  0.010529  0.409690  1
  Sr  Sr3  1  0.268416  0.600863  0.590321  1
  Sr  Sr4  1  0.774570  0.991511  0.592481  1
  Ca  Ca5  1  0.249923  0.057709  0.000017  1
  Cu  Cu6  1  0.004356  0.486097  0.164533  1
  Cu  Cu7  1  0.491574  0.675244  0.162753  1
  Cu  Cu8  1  0.008404  0.512759  0.837237  1
  Cu  Cu9  1  0.495681  0.321383  0.835487  1
  O  O10  1  0.019007  0.715020  0.077745  1
  O  O11  1  0.504608  0.356144  0.076168  1
  O  O12  1  0.038495  0.241911  0.237384  1
  O  O13  1  0.514330  0.993591  0.229308  1
  O  O14  1  0.975895  0.697358  0.387545  1
  O  O15  1  0.480986  0.694017  0.391775  1
  O  O16  1  0.019006  0.302442  0.608207  1
  O  O17  1  0.524116  0.309800  0.612496  1
  O  O18  1  0.985592  0.764521  0.770709  1
  O  O19  1  0.461546  0.004380  0.762558  1
  O  O20  1  0.481006  0.637118  0.922270  1
  O  O21  1  0.995490  0.280238  0.923813  1
