# generated using pymatgen
data_Pr9SmSi5Pt
_symmetry_space_group_name_H-M   'P 1'
_cell_length_a   7.71676878
_cell_length_b   7.71676936
_cell_length_c   9.11040786
_cell_angle_alpha   115.05663198
_cell_angle_beta   115.05663823
_cell_angle_gamma   90.00000298
_symmetry_Int_Tables_number   1
_chemical_formula_structural   Pr9SmSi5Pt
_chemical_formula_sum   'Pr9 Sm1 Si5 Pt1'
_cell_volume   434.44013266
_cell_formula_units_Z   1
loop_
 _symmetry_equiv_pos_site_id
 _symmetry_equiv_pos_as_xyz
  1  'x, y, z'
loop_
 _atom_site_type_symbol
 _atom_site_label
 _atom_site_symmetry_multiplicity
 _atom_site_fract_x
 _atom_site_fract_y
 _atom_site_fract_z
 _atom_site_occupancy
  Pr  Pr0  1  0.027298  0.027298  0.054597  1
  Pr  Pr1  1  0.954217  0.810000  0.286332  1
  Pr  Pr2  1  0.332115  0.476332  0.286332  1
  Pr  Pr3  1  0.810000  0.332115  0.286332  1
  Pr  Pr4  1  0.476332  0.954217  0.286332  1
  Pr  Pr5  1  0.024628  0.168260  0.713365  1
  Pr  Pr6  1  0.688738  0.545104  0.713365  1
  Pr  Pr7  1  0.168260  0.688738  0.713365  1
  Pr  Pr8  1  0.545104  0.024628  0.713365  1
  Sm  Sm9  1  0.474527  0.474527  0.949053  1
  Si  Si10  1  0.251803  0.251803  0.503607  1
  Si  Si11  1  0.613333  0.882796  0.998775  1
  Si  Si12  1  0.385442  0.115979  0.998775  1
  Si  Si13  1  0.882796  0.385442  0.998775  1
  Si  Si14  1  0.115979  0.613333  0.998775  1
  Pt  Pt15  1  0.749426  0.749426  0.498852  1
