# generated using pymatgen
data_K8Li4HoTm3As8
_symmetry_space_group_name_H-M   'P 1'
_cell_length_a   10.26889809
_cell_length_b   10.26889829
_cell_length_c   6.71769915
_cell_angle_alpha   90.01833348
_cell_angle_beta   89.98167128
_cell_angle_gamma   98.35211318
_symmetry_Int_Tables_number   1
_chemical_formula_structural   K8Li4HoTm3As8
_chemical_formula_sum   'K8 Li4 Ho1 Tm3 As8'
_cell_volume   700.87007233
_cell_formula_units_Z   1
loop_
 _symmetry_equiv_pos_site_id
 _symmetry_equiv_pos_as_xyz
  1  'x, y, z'
loop_
 _atom_site_type_symbol
 _atom_site_label
 _atom_site_symmetry_multiplicity
 _atom_site_fract_x
 _atom_site_fract_y
 _atom_site_fract_z
 _atom_site_occupancy
  K  K0  1  0.566253  0.933745  0.750105  1
  K  K1  1  0.933745  0.566253  0.249895  1
  K  K2  1  0.433790  0.065989  0.249869  1
  K  K3  1  0.065989  0.433790  0.750131  1
  K  K4  1  0.680143  0.320027  0.792774  1
  K  K5  1  0.820070  0.179924  0.292675  1
  K  K6  1  0.320027  0.680143  0.207226  1
  K  K7  1  0.179924  0.820070  0.707325  1
  Li  Li8  1  0.617609  0.617609  0.000000  1
  Li  Li9  1  0.882501  0.882501  0.500000  1
  Li  Li10  1  0.382514  0.382514  0.000000  1
  Li  Li11  1  0.117191  0.117191  0.500000  1
  Ho  Ho12  1  0.367953  0.367953  0.500000  1
  Tm  Tm13  1  0.868192  0.868192  0.000000  1
  Tm  Tm14  1  0.632260  0.632260  0.500000  1
  Tm  Tm15  1  0.131542  0.131542  0.000000  1
  As  As16  1  0.348074  0.150587  0.751386  1
  As  As17  1  0.150587  0.348074  0.248614  1
  As  As18  1  0.651980  0.848100  0.250047  1
  As  As19  1  0.848100  0.651980  0.749953  1
  As  As20  1  0.905534  0.094351  0.763998  1
  As  As21  1  0.595651  0.406019  0.262919  1
  As  As22  1  0.094351  0.905534  0.236002  1
  As  As23  1  0.406019  0.595651  0.737081  1
