# generated using pymatgen
data_Mo4PCl11
_symmetry_space_group_name_H-M   'P 1'
_cell_length_a   8.71112858
_cell_length_b   8.71112890
_cell_length_c   11.53870500
_cell_angle_alpha   90.00000000
_cell_angle_beta   90.00000000
_cell_angle_gamma   109.26758147
_symmetry_Int_Tables_number   1
_chemical_formula_structural   Mo4PCl11
_chemical_formula_sum   'Mo8 P2 Cl22'
_cell_volume   826.55607107
_cell_formula_units_Z   2
loop_
 _symmetry_equiv_pos_site_id
 _symmetry_equiv_pos_as_xyz
  1  'x, y, z'
loop_
 _atom_site_type_symbol
 _atom_site_label
 _atom_site_symmetry_multiplicity
 _atom_site_fract_x
 _atom_site_fract_y
 _atom_site_fract_z
 _atom_site_occupancy
  Mo  Mo0  1  0.644320  0.094465  0.372510  1
  Mo  Mo1  1  0.094465  0.644320  0.627490  1
  Mo  Mo2  1  0.355680  0.905535  0.627490  1
  Mo  Mo3  1  0.905535  0.355680  0.372510  1
  Mo  Mo4  1  0.644320  0.094465  0.127490  1
  Mo  Mo5  1  0.094465  0.644320  0.872510  1
  Mo  Mo6  1  0.355680  0.905535  0.872510  1
  Mo  Mo7  1  0.905535  0.355680  0.127490  1
  P  P8  1  0.676842  0.323158  0.250000  1
  P  P9  1  0.323158  0.676842  0.750000  1
  Cl  Cl10  1  0.868788  0.131212  0.996451  1
  Cl  Cl11  1  0.131212  0.868788  0.003549  1
  Cl  Cl12  1  0.481180  0.178896  0.986154  1
  Cl  Cl13  1  0.178896  0.481180  0.013846  1
  Cl  Cl14  1  0.518820  0.821104  0.013846  1
  Cl  Cl15  1  0.821104  0.518820  0.986154  1
  Cl  Cl16  1  0.868788  0.131212  0.503549  1
  Cl  Cl17  1  0.131212  0.868788  0.496451  1
  Cl  Cl18  1  0.481180  0.178896  0.513846  1
  Cl  Cl19  1  0.178896  0.481180  0.486154  1
  Cl  Cl20  1  0.518820  0.821104  0.486154  1
  Cl  Cl21  1  0.821104  0.518820  0.513846  1
  Cl  Cl22  1  0.755689  0.931754  0.250000  1
  Cl  Cl23  1  0.931754  0.755689  0.750000  1
  Cl  Cl24  1  0.244311  0.068246  0.750000  1
  Cl  Cl25  1  0.068246  0.244311  0.250000  1
  Cl  Cl26  1  0.534191  0.465809  0.250000  1
  Cl  Cl27  1  0.465809  0.534191  0.750000  1
  Cl  Cl28  1  0.396464  0.989873  0.250000  1
  Cl  Cl29  1  0.989873  0.396464  0.750000  1
  Cl  Cl30  1  0.603536  0.010127  0.750000  1
  Cl  Cl31  1  0.010127  0.603536  0.250000  1
