# generated using pymatgen
data_SrAc19Sn16
_symmetry_space_group_name_H-M   'P 1'
_cell_length_a   8.82434035
_cell_length_b   8.91855211
_cell_length_c   17.09389100
_cell_angle_alpha   90.00000000
_cell_angle_beta   90.00000000
_cell_angle_gamma   90.11366423
_symmetry_Int_Tables_number   1
_chemical_formula_structural   SrAc19Sn16
_chemical_formula_sum   'Sr1 Ac19 Sn16'
_cell_volume   1345.29237380
_cell_formula_units_Z   1
loop_
 _symmetry_equiv_pos_site_id
 _symmetry_equiv_pos_as_xyz
  1  'x, y, z'
loop_
 _atom_site_type_symbol
 _atom_site_label
 _atom_site_symmetry_multiplicity
 _atom_site_fract_x
 _atom_site_fract_y
 _atom_site_fract_z
 _atom_site_occupancy
  Sr  Sr0  1  0.795370  0.497518  0.750000  1
  Ac  Ac1  1  0.019925  0.180063  0.401264  1
  Ac  Ac2  1  0.371960  0.842524  0.116173  1
  Ac  Ac3  1  0.125852  0.342726  0.617251  1
  Ac  Ac4  1  0.481289  0.679610  0.900192  1
  Ac  Ac5  1  0.870912  0.656604  0.116153  1
  Ac  Ac6  1  0.125852  0.342726  0.882749  1
  Ac  Ac7  1  0.203051  0.504019  0.250000  1
  Ac  Ac8  1  0.701917  0.996229  0.250000  1
  Ac  Ac9  1  0.481289  0.679610  0.599808  1
  Ac  Ac10  1  0.297339  0.000455  0.750000  1
  Ac  Ac11  1  0.628584  0.159119  0.617195  1
  Ac  Ac12  1  0.870912  0.656604  0.383847  1
  Ac  Ac13  1  0.019925  0.180063  0.098736  1
  Ac  Ac14  1  0.979419  0.818118  0.900673  1
  Ac  Ac15  1  0.628584  0.159119  0.882805  1
  Ac  Ac16  1  0.519941  0.319047  0.098304  1
  Ac  Ac17  1  0.371960  0.842524  0.383827  1
  Ac  Ac18  1  0.979419  0.818118  0.599327  1
  Ac  Ac19  1  0.519941  0.319047  0.401696  1
  Sn  Sn20  1  0.784489  0.465327  0.543801  1
  Sn  Sn21  1  0.715779  0.964317  0.456562  1
  Sn  Sn22  1  0.682133  0.862510  0.750000  1
  Sn  Sn23  1  0.215844  0.535140  0.456275  1
  Sn  Sn24  1  0.284792  0.036100  0.955413  1
  Sn  Sn25  1  0.820433  0.359123  0.250000  1
  Sn  Sn26  1  0.784489  0.465327  0.956199  1
  Sn  Sn27  1  0.576674  0.612294  0.250000  1
  Sn  Sn28  1  0.215844  0.535140  0.043725  1
  Sn  Sn29  1  0.424371  0.391686  0.750000  1
  Sn  Sn30  1  0.179352  0.638335  0.750000  1
  Sn  Sn31  1  0.924603  0.111815  0.750000  1
  Sn  Sn32  1  0.284792  0.036100  0.544587  1
  Sn  Sn33  1  0.715779  0.964317  0.043438  1
  Sn  Sn34  1  0.320073  0.141438  0.250000  1
  Sn  Sn35  1  0.077108  0.887191  0.250000  1
