# generated using pymatgen
data_NaNp(Si7Ir3)2
_symmetry_space_group_name_H-M   'P 1'
_cell_length_a   8.03086253
_cell_length_b   8.03086262
_cell_length_c   8.03086157
_cell_angle_alpha   56.57876251
_cell_angle_beta   56.57874703
_cell_angle_gamma   56.57876159
_symmetry_Int_Tables_number   1
_chemical_formula_structural   NaNp(Si7Ir3)2
_chemical_formula_sum   'Na1 Np1 Si14 Ir6'
_cell_volume   337.29409108
_cell_formula_units_Z   1
loop_
 _symmetry_equiv_pos_site_id
 _symmetry_equiv_pos_as_xyz
  1  'x, y, z'
loop_
 _atom_site_type_symbol
 _atom_site_label
 _atom_site_symmetry_multiplicity
 _atom_site_fract_x
 _atom_site_fract_y
 _atom_site_fract_z
 _atom_site_occupancy
  Na  Na0  1  0.000000  0.000000  0.000000  1
  Np  Np1  1  0.500000  0.500000  0.500000  1
  Si  Si2  1  0.749277  0.749277  0.749277  1
  Si  Si3  1  0.250723  0.250723  0.250723  1
  Si  Si4  1  0.855925  0.064120  0.674907  1
  Si  Si5  1  0.674907  0.855925  0.064120  1
  Si  Si6  1  0.064120  0.674907  0.855925  1
  Si  Si7  1  0.655450  0.828750  0.434447  1
  Si  Si8  1  0.434447  0.655450  0.828750  1
  Si  Si9  1  0.828750  0.434447  0.655450  1
  Si  Si10  1  0.171250  0.565553  0.344550  1
  Si  Si11  1  0.565553  0.344550  0.171250  1
  Si  Si12  1  0.344550  0.171250  0.565553  1
  Si  Si13  1  0.935880  0.325093  0.144075  1
  Si  Si14  1  0.325093  0.144075  0.935880  1
  Si  Si15  1  0.144075  0.935880  0.325093  1
  Ir  Ir16  1  0.078855  0.435899  0.741904  1
  Ir  Ir17  1  0.258096  0.921145  0.564101  1
  Ir  Ir18  1  0.564101  0.258096  0.921145  1
  Ir  Ir19  1  0.921145  0.564101  0.258096  1
  Ir  Ir20  1  0.435899  0.741904  0.078855  1
  Ir  Ir21  1  0.741904  0.078855  0.435899  1
