# generated using pymatgen
data_SmY6FeI12
_symmetry_space_group_name_H-M   'P 1'
_cell_length_a   9.73503123
_cell_length_b   9.77834678
_cell_length_c   9.78381729
_cell_angle_alpha   106.95090738
_cell_angle_beta   107.10176895
_cell_angle_gamma   106.81062805
_symmetry_Int_Tables_number   1
_chemical_formula_structural   SmY6FeI12
_chemical_formula_sum   'Sm1 Y6 Fe1 I12'
_cell_volume   776.59216505
_cell_formula_units_Z   1
loop_
 _symmetry_equiv_pos_site_id
 _symmetry_equiv_pos_as_xyz
  1  'x, y, z'
loop_
 _atom_site_type_symbol
 _atom_site_label
 _atom_site_symmetry_multiplicity
 _atom_site_fract_x
 _atom_site_fract_y
 _atom_site_fract_z
 _atom_site_occupancy
  Sm  Sm0  1  0.716431  0.978360  0.909551  1
  Y  Y1  1  0.977514  0.906037  0.705995  1
  Y  Y2  1  0.500692  0.499614  0.500035  1
  Y  Y3  1  0.094413  0.293990  0.022979  1
  Y  Y4  1  0.278204  0.021437  0.088812  1
  Y  Y5  1  0.907287  0.706654  0.977616  1
  Y  Y6  1  0.022274  0.094133  0.294336  1
  Fe  Fe7  1  0.997489  0.000180  0.999332  1
  I  I8  1  0.072092  0.225647  0.678576  1
  I  I9  1  0.385842  0.159383  0.460494  1
  I  I10  1  0.613690  0.837427  0.534038  1
  I  I11  1  0.227815  0.681315  0.072693  1
  I  I12  1  0.776436  0.324679  0.928802  1
  I  I13  1  0.681277  0.073054  0.229440  1
  I  I14  1  0.537194  0.611482  0.838911  1
  I  I15  1  0.841132  0.536739  0.614039  1
  I  I16  1  0.928949  0.774579  0.321852  1
  I  I17  1  0.318361  0.928572  0.776273  1
  I  I18  1  0.462558  0.383167  0.160107  1
  I  I19  1  0.160350  0.463551  0.386120  1
