# generated using pymatgen
data_Zr17Si16Mo3
_symmetry_space_group_name_H-M   'P 1'
_cell_length_a   7.05315822
_cell_length_b   7.05315805
_cell_length_c   12.92994298
_cell_angle_alpha   90.10334424
_cell_angle_beta   89.89665939
_cell_angle_gamma   89.95077600
_symmetry_Int_Tables_number   1
_chemical_formula_structural   Zr17Si16Mo3
_chemical_formula_sum   'Zr17 Si16 Mo3'
_cell_volume   643.22405453
_cell_formula_units_Z   1
loop_
 _symmetry_equiv_pos_site_id
 _symmetry_equiv_pos_as_xyz
  1  'x, y, z'
loop_
 _atom_site_type_symbol
 _atom_site_label
 _atom_site_symmetry_multiplicity
 _atom_site_fract_x
 _atom_site_fract_y
 _atom_site_fract_z
 _atom_site_occupancy
  Zr  Zr0  1  0.174926  0.174926  0.000000  1
  Zr  Zr1  1  0.498088  0.152871  0.530943  1
  Zr  Zr2  1  0.502462  0.849113  0.033918  1
  Zr  Zr3  1  0.652723  0.000105  0.284839  1
  Zr  Zr4  1  0.349180  0.997001  0.782427  1
  Zr  Zr5  1  0.849113  0.502462  0.966082  1
  Zr  Zr6  1  0.152871  0.498088  0.469057  1
  Zr  Zr7  1  0.000105  0.652723  0.715161  1
  Zr  Zr8  1  0.997001  0.349180  0.217573  1
  Zr  Zr9  1  0.497580  0.355947  0.127209  1
  Zr  Zr10  1  0.502476  0.644727  0.625720  1
  Zr  Zr11  1  0.854256  0.000185  0.873223  1
  Zr  Zr12  1  0.144546  0.994846  0.377414  1
  Zr  Zr13  1  0.644727  0.502476  0.374280  1
  Zr  Zr14  1  0.355947  0.497580  0.872791  1
  Zr  Zr15  1  0.000185  0.854256  0.126777  1
  Zr  Zr16  1  0.994846  0.144546  0.622586  1
  Si  Si17  1  0.793377  0.146129  0.071081  1
  Si  Si18  1  0.202178  0.853104  0.571459  1
  Si  Si19  1  0.647007  0.701925  0.820846  1
  Si  Si20  1  0.352215  0.296736  0.322432  1
  Si  Si21  1  0.853104  0.202178  0.428541  1
  Si  Si22  1  0.146129  0.793377  0.928919  1
  Si  Si23  1  0.701925  0.647007  0.179154  1
  Si  Si24  1  0.296736  0.352215  0.677568  1
  Si  Si25  1  0.555204  0.201637  0.933471  1
  Si  Si26  1  0.453270  0.799963  0.435093  1
  Si  Si27  1  0.698167  0.952342  0.683640  1
  Si  Si28  1  0.304373  0.043768  0.187708  1
  Si  Si29  1  0.799963  0.453270  0.564907  1
  Si  Si30  1  0.201637  0.555204  0.066529  1
  Si  Si31  1  0.952342  0.698167  0.316360  1
  Si  Si32  1  0.043768  0.304373  0.812292  1
  Mo  Mo33  1  0.675870  0.326809  0.747774  1
  Mo  Mo34  1  0.326809  0.675870  0.252226  1
  Mo  Mo35  1  0.824894  0.824894  0.500000  1
