# generated using pymatgen
data_Li2Pr(P3Pd10)2
_symmetry_space_group_name_H-M   'P 1'
_cell_length_a   8.62666918
_cell_length_b   8.62666901
_cell_length_c   8.62667000
_cell_angle_alpha   60.00000386
_cell_angle_beta   60.00000452
_cell_angle_gamma   60.00000236
_symmetry_Int_Tables_number   1
_chemical_formula_structural   Li2Pr(P3Pd10)2
_chemical_formula_sum   'Li2 Pr1 P6 Pd20'
_cell_volume   453.95677434
_cell_formula_units_Z   1
loop_
 _symmetry_equiv_pos_site_id
 _symmetry_equiv_pos_as_xyz
  1  'x, y, z'
loop_
 _atom_site_type_symbol
 _atom_site_label
 _atom_site_symmetry_multiplicity
 _atom_site_fract_x
 _atom_site_fract_y
 _atom_site_fract_z
 _atom_site_occupancy
  Li  Li0  1  0.250000  0.250000  0.250000  1
  Li  Li1  1  0.000000  0.000000  0.000000  1
  Pr  Pr2  1  0.750000  0.750000  0.750000  1
  P  P3  1  0.738125  0.261875  0.261875  1
  P  P4  1  0.261875  0.738125  0.738125  1
  P  P5  1  0.261875  0.738125  0.261875  1
  P  P6  1  0.738125  0.261875  0.738125  1
  P  P7  1  0.261875  0.261875  0.738125  1
  P  P8  1  0.738125  0.738125  0.261875  1
  Pd  Pd9  1  0.381334  0.381334  0.381334  1
  Pd  Pd10  1  0.611247  0.611247  0.611247  1
  Pd  Pd11  1  0.381334  0.381334  0.856000  1
  Pd  Pd12  1  0.381334  0.856000  0.381334  1
  Pd  Pd13  1  0.611247  0.611247  0.166258  1
  Pd  Pd14  1  0.611247  0.166258  0.611247  1
  Pd  Pd15  1  0.856000  0.381334  0.381334  1
  Pd  Pd16  1  0.166258  0.611247  0.611247  1
  Pd  Pd17  1  0.344280  0.999476  0.999476  1
  Pd  Pd18  1  0.656769  0.999476  0.999476  1
  Pd  Pd19  1  0.999476  0.344280  0.656769  1
  Pd  Pd20  1  0.999476  0.656769  0.344280  1
  Pd  Pd21  1  0.999476  0.344280  0.999476  1
  Pd  Pd22  1  0.656769  0.999476  0.344280  1
  Pd  Pd23  1  0.999476  0.656769  0.999476  1
  Pd  Pd24  1  0.344280  0.999476  0.656769  1
  Pd  Pd25  1  0.999476  0.999476  0.344280  1
  Pd  Pd26  1  0.999476  0.999476  0.656769  1
  Pd  Pd27  1  0.656769  0.344280  0.999476  1
  Pd  Pd28  1  0.344280  0.656769  0.999476  1
