# generated using pymatgen
data_AcTb4(FeB3)2
_symmetry_space_group_name_H-M   'P 1'
_cell_length_a   8.47761444
_cell_length_b   8.47761429
_cell_length_c   8.47761323
_cell_angle_alpha   37.50136653
_cell_angle_beta   37.50137884
_cell_angle_gamma   37.50136303
_symmetry_Int_Tables_number   1
_chemical_formula_structural   AcTb4(FeB3)2
_chemical_formula_sum   'Ac1 Tb4 Fe2 B6'
_cell_volume   202.51212527
_cell_formula_units_Z   1
loop_
 _symmetry_equiv_pos_site_id
 _symmetry_equiv_pos_as_xyz
  1  'x, y, z'
loop_
 _atom_site_type_symbol
 _atom_site_label
 _atom_site_symmetry_multiplicity
 _atom_site_fract_x
 _atom_site_fract_y
 _atom_site_fract_z
 _atom_site_occupancy
  Ac  Ac0  1  0.000000  0.000000  0.000000  1
  Tb  Tb1  1  0.581037  0.581037  0.581037  1
  Tb  Tb2  1  0.418963  0.418963  0.418963  1
  Tb  Tb3  1  0.751592  0.751592  0.751592  1
  Tb  Tb4  1  0.248408  0.248408  0.248408  1
  Fe  Fe5  1  0.882908  0.882908  0.882908  1
  Fe  Fe6  1  0.117092  0.117092  0.117092  1
  B  B7  1  0.500000  0.832651  0.167349  1
  B  B8  1  0.167349  0.500000  0.832651  1
  B  B9  1  0.832651  0.167349  0.500000  1
  B  B10  1  0.500000  0.167349  0.832651  1
  B  B11  1  0.832651  0.500000  0.167349  1
  B  B12  1  0.167349  0.832651  0.500000  1
