# generated using pymatgen
data_Ca2GePd14
_symmetry_space_group_name_H-M   'P 1'
_cell_length_a   8.98575100
_cell_length_b   8.98575100
_cell_length_c   7.09814100
_cell_angle_alpha   90.00000000
_cell_angle_beta   90.00000000
_cell_angle_gamma   90.00000000
_symmetry_Int_Tables_number   1
_chemical_formula_structural   Ca2GePd14
_chemical_formula_sum   'Ca4 Ge2 Pd28'
_cell_volume   573.13031676
_cell_formula_units_Z   2
loop_
 _symmetry_equiv_pos_site_id
 _symmetry_equiv_pos_as_xyz
  1  'x, y, z'
loop_
 _atom_site_type_symbol
 _atom_site_label
 _atom_site_symmetry_multiplicity
 _atom_site_fract_x
 _atom_site_fract_y
 _atom_site_fract_z
 _atom_site_occupancy
  Ca  Ca0  1  0.250000  0.250000  0.061770  1
  Ca  Ca1  1  0.750000  0.250000  0.499999  1
  Ca  Ca2  1  0.250000  0.750000  0.499999  1
  Ca  Ca3  1  0.750000  0.750000  0.938230  1
  Ge  Ge4  1  0.750000  0.750000  0.448987  1
  Ge  Ge5  1  0.250000  0.250000  0.551012  1
  Pd  Pd6  1  0.000000  0.000000  0.000000  1
  Pd  Pd7  1  0.500000  0.000000  0.000000  1
  Pd  Pd8  1  0.000000  0.500000  0.000000  1
  Pd  Pd9  1  0.500000  0.500000  0.000000  1
  Pd  Pd10  1  0.598773  0.250000  0.142492  1
  Pd  Pd11  1  0.901227  0.250000  0.142492  1
  Pd  Pd12  1  0.250000  0.598773  0.142492  1
  Pd  Pd13  1  0.250000  0.901227  0.142492  1
  Pd  Pd14  1  0.750000  0.515935  0.253820  1
  Pd  Pd15  1  0.515935  0.750000  0.253820  1
  Pd  Pd16  1  0.984065  0.750000  0.253820  1
  Pd  Pd17  1  0.750000  0.984065  0.253820  1
  Pd  Pd18  1  0.079933  0.079933  0.378271  1
  Pd  Pd19  1  0.420068  0.079933  0.378271  1
  Pd  Pd20  1  0.079933  0.420068  0.378271  1
  Pd  Pd21  1  0.420068  0.420068  0.378271  1
  Pd  Pd22  1  0.579933  0.579933  0.621730  1
  Pd  Pd23  1  0.920067  0.579933  0.621730  1
  Pd  Pd24  1  0.579933  0.920067  0.621730  1
  Pd  Pd25  1  0.920067  0.920067  0.621730  1
  Pd  Pd26  1  0.250000  0.015935  0.746181  1
  Pd  Pd27  1  0.015935  0.250000  0.746181  1
  Pd  Pd28  1  0.484065  0.250000  0.746181  1
  Pd  Pd29  1  0.250000  0.484065  0.746181  1
  Pd  Pd30  1  0.750000  0.098772  0.857507  1
  Pd  Pd31  1  0.750000  0.401228  0.857507  1
  Pd  Pd32  1  0.098772  0.750000  0.857507  1
  Pd  Pd33  1  0.401228  0.750000  0.857507  1
