# generated using pymatgen
data_Dy3Ho(CoOs)4
_symmetry_space_group_name_H-M   'P 1'
_cell_length_a   5.23277186
_cell_length_b   5.10572395
_cell_length_c   9.07561300
_cell_angle_alpha   73.66290880
_cell_angle_beta   89.67199588
_cell_angle_gamma   119.20004284
_symmetry_Int_Tables_number   1
_chemical_formula_structural   Dy3Ho(CoOs)4
_chemical_formula_sum   'Dy3 Ho1 Co4 Os4'
_cell_volume   200.13510311
_cell_formula_units_Z   1
loop_
 _symmetry_equiv_pos_site_id
 _symmetry_equiv_pos_as_xyz
  1  'x, y, z'
loop_
 _atom_site_type_symbol
 _atom_site_label
 _atom_site_symmetry_multiplicity
 _atom_site_fract_x
 _atom_site_fract_y
 _atom_site_fract_z
 _atom_site_occupancy
  Dy  Dy0  1  0.379017  0.752664  0.873689  1
  Dy  Dy1  1  0.996177  0.997430  0.001317  1
  Dy  Dy2  1  0.495937  0.997390  0.501157  1
  Ho  Ho3  1  0.879201  0.752734  0.373732  1
  Co  Co4  1  0.187597  0.375084  0.437429  1
  Co  Co5  1  0.687386  0.374974  0.937438  1
  Co  Co6  1  0.937374  0.374991  0.187390  1
  Co  Co7  1  0.437780  0.375057  0.687667  1
  Os  Os8  1  0.437317  0.374429  0.188009  1
  Os  Os9  1  0.937448  0.375441  0.687081  1
  Os  Os10  1  0.437317  0.874879  0.188009  1
  Os  Os11  1  0.937448  0.874925  0.687081  1
