# generated using pymatgen
data_LaNd3U4(Nb3Si4)4
_symmetry_space_group_name_H-M   'P 1'
_cell_length_a   7.12737491
_cell_length_b   7.13929799
_cell_length_c   13.19716004
_cell_angle_alpha   90.11185907
_cell_angle_beta   90.06464696
_cell_angle_gamma   90.02808887
_symmetry_Int_Tables_number   1
_chemical_formula_structural   LaNd3U4(Nb3Si4)4
_chemical_formula_sum   'La1 Nd3 U4 Nb12 Si16'
_cell_volume   671.52848563
_cell_formula_units_Z   1
loop_
 _symmetry_equiv_pos_site_id
 _symmetry_equiv_pos_as_xyz
  1  'x, y, z'
loop_
 _atom_site_type_symbol
 _atom_site_label
 _atom_site_symmetry_multiplicity
 _atom_site_fract_x
 _atom_site_fract_y
 _atom_site_fract_z
 _atom_site_occupancy
  La  La0  1  0.992960  0.335316  0.218248  1
  Nd  Nd1  1  0.003427  0.662295  0.717414  1
  Nd  Nd2  1  0.162866  0.496110  0.467621  1
  Nd  Nd3  1  0.503999  0.836954  0.030758  1
  U  U4  1  0.839699  0.498645  0.966971  1
  U  U5  1  0.498651  0.159159  0.534229  1
  U  U6  1  0.339689  0.999552  0.780325  1
  U  U7  1  0.662239  0.002531  0.283709  1
  Nb  Nb8  1  0.169158  0.170550  0.996940  1
  Nb  Nb9  1  0.823958  0.835746  0.499031  1
  Nb  Nb10  1  0.334416  0.673568  0.250940  1
  Nb  Nb11  1  0.668534  0.327853  0.750403  1
  Nb  Nb12  1  0.157797  0.995520  0.377022  1
  Nb  Nb13  1  0.846256  0.004826  0.874259  1
  Nb  Nb14  1  0.504558  0.659674  0.627001  1
  Nb  Nb15  1  0.345902  0.493815  0.874773  1
  Nb  Nb16  1  0.496084  0.344312  0.123788  1
  Nb  Nb17  1  0.652097  0.504782  0.376736  1
  Nb  Nb18  1  0.995921  0.154298  0.627315  1
  Nb  Nb19  1  0.003894  0.842740  0.124341  1
  Si  Si20  1  0.295464  0.041093  0.186070  1
  Si  Si21  1  0.705140  0.959306  0.686103  1
  Si  Si22  1  0.459211  0.796719  0.435800  1
  Si  Si23  1  0.205947  0.542386  0.062523  1
  Si  Si24  1  0.543344  0.208100  0.934137  1
  Si  Si25  1  0.786546  0.454593  0.563792  1
  Si  Si26  1  0.043913  0.291710  0.814144  1
  Si  Si27  1  0.953931  0.713990  0.314103  1
  Si  Si28  1  0.377278  0.290729  0.316421  1
  Si  Si29  1  0.629066  0.704612  0.816996  1
  Si  Si30  1  0.207409  0.875109  0.566346  1
  Si  Si31  1  0.128096  0.793464  0.931754  1
  Si  Si32  1  0.795737  0.129614  0.062476  1
  Si  Si33  1  0.864915  0.199947  0.437645  1
  Si  Si34  1  0.299745  0.367226  0.684730  1
  Si  Si35  1  0.702156  0.633156  0.185135  1
