# generated using pymatgen
data_Fe7Re6
_symmetry_space_group_name_H-M   'P 1'
_cell_length_a   7.76877200
_cell_length_b   8.89764800
_cell_length_c   4.73701400
_cell_angle_alpha   90.00000000
_cell_angle_beta   90.00000000
_cell_angle_gamma   90.00000000
_symmetry_Int_Tables_number   1
_chemical_formula_structural   Fe7Re6
_chemical_formula_sum   'Fe14 Re12'
_cell_volume   327.44040193
_cell_formula_units_Z   2
loop_
 _symmetry_equiv_pos_site_id
 _symmetry_equiv_pos_as_xyz
  1  'x, y, z'
loop_
 _atom_site_type_symbol
 _atom_site_label
 _atom_site_symmetry_multiplicity
 _atom_site_fract_x
 _atom_site_fract_y
 _atom_site_fract_z
 _atom_site_occupancy
  Fe  Fe0  1  0.500001  0.000000  0.000000  1
  Fe  Fe1  1  0.908362  0.243053  0.000000  1
  Fe  Fe2  1  0.408363  0.256947  0.000000  1
  Fe  Fe3  1  0.000000  0.500000  0.000000  1
  Fe  Fe4  1  0.591638  0.743054  0.000000  1
  Fe  Fe5  1  0.091638  0.756946  0.000000  1
  Fe  Fe6  1  0.660292  0.184383  0.256403  1
  Fe  Fe7  1  0.160291  0.315617  0.256403  1
  Fe  Fe8  1  0.839708  0.684383  0.256403  1
  Fe  Fe9  1  0.339708  0.815617  0.256403  1
  Fe  Fe10  1  0.660292  0.184383  0.743598  1
  Fe  Fe11  1  0.160291  0.315617  0.743598  1
  Fe  Fe12  1  0.839708  0.684383  0.743598  1
  Fe  Fe13  1  0.339708  0.815617  0.743598  1
  Re  Re14  1  0.167126  0.048635  0.000000  1
  Re  Re15  1  0.667126  0.451364  0.000000  1
  Re  Re16  1  0.332875  0.548636  0.000000  1
  Re  Re17  1  0.832874  0.951364  0.000000  1
  Re  Re18  1  0.346888  0.081297  0.500000  1
  Re  Re19  1  0.953012  0.133127  0.500000  1
  Re  Re20  1  0.453013  0.366874  0.500000  1
  Re  Re21  1  0.846889  0.418703  0.500000  1
  Re  Re22  1  0.153111  0.581297  0.500000  1
  Re  Re23  1  0.546989  0.633127  0.500000  1
  Re  Re24  1  0.046988  0.866873  0.500000  1
  Re  Re25  1  0.653112  0.918703  0.500000  1
