# generated using pymatgen
data_Ho10In4Hg4Pd3Pt
_symmetry_space_group_name_H-M   'P 1'
_cell_length_a   3.61371800
_cell_length_b   8.00970883
_cell_length_c   18.27479190
_cell_angle_alpha   90.05222073
_cell_angle_beta   90.00000000
_cell_angle_gamma   90.00000000
_symmetry_Int_Tables_number   1
_chemical_formula_structural   Ho10In4Hg4Pd3Pt
_chemical_formula_sum   'Ho10 In4 Hg4 Pd3 Pt1'
_cell_volume   528.96050642
_cell_formula_units_Z   1
loop_
 _symmetry_equiv_pos_site_id
 _symmetry_equiv_pos_as_xyz
  1  'x, y, z'
loop_
 _atom_site_type_symbol
 _atom_site_label
 _atom_site_symmetry_multiplicity
 _atom_site_fract_x
 _atom_site_fract_y
 _atom_site_fract_z
 _atom_site_occupancy
  Ho  Ho0  1  0.000000  0.499393  0.500022  1
  Ho  Ho1  1  0.000000  0.998858  0.999898  1
  Ho  Ho2  1  0.000000  0.741638  0.283965  1
  Ho  Ho3  1  0.000000  0.254694  0.715282  1
  Ho  Ho4  1  0.000000  0.755160  0.784734  1
  Ho  Ho5  1  0.000000  0.250167  0.215669  1
  Ho  Ho6  1  0.000000  0.609925  0.085162  1
  Ho  Ho7  1  0.000000  0.391279  0.916398  1
  Ho  Ho8  1  0.000000  0.890395  0.583542  1
  Ho  Ho9  1  0.000000  0.108157  0.415922  1
  In  In10  1  0.500000  0.579784  0.648985  1
  In  In11  1  0.500000  0.419307  0.352188  1
  In  In12  1  0.500000  0.923607  0.148994  1
  In  In13  1  0.500000  0.079801  0.850945  1
  Hg  Hg14  1  0.500000  0.712685  0.933299  1
  Hg  Hg15  1  0.500000  0.285596  0.064538  1
  Hg  Hg16  1  0.500000  0.787106  0.434077  1
  Hg  Hg17  1  0.500000  0.211839  0.566464  1
  Pd  Pd18  1  0.500000  0.467649  0.801807  1
  Pd  Pd19  1  0.500000  0.967266  0.697856  1
  Pd  Pd20  1  0.500000  0.032486  0.301696  1
  Pt  Pt21  1  0.500000  0.533206  0.198559  1
