# generated using pymatgen
data_DyY6Cd(Co3Sn11)2
_symmetry_space_group_name_H-M   'P 1'
_cell_length_a   9.69966900
_cell_length_b   9.69966946
_cell_length_c   10.03031100
_cell_angle_alpha   90.00000000
_cell_angle_beta   90.00000000
_cell_angle_gamma   120.00000186
_symmetry_Int_Tables_number   1
_chemical_formula_structural   DyY6Cd(Co3Sn11)2
_chemical_formula_sum   'Dy1 Y6 Cd1 Co6 Sn22'
_cell_volume   817.25741851
_cell_formula_units_Z   1
loop_
 _symmetry_equiv_pos_site_id
 _symmetry_equiv_pos_as_xyz
  1  'x, y, z'
loop_
 _atom_site_type_symbol
 _atom_site_label
 _atom_site_symmetry_multiplicity
 _atom_site_fract_x
 _atom_site_fract_y
 _atom_site_fract_z
 _atom_site_occupancy
  Dy  Dy0  1  0.000000  0.000000  0.000000  1
  Y  Y1  1  0.043759  0.521880  0.306215  1
  Y  Y2  1  0.478120  0.956241  0.306215  1
  Y  Y3  1  0.478120  0.521880  0.306215  1
  Y  Y4  1  0.956241  0.478120  0.693785  1
  Y  Y5  1  0.521880  0.043759  0.693785  1
  Y  Y6  1  0.521880  0.478120  0.693785  1
  Cd  Cd7  1  0.000000  0.000000  0.500000  1
  Co  Co8  1  0.167527  0.832473  0.803670  1
  Co  Co9  1  0.664946  0.832473  0.803670  1
  Co  Co10  1  0.167527  0.335054  0.803670  1
  Co  Co11  1  0.832473  0.167527  0.196330  1
  Co  Co12  1  0.335054  0.167527  0.196330  1
  Co  Co13  1  0.832473  0.664946  0.196330  1
  Sn  Sn14  1  0.116079  0.883921  0.270998  1
  Sn  Sn15  1  0.767842  0.883921  0.270998  1
  Sn  Sn16  1  0.116079  0.232158  0.270998  1
  Sn  Sn17  1  0.883921  0.116079  0.729002  1
  Sn  Sn18  1  0.232158  0.116079  0.729002  1
  Sn  Sn19  1  0.883921  0.767842  0.729002  1
  Sn  Sn20  1  0.345809  0.000000  0.000000  1
  Sn  Sn21  1  0.654191  0.654191  0.000000  1
  Sn  Sn22  1  0.000000  0.345809  0.000000  1
  Sn  Sn23  1  0.345809  0.345809  0.000000  1
  Sn  Sn24  1  0.000000  0.654191  0.000000  1
  Sn  Sn25  1  0.654191  0.000000  0.000000  1
  Sn  Sn26  1  0.782353  0.564707  0.451964  1
  Sn  Sn27  1  0.782353  0.217647  0.451964  1
  Sn  Sn28  1  0.435293  0.217647  0.451964  1
  Sn  Sn29  1  0.217647  0.435293  0.548036  1
  Sn  Sn30  1  0.217647  0.782353  0.548036  1
  Sn  Sn31  1  0.564707  0.782353  0.548036  1
  Sn  Sn32  1  0.666667  0.333333  0.181849  1
  Sn  Sn33  1  0.333333  0.666667  0.818151  1
  Sn  Sn34  1  0.666667  0.333333  0.883564  1
  Sn  Sn35  1  0.333333  0.666667  0.116436  1
