# generated using pymatgen
data_TbY2Er2Sn3
_symmetry_space_group_name_H-M   'P 1'
_cell_length_a   8.94853364
_cell_length_b   8.95441313
_cell_length_c   6.51888300
_cell_angle_alpha   90.00000000
_cell_angle_beta   90.00000000
_cell_angle_gamma   120.02174075
_symmetry_Int_Tables_number   1
_chemical_formula_structural   TbY2Er2Sn3
_chemical_formula_sum   'Tb2 Y4 Er4 Sn6'
_cell_volume   452.26984974
_cell_formula_units_Z   2
loop_
 _symmetry_equiv_pos_site_id
 _symmetry_equiv_pos_as_xyz
  1  'x, y, z'
loop_
 _atom_site_type_symbol
 _atom_site_label
 _atom_site_symmetry_multiplicity
 _atom_site_fract_x
 _atom_site_fract_y
 _atom_site_fract_z
 _atom_site_occupancy
  Tb  Tb0  1  0.239331  0.239340  0.750000  1
  Tb  Tb1  1  0.239331  0.999991  0.250000  1
  Y  Y2  1  0.999962  0.760596  0.750000  1
  Y  Y3  1  0.999962  0.239366  0.250000  1
  Y  Y4  1  0.760760  0.760780  0.250000  1
  Y  Y5  1  0.760760  0.999980  0.750000  1
  Er  Er6  1  0.333309  0.666655  0.500000  1
  Er  Er7  1  0.666775  0.333387  0.000000  1
  Er  Er8  1  0.666775  0.333387  0.500000  1
  Er  Er9  1  0.333309  0.666655  0.000000  1
  Sn  Sn10  1  0.396114  0.999847  0.750000  1
  Sn  Sn11  1  0.396114  0.396267  0.250000  1
  Sn  Sn12  1  0.999795  0.603607  0.250000  1
  Sn  Sn13  1  0.999795  0.396188  0.750000  1
  Sn  Sn14  1  0.603954  0.604038  0.750000  1
  Sn  Sn15  1  0.603954  0.999916  0.250000  1
