# generated using pymatgen
data_Tb2Fe(Co2B)3
_symmetry_space_group_name_H-M   'P 1'
_cell_length_a   5.07371300
_cell_length_b   5.07171762
_cell_length_c   12.62655500
_cell_angle_alpha   89.99996389
_cell_angle_beta   90.00007219
_cell_angle_gamma   120.01299593
_symmetry_Int_Tables_number   1
_chemical_formula_structural   Tb2Fe(Co2B)3
_chemical_formula_sum   'Tb4 Fe2 Co12 B6'
_cell_volume   281.34524583
_cell_formula_units_Z   2
loop_
 _symmetry_equiv_pos_site_id
 _symmetry_equiv_pos_as_xyz
  1  'x, y, z'
loop_
 _atom_site_type_symbol
 _atom_site_label
 _atom_site_symmetry_multiplicity
 _atom_site_fract_x
 _atom_site_fract_y
 _atom_site_fract_z
 _atom_site_occupancy
  Tb  Tb0  1  0.999986  0.000000  0.000016  1
  Tb  Tb1  1  0.999991  0.000000  0.499959  1
  Tb  Tb2  1  0.999986  0.000000  0.260426  1
  Tb  Tb3  1  0.999998  0.000000  0.739507  1
  Fe  Fe4  1  0.333333  0.666690  0.000055  1
  Fe  Fe5  1  0.666643  0.333310  0.000055  1
  Co  Co6  1  0.499986  0.000000  0.155754  1
  Co  Co7  1  0.499988  0.500000  0.155705  1
  Co  Co8  1  0.999988  0.500000  0.155705  1
  Co  Co9  1  0.499997  0.000000  0.844381  1
  Co  Co10  1  0.499997  0.500001  0.844340  1
  Co  Co11  1  0.999996  0.499999  0.844340  1
  Co  Co12  1  0.499990  0.000000  0.384853  1
  Co  Co13  1  0.499991  0.500000  0.384824  1
  Co  Co14  1  0.999990  0.500000  0.384824  1
  Co  Co15  1  0.499995  0.000000  0.615092  1
  Co  Co16  1  0.499995  0.500000  0.615107  1
  Co  Co17  1  0.999995  0.500000  0.615107  1
  B  B18  1  0.333287  0.666590  0.499969  1
  B  B19  1  0.666697  0.333410  0.499969  1
  B  B20  1  0.333359  0.666742  0.268451  1
  B  B21  1  0.666618  0.333258  0.268451  1
  B  B22  1  0.666696  0.333400  0.731553  1
  B  B23  1  0.333296  0.666600  0.731553  1
