# generated using pymatgen
data_CeEr(InNi2)2
_symmetry_space_group_name_H-M   'P 1'
_cell_length_a   5.10341700
_cell_length_b   4.01922800
_cell_length_c   7.01795800
_cell_angle_alpha   90.00000000
_cell_angle_beta   90.00000000
_cell_angle_gamma   90.00000000
_symmetry_Int_Tables_number   1
_chemical_formula_structural   CeEr(InNi2)2
_chemical_formula_sum   'Ce1 Er1 In2 Ni4'
_cell_volume   143.95092636
_cell_formula_units_Z   1
loop_
 _symmetry_equiv_pos_site_id
 _symmetry_equiv_pos_as_xyz
  1  'x, y, z'
loop_
 _atom_site_type_symbol
 _atom_site_label
 _atom_site_symmetry_multiplicity
 _atom_site_fract_x
 _atom_site_fract_y
 _atom_site_fract_z
 _atom_site_occupancy
  Ce  Ce0  1  0.750000  0.000000  0.252516  1
  Er  Er1  1  0.250001  0.000000  0.737719  1
  In  In2  1  0.250001  0.500000  0.364844  1
  In  In3  1  0.750000  0.500000  0.642521  1
  Ni  Ni4  1  0.004281  0.500000  0.998344  1
  Ni  Ni5  1  0.495719  0.500000  0.998344  1
  Ni  Ni6  1  0.250001  0.000000  0.122900  1
  Ni  Ni7  1  0.750000  0.000000  0.882814  1
