# generated using pymatgen
data_Th3Sn3RuRh2
_symmetry_space_group_name_H-M   'P 1'
_cell_length_a   7.59088600
_cell_length_b   7.59088590
_cell_length_c   4.11210300
_cell_angle_alpha   90.00000000
_cell_angle_beta   90.00000000
_cell_angle_gamma   120.00000043
_symmetry_Int_Tables_number   1
_chemical_formula_structural   Th3Sn3RuRh2
_chemical_formula_sum   'Th3 Sn3 Ru1 Rh2'
_cell_volume   205.20103503
_cell_formula_units_Z   1
loop_
 _symmetry_equiv_pos_site_id
 _symmetry_equiv_pos_as_xyz
  1  'x, y, z'
loop_
 _atom_site_type_symbol
 _atom_site_label
 _atom_site_symmetry_multiplicity
 _atom_site_fract_x
 _atom_site_fract_y
 _atom_site_fract_z
 _atom_site_occupancy
  Th  Th0  1  0.414705  0.410952  0.500000  1
  Th  Th1  1  0.589048  0.003753  0.500000  1
  Th  Th2  1  0.996247  0.585295  0.500000  1
  Sn  Sn3  1  0.749237  0.747803  0.000000  1
  Sn  Sn4  1  0.252197  0.001434  0.000000  1
  Sn  Sn5  1  0.998566  0.250763  0.000000  1
  Ru  Ru6  1  0.666667  0.333333  0.000000  1
  Rh  Rh7  1  0.333333  0.666667  0.000000  1
  Rh  Rh8  1  0.000000  0.000000  0.500000  1
