# generated using pymatgen
data_Yb8Cu4SiPd20
_symmetry_space_group_name_H-M   'P 1'
_cell_length_a   7.96845800
_cell_length_b   8.31531900
_cell_length_c   8.28370900
_cell_angle_alpha   90.00000000
_cell_angle_beta   90.00000000
_cell_angle_gamma   90.00000000
_symmetry_Int_Tables_number   1
_chemical_formula_structural   Yb8Cu4SiPd20
_chemical_formula_sum   'Yb8 Cu4 Si1 Pd20'
_cell_volume   548.88079667
_cell_formula_units_Z   1
loop_
 _symmetry_equiv_pos_site_id
 _symmetry_equiv_pos_as_xyz
  1  'x, y, z'
loop_
 _atom_site_type_symbol
 _atom_site_label
 _atom_site_symmetry_multiplicity
 _atom_site_fract_x
 _atom_site_fract_y
 _atom_site_fract_z
 _atom_site_occupancy
  Yb  Yb0  1  0.251608  0.249504  0.252129  1
  Yb  Yb1  1  0.748392  0.750496  0.747871  1
  Yb  Yb2  1  0.748392  0.750496  0.252129  1
  Yb  Yb3  1  0.748392  0.249504  0.747871  1
  Yb  Yb4  1  0.251608  0.249504  0.747871  1
  Yb  Yb5  1  0.251608  0.750496  0.252129  1
  Yb  Yb6  1  0.251608  0.750496  0.747871  1
  Yb  Yb7  1  0.748392  0.249504  0.252129  1
  Cu  Cu8  1  0.258188  0.500000  0.000000  1
  Cu  Cu9  1  0.741812  0.500000  0.000000  1
  Cu  Cu10  1  0.251904  0.500000  0.500000  1
  Cu  Cu11  1  0.748096  0.500000  0.500000  1
  Si  Si12  1  0.000000  0.000000  0.000000  1
  Pd  Pd13  1  0.000000  0.264350  0.500000  1
  Pd  Pd14  1  0.500000  0.272744  0.000000  1
  Pd  Pd15  1  0.000000  0.735650  0.500000  1
  Pd  Pd16  1  0.500000  0.727256  0.000000  1
  Pd  Pd17  1  0.500000  0.000000  0.261555  1
  Pd  Pd18  1  0.258181  0.000000  0.500000  1
  Pd  Pd19  1  0.500000  0.000000  0.738445  1
  Pd  Pd20  1  0.741819  0.000000  0.500000  1
  Pd  Pd21  1  0.000000  0.500000  0.258855  1
  Pd  Pd22  1  0.000000  0.500000  0.741145  1
  Pd  Pd23  1  0.500000  0.262158  0.500000  1
  Pd  Pd24  1  0.500000  0.737842  0.500000  1
  Pd  Pd25  1  0.500000  0.500000  0.254823  1
  Pd  Pd26  1  0.500000  0.500000  0.745177  1
  Pd  Pd27  1  0.290351  0.000000  0.000000  1
  Pd  Pd28  1  0.709649  0.000000  0.000000  1
  Pd  Pd29  1  0.000000  0.287546  0.000000  1
  Pd  Pd30  1  0.000000  0.712454  0.000000  1
  Pd  Pd31  1  0.000000  0.000000  0.279863  1
  Pd  Pd32  1  0.000000  0.000000  0.720137  1
