# generated using pymatgen
data_TbSm(TmBi)3
_symmetry_space_group_name_H-M   'P 1'
_cell_length_a   8.26342500
_cell_length_b   9.45996600
_cell_length_c   12.07844300
_cell_angle_alpha   90.00000000
_cell_angle_beta   90.00000000
_cell_angle_gamma   90.00000000
_symmetry_Int_Tables_number   1
_chemical_formula_structural   TbSm(TmBi)3
_chemical_formula_sum   'Tb4 Sm4 Tm12 Bi12'
_cell_volume   944.19265872
_cell_formula_units_Z   4
loop_
 _symmetry_equiv_pos_site_id
 _symmetry_equiv_pos_as_xyz
  1  'x, y, z'
loop_
 _atom_site_type_symbol
 _atom_site_label
 _atom_site_symmetry_multiplicity
 _atom_site_fract_x
 _atom_site_fract_y
 _atom_site_fract_z
 _atom_site_occupancy
  Tb  Tb0  1  0.353178  0.750000  0.216701  1
  Tb  Tb1  1  0.853178  0.750000  0.283299  1
  Tb  Tb2  1  0.646822  0.250000  0.783299  1
  Tb  Tb3  1  0.146822  0.250000  0.716701  1
  Sm  Sm4  1  0.185334  0.750000  0.719538  1
  Sm  Sm5  1  0.685334  0.750000  0.780462  1
  Sm  Sm6  1  0.814666  0.250000  0.280462  1
  Sm  Sm7  1  0.314666  0.250000  0.219538  1
  Tm  Tm8  1  0.024535  0.750000  0.988960  1
  Tm  Tm9  1  0.524535  0.750000  0.511040  1
  Tm  Tm10  1  0.975465  0.250000  0.011040  1
  Tm  Tm11  1  0.475465  0.250000  0.488960  1
  Tm  Tm12  1  0.307375  0.434587  0.940453  1
  Tm  Tm13  1  0.807375  0.065413  0.559547  1
  Tm  Tm14  1  0.692625  0.934587  0.059547  1
  Tm  Tm15  1  0.192625  0.565413  0.440453  1
  Tm  Tm16  1  0.692625  0.565413  0.059547  1
  Tm  Tm17  1  0.192625  0.934587  0.440453  1
  Tm  Tm18  1  0.307375  0.065413  0.940453  1
  Tm  Tm19  1  0.807375  0.434587  0.559547  1
  Bi  Bi20  1  0.434202  0.005824  0.671475  1
  Bi  Bi21  1  0.934202  0.494176  0.828525  1
  Bi  Bi22  1  0.565798  0.505824  0.328525  1
  Bi  Bi23  1  0.065798  0.994176  0.171475  1
  Bi  Bi24  1  0.565798  0.994176  0.328525  1
  Bi  Bi25  1  0.065798  0.505824  0.171475  1
  Bi  Bi26  1  0.434202  0.494176  0.671475  1
  Bi  Bi27  1  0.934202  0.005824  0.828525  1
  Bi  Bi28  1  0.405492  0.750000  0.959431  1
  Bi  Bi29  1  0.905492  0.750000  0.540569  1
  Bi  Bi30  1  0.594508  0.250000  0.040569  1
  Bi  Bi31  1  0.094508  0.250000  0.459431  1
