# generated using pymatgen
data_Yb3Cr2(GeO4)3
_symmetry_space_group_name_H-M   'P 1'
_cell_length_a   10.69919570
_cell_length_b   10.69919584
_cell_length_c   10.69919600
_cell_angle_alpha   109.47122851
_cell_angle_beta   109.47121173
_cell_angle_gamma   109.47121556
_symmetry_Int_Tables_number   1
_chemical_formula_structural   Yb3Cr2(GeO4)3
_chemical_formula_sum   'Yb12 Cr8 Ge12 O48'
_cell_volume   942.82600746
_cell_formula_units_Z   4
loop_
 _symmetry_equiv_pos_site_id
 _symmetry_equiv_pos_as_xyz
  1  'x, y, z'
loop_
 _atom_site_type_symbol
 _atom_site_label
 _atom_site_symmetry_multiplicity
 _atom_site_fract_x
 _atom_site_fract_y
 _atom_site_fract_z
 _atom_site_occupancy
  Yb  Yb0  1  0.375000  0.749999  0.125000  1
  Yb  Yb1  1  0.250000  0.375000  0.125001  1
  Yb  Yb2  1  0.375000  0.125000  0.250000  1
  Yb  Yb3  1  0.875001  0.625001  0.250000  1
  Yb  Yb4  1  0.749999  0.125001  0.375000  1
  Yb  Yb5  1  0.125000  0.250000  0.375000  1
  Yb  Yb6  1  0.875000  0.750001  0.624999  1
  Yb  Yb7  1  0.250001  0.874999  0.625001  1
  Yb  Yb8  1  0.125000  0.375000  0.750000  1
  Yb  Yb9  1  0.625001  0.875000  0.750000  1
  Yb  Yb10  1  0.750000  0.625001  0.875000  1
  Yb  Yb11  1  0.624999  0.250000  0.875000  1
  Cr  Cr12  1  0.000000  0.000000  0.000000  1
  Cr  Cr13  1  0.500000  0.000000  0.000000  1
  Cr  Cr14  1  0.000000  0.499999  0.000000  1
  Cr  Cr15  1  0.499999  0.500000  0.000000  1
  Cr  Cr16  1  0.000000  0.000000  0.500000  1
  Cr  Cr17  1  0.499999  0.500000  0.500000  1
  Cr  Cr18  1  0.000000  0.500000  0.500000  1
  Cr  Cr19  1  0.499999  0.000000  0.500000  1
  Ge  Ge20  1  0.874999  0.250001  0.125000  1
  Ge  Ge21  1  0.750001  0.875000  0.125000  1
  Ge  Ge22  1  0.625000  0.374999  0.250000  1
  Ge  Ge23  1  0.125000  0.875000  0.250000  1
  Ge  Ge24  1  0.250000  0.624999  0.375000  1
  Ge  Ge25  1  0.625000  0.750000  0.375000  1
  Ge  Ge26  1  0.750001  0.375000  0.624999  1
  Ge  Ge27  1  0.374999  0.249999  0.624999  1
  Ge  Ge28  1  0.875001  0.125001  0.750000  1
  Ge  Ge29  1  0.375000  0.625000  0.750000  1
  Ge  Ge30  1  0.250000  0.124999  0.875000  1
  Ge  Ge31  1  0.125001  0.750000  0.875000  1
  O  O32  1  0.204307  0.119937  0.019901  1
  O  O33  1  0.315593  0.899965  0.019902  1
  O  O34  1  0.704309  0.684407  0.084372  1
  O  O35  1  0.880062  0.399965  0.084372  1
  O  O36  1  0.619938  0.415628  0.100035  1
  O  O37  1  0.980099  0.684407  0.100035  1
  O  O38  1  0.019901  0.204307  0.119937  1
  O  O39  1  0.600035  0.915628  0.119938  1
  O  O40  1  0.204310  0.584371  0.184407  1
  O  O41  1  0.480099  0.600035  0.184408  1
  O  O42  1  0.119937  0.019901  0.204308  1
  O  O43  1  0.584372  0.184407  0.204309  1
  O  O44  1  0.315593  0.915627  0.295692  1
  O  O45  1  0.480099  0.380063  0.295692  1
  O  O46  1  0.915628  0.295692  0.315593  1
  O  O47  1  0.899965  0.019901  0.315593  1
  O  O48  1  0.584371  0.899964  0.380061  1
  O  O49  1  0.295693  0.480099  0.380063  1
  O  O50  1  0.815592  0.519901  0.399964  1
  O  O51  1  0.084372  0.880062  0.399966  1
  O  O52  1  0.815593  0.795691  0.415627  1
  O  O53  1  0.100035  0.619937  0.415628  1
  O  O54  1  0.380063  0.295692  0.480099  1
  O  O55  1  0.600035  0.184408  0.480099  1
  O  O56  1  0.399965  0.815593  0.519901  1
  O  O57  1  0.619938  0.704309  0.519903  1
  O  O58  1  0.899964  0.380062  0.584372  1
  O  O59  1  0.184407  0.204309  0.584373  1
  O  O60  1  0.915628  0.119938  0.600035  1
  O  O61  1  0.184408  0.480099  0.600035  1
  O  O62  1  0.415627  0.100035  0.619937  1
  O  O63  1  0.704309  0.519902  0.619939  1
  O  O64  1  0.100035  0.980098  0.684407  1
  O  O65  1  0.084371  0.704308  0.684407  1
  O  O66  1  0.684406  0.084372  0.704308  1
  O  O67  1  0.519902  0.619938  0.704309  1
  O  O68  1  0.415627  0.815592  0.795690  1
  O  O69  1  0.880063  0.980099  0.795693  1
  O  O70  1  0.519901  0.399966  0.815592  1
  O  O71  1  0.795690  0.415628  0.815592  1
  O  O72  1  0.399965  0.084371  0.880062  1
  O  O73  1  0.980099  0.795693  0.880064  1
  O  O74  1  0.380062  0.584371  0.899964  1
  O  O75  1  0.019901  0.315594  0.899965  1
  O  O76  1  0.295692  0.315593  0.915628  1
  O  O77  1  0.119938  0.600035  0.915628  1
  O  O78  1  0.684407  0.100034  0.980097  1
  O  O79  1  0.795693  0.880063  0.980100  1
