# generated using pymatgen
data_BaMnNi2(PO4)3
_symmetry_space_group_name_H-M   'P 1'
_cell_length_a   9.22383591
_cell_length_b   9.22383666
_cell_length_c   9.22383582
_cell_angle_alpha   137.73558261
_cell_angle_beta   111.12239874
_cell_angle_gamma   84.23719859
_symmetry_Int_Tables_number   1
_chemical_formula_structural   BaMnNi2(PO4)3
_chemical_formula_sum   'Ba2 Mn2 Ni4 P6 O24'
_cell_volume   474.72290173
_cell_formula_units_Z   2
loop_
 _symmetry_equiv_pos_site_id
 _symmetry_equiv_pos_as_xyz
  1  'x, y, z'
loop_
 _atom_site_type_symbol
 _atom_site_label
 _atom_site_symmetry_multiplicity
 _atom_site_fract_x
 _atom_site_fract_y
 _atom_site_fract_z
 _atom_site_occupancy
  Ba  Ba0  1  0.250000  0.348097  0.098097  1
  Ba  Ba1  1  0.750000  0.651903  0.901903  1
  Mn  Mn2  1  0.000000  0.500000  0.500000  1
  Mn  Mn3  1  0.500000  0.000000  0.500000  1
  Ni  Ni4  1  0.116474  0.116474  0.500000  1
  Ni  Ni5  1  0.383526  0.883526  0.000000  1
  Ni  Ni6  1  0.616474  0.116474  0.000000  1
  Ni  Ni7  1  0.883526  0.883526  0.500000  1
  P  P8  1  0.250000  0.838391  0.588391  1
  P  P9  1  0.750000  0.161609  0.411609  1
  P  P10  1  0.318985  0.318985  0.500000  1
  P  P11  1  0.181015  0.681015  0.000000  1
  P  P12  1  0.818985  0.318985  0.000000  1
  P  P13  1  0.681015  0.681015  0.500000  1
  O  O14  1  0.342317  0.800830  0.458514  1
  O  O15  1  0.657683  0.199170  0.541486  1
  O  O16  1  0.842317  0.383803  0.541486  1
  O  O17  1  0.157683  0.616197  0.458514  1
  O  O18  1  0.129092  0.980230  0.609321  1
  O  O19  1  0.629092  0.019770  0.148862  1
  O  O20  1  0.870908  0.019770  0.390679  1
  O  O21  1  0.370908  0.980230  0.851138  1
  O  O22  1  0.345481  0.196727  0.280973  1
  O  O23  1  0.084246  0.803273  0.148754  1
  O  O24  1  0.845481  0.564509  0.148754  1
  O  O25  1  0.584246  0.435491  0.280973  1
  O  O26  1  0.654519  0.803273  0.719027  1
  O  O27  1  0.915754  0.196727  0.851246  1
  O  O28  1  0.154519  0.435491  0.851246  1
  O  O29  1  0.415754  0.564509  0.719027  1
  O  O30  1  0.130112  0.286822  0.430888  1
  O  O31  1  0.144067  0.713178  0.843291  1
  O  O32  1  0.630112  0.199224  0.843291  1
  O  O33  1  0.644067  0.800776  0.430888  1
  O  O34  1  0.869888  0.713178  0.569112  1
  O  O35  1  0.855933  0.286822  0.156709  1
  O  O36  1  0.369888  0.800776  0.156709  1
  O  O37  1  0.355933  0.199224  0.569112  1
