# generated using pymatgen
data_Tm3Sc2Pb3
_symmetry_space_group_name_H-M   'P 1'
_cell_length_a   6.31634600
_cell_length_b   8.81409009
_cell_length_c   8.81483913
_cell_angle_alpha   119.99718755
_cell_angle_beta   90.00000000
_cell_angle_gamma   90.00000000
_symmetry_Int_Tables_number   1
_chemical_formula_structural   Tm3Sc2Pb3
_chemical_formula_sum   'Tm6 Sc4 Pb6'
_cell_volume   425.01154447
_cell_formula_units_Z   2
loop_
 _symmetry_equiv_pos_site_id
 _symmetry_equiv_pos_as_xyz
  1  'x, y, z'
loop_
 _atom_site_type_symbol
 _atom_site_label
 _atom_site_symmetry_multiplicity
 _atom_site_fract_x
 _atom_site_fract_y
 _atom_site_fract_z
 _atom_site_occupancy
  Tm  Tm0  1  0.750001  0.238138  0.000000  1
  Tm  Tm1  1  0.749990  0.761796  0.761826  1
  Tm  Tm2  1  0.749990  0.999970  0.238174  1
  Tm  Tm3  1  0.250001  0.761862  0.000000  1
  Tm  Tm4  1  0.249990  0.238204  0.238174  1
  Tm  Tm5  1  0.249990  0.000030  0.761826  1
  Sc  Sc6  1  0.500009  0.333336  0.666705  1
  Sc  Sc7  1  0.500009  0.666631  0.333295  1
  Sc  Sc8  1  0.000009  0.666664  0.333295  1
  Sc  Sc9  1  0.000009  0.333369  0.666705  1
  Pb  Pb10  1  0.749994  0.602276  0.000000  1
  Pb  Pb11  1  0.750004  0.397674  0.397664  1
  Pb  Pb12  1  0.750004  0.000010  0.602336  1
  Pb  Pb13  1  0.249994  0.397724  0.000000  1
  Pb  Pb14  1  0.250004  0.602326  0.602336  1
  Pb  Pb15  1  0.250004  0.999990  0.397664  1
