# generated using pymatgen
data_Ho2BeB3Ru5
_symmetry_space_group_name_H-M   'P 1'
_cell_length_a   3.09411400
_cell_length_b   8.78140010
_cell_length_c   10.30376404
_cell_angle_alpha   90.12651005
_cell_angle_beta   90.00000000
_cell_angle_gamma   90.00000000
_symmetry_Int_Tables_number   1
_chemical_formula_structural   Ho2BeB3Ru5
_chemical_formula_sum   'Ho4 Be2 B6 Ru10'
_cell_volume   279.95931470
_cell_formula_units_Z   2
loop_
 _symmetry_equiv_pos_site_id
 _symmetry_equiv_pos_as_xyz
  1  'x, y, z'
loop_
 _atom_site_type_symbol
 _atom_site_label
 _atom_site_symmetry_multiplicity
 _atom_site_fract_x
 _atom_site_fract_y
 _atom_site_fract_z
 _atom_site_occupancy
  Ho  Ho0  1  0.500000  0.840706  0.182819  1
  Ho  Ho1  1  0.500000  0.159294  0.817181  1
  Ho  Ho2  1  0.500000  0.657487  0.681490  1
  Ho  Ho3  1  0.500000  0.342513  0.318510  1
  Be  Be4  1  0.500000  0.963304  0.593274  1
  Be  Be5  1  0.500000  0.036696  0.406726  1
  B  B6  1  0.500000  0.853298  0.899119  1
  B  B7  1  0.500000  0.146702  0.100881  1
  B  B8  1  0.500000  0.653209  0.404006  1
  B  B9  1  0.500000  0.346791  0.595994  1
  B  B10  1  0.500000  0.466785  0.910992  1
  B  B11  1  0.500000  0.533215  0.089008  1
  Ru  Ru12  1  0.000000  0.656158  0.957078  1
  Ru  Ru13  1  0.000000  0.343842  0.042922  1
  Ru  Ru14  1  0.000000  0.831112  0.449688  1
  Ru  Ru15  1  0.000000  0.168888  0.550312  1
  Ru  Ru16  1  0.000000  0.000000  0.000000  1
  Ru  Ru17  1  0.000000  0.408054  0.761631  1
  Ru  Ru18  1  0.000000  0.591946  0.238369  1
  Ru  Ru19  1  0.000000  0.500000  0.500000  1
  Ru  Ru20  1  0.000000  0.898987  0.749723  1
  Ru  Ru21  1  0.000000  0.101013  0.250277  1
