# generated using pymatgen
data_BaInGa2Au3
_symmetry_space_group_name_H-M   'P 1'
_cell_length_a   4.63371800
_cell_length_b   7.68611100
_cell_length_c   8.99834600
_cell_angle_alpha   90.00000000
_cell_angle_beta   90.00000000
_cell_angle_gamma   90.00000000
_symmetry_Int_Tables_number   1
_chemical_formula_structural   BaInGa2Au3
_chemical_formula_sum   'Ba2 In2 Ga4 Au6'
_cell_volume   320.47853036
_cell_formula_units_Z   2
loop_
 _symmetry_equiv_pos_site_id
 _symmetry_equiv_pos_as_xyz
  1  'x, y, z'
loop_
 _atom_site_type_symbol
 _atom_site_label
 _atom_site_symmetry_multiplicity
 _atom_site_fract_x
 _atom_site_fract_y
 _atom_site_fract_z
 _atom_site_occupancy
  Ba  Ba0  1  0.500000  0.000000  0.743902  1
  Ba  Ba1  1  0.000000  0.500000  0.256098  1
  In  In2  1  0.000000  0.000000  0.367840  1
  In  In3  1  0.500000  0.500000  0.632160  1
  Ga  Ga4  1  0.000000  0.314183  0.892127  1
  Ga  Ga5  1  0.500000  0.185817  0.107873  1
  Ga  Ga6  1  0.000000  0.685817  0.892127  1
  Ga  Ga7  1  0.500000  0.814183  0.107873  1
  Au  Au8  1  0.000000  0.720729  0.599491  1
  Au  Au9  1  0.500000  0.779271  0.400509  1
  Au  Au10  1  0.500000  0.500000  0.955383  1
  Au  Au11  1  0.000000  0.000000  0.044617  1
  Au  Au12  1  0.500000  0.220729  0.400509  1
  Au  Au13  1  0.000000  0.279271  0.599491  1
