# generated using pymatgen
data_Zr10BeGa(BiPb2)2
_symmetry_space_group_name_H-M   'P 1'
_cell_length_a   8.82154085
_cell_length_b   8.81166722
_cell_length_c   5.93462201
_cell_angle_alpha   89.99331441
_cell_angle_beta   90.00333757
_cell_angle_gamma   119.96297409
_symmetry_Int_Tables_number   1
_chemical_formula_structural   Zr10BeGa(BiPb2)2
_chemical_formula_sum   'Zr10 Be1 Ga1 Bi2 Pb4'
_cell_volume   399.65766049
_cell_formula_units_Z   1
loop_
 _symmetry_equiv_pos_site_id
 _symmetry_equiv_pos_as_xyz
  1  'x, y, z'
loop_
 _atom_site_type_symbol
 _atom_site_label
 _atom_site_symmetry_multiplicity
 _atom_site_fract_x
 _atom_site_fract_y
 _atom_site_fract_z
 _atom_site_occupancy
  Zr  Zr0  1  0.666545  0.333325  0.000713  1
  Zr  Zr1  1  0.333455  0.666781  0.000713  1
  Zr  Zr2  1  0.333450  0.666884  0.499405  1
  Zr  Zr3  1  0.666550  0.333433  0.499405  1
  Zr  Zr4  1  0.744794  0.743809  0.763592  1
  Zr  Zr5  1  0.255206  0.999016  0.763592  1
  Zr  Zr6  1  0.000000  0.255708  0.763610  1
  Zr  Zr7  1  0.255862  0.255828  0.235999  1
  Zr  Zr8  1  0.744138  0.999966  0.235999  1
  Zr  Zr9  1  0.000000  0.744599  0.236341  1
  Be  Be10  1  0.000000  0.999732  0.000587  1
  Ga  Ga11  1  0.000000  0.999579  0.499418  1
  Bi  Bi12  1  0.390710  0.390659  0.747531  1
  Bi  Bi13  1  0.609290  0.999949  0.747531  1
  Pb  Pb14  1  0.000000  0.609962  0.746678  1
  Pb  Pb15  1  0.610819  0.610687  0.252981  1
  Pb  Pb16  1  0.389181  0.999868  0.252981  1
  Pb  Pb17  1  0.000000  0.390215  0.252923  1
