# generated using pymatgen
data_Tb8Ho4Ni4SnRu
_symmetry_space_group_name_H-M   'P 1'
_cell_length_a   8.32442041
_cell_length_b   8.32442031
_cell_length_c   8.32442067
_cell_angle_alpha   111.61452882
_cell_angle_beta   109.52346224
_cell_angle_gamma   107.30432222
_symmetry_Int_Tables_number   1
_chemical_formula_structural   Tb8Ho4Ni4SnRu
_chemical_formula_sum   'Tb8 Ho4 Ni4 Sn1 Ru1'
_cell_volume   443.43047632
_cell_formula_units_Z   1
loop_
 _symmetry_equiv_pos_site_id
 _symmetry_equiv_pos_as_xyz
  1  'x, y, z'
loop_
 _atom_site_type_symbol
 _atom_site_label
 _atom_site_symmetry_multiplicity
 _atom_site_fract_x
 _atom_site_fract_y
 _atom_site_fract_z
 _atom_site_occupancy
  Tb  Tb0  1  0.404549  0.214608  0.189940  1
  Tb  Tb1  1  0.595451  0.785392  0.810060  1
  Tb  Tb2  1  0.024667  0.214608  0.810060  1
  Tb  Tb3  1  0.975333  0.785392  0.189940  1
  Tb  Tb4  1  0.181320  0.291188  0.472508  1
  Tb  Tb5  1  0.818680  0.708812  0.527492  1
  Tb  Tb6  1  0.181320  0.708812  0.890133  1
  Tb  Tb7  1  0.818680  0.291188  0.109867  1
  Ho  Ho8  1  0.321330  0.628232  0.306903  1
  Ho  Ho9  1  0.678670  0.371768  0.693097  1
  Ho  Ho10  1  0.321330  0.014427  0.693097  1
  Ho  Ho11  1  0.678670  0.985573  0.306903  1
  Ni  Ni12  1  0.364362  0.000000  0.364362  1
  Ni  Ni13  1  0.635638  0.000000  0.635638  1
  Ni  Ni14  1  0.123935  0.623935  0.500000  1
  Ni  Ni15  1  0.876065  0.376065  0.500000  1
  Sn  Sn16  1  0.500000  0.500000  0.000000  1
  Ru  Ru17  1  0.000000  0.000000  0.000000  1
