# generated using pymatgen
data_TmCo3P3RuRh
_symmetry_space_group_name_H-M   'P 1'
_cell_length_a   3.73696100
_cell_length_b   10.42355600
_cell_length_c   12.01250700
_cell_angle_alpha   90.00000000
_cell_angle_beta   90.00000000
_cell_angle_gamma   90.00000000
_symmetry_Int_Tables_number   1
_chemical_formula_structural   TmCo3P3RuRh
_chemical_formula_sum   'Tm4 Co12 P12 Ru4 Rh4'
_cell_volume   467.91624498
_cell_formula_units_Z   4
loop_
 _symmetry_equiv_pos_site_id
 _symmetry_equiv_pos_as_xyz
  1  'x, y, z'
loop_
 _atom_site_type_symbol
 _atom_site_label
 _atom_site_symmetry_multiplicity
 _atom_site_fract_x
 _atom_site_fract_y
 _atom_site_fract_z
 _atom_site_occupancy
  Tm  Tm0  1  0.250000  0.585251  0.710784  1
  Tm  Tm1  1  0.250000  0.914749  0.210784  1
  Tm  Tm2  1  0.750000  0.414749  0.289216  1
  Tm  Tm3  1  0.750000  0.085251  0.789216  1
  Co  Co4  1  0.250000  0.222786  0.177840  1
  Co  Co5  1  0.250000  0.277214  0.677840  1
  Co  Co6  1  0.750000  0.777214  0.822160  1
  Co  Co7  1  0.750000  0.722786  0.322160  1
  Co  Co8  1  0.250000  0.884083  0.698698  1
  Co  Co9  1  0.250000  0.615917  0.198698  1
  Co  Co10  1  0.750000  0.115917  0.301302  1
  Co  Co11  1  0.750000  0.384083  0.801302  1
  Co  Co12  1  0.250000  0.463526  0.932580  1
  Co  Co13  1  0.250000  0.036474  0.432580  1
  Co  Co14  1  0.750000  0.536474  0.067420  1
  Co  Co15  1  0.750000  0.963526  0.567420  1
  P  P16  1  0.250000  0.421262  0.111701  1
  P  P17  1  0.250000  0.078738  0.611701  1
  P  P18  1  0.750000  0.578738  0.888299  1
  P  P19  1  0.750000  0.921262  0.388299  1
  P  P20  1  0.250000  0.273941  0.862464  1
  P  P21  1  0.250000  0.226059  0.362464  1
  P  P22  1  0.750000  0.726059  0.137536  1
  P  P23  1  0.750000  0.773941  0.637536  1
  P  P24  1  0.250000  0.603930  0.380486  1
  P  P25  1  0.250000  0.896070  0.880486  1
  P  P26  1  0.750000  0.396070  0.619514  1
  P  P27  1  0.750000  0.103930  0.119514  1
  Ru  Ru28  1  0.250000  0.709904  0.985922  1
  Ru  Ru29  1  0.250000  0.790096  0.485922  1
  Ru  Ru30  1  0.750000  0.290096  0.014078  1
  Ru  Ru31  1  0.750000  0.209904  0.514078  1
  Rh  Rh32  1  0.250000  0.405827  0.480858  1
  Rh  Rh33  1  0.250000  0.094173  0.980858  1
  Rh  Rh34  1  0.750000  0.594173  0.519142  1
  Rh  Rh35  1  0.750000  0.905827  0.019142  1
