# generated using pymatgen
data_PaTe4Rh
_symmetry_space_group_name_H-M   'P 1'
_cell_length_a   4.12126000
_cell_length_b   13.01024400
_cell_length_c   14.22417900
_cell_angle_alpha   90.00000000
_cell_angle_beta   90.00000000
_cell_angle_gamma   90.00000000
_symmetry_Int_Tables_number   1
_chemical_formula_structural   PaTe4Rh
_chemical_formula_sum   'Pa4 Te16 Rh4'
_cell_volume   762.68053835
_cell_formula_units_Z   4
loop_
 _symmetry_equiv_pos_site_id
 _symmetry_equiv_pos_as_xyz
  1  'x, y, z'
loop_
 _atom_site_type_symbol
 _atom_site_label
 _atom_site_symmetry_multiplicity
 _atom_site_fract_x
 _atom_site_fract_y
 _atom_site_fract_z
 _atom_site_occupancy
  Pa  Pa0  1  0.500000  0.953488  0.504872  1
  Pa  Pa1  1  0.000000  0.046512  0.004872  1
  Pa  Pa2  1  0.500000  0.736994  0.991116  1
  Pa  Pa3  1  0.000000  0.263006  0.491116  1
  Te  Te4  1  0.500000  0.941364  0.877860  1
  Te  Te5  1  0.000000  0.058636  0.377860  1
  Te  Te6  1  0.500000  0.789006  0.366853  1
  Te  Te7  1  0.000000  0.210994  0.866853  1
  Te  Te8  1  0.500000  0.656998  0.581846  1
  Te  Te9  1  0.000000  0.343002  0.081846  1
  Te  Te10  1  0.500000  0.569709  0.125947  1
  Te  Te11  1  0.000000  0.430291  0.625947  1
  Te  Te12  1  0.500000  0.439699  0.909395  1
  Te  Te13  1  0.000000  0.560301  0.409395  1
  Te  Te14  1  0.500000  0.332643  0.352484  1
  Te  Te15  1  0.000000  0.667357  0.852484  1
  Te  Te16  1  0.500000  0.158198  0.619732  1
  Te  Te17  1  0.000000  0.841802  0.119732  1
  Te  Te18  1  0.500000  0.119554  0.141901  1
  Te  Te19  1  0.000000  0.880446  0.641901  1
  Rh  Rh20  1  0.500000  0.470478  0.500861  1
  Rh  Rh21  1  0.000000  0.529522  0.000861  1
  Rh  Rh22  1  0.500000  0.252842  0.991132  1
  Rh  Rh23  1  0.000000  0.747158  0.491132  1
