# generated using pymatgen
data_Tb10Pr6Cd4TcPd3
_symmetry_space_group_name_H-M   'P 1'
_cell_length_a   9.89487985
_cell_length_b   9.89488019
_cell_length_c   9.89487825
_cell_angle_alpha   59.44269585
_cell_angle_beta   59.44269336
_cell_angle_gamma   59.44269886
_symmetry_Int_Tables_number   1
_chemical_formula_structural   Tb10Pr6Cd4TcPd3
_chemical_formula_sum   'Tb10 Pr6 Cd4 Tc1 Pd3'
_cell_volume   676.35530812
_cell_formula_units_Z   1
loop_
 _symmetry_equiv_pos_site_id
 _symmetry_equiv_pos_as_xyz
  1  'x, y, z'
loop_
 _atom_site_type_symbol
 _atom_site_label
 _atom_site_symmetry_multiplicity
 _atom_site_fract_x
 _atom_site_fract_y
 _atom_site_fract_z
 _atom_site_occupancy
  Tb  Tb0  1  0.352962  0.352962  0.352962  1
  Tb  Tb1  1  0.347965  0.347965  0.952435  1
  Tb  Tb2  1  0.347965  0.952435  0.347965  1
  Tb  Tb3  1  0.952435  0.347965  0.347965  1
  Tb  Tb4  1  0.819070  0.185872  0.185872  1
  Tb  Tb5  1  0.185861  0.811002  0.811002  1
  Tb  Tb6  1  0.185872  0.819070  0.185872  1
  Tb  Tb7  1  0.811002  0.185861  0.811002  1
  Tb  Tb8  1  0.185872  0.185872  0.819070  1
  Tb  Tb9  1  0.811002  0.811002  0.185861  1
  Pr  Pr10  1  0.936288  0.562634  0.562634  1
  Pr  Pr11  1  0.553751  0.940057  0.940057  1
  Pr  Pr12  1  0.562634  0.936288  0.562634  1
  Pr  Pr13  1  0.940057  0.553751  0.940057  1
  Pr  Pr14  1  0.562634  0.562634  0.936288  1
  Pr  Pr15  1  0.940057  0.940057  0.553751  1
  Cd  Cd16  1  0.578837  0.578837  0.578837  1
  Cd  Cd17  1  0.579459  0.579459  0.260505  1
  Cd  Cd18  1  0.579459  0.260505  0.579459  1
  Cd  Cd19  1  0.260505  0.579459  0.579459  1
  Tc  Tc20  1  0.143722  0.143722  0.143722  1
  Pd  Pd21  1  0.145316  0.145316  0.571960  1
  Pd  Pd22  1  0.145316  0.571960  0.145316  1
  Pd  Pd23  1  0.571960  0.145316  0.145316  1
