# generated using pymatgen
data_Dy3Ho3(ErAu2)2
_symmetry_space_group_name_H-M   'P 1'
_cell_length_a   4.92623200
_cell_length_b   7.11617334
_cell_length_c   8.93657301
_cell_angle_alpha   90.03746552
_cell_angle_beta   90.00000000
_cell_angle_gamma   90.00000000
_symmetry_Int_Tables_number   1
_chemical_formula_structural   Dy3Ho3(ErAu2)2
_chemical_formula_sum   'Dy3 Ho3 Er2 Au4'
_cell_volume   313.27972866
_cell_formula_units_Z   1
loop_
 _symmetry_equiv_pos_site_id
 _symmetry_equiv_pos_as_xyz
  1  'x, y, z'
loop_
 _atom_site_type_symbol
 _atom_site_label
 _atom_site_symmetry_multiplicity
 _atom_site_fract_x
 _atom_site_fract_y
 _atom_site_fract_z
 _atom_site_occupancy
  Dy  Dy0  1  0.250000  0.486770  0.176609  1
  Dy  Dy1  1  0.750000  0.513334  0.823177  1
  Dy  Dy2  1  0.250000  0.986802  0.323405  1
  Ho  Ho3  1  0.750000  0.013478  0.676558  1
  Ho  Ho4  1  0.750000  0.648583  0.419901  1
  Ho  Ho5  1  0.750000  0.148382  0.080148  1
  Er  Er6  1  0.250000  0.351424  0.580399  1
  Er  Er7  1  0.250000  0.851660  0.919300  1
  Au  Au8  1  0.250000  0.256195  0.900219  1
  Au  Au9  1  0.750000  0.743439  0.099154  1
  Au  Au10  1  0.250000  0.756727  0.599758  1
  Au  Au11  1  0.750000  0.243206  0.401372  1
