# generated using pymatgen
data_Dy6TmCoI12
_symmetry_space_group_name_H-M   'P 1'
_cell_length_a   9.75005814
_cell_length_b   9.75177257
_cell_length_c   9.74332003
_cell_angle_alpha   106.80374887
_cell_angle_beta   106.78335999
_cell_angle_gamma   106.86262370
_symmetry_Int_Tables_number   1
_chemical_formula_structural   Dy6TmCoI12
_chemical_formula_sum   'Dy6 Tm1 Co1 I12'
_cell_volume   775.34096187
_cell_formula_units_Z   1
loop_
 _symmetry_equiv_pos_site_id
 _symmetry_equiv_pos_as_xyz
  1  'x, y, z'
loop_
 _atom_site_type_symbol
 _atom_site_label
 _atom_site_symmetry_multiplicity
 _atom_site_fract_x
 _atom_site_fract_y
 _atom_site_fract_z
 _atom_site_occupancy
  Dy  Dy0  1  0.499940  0.500025  0.499770  1
  Dy  Dy1  1  0.286821  0.091757  0.020541  1
  Dy  Dy2  1  0.021026  0.286840  0.090788  1
  Dy  Dy3  1  0.091648  0.021239  0.287304  1
  Dy  Dy4  1  0.712844  0.908243  0.978320  1
  Dy  Dy5  1  0.978504  0.712946  0.907562  1
  Tm  Tm6  1  0.910007  0.979156  0.717281  1
  Co  Co7  1  0.000053  0.999982  0.000064  1
  I  I8  1  0.462626  0.160363  0.385709  1
  I  I9  1  0.385795  0.462846  0.160303  1
  I  I10  1  0.160286  0.385648  0.462625  1
  I  I11  1  0.539009  0.840112  0.613989  1
  I  I12  1  0.614143  0.537131  0.839441  1
  I  I13  1  0.839460  0.615554  0.537184  1
  I  I14  1  0.323302  0.775892  0.929502  1
  I  I15  1  0.929215  0.321554  0.774715  1
  I  I16  1  0.776381  0.929883  0.324364  1
  I  I17  1  0.676619  0.224119  0.070403  1
  I  I18  1  0.070453  0.676947  0.223942  1
  I  I19  1  0.221869  0.069765  0.676190  1
