# generated using pymatgen
data_SrCaSb2O7
_symmetry_space_group_name_H-M   'P 1'
_cell_length_a   7.48771587
_cell_length_b   7.48771631
_cell_length_c   7.48771642
_cell_angle_alpha   120.18206869
_cell_angle_beta   118.84920693
_cell_angle_gamma   90.84482651
_symmetry_Int_Tables_number   1
_chemical_formula_structural   SrCaSb2O7
_chemical_formula_sum   'Sr2 Ca2 Sb4 O14'
_cell_volume   298.93573092
_cell_formula_units_Z   2
loop_
 _symmetry_equiv_pos_site_id
 _symmetry_equiv_pos_as_xyz
  1  'x, y, z'
loop_
 _atom_site_type_symbol
 _atom_site_label
 _atom_site_symmetry_multiplicity
 _atom_site_fract_x
 _atom_site_fract_y
 _atom_site_fract_z
 _atom_site_occupancy
  Sr  Sr0  1  0.500000  0.500000  0.500000  1
  Sr  Sr1  1  0.500000  0.000000  0.000000  1
  Ca  Ca2  1  0.500000  0.500000  0.000000  1
  Ca  Ca3  1  0.000000  0.000000  0.000000  1
  Sb  Sb4  1  0.000000  0.500000  0.000000  1
  Sb  Sb5  1  0.000000  0.000000  0.500000  1
  Sb  Sb6  1  0.000000  0.500000  0.500000  1
  Sb  Sb7  1  0.500000  0.000000  0.500000  1
  O  O8  1  0.944410  0.590201  0.771791  1
  O  O9  1  0.055590  0.827382  0.645791  1
  O  O10  1  0.681590  0.909799  0.354209  1
  O  O11  1  0.318410  0.672618  0.228209  1
  O  O12  1  0.055590  0.409799  0.228209  1
  O  O13  1  0.944410  0.172618  0.354209  1
  O  O14  1  0.318410  0.090201  0.645791  1
  O  O15  1  0.681590  0.327382  0.771791  1
  O  O16  1  0.099625  0.250000  0.849625  1
  O  O17  1  0.900375  0.750000  0.150375  1
  O  O18  1  0.684894  0.413947  0.270946  1
  O  O19  1  0.315106  0.586053  0.729054  1
  O  O20  1  0.356999  0.086053  0.270946  1
  O  O21  1  0.643001  0.913947  0.729054  1
