# generated using pymatgen
data_Dy20Ir6Pt5Au
_symmetry_space_group_name_H-M   'P 1'
_cell_length_a   11.07143562
_cell_length_b   11.07651495
_cell_length_c   6.32568568
_cell_angle_alpha   89.97110315
_cell_angle_beta   90.00234338
_cell_angle_gamma   89.87253496
_symmetry_Int_Tables_number   1
_chemical_formula_structural   Dy20Ir6Pt5Au
_chemical_formula_sum   'Dy20 Ir6 Pt5 Au1'
_cell_volume   775.73530112
_cell_formula_units_Z   1
loop_
 _symmetry_equiv_pos_site_id
 _symmetry_equiv_pos_as_xyz
  1  'x, y, z'
loop_
 _atom_site_type_symbol
 _atom_site_label
 _atom_site_symmetry_multiplicity
 _atom_site_fract_x
 _atom_site_fract_y
 _atom_site_fract_z
 _atom_site_occupancy
  Dy  Dy0  1  0.292267  0.087487  0.372316  1
  Dy  Dy1  1  0.294159  0.910525  0.877832  1
  Dy  Dy2  1  0.701599  0.085185  0.865279  1
  Dy  Dy3  1  0.701807  0.907961  0.376120  1
  Dy  Dy4  1  0.586713  0.793432  0.876851  1
  Dy  Dy5  1  0.577829  0.207781  0.372834  1
  Dy  Dy6  1  0.407889  0.795433  0.375236  1
  Dy  Dy7  1  0.408891  0.206710  0.878374  1
  Dy  Dy8  1  0.208427  0.411715  0.619893  1
  Dy  Dy9  1  0.206729  0.589227  0.126333  1
  Dy  Dy10  1  0.794674  0.418899  0.125383  1
  Dy  Dy11  1  0.795133  0.589675  0.625141  1
  Dy  Dy12  1  0.916272  0.707980  0.127828  1
  Dy  Dy13  1  0.915757  0.298428  0.634171  1
  Dy  Dy14  1  0.090227  0.705776  0.622558  1
  Dy  Dy15  1  0.095614  0.298372  0.123654  1
  Dy  Dy16  1  0.003281  0.994898  0.500053  1
  Dy  Dy17  1  0.004594  0.996937  0.999881  1
  Dy  Dy18  1  0.498167  0.496971  0.999906  1
  Dy  Dy19  1  0.499358  0.499687  0.500176  1
  Ir  Ir20  1  0.154294  0.845011  0.249440  1
  Ir  Ir21  1  0.348053  0.346343  0.251144  1
  Ir  Ir22  1  0.500720  0.999159  0.121765  1
  Ir  Ir23  1  0.499608  0.999449  0.621588  1
  Ir  Ir24  1  0.999765  0.500971  0.878477  1
  Ir  Ir25  1  0.999683  0.499591  0.378324  1
  Pt  Pt26  1  0.846039  0.846483  0.750036  1
  Pt  Pt27  1  0.153029  0.153173  0.750200  1
  Pt  Pt28  1  0.655345  0.344859  0.749905  1
  Pt  Pt29  1  0.653913  0.652078  0.248938  1
  Pt  Pt30  1  0.346270  0.654057  0.749993  1
  Au  Au31  1  0.843895  0.155749  0.250371  1
