# generated using pymatgen
data_SrAcAsPt8
_symmetry_space_group_name_H-M   'P 1'
_cell_length_a   9.36335200
_cell_length_b   9.42464575
_cell_length_c   4.33686200
_cell_angle_alpha   90.00000000
_cell_angle_beta   90.00000000
_cell_angle_gamma   145.76666473
_symmetry_Int_Tables_number   1
_chemical_formula_structural   SrAcAsPt8
_chemical_formula_sum   'Sr1 Ac1 As1 Pt8'
_cell_volume   215.30013456
_cell_formula_units_Z   1
loop_
 _symmetry_equiv_pos_site_id
 _symmetry_equiv_pos_as_xyz
  1  'x, y, z'
loop_
 _atom_site_type_symbol
 _atom_site_label
 _atom_site_symmetry_multiplicity
 _atom_site_fract_x
 _atom_site_fract_y
 _atom_site_fract_z
 _atom_site_occupancy
  Sr  Sr0  1  0.618412  0.374338  0.500000  1
  Ac  Ac1  1  0.373229  0.620939  0.500000  1
  As  As2  1  0.228508  0.222422  0.000000  1
  Pt  Pt3  1  0.102672  0.873298  0.000000  1
  Pt  Pt4  1  0.884380  0.111252  0.000000  1
  Pt  Pt5  1  0.490565  0.986628  0.000000  1
  Pt  Pt6  1  0.989913  0.491048  0.000000  1
  Pt  Pt7  1  0.195707  0.790635  0.500000  1
  Pt  Pt8  1  0.790582  0.198988  0.500000  1
  Pt  Pt9  1  0.990842  0.990973  0.500000  1
  Pt  Pt10  1  0.648786  0.653081  0.000000  1
