# generated using pymatgen
data_NdHo2Be2Co9B4
_symmetry_space_group_name_H-M   'P 1'
_cell_length_a   5.04281004
_cell_length_b   5.04274157
_cell_length_c   9.37303400
_cell_angle_alpha   89.99992985
_cell_angle_beta   89.99998693
_cell_angle_gamma   120.00801699
_symmetry_Int_Tables_number   1
_chemical_formula_structural   NdHo2Be2Co9B4
_chemical_formula_sum   'Nd1 Ho2 Be2 Co9 B4'
_cell_volume   206.40254830
_cell_formula_units_Z   1
loop_
 _symmetry_equiv_pos_site_id
 _symmetry_equiv_pos_as_xyz
  1  'x, y, z'
loop_
 _atom_site_type_symbol
 _atom_site_label
 _atom_site_symmetry_multiplicity
 _atom_site_fract_x
 _atom_site_fract_y
 _atom_site_fract_z
 _atom_site_occupancy
  Nd  Nd0  1  0.999989  0.999998  0.999944  1
  Ho  Ho1  1  0.999993  0.999997  0.339090  1
  Ho  Ho2  1  0.999998  0.000000  0.660930  1
  Be  Be3  1  0.333155  0.666686  0.999998  1
  Be  Be4  1  0.666830  0.333315  0.999999  1
  Co  Co5  1  0.499999  0.000006  0.500022  1
  Co  Co6  1  0.499998  0.499997  0.499995  1
  Co  Co7  1  0.999989  0.499996  0.499997  1
  Co  Co8  1  0.499993  0.000000  0.193133  1
  Co  Co9  1  0.499992  0.500000  0.193164  1
  Co  Co10  1  0.999995  0.500000  0.193153  1
  Co  Co11  1  0.499996  0.000001  0.806832  1
  Co  Co12  1  0.499994  0.500001  0.806853  1
  Co  Co13  1  0.999997  0.500002  0.806854  1
  B  B14  1  0.333317  0.666753  0.343272  1
  B  B15  1  0.666671  0.333248  0.343274  1
  B  B16  1  0.666694  0.333371  0.656742  1
  B  B17  1  0.333298  0.666631  0.656745  1
