# generated using pymatgen
data_DyHo3(B4Rh)4
_symmetry_space_group_name_H-M   'P 1'
_cell_length_a   3.56721400
_cell_length_b   5.95754201
_cell_length_c   11.54628401
_cell_angle_alpha   90.00471333
_cell_angle_beta   90.00000000
_cell_angle_gamma   90.00000000
_symmetry_Int_Tables_number   1
_chemical_formula_structural   DyHo3(B4Rh)4
_chemical_formula_sum   'Dy1 Ho3 B16 Rh4'
_cell_volume   245.37963228
_cell_formula_units_Z   1
loop_
 _symmetry_equiv_pos_site_id
 _symmetry_equiv_pos_as_xyz
  1  'x, y, z'
loop_
 _atom_site_type_symbol
 _atom_site_label
 _atom_site_symmetry_multiplicity
 _atom_site_fract_x
 _atom_site_fract_y
 _atom_site_fract_z
 _atom_site_occupancy
  Dy  Dy0  1  0.500000  0.868944  0.351315  1
  Ho  Ho1  1  0.500000  0.369074  0.148516  1
  Ho  Ho2  1  0.500000  0.631045  0.851394  1
  Ho  Ho3  1  0.500000  0.130956  0.648766  1
  B  B4  1  0.000000  0.112513  0.046740  1
  B  B5  1  0.000000  0.887571  0.953070  1
  B  B6  1  0.000000  0.387490  0.547070  1
  B  B7  1  0.000000  0.611935  0.453353  1
  B  B8  1  0.000000  0.135859  0.469780  1
  B  B9  1  0.000000  0.864165  0.530716  1
  B  B10  1  0.000000  0.364361  0.969489  1
  B  B11  1  0.000000  0.635615  0.030363  1
  B  B12  1  0.000000  0.023503  0.192884  1
  B  B13  1  0.000000  0.976662  0.806858  1
  B  B14  1  0.000000  0.476688  0.693339  1
  B  B15  1  0.000000  0.522965  0.306732  1
  B  B16  1  0.000000  0.210535  0.312501  1
  B  B17  1  0.000000  0.790092  0.687428  1
  B  B18  1  0.000000  0.290091  0.812682  1
  B  B19  1  0.000000  0.709906  0.187071  1
  Rh  Rh20  1  0.500000  0.358668  0.405388  1
  Rh  Rh21  1  0.500000  0.641150  0.594963  1
  Rh  Rh22  1  0.500000  0.141467  0.905226  1
  Rh  Rh23  1  0.500000  0.858745  0.094355  1
