# generated using pymatgen
data_La2ErLu(Zn5Ge)2
_symmetry_space_group_name_H-M   'P 1'
_cell_length_a   8.32054253
_cell_length_b   8.32054346
_cell_length_c   8.85786400
_cell_angle_alpha   90.00000000
_cell_angle_beta   90.00000000
_cell_angle_gamma   149.59991007
_symmetry_Int_Tables_number   1
_chemical_formula_structural   La2ErLu(Zn5Ge)2
_chemical_formula_sum   'La2 Er1 Lu1 Zn10 Ge2'
_cell_volume   310.32231280
_cell_formula_units_Z   1
loop_
 _symmetry_equiv_pos_site_id
 _symmetry_equiv_pos_as_xyz
  1  'x, y, z'
loop_
 _atom_site_type_symbol
 _atom_site_label
 _atom_site_symmetry_multiplicity
 _atom_site_fract_x
 _atom_site_fract_y
 _atom_site_fract_z
 _atom_site_occupancy
  La  La0  1  0.000001  0.999999  0.500212  1
  La  La1  1  0.000001  0.999999  0.999788  1
  Er  Er2  1  0.201719  0.798281  0.250000  1
  Lu  Lu3  1  0.798421  0.201579  0.750000  1
  Zn  Zn4  1  0.811649  0.188351  0.391593  1
  Zn  Zn5  1  0.188588  0.811412  0.609414  1
  Zn  Zn6  1  0.811649  0.188351  0.108407  1
  Zn  Zn7  1  0.188588  0.811412  0.890586  1
  Zn  Zn8  1  0.655149  0.344851  0.476910  1
  Zn  Zn9  1  0.344797  0.655203  0.523713  1
  Zn  Zn10  1  0.655149  0.344851  0.023090  1
  Zn  Zn11  1  0.344797  0.655203  0.976287  1
  Zn  Zn12  1  0.399434  0.600566  0.250000  1
  Zn  Zn13  1  0.600580  0.399420  0.750000  1
  Ge  Ge14  1  0.559341  0.440659  0.250000  1
  Ge  Ge15  1  0.440139  0.559861  0.750000  1
