# generated using pymatgen
data_Tb11Y5(CoAg)4
_symmetry_space_group_name_H-M   'P 1'
_cell_length_a   9.41101732
_cell_length_b   9.41205990
_cell_length_c   9.41117707
_cell_angle_alpha   60.35862632
_cell_angle_beta   60.34995524
_cell_angle_gamma   60.35315662
_symmetry_Int_Tables_number   1
_chemical_formula_structural   Tb11Y5(CoAg)4
_chemical_formula_sum   'Tb11 Y5 Co4 Ag4'
_cell_volume   594.17353935
_cell_formula_units_Z   1
loop_
 _symmetry_equiv_pos_site_id
 _symmetry_equiv_pos_as_xyz
  1  'x, y, z'
loop_
 _atom_site_type_symbol
 _atom_site_label
 _atom_site_symmetry_multiplicity
 _atom_site_fract_x
 _atom_site_fract_y
 _atom_site_fract_z
 _atom_site_occupancy
  Tb  Tb0  1  0.348082  0.348101  0.348284  1
  Tb  Tb1  1  0.349175  0.349042  0.954141  1
  Tb  Tb2  1  0.349067  0.954303  0.349121  1
  Tb  Tb3  1  0.954693  0.348850  0.349034  1
  Tb  Tb4  1  0.811540  0.187590  0.187602  1
  Tb  Tb5  1  0.187354  0.811536  0.811341  1
  Tb  Tb6  1  0.187291  0.811775  0.187430  1
  Tb  Tb7  1  0.811584  0.187238  0.811366  1
  Tb  Tb8  1  0.187281  0.187416  0.811706  1
  Tb  Tb9  1  0.811473  0.811452  0.187239  1
  Tb  Tb10  1  0.937533  0.562209  0.562185  1
  Y  Y11  1  0.562883  0.937239  0.937248  1
  Y  Y12  1  0.562457  0.937637  0.562591  1
  Y  Y13  1  0.937211  0.562853  0.937048  1
  Y  Y14  1  0.562416  0.562566  0.937662  1
  Y  Y15  1  0.937190  0.937026  0.562859  1
  Co  Co16  1  0.141295  0.141441  0.141450  1
  Co  Co17  1  0.142586  0.142221  0.575672  1
  Co  Co18  1  0.142572  0.575703  0.142212  1
  Co  Co19  1  0.575436  0.142434  0.142430  1
  Ag  Ag20  1  0.581950  0.581839  0.581830  1
  Ag  Ag21  1  0.581251  0.581191  0.257037  1
  Ag  Ag22  1  0.581258  0.257009  0.581197  1
  Ag  Ag23  1  0.256423  0.581329  0.581316  1
