# generated using pymatgen
data_Ho5Er3Tc2(B12Ru)2
_symmetry_space_group_name_H-M   'P 1'
_cell_length_a   3.65544200
_cell_length_b   9.12260266
_cell_length_c   11.50909200
_cell_angle_alpha   89.85969316
_cell_angle_beta   90.00000000
_cell_angle_gamma   90.00000000
_symmetry_Int_Tables_number   1
_chemical_formula_structural   Ho5Er3Tc2(B12Ru)2
_chemical_formula_sum   'Ho5 Er3 Tc2 B24 Ru2'
_cell_volume   383.79420795
_cell_formula_units_Z   1
loop_
 _symmetry_equiv_pos_site_id
 _symmetry_equiv_pos_as_xyz
  1  'x, y, z'
loop_
 _atom_site_type_symbol
 _atom_site_label
 _atom_site_symmetry_multiplicity
 _atom_site_fract_x
 _atom_site_fract_y
 _atom_site_fract_z
 _atom_site_occupancy
  Ho  Ho0  1  0.000000  0.325100  0.415574  1
  Ho  Ho1  1  0.000000  0.674894  0.584512  1
  Ho  Ho2  1  0.000000  0.821241  0.087391  1
  Ho  Ho3  1  0.000000  0.178747  0.912533  1
  Ho  Ho4  1  0.000000  0.942415  0.370685  1
  Er  Er5  1  0.000000  0.057657  0.629419  1
  Er  Er6  1  0.000000  0.443340  0.129905  1
  Er  Er7  1  0.000000  0.556637  0.870052  1
  Tc  Tc8  1  0.000000  0.638411  0.320101  1
  Tc  Tc9  1  0.000000  0.361325  0.679889  1
  B  B10  1  0.500000  0.553191  0.433052  1
  B  B11  1  0.500000  0.446753  0.566975  1
  B  B12  1  0.500000  0.053962  0.066877  1
  B  B13  1  0.500000  0.946052  0.933096  1
  B  B14  1  0.500000  0.748665  0.419105  1
  B  B15  1  0.500000  0.251093  0.580924  1
  B  B16  1  0.500000  0.248976  0.080981  1
  B  B17  1  0.500000  0.751058  0.919016  1
  B  B18  1  0.500000  0.791725  0.265139  1
  B  B19  1  0.500000  0.208019  0.734787  1
  B  B20  1  0.500000  0.291079  0.234281  1
  B  B21  1  0.500000  0.708984  0.765705  1
  B  B22  1  0.500000  0.631280  0.184940  1
  B  B23  1  0.500000  0.368677  0.815042  1
  B  B24  1  0.500000  0.131233  0.314129  1
  B  B25  1  0.500000  0.868984  0.685789  1
  B  B26  1  0.500000  0.983202  0.211834  1
  B  B27  1  0.500000  0.016933  0.787987  1
  B  B28  1  0.500000  0.482479  0.287463  1
  B  B29  1  0.500000  0.517515  0.712541  1
  B  B30  1  0.500000  0.603197  0.028366  1
  B  B31  1  0.500000  0.396801  0.971639  1
  B  B32  1  0.500000  0.103592  0.471376  1
  B  B33  1  0.500000  0.896612  0.529031  1
  Ru  Ru34  1  0.000000  0.138155  0.178418  1
  Ru  Ru35  1  0.000000  0.862016  0.821447  1
