# generated using pymatgen
data_NdCuAgPt3
_symmetry_space_group_name_H-M   'P 1'
_cell_length_a   5.25104787
_cell_length_b   5.25104683
_cell_length_c   5.25104697
_cell_angle_alpha   62.37073884
_cell_angle_beta   62.37074881
_cell_angle_gamma   62.37074310
_symmetry_Int_Tables_number   1
_chemical_formula_structural   NdCuAgPt3
_chemical_formula_sum   'Nd1 Cu1 Ag1 Pt3'
_cell_volume   107.79612624
_cell_formula_units_Z   1
loop_
 _symmetry_equiv_pos_site_id
 _symmetry_equiv_pos_as_xyz
  1  'x, y, z'
loop_
 _atom_site_type_symbol
 _atom_site_label
 _atom_site_symmetry_multiplicity
 _atom_site_fract_x
 _atom_site_fract_y
 _atom_site_fract_z
 _atom_site_occupancy
  Nd  Nd0  1  0.001756  0.001756  0.001756  1
  Cu  Cu1  1  0.623767  0.623767  0.623767  1
  Ag  Ag2  1  0.252103  0.252103  0.252103  1
  Pt  Pt3  1  0.623218  0.623218  0.125936  1
  Pt  Pt4  1  0.623218  0.125936  0.623218  1
  Pt  Pt5  1  0.125936  0.623218  0.623218  1
