# generated using pymatgen
data_Pr3Er3Al24Os5Pt3
_symmetry_space_group_name_H-M   'P 1'
_cell_length_a   8.87997558
_cell_length_b   8.88637164
_cell_length_c   9.61164689
_cell_angle_alpha   90.15947269
_cell_angle_beta   89.79506247
_cell_angle_gamma   119.65612639
_symmetry_Int_Tables_number   1
_chemical_formula_structural   Pr3Er3Al24Os5Pt3
_chemical_formula_sum   'Pr3 Er3 Al24 Os5 Pt3'
_cell_volume   659.10723225
_cell_formula_units_Z   1
loop_
 _symmetry_equiv_pos_site_id
 _symmetry_equiv_pos_as_xyz
  1  'x, y, z'
loop_
 _atom_site_type_symbol
 _atom_site_label
 _atom_site_symmetry_multiplicity
 _atom_site_fract_x
 _atom_site_fract_y
 _atom_site_fract_z
 _atom_site_occupancy
  Pr  Pr0  1  0.186414  0.378416  0.250074  1
  Pr  Pr1  1  0.812919  0.622471  0.749992  1
  Pr  Pr2  1  0.618468  0.813759  0.251832  1
  Er  Er3  1  0.388949  0.186037  0.747506  1
  Er  Er4  1  0.195972  0.807889  0.251761  1
  Er  Er5  1  0.802421  0.191508  0.748171  1
  Al  Al6  1  0.333981  0.671750  0.023996  1
  Al  Al7  1  0.663796  0.328228  0.971113  1
  Al  Al8  1  0.668661  0.331477  0.527760  1
  Al  Al9  1  0.329779  0.668780  0.476588  1
  Al  Al10  1  0.156993  0.324639  0.576390  1
  Al  Al11  1  0.843898  0.673900  0.425958  1
  Al  Al12  1  0.672868  0.842774  0.576588  1
  Al  Al13  1  0.838288  0.675275  0.077142  1
  Al  Al14  1  0.326603  0.157726  0.427770  1
  Al  Al15  1  0.162843  0.322859  0.920388  1
  Al  Al16  1  0.164891  0.836475  0.575140  1
  Al  Al17  1  0.325678  0.157261  0.073165  1
  Al  Al18  1  0.835251  0.165704  0.427670  1
  Al  Al19  1  0.674113  0.843350  0.922674  1
  Al  Al20  1  0.830521  0.159864  0.074194  1
  Al  Al21  1  0.169693  0.842762  0.922657  1
  Al  Al22  1  0.559392  0.125094  0.250033  1
  Al  Al23  1  0.438579  0.875698  0.750046  1
  Al  Al24  1  0.872823  0.437362  0.253192  1
  Al  Al25  1  0.126127  0.561757  0.747437  1
  Al  Al26  1  0.563258  0.433501  0.249927  1
  Al  Al27  1  0.435300  0.562150  0.750142  1
  Al  Al28  1  0.001992  0.998524  0.250282  1
  Al  Al29  1  0.005919  0.006040  0.749697  1
  Os  Os30  1  0.499311  0.001157  0.998099  1
  Os  Os31  1  0.499059  0.001326  0.502165  1
  Os  Os32  1  0.999367  0.499498  0.500601  1
  Os  Os33  1  0.999762  0.999884  0.999562  1
  Os  Os34  1  0.999782  0.999877  0.500424  1
  Pt  Pt35  1  0.998748  0.499426  0.999685  1
  Pt  Pt36  1  0.498848  0.497964  0.998764  1
  Pt  Pt37  1  0.498736  0.497836  0.501414  1
