# generated using pymatgen
data_Tb4YZn2Bi
_symmetry_space_group_name_H-M   'P 1'
_cell_length_a   8.63614252
_cell_length_b   8.63614330
_cell_length_c   8.63614330
_cell_angle_alpha   123.00044480
_cell_angle_beta   123.00044966
_cell_angle_gamma   84.87717017
_symmetry_Int_Tables_number   1
_chemical_formula_structural   Tb4YZn2Bi
_chemical_formula_sum   'Tb8 Y2 Zn4 Bi2'
_cell_volume   432.90841177
_cell_formula_units_Z   2
loop_
 _symmetry_equiv_pos_site_id
 _symmetry_equiv_pos_as_xyz
  1  'x, y, z'
loop_
 _atom_site_type_symbol
 _atom_site_label
 _atom_site_symmetry_multiplicity
 _atom_site_fract_x
 _atom_site_fract_y
 _atom_site_fract_z
 _atom_site_occupancy
  Tb  Tb0  1  0.794624  0.294624  0.804924  1
  Tb  Tb1  1  0.205376  0.705376  0.195076  1
  Tb  Tb2  1  0.489698  0.989698  0.195076  1
  Tb  Tb3  1  0.294624  0.489698  0.500000  1
  Tb  Tb4  1  0.010302  0.205376  0.500000  1
  Tb  Tb5  1  0.510302  0.010302  0.804924  1
  Tb  Tb6  1  0.705376  0.510302  0.500000  1
  Tb  Tb7  1  0.989698  0.794624  0.500000  1
  Y  Y8  1  0.000000  0.000000  0.000000  1
  Y  Y9  1  0.500000  0.500000  0.000000  1
  Zn  Zn10  1  0.140655  0.640655  0.781309  1
  Zn  Zn11  1  0.859345  0.359345  0.218691  1
  Zn  Zn12  1  0.640655  0.859345  0.500000  1
  Zn  Zn13  1  0.359345  0.140655  0.500000  1
  Bi  Bi14  1  0.250000  0.250000  0.000000  1
  Bi  Bi15  1  0.750000  0.750000  0.000000  1
