# generated using pymatgen
data_Zr5Al6Ru12W
_symmetry_space_group_name_H-M   'P 1'
_cell_length_a   4.43415900
_cell_length_b   6.29150100
_cell_length_c   13.30740900
_cell_angle_alpha   90.00000000
_cell_angle_beta   89.99994832
_cell_angle_gamma   90.00000000
_symmetry_Int_Tables_number   1
_chemical_formula_structural   Zr5Al6Ru12W
_chemical_formula_sum   'Zr5 Al6 Ru12 W1'
_cell_volume   371.24365260
_cell_formula_units_Z   1
loop_
 _symmetry_equiv_pos_site_id
 _symmetry_equiv_pos_as_xyz
  1  'x, y, z'
loop_
 _atom_site_type_symbol
 _atom_site_label
 _atom_site_symmetry_multiplicity
 _atom_site_fract_x
 _atom_site_fract_y
 _atom_site_fract_z
 _atom_site_occupancy
  Zr  Zr0  1  0.499989  0.000000  0.165935  1
  Zr  Zr1  1  0.999985  0.500001  0.332712  1
  Zr  Zr2  1  0.500001  0.000000  0.500000  1
  Zr  Zr3  1  0.000015  0.500001  0.667289  1
  Zr  Zr4  1  0.500011  0.000000  0.834065  1
  Al  Al5  1  0.000000  0.000000  0.000000  1
  Al  Al6  1  0.499988  0.500001  0.166390  1
  Al  Al7  1  0.999990  0.000000  0.331742  1
  Al  Al8  1  0.500001  0.500001  0.500000  1
  Al  Al9  1  0.000010  0.000000  0.668259  1
  Al  Al10  1  0.500012  0.500001  0.833610  1
  Ru  Ru11  1  0.499999  0.263845  0.000000  1
  Ru  Ru12  1  0.499999  0.736154  0.000000  1
  Ru  Ru13  1  0.999984  0.255505  0.159907  1
  Ru  Ru14  1  0.999984  0.744495  0.159907  1
  Ru  Ru15  1  0.499978  0.251100  0.331725  1
  Ru  Ru16  1  0.499978  0.748900  0.331725  1
  Ru  Ru17  1  0.000000  0.247666  0.500000  1
  Ru  Ru18  1  0.000000  0.752334  0.500000  1
  Ru  Ru19  1  0.500021  0.251100  0.668275  1
  Ru  Ru20  1  0.500021  0.748900  0.668275  1
  Ru  Ru21  1  0.000016  0.255505  0.840093  1
  Ru  Ru22  1  0.000016  0.744495  0.840093  1
  W  W23  1  0.000000  0.500001  0.000000  1
