# generated using pymatgen
data_Sr5Rh2Pb
_symmetry_space_group_name_H-M   'P 1'
_cell_length_a   8.14296100
_cell_length_b   8.14296100
_cell_length_c   15.49328700
_cell_angle_alpha   90.00000000
_cell_angle_beta   90.00000000
_cell_angle_gamma   90.00000000
_symmetry_Int_Tables_number   1
_chemical_formula_structural   Sr5Rh2Pb
_chemical_formula_sum   'Sr20 Rh8 Pb4'
_cell_volume   1027.32599028
_cell_formula_units_Z   4
loop_
 _symmetry_equiv_pos_site_id
 _symmetry_equiv_pos_as_xyz
  1  'x, y, z'
loop_
 _atom_site_type_symbol
 _atom_site_label
 _atom_site_symmetry_multiplicity
 _atom_site_fract_x
 _atom_site_fract_y
 _atom_site_fract_z
 _atom_site_occupancy
  Sr  Sr0  1  0.324541  0.672210  0.118024  1
  Sr  Sr1  1  0.172210  0.175459  0.118024  1
  Sr  Sr2  1  0.500000  0.000000  0.747496  1
  Sr  Sr3  1  0.327790  0.675459  0.381976  1
  Sr  Sr4  1  0.672210  0.675459  0.881976  1
  Sr  Sr5  1  0.175459  0.172210  0.381976  1
  Sr  Sr6  1  0.672210  0.324541  0.381976  1
  Sr  Sr7  1  0.172210  0.824541  0.618024  1
  Sr  Sr8  1  0.327790  0.324541  0.881976  1
  Sr  Sr9  1  0.175459  0.827790  0.881976  1
  Sr  Sr10  1  0.500000  0.000000  0.247496  1
  Sr  Sr11  1  0.827790  0.175459  0.618024  1
  Sr  Sr12  1  0.324541  0.327790  0.618024  1
  Sr  Sr13  1  0.824541  0.827790  0.381976  1
  Sr  Sr14  1  0.824541  0.172210  0.881976  1
  Sr  Sr15  1  0.827790  0.824541  0.118024  1
  Sr  Sr16  1  0.000000  0.500000  0.252504  1
  Sr  Sr17  1  0.000000  0.500000  0.752504  1
  Sr  Sr18  1  0.675459  0.327790  0.118024  1
  Sr  Sr19  1  0.675459  0.672210  0.618024  1
  Rh  Rh20  1  0.116854  0.116854  0.750000  1
  Rh  Rh21  1  0.383146  0.616854  0.750000  1
  Rh  Rh22  1  0.616854  0.616854  0.250000  1
  Rh  Rh23  1  0.116854  0.883146  0.250000  1
  Rh  Rh24  1  0.616854  0.383146  0.750000  1
  Rh  Rh25  1  0.883146  0.883146  0.750000  1
  Rh  Rh26  1  0.383146  0.383146  0.250000  1
  Rh  Rh27  1  0.883146  0.116854  0.250000  1
  Pb  Pb28  1  0.000000  0.500000  0.998047  1
  Pb  Pb29  1  0.500000  0.000000  0.001953  1
  Pb  Pb30  1  0.500000  0.000000  0.501953  1
  Pb  Pb31  1  0.000000  0.500000  0.498047  1
