# generated using pymatgen
data_Cs2NpF6
_symmetry_space_group_name_H-M   'P 1'
_cell_length_a   6.68750000
_cell_length_b   6.68750010
_cell_length_c   5.16556500
_cell_angle_alpha   90.00000000
_cell_angle_beta   90.00000000
_cell_angle_gamma   119.99999952
_symmetry_Int_Tables_number   1
_chemical_formula_structural   Cs2NpF6
_chemical_formula_sum   'Cs2 Np1 F6'
_cell_volume   200.06727686
_cell_formula_units_Z   1
loop_
 _symmetry_equiv_pos_site_id
 _symmetry_equiv_pos_as_xyz
  1  'x, y, z'
loop_
 _atom_site_type_symbol
 _atom_site_label
 _atom_site_symmetry_multiplicity
 _atom_site_fract_x
 _atom_site_fract_y
 _atom_site_fract_z
 _atom_site_occupancy
  Cs  Cs0  1  0.666667  0.333333  0.311371  1
  Cs  Cs1  1  0.333333  0.666667  0.688629  1
  Np  Np2  1  0.000000  0.000000  0.000000  1
  F  F3  1  0.841624  0.158376  0.772956  1
  F  F4  1  0.841624  0.683247  0.772956  1
  F  F5  1  0.316753  0.158376  0.772956  1
  F  F6  1  0.158376  0.841624  0.227044  1
  F  F7  1  0.158376  0.316753  0.227044  1
  F  F8  1  0.683247  0.841624  0.227044  1
