# generated using pymatgen
data_Dy2Y2Co4HgBr
_symmetry_space_group_name_H-M   'P 1'
_cell_length_a   3.90377300
_cell_length_b   3.90377361
_cell_length_c   16.45905400
_cell_angle_alpha   90.00000000
_cell_angle_beta   90.00000000
_cell_angle_gamma   120.00000334
_symmetry_Int_Tables_number   1
_chemical_formula_structural   Dy2Y2Co4HgBr
_chemical_formula_sum   'Dy2 Y2 Co4 Hg1 Br1'
_cell_volume   217.22242946
_cell_formula_units_Z   1
loop_
 _symmetry_equiv_pos_site_id
 _symmetry_equiv_pos_as_xyz
  1  'x, y, z'
loop_
 _atom_site_type_symbol
 _atom_site_label
 _atom_site_symmetry_multiplicity
 _atom_site_fract_x
 _atom_site_fract_y
 _atom_site_fract_z
 _atom_site_occupancy
  Dy  Dy0  1  0.000000  0.000000  0.605997  1
  Dy  Dy1  1  0.000000  0.000000  0.387403  1
  Y  Y2  1  0.000000  0.000000  0.113454  1
  Y  Y3  1  0.000000  0.000000  0.892665  1
  Co  Co4  1  0.333333  0.666667  0.501215  1
  Co  Co5  1  0.666667  0.333333  0.499749  1
  Co  Co6  1  0.666667  0.333333  0.000162  1
  Co  Co7  1  0.333333  0.666667  0.998640  1
  Hg  Hg8  1  0.333333  0.666667  0.250674  1
  Br  Br9  1  0.666667  0.333333  0.750042  1
