# generated using pymatgen
data_La6Cr5S16
_symmetry_space_group_name_H-M   'P 1'
_cell_length_a   9.19850149
_cell_length_b   9.19850116
_cell_length_c   11.01120144
_cell_angle_alpha   88.27048032
_cell_angle_beta   88.27048498
_cell_angle_gamma   142.14305644
_symmetry_Int_Tables_number   1
_chemical_formula_structural   La6Cr5S16
_chemical_formula_sum   'La6 Cr5 S16'
_cell_volume   569.28721045
_cell_formula_units_Z   1
loop_
 _symmetry_equiv_pos_site_id
 _symmetry_equiv_pos_as_xyz
  1  'x, y, z'
loop_
 _atom_site_type_symbol
 _atom_site_label
 _atom_site_symmetry_multiplicity
 _atom_site_fract_x
 _atom_site_fract_y
 _atom_site_fract_z
 _atom_site_occupancy
  La  La0  1  0.069918  0.403069  0.826703  1
  La  La1  1  0.403069  0.069918  0.826703  1
  La  La2  1  0.766601  0.766601  0.822076  1
  La  La3  1  0.846441  0.512727  0.146901  1
  La  La4  1  0.512727  0.846441  0.146901  1
  La  La5  1  0.208995  0.208995  0.150262  1
  Cr  Cr6  1  0.613649  0.814501  0.486927  1
  Cr  Cr7  1  0.814501  0.613649  0.486927  1
  Cr  Cr8  1  0.012591  0.410662  0.484671  1
  Cr  Cr9  1  0.410662  0.012591  0.484671  1
  Cr  Cr10  1  0.214967  0.214967  0.489934  1
  S  S11  1  0.929244  0.124903  0.612213  1
  S  S12  1  0.124903  0.929244  0.612213  1
  S  S13  1  0.531302  0.531302  0.604495  1
  S  S14  1  0.322751  0.725589  0.604807  1
  S  S15  1  0.725589  0.322751  0.604807  1
  S  S16  1  0.245406  0.245406  0.883674  1
  S  S17  1  0.029162  0.361573  0.090881  1
  S  S18  1  0.361573  0.029162  0.090881  1
  S  S19  1  0.694894  0.100462  0.365458  1
  S  S20  1  0.100462  0.694894  0.365458  1
  S  S21  1  0.903839  0.903839  0.371240  1
  S  S22  1  0.301874  0.500147  0.362594  1
  S  S23  1  0.500147  0.301874  0.362594  1
  S  S24  1  0.902148  0.567944  0.882011  1
  S  S25  1  0.567944  0.902148  0.882011  1
  S  S26  1  0.707240  0.707240  0.089988  1
