# generated using pymatgen
data_Sr3(SiP2)2
_symmetry_space_group_name_H-M   'P 1'
_cell_length_a   9.37891996
_cell_length_b   9.37892064
_cell_length_c   7.21336528
_cell_angle_alpha   75.05746663
_cell_angle_beta   75.05746025
_cell_angle_gamma   122.13700840
_symmetry_Int_Tables_number   1
_chemical_formula_structural   Sr3(SiP2)2
_chemical_formula_sum   'Sr6 Si4 P8'
_cell_volume   454.61123057
_cell_formula_units_Z   2
loop_
 _symmetry_equiv_pos_site_id
 _symmetry_equiv_pos_as_xyz
  1  'x, y, z'
loop_
 _atom_site_type_symbol
 _atom_site_label
 _atom_site_symmetry_multiplicity
 _atom_site_fract_x
 _atom_site_fract_y
 _atom_site_fract_z
 _atom_site_occupancy
  Sr  Sr0  1  0.941304  0.058696  0.250000  1
  Sr  Sr1  1  0.058696  0.941304  0.750000  1
  Sr  Sr2  1  0.564868  0.435133  0.750000  1
  Sr  Sr3  1  0.435133  0.564867  0.250000  1
  Sr  Sr4  1  0.813236  0.186765  0.750000  1
  Sr  Sr5  1  0.186765  0.813235  0.250000  1
  Si  Si6  1  0.166583  0.525731  0.846049  1
  Si  Si7  1  0.474269  0.833417  0.653951  1
  Si  Si8  1  0.833417  0.474269  0.153951  1
  Si  Si9  1  0.525731  0.166583  0.346049  1
  P  P10  1  0.950754  0.554594  0.787374  1
  P  P11  1  0.445406  0.049246  0.712626  1
  P  P12  1  0.676325  0.813450  0.745170  1
  P  P13  1  0.186550  0.323675  0.754830  1
  P  P14  1  0.323675  0.186550  0.254830  1
  P  P15  1  0.813450  0.676325  0.245170  1
  P  P16  1  0.554594  0.950754  0.287374  1
  P  P17  1  0.049246  0.445406  0.212626  1
