# generated using pymatgen
data_Dy5PaAl18
_symmetry_space_group_name_H-M   'P 1'
_cell_length_a   14.60825964
_cell_length_b   14.60825925
_cell_length_c   14.60826037
_cell_angle_alpha   24.38748971
_cell_angle_beta   24.38749412
_cell_angle_gamma   24.38749159
_symmetry_Int_Tables_number   1
_chemical_formula_structural   Dy5PaAl18
_chemical_formula_sum   'Dy5 Pa1 Al18'
_cell_volume   467.23075782
_cell_formula_units_Z   1
loop_
 _symmetry_equiv_pos_site_id
 _symmetry_equiv_pos_as_xyz
  1  'x, y, z'
loop_
 _atom_site_type_symbol
 _atom_site_label
 _atom_site_symmetry_multiplicity
 _atom_site_fract_x
 _atom_site_fract_y
 _atom_site_fract_z
 _atom_site_occupancy
  Dy  Dy0  1  0.999767  0.999767  0.999767  1
  Dy  Dy1  1  0.499971  0.499971  0.499971  1
  Dy  Dy2  1  0.109264  0.109264  0.109264  1
  Dy  Dy3  1  0.891253  0.891253  0.891253  1
  Dy  Dy4  1  0.390577  0.390577  0.390577  1
  Pa  Pa5  1  0.608804  0.608804  0.608804  1
  Al  Al6  1  0.922147  0.370739  0.370739  1
  Al  Al7  1  0.424680  0.870901  0.870901  1
  Al  Al8  1  0.370739  0.370739  0.922147  1
  Al  Al9  1  0.870901  0.870901  0.424680  1
  Al  Al10  1  0.370739  0.922147  0.370739  1
  Al  Al11  1  0.870901  0.424680  0.870901  1
  Al  Al12  1  0.576952  0.129145  0.129145  1
  Al  Al13  1  0.076879  0.628947  0.628947  1
  Al  Al14  1  0.129145  0.129145  0.576952  1
  Al  Al15  1  0.628947  0.628947  0.076879  1
  Al  Al16  1  0.129145  0.576952  0.129145  1
  Al  Al17  1  0.628947  0.076879  0.628947  1
  Al  Al18  1  0.501639  0.501639  0.997546  1
  Al  Al19  1  0.999671  0.999671  0.500082  1
  Al  Al20  1  0.501639  0.997546  0.501639  1
  Al  Al21  1  0.999671  0.500082  0.999671  1
  Al  Al22  1  0.997546  0.501639  0.501639  1
  Al  Al23  1  0.500082  0.999671  0.999671  1
