# generated using pymatgen
data_TbEr2Zn3Si2Pd
_symmetry_space_group_name_H-M   'P 1'
_cell_length_a   6.80242800
_cell_length_b   6.82931663
_cell_length_c   4.27617500
_cell_angle_alpha   90.00000000
_cell_angle_beta   90.00000000
_cell_angle_gamma   119.86983285
_symmetry_Int_Tables_number   1
_chemical_formula_structural   TbEr2Zn3Si2Pd
_chemical_formula_sum   'Tb1 Er2 Zn3 Si2 Pd1'
_cell_volume   172.26436745
_cell_formula_units_Z   1
loop_
 _symmetry_equiv_pos_site_id
 _symmetry_equiv_pos_as_xyz
  1  'x, y, z'
loop_
 _atom_site_type_symbol
 _atom_site_label
 _atom_site_symmetry_multiplicity
 _atom_site_fract_x
 _atom_site_fract_y
 _atom_site_fract_z
 _atom_site_occupancy
  Tb  Tb0  1  0.415907  0.000000  0.000000  1
  Er  Er1  1  0.000093  0.415040  0.000000  1
  Er  Er2  1  0.585053  0.584960  0.000000  1
  Zn  Zn3  1  0.998747  0.755922  0.500000  1
  Zn  Zn4  1  0.242825  0.244078  0.500000  1
  Zn  Zn5  1  0.758141  0.000000  0.500000  1
  Si  Si6  1  0.332511  0.664138  0.500000  1
  Si  Si7  1  0.668374  0.335862  0.500000  1
  Pd  Pd8  1  0.998349  0.000000  0.000000  1
