# generated using pymatgen
data_La4Ga14RhAu
_symmetry_space_group_name_H-M   'P 1'
_cell_length_a   6.19752209
_cell_length_b   6.19277335
_cell_length_c   11.48177900
_cell_angle_alpha   74.35487131
_cell_angle_beta   74.34257861
_cell_angle_gamma   90.00000007
_symmetry_Int_Tables_number   1
_chemical_formula_structural   La4Ga14RhAu
_chemical_formula_sum   'La4 Ga14 Rh1 Au1'
_cell_volume   407.33538795
_cell_formula_units_Z   1
loop_
 _symmetry_equiv_pos_site_id
 _symmetry_equiv_pos_as_xyz
  1  'x, y, z'
loop_
 _atom_site_type_symbol
 _atom_site_label
 _atom_site_symmetry_multiplicity
 _atom_site_fract_x
 _atom_site_fract_y
 _atom_site_fract_z
 _atom_site_occupancy
  La  La0  1  0.994896  0.994896  0.010208  1
  La  La1  1  0.495434  0.495434  0.009132  1
  La  La2  1  0.749610  0.249610  0.500782  1
  La  La3  1  0.249150  0.749150  0.501700  1
  Ga  Ga4  1  0.201291  0.201291  0.597419  1
  Ga  Ga5  1  0.810613  0.810613  0.378775  1
  Ga  Ga6  1  0.616210  0.127316  0.254091  1
  Ga  Ga7  1  0.129697  0.618591  0.254091  1
  Ga  Ga8  1  0.616210  0.618591  0.254091  1
  Ga  Ga9  1  0.129697  0.127316  0.254091  1
  Ga  Ga10  1  0.882564  0.373238  0.747682  1
  Ga  Ga11  1  0.369754  0.879078  0.747682  1
  Ga  Ga12  1  0.882564  0.879078  0.747682  1
  Ga  Ga13  1  0.369754  0.373238  0.747682  1
  Ga  Ga14  1  0.693546  0.693546  0.612909  1
  Ga  Ga15  1  0.059641  0.559641  0.880718  1
  Ga  Ga16  1  0.443926  0.943926  0.112148  1
  Ga  Ga17  1  0.943319  0.443319  0.113361  1
  Rh  Rh18  1  0.314931  0.314931  0.370139  1
  Au  Au19  1  0.562023  0.062023  0.875954  1
