# generated using pymatgen
data_Tb3U(Tl2Br5)4
_symmetry_space_group_name_H-M   'P 1'
_cell_length_a   8.59945366
_cell_length_b   9.04173700
_cell_length_c   13.76875700
_cell_angle_alpha   90.00000000
_cell_angle_beta   89.42858206
_cell_angle_gamma   90.00000000
_symmetry_Int_Tables_number   1
_chemical_formula_structural   Tb3U(Tl2Br5)4
_chemical_formula_sum   'Tb3 U1 Tl8 Br20'
_cell_volume   1070.52266800
_cell_formula_units_Z   1
loop_
 _symmetry_equiv_pos_site_id
 _symmetry_equiv_pos_as_xyz
  1  'x, y, z'
loop_
 _atom_site_type_symbol
 _atom_site_label
 _atom_site_symmetry_multiplicity
 _atom_site_fract_x
 _atom_site_fract_y
 _atom_site_fract_z
 _atom_site_occupancy
  Tb  Tb0  1  0.573996  0.750000  0.504693  1
  Tb  Tb1  1  0.426810  0.250000  0.495092  1
  Tb  Tb2  1  0.075005  0.250000  0.996000  1
  U  U3  1  0.925665  0.750000  0.004805  1
  Tl  Tl4  1  0.546898  0.498317  0.824072  1
  Tl  Tl5  1  0.452494  0.499686  0.175570  1
  Tl  Tl6  1  0.047761  0.499325  0.672105  1
  Tl  Tl7  1  0.452494  0.000314  0.175570  1
  Tl  Tl8  1  0.951612  0.498900  0.327576  1
  Tl  Tl9  1  0.546898  0.001683  0.824072  1
  Tl  Tl10  1  0.951612  0.001100  0.327576  1
  Tl  Tl11  1  0.047761  0.000675  0.672105  1
  Br  Br12  1  0.836586  0.750000  0.798216  1
  Br  Br13  1  0.162002  0.250000  0.197133  1
  Br  Br14  1  0.338327  0.250000  0.696238  1
  Br  Br15  1  0.661894  0.750000  0.302751  1
  Br  Br16  1  0.375922  0.750000  0.673817  1
  Br  Br17  1  0.624224  0.250000  0.326337  1
  Br  Br18  1  0.876464  0.250000  0.828548  1
  Br  Br19  1  0.128113  0.750000  0.178768  1
  Br  Br20  1  0.912602  0.750000  0.510963  1
  Br  Br21  1  0.088119  0.250000  0.487815  1
  Br  Br22  1  0.414352  0.250000  0.989267  1
  Br  Br23  1  0.577651  0.750000  0.009557  1
  Br  Br24  1  0.661044  0.044016  0.573661  1
  Br  Br25  1  0.340068  0.956057  0.426514  1
  Br  Br26  1  0.161876  0.960792  0.920699  1
  Br  Br27  1  0.340068  0.543943  0.426514  1
  Br  Br28  1  0.839380  0.048588  0.079804  1
  Br  Br29  1  0.661044  0.455984  0.573661  1
  Br  Br30  1  0.839380  0.451412  0.079804  1
  Br  Br31  1  0.161876  0.539208  0.920699  1
