# generated using pymatgen
data_Li2Y9Lu9(Cd3Ru)2
_symmetry_space_group_name_H-M   'P 1'
_cell_length_a   9.38421900
_cell_length_b   9.38427659
_cell_length_c   9.63314100
_cell_angle_alpha   89.99921819
_cell_angle_beta   90.00098211
_cell_angle_gamma   120.00076226
_symmetry_Int_Tables_number   1
_chemical_formula_structural   Li2Y9Lu9(Cd3Ru)2
_chemical_formula_sum   'Li2 Y9 Lu9 Cd6 Ru2'
_cell_volume   734.67311423
_cell_formula_units_Z   1
loop_
 _symmetry_equiv_pos_site_id
 _symmetry_equiv_pos_as_xyz
  1  'x, y, z'
loop_
 _atom_site_type_symbol
 _atom_site_label
 _atom_site_symmetry_multiplicity
 _atom_site_fract_x
 _atom_site_fract_y
 _atom_site_fract_z
 _atom_site_occupancy
  Li  Li0  1  0.000000  0.000001  0.500246  1
  Li  Li1  1  0.000001  0.000002  0.999450  1
  Y  Y2  1  0.206694  0.793313  0.057928  1
  Y  Y3  1  0.206692  0.413383  0.057923  1
  Y  Y4  1  0.586615  0.793305  0.057930  1
  Y  Y5  1  0.542499  0.457502  0.251356  1
  Y  Y6  1  0.542502  0.085004  0.251353  1
  Y  Y7  1  0.915002  0.457495  0.251364  1
  Y  Y8  1  0.458834  0.541154  0.748005  1
  Y  Y9  1  0.458832  0.917677  0.747994  1
  Y  Y10  1  0.082339  0.541173  0.748000  1
  Lu  Lu11  1  0.208738  0.791262  0.442381  1
  Lu  Lu12  1  0.208735  0.417473  0.442389  1
  Lu  Lu13  1  0.582527  0.791262  0.442388  1
  Lu  Lu14  1  0.791138  0.208861  0.558670  1
  Lu  Lu15  1  0.791150  0.582284  0.558663  1
  Lu  Lu16  1  0.417710  0.208855  0.558663  1
  Lu  Lu17  1  0.790476  0.209533  0.940703  1
  Lu  Lu18  1  0.790481  0.580957  0.940714  1
  Lu  Lu19  1  0.419051  0.209524  0.940714  1
  Cd  Cd20  1  0.891709  0.108273  0.250590  1
  Cd  Cd21  1  0.891725  0.783441  0.250566  1
  Cd  Cd22  1  0.216558  0.108267  0.250572  1
  Cd  Cd23  1  0.107987  0.892005  0.749386  1
  Cd  Cd24  1  0.108001  0.216006  0.749383  1
  Cd  Cd25  1  0.784018  0.892008  0.749380  1
  Ru  Ru26  1  0.333332  0.666656  0.253520  1
  Ru  Ru27  1  0.666654  0.333325  0.749767  1
