# generated using pymatgen
data_BeAlCoO4
_symmetry_space_group_name_H-M   'P 1'
_cell_length_a   4.45292200
_cell_length_b   5.52513700
_cell_length_c   9.53499700
_cell_angle_alpha   90.00000000
_cell_angle_beta   90.00000000
_cell_angle_gamma   90.00000000
_symmetry_Int_Tables_number   1
_chemical_formula_structural   BeAlCoO4
_chemical_formula_sum   'Be4 Al4 Co4 O16'
_cell_volume   234.58957029
_cell_formula_units_Z   4
loop_
 _symmetry_equiv_pos_site_id
 _symmetry_equiv_pos_as_xyz
  1  'x, y, z'
loop_
 _atom_site_type_symbol
 _atom_site_label
 _atom_site_symmetry_multiplicity
 _atom_site_fract_x
 _atom_site_fract_y
 _atom_site_fract_z
 _atom_site_occupancy
  Be  Be0  1  0.069185  0.250000  0.409058  1
  Be  Be1  1  0.930815  0.750000  0.590942  1
  Be  Be2  1  0.430815  0.250000  0.909058  1
  Be  Be3  1  0.569185  0.750000  0.090942  1
  Al  Al4  1  0.494036  0.750000  0.771203  1
  Al  Al5  1  0.994036  0.250000  0.728797  1
  Al  Al6  1  0.505964  0.250000  0.228797  1
  Al  Al7  1  0.005964  0.750000  0.271203  1
  Co  Co8  1  0.500000  0.500000  0.500000  1
  Co  Co9  1  0.000000  0.500000  0.000000  1
  Co  Co10  1  0.500000  0.000000  0.500000  1
  Co  Co11  1  0.000000  0.000000  0.000000  1
  O  O12  1  0.759051  0.517798  0.664667  1
  O  O13  1  0.259051  0.482202  0.835333  1
  O  O14  1  0.240949  0.017798  0.335333  1
  O  O15  1  0.740949  0.982202  0.164667  1
  O  O16  1  0.259051  0.017798  0.835333  1
  O  O17  1  0.240949  0.482202  0.335333  1
  O  O18  1  0.759051  0.982202  0.664667  1
  O  O19  1  0.740949  0.517798  0.164667  1
  O  O20  1  0.213951  0.750000  0.094158  1
  O  O21  1  0.713951  0.250000  0.405842  1
  O  O22  1  0.786049  0.250000  0.905842  1
  O  O23  1  0.286049  0.750000  0.594158  1
  O  O24  1  0.766652  0.750000  0.434607  1
  O  O25  1  0.266652  0.250000  0.065393  1
  O  O26  1  0.233348  0.250000  0.565393  1
  O  O27  1  0.733348  0.750000  0.934607  1
