# generated using pymatgen
data_Er6P13Rh20
_symmetry_space_group_name_H-M   'P 1'
_cell_length_a   13.30034300
_cell_length_b   13.30034146
_cell_length_c   3.91546800
_cell_angle_alpha   90.00000000
_cell_angle_beta   90.00000000
_cell_angle_gamma   119.99999638
_symmetry_Int_Tables_number   1
_chemical_formula_structural   Er6P13Rh20
_chemical_formula_sum   'Er6 P13 Rh20'
_cell_volume   599.84626382
_cell_formula_units_Z   1
loop_
 _symmetry_equiv_pos_site_id
 _symmetry_equiv_pos_as_xyz
  1  'x, y, z'
loop_
 _atom_site_type_symbol
 _atom_site_label
 _atom_site_symmetry_multiplicity
 _atom_site_fract_x
 _atom_site_fract_y
 _atom_site_fract_z
 _atom_site_occupancy
  Er  Er0  1  0.529063  0.717691  0.248754  1
  Er  Er1  1  0.282309  0.811371  0.248754  1
  Er  Er2  1  0.188629  0.470937  0.248754  1
  Er  Er3  1  0.470937  0.282309  0.751246  1
  Er  Er4  1  0.717691  0.188629  0.751246  1
  Er  Er5  1  0.811371  0.529063  0.751246  1
  P  P6  1  0.526759  0.139704  0.250215  1
  P  P7  1  0.860296  0.387057  0.250215  1
  P  P8  1  0.612943  0.473241  0.250215  1
  P  P9  1  0.944074  0.713778  0.254112  1
  P  P10  1  0.286222  0.230297  0.254112  1
  P  P11  1  0.769703  0.055926  0.254112  1
  P  P12  1  0.387057  0.526759  0.749785  1
  P  P13  1  0.473241  0.860296  0.749785  1
  P  P14  1  0.139704  0.612943  0.749785  1
  P  P15  1  0.713778  0.769703  0.745888  1
  P  P16  1  0.230297  0.944074  0.745888  1
  P  P17  1  0.055926  0.286222  0.745888  1
  P  P18  1  0.000000  0.000000  0.000000  1
  Rh  Rh19  1  0.333333  0.666667  0.751243  1
  Rh  Rh20  1  0.921314  0.250828  0.252889  1
  Rh  Rh21  1  0.749172  0.670486  0.252889  1
  Rh  Rh22  1  0.329514  0.078686  0.252889  1
  Rh  Rh23  1  0.438187  0.021873  0.751175  1
  Rh  Rh24  1  0.978127  0.416315  0.751175  1
  Rh  Rh25  1  0.583685  0.561813  0.751175  1
  Rh  Rh26  1  0.666667  0.333333  0.248757  1
  Rh  Rh27  1  0.094507  0.187124  0.248439  1
  Rh  Rh28  1  0.812876  0.907383  0.248439  1
  Rh  Rh29  1  0.092617  0.905493  0.248439  1
  Rh  Rh30  1  0.021873  0.583685  0.248825  1
  Rh  Rh31  1  0.416315  0.438187  0.248825  1
  Rh  Rh32  1  0.561813  0.978127  0.248825  1
  Rh  Rh33  1  0.670486  0.921314  0.747111  1
  Rh  Rh34  1  0.078686  0.749172  0.747111  1
  Rh  Rh35  1  0.250828  0.329514  0.747111  1
  Rh  Rh36  1  0.905493  0.812876  0.751561  1
  Rh  Rh37  1  0.187124  0.092617  0.751561  1
  Rh  Rh38  1  0.907383  0.094507  0.751561  1
