# generated using pymatgen
data_NaTm(ReH9)2
_symmetry_space_group_name_H-M   'P 1'
_cell_length_a   5.18838839
_cell_length_b   5.18844330
_cell_length_c   8.40177085
_cell_angle_alpha   92.94207299
_cell_angle_beta   87.05731375
_cell_angle_gamma   125.59122858
_symmetry_Int_Tables_number   1
_chemical_formula_structural   NaTm(ReH9)2
_chemical_formula_sum   'Na1 Tm1 Re2 H18'
_cell_volume   183.61484405
_cell_formula_units_Z   1
loop_
 _symmetry_equiv_pos_site_id
 _symmetry_equiv_pos_as_xyz
  1  'x, y, z'
loop_
 _atom_site_type_symbol
 _atom_site_label
 _atom_site_symmetry_multiplicity
 _atom_site_fract_x
 _atom_site_fract_y
 _atom_site_fract_z
 _atom_site_occupancy
  Na  Na0  1  0.000000  0.000000  0.000000  1
  Tm  Tm1  1  0.000000  0.000000  0.500000  1
  Re  Re2  1  0.338306  0.661695  0.724225  1
  Re  Re3  1  0.661694  0.338305  0.275775  1
  H  H4  1  0.387545  0.612464  0.524769  1
  H  H5  1  0.612455  0.387536  0.475231  1
  H  H6  1  0.416279  0.583693  0.899129  1
  H  H7  1  0.583721  0.416307  0.100871  1
  H  H8  1  0.470558  0.961775  0.859759  1
  H  H9  1  0.961801  0.470554  0.140257  1
  H  H10  1  0.600762  0.021781  0.648814  1
  H  H11  1  0.021753  0.600695  0.351201  1
  H  H12  1  0.529442  0.038225  0.140241  1
  H  H13  1  0.038199  0.529446  0.859743  1
  H  H14  1  0.399238  0.978219  0.351186  1
  H  H15  1  0.978247  0.399305  0.648799  1
  H  H16  1  0.705826  0.729247  0.718919  1
  H  H17  1  0.729312  0.705840  0.281076  1
  H  H18  1  0.294174  0.270753  0.281081  1
  H  H19  1  0.270688  0.294160  0.718924  1
  H  H20  1  0.157035  0.843030  0.691842  1
  H  H21  1  0.842965  0.156970  0.308158  1
