# generated using pymatgen
data_Ga3Ge(PPd6)2
_symmetry_space_group_name_H-M   'P 1'
_cell_length_a   3.42476000
_cell_length_b   6.75925788
_cell_length_c   11.65899451
_cell_angle_alpha   90.02576215
_cell_angle_beta   90.00000000
_cell_angle_gamma   90.00000000
_symmetry_Int_Tables_number   1
_chemical_formula_structural   Ga3Ge(PPd6)2
_chemical_formula_sum   'Ga3 Ge1 P2 Pd12'
_cell_volume   269.89212461
_cell_formula_units_Z   1
loop_
 _symmetry_equiv_pos_site_id
 _symmetry_equiv_pos_as_xyz
  1  'x, y, z'
loop_
 _atom_site_type_symbol
 _atom_site_label
 _atom_site_symmetry_multiplicity
 _atom_site_fract_x
 _atom_site_fract_y
 _atom_site_fract_z
 _atom_site_occupancy
  Ga  Ga0  1  0.000000  0.500787  0.166155  1
  Ga  Ga1  1  0.000000  0.499187  0.835227  1
  Ga  Ga2  1  0.000000  0.000719  0.331984  1
  Ge  Ge3  1  0.000000  0.999168  0.666474  1
  P  P4  1  0.500000  0.000877  0.001113  1
  P  P5  1  0.500000  0.499281  0.499091  1
  Pd  Pd6  1  0.000000  0.748417  0.000436  1
  Pd  Pd7  1  0.000000  0.244472  0.501334  1
  Pd  Pd8  1  0.000000  0.628600  0.627148  1
  Pd  Pd9  1  0.000000  0.127702  0.125845  1
  Pd  Pd10  1  0.000000  0.123933  0.871434  1
  Pd  Pd11  1  0.000000  0.626189  0.373586  1
  Pd  Pd12  1  0.500000  0.896534  0.499902  1
  Pd  Pd13  1  0.500000  0.397527  0.999428  1
  Pd  Pd14  1  0.500000  0.799652  0.800969  1
  Pd  Pd15  1  0.500000  0.302579  0.300737  1
  Pd  Pd16  1  0.500000  0.303148  0.699354  1
  Pd  Pd17  1  0.500000  0.801426  0.199786  1
