# generated using pymatgen
data_Sm6Fe13Hg
_symmetry_space_group_name_H-M   'P 1'
_cell_length_a   8.01004680
_cell_length_b   8.01004576
_cell_length_c   12.87724012
_cell_angle_alpha   108.12045375
_cell_angle_beta   108.12045154
_cell_angle_gamma   89.99999839
_symmetry_Int_Tables_number   1
_chemical_formula_structural   Sm6Fe13Hg
_chemical_formula_sum   'Sm12 Fe26 Hg2'
_cell_volume   742.00252856
_cell_formula_units_Z   2
loop_
 _symmetry_equiv_pos_site_id
 _symmetry_equiv_pos_as_xyz
  1  'x, y, z'
loop_
 _atom_site_type_symbol
 _atom_site_label
 _atom_site_symmetry_multiplicity
 _atom_site_fract_x
 _atom_site_fract_y
 _atom_site_fract_z
 _atom_site_occupancy
  Sm  Sm0  1  0.604895  0.604895  0.209791  1
  Sm  Sm1  1  0.104895  0.104895  0.209791  1
  Sm  Sm2  1  0.395105  0.395105  0.790209  1
  Sm  Sm3  1  0.895105  0.895105  0.790209  1
  Sm  Sm4  1  0.978900  0.478900  0.630202  1
  Sm  Sm5  1  0.651302  0.151302  0.630202  1
  Sm  Sm6  1  0.151302  0.978900  0.630202  1
  Sm  Sm7  1  0.478900  0.651302  0.630202  1
  Sm  Sm8  1  0.021100  0.521100  0.369798  1
  Sm  Sm9  1  0.348698  0.848698  0.369798  1
  Sm  Sm10  1  0.848698  0.021100  0.369798  1
  Sm  Sm11  1  0.521100  0.348698  0.369798  1
  Fe  Fe12  1  0.000000  0.500000  0.000000  1
  Fe  Fe13  1  0.500000  0.000000  0.000000  1
  Fe  Fe14  1  0.709512  0.566476  0.000000  1
  Fe  Fe15  1  0.290488  0.433524  0.000000  1
  Fe  Fe16  1  0.790488  0.066476  0.000000  1
  Fe  Fe17  1  0.209512  0.933524  0.000000  1
  Fe  Fe18  1  0.566476  0.290488  0.000000  1
  Fe  Fe19  1  0.433524  0.709512  0.000000  1
  Fe  Fe20  1  0.066476  0.209512  0.000000  1
  Fe  Fe21  1  0.933524  0.790488  0.000000  1
  Fe  Fe22  1  0.119455  0.619455  0.880844  1
  Fe  Fe23  1  0.761389  0.261389  0.880844  1
  Fe  Fe24  1  0.261389  0.119455  0.880844  1
  Fe  Fe25  1  0.619455  0.761389  0.880844  1
  Fe  Fe26  1  0.880545  0.380545  0.119156  1
  Fe  Fe27  1  0.238611  0.738611  0.119156  1
  Fe  Fe28  1  0.738611  0.880545  0.119156  1
  Fe  Fe29  1  0.380545  0.238611  0.119156  1
  Fe  Fe30  1  0.290644  0.790644  0.808726  1
  Fe  Fe31  1  0.518083  0.018083  0.808726  1
  Fe  Fe32  1  0.018083  0.290644  0.808726  1
  Fe  Fe33  1  0.790644  0.518083  0.808726  1
  Fe  Fe34  1  0.709356  0.209356  0.191274  1
  Fe  Fe35  1  0.481917  0.981917  0.191274  1
  Fe  Fe36  1  0.981917  0.709356  0.191274  1
  Fe  Fe37  1  0.209356  0.481917  0.191274  1
  Hg  Hg38  1  0.250000  0.250000  0.500000  1
  Hg  Hg39  1  0.750000  0.750000  0.500000  1
