# generated using pymatgen
data_PrNd7(Sc3Ga4)4
_symmetry_space_group_name_H-M   'P 1'
_cell_length_a   7.43653717
_cell_length_b   7.69690323
_cell_length_c   14.67919549
_cell_angle_alpha   89.99680416
_cell_angle_beta   90.00971678
_cell_angle_gamma   90.00715340
_symmetry_Int_Tables_number   1
_chemical_formula_structural   PrNd7(Sc3Ga4)4
_chemical_formula_sum   'Pr1 Nd7 Sc12 Ga16'
_cell_volume   840.21227717
_cell_formula_units_Z   1
loop_
 _symmetry_equiv_pos_site_id
 _symmetry_equiv_pos_as_xyz
  1  'x, y, z'
loop_
 _atom_site_type_symbol
 _atom_site_label
 _atom_site_symmetry_multiplicity
 _atom_site_fract_x
 _atom_site_fract_y
 _atom_site_fract_z
 _atom_site_occupancy
  Pr  Pr0  1  0.012400  0.175466  0.094952  1
  Nd  Nd1  1  0.012516  0.176228  0.404829  1
  Nd  Nd2  1  0.512557  0.323759  0.404894  1
  Nd  Nd3  1  0.487646  0.676178  0.904451  1
  Nd  Nd4  1  0.487449  0.676214  0.595230  1
  Nd  Nd5  1  0.987421  0.823853  0.595263  1
  Nd  Nd6  1  0.987472  0.823603  0.904138  1
  Nd  Nd7  1  0.512617  0.324037  0.095341  1
  Sc  Sc8  1  0.329670  0.173263  0.624718  1
  Sc  Sc9  1  0.670034  0.826636  0.375392  1
  Sc  Sc10  1  0.661266  0.000919  0.749840  1
  Sc  Sc11  1  0.170382  0.673212  0.375473  1
  Sc  Sc12  1  0.829613  0.327058  0.874851  1
  Sc  Sc13  1  0.829817  0.326634  0.624780  1
  Sc  Sc14  1  0.838631  0.501072  0.250282  1
  Sc  Sc15  1  0.338571  0.998878  0.250327  1
  Sc  Sc16  1  0.329833  0.173288  0.874996  1
  Sc  Sc17  1  0.170389  0.673235  0.124886  1
  Sc  Sc18  1  0.669596  0.826632  0.125119  1
  Sc  Sc19  1  0.161433  0.499195  0.749795  1
  Ga  Ga20  1  0.286139  0.879350  0.749828  1
  Ga  Ga21  1  0.468377  0.622274  0.250153  1
  Ga  Ga22  1  0.031753  0.122191  0.749968  1
  Ga  Ga23  1  0.531787  0.377816  0.749878  1
  Ga  Ga24  1  0.157057  0.462806  0.540617  1
  Ga  Ga25  1  0.968165  0.877115  0.250412  1
  Ga  Ga26  1  0.713376  0.120548  0.250488  1
  Ga  Ga27  1  0.842525  0.538643  0.040426  1
  Ga  Ga28  1  0.343737  0.961722  0.040477  1
  Ga  Ga29  1  0.157424  0.463616  0.959179  1
  Ga  Ga30  1  0.657051  0.037215  0.540594  1
  Ga  Ga31  1  0.342941  0.962664  0.459450  1
  Ga  Ga32  1  0.842936  0.537136  0.459508  1
  Ga  Ga33  1  0.786090  0.620829  0.749831  1
  Ga  Ga34  1  0.214266  0.379431  0.250350  1
  Ga  Ga35  1  0.657061  0.037282  0.959279  1
