# generated using pymatgen
data_La2SiNiPt7
_symmetry_space_group_name_H-M   'P 1'
_cell_length_a   4.22538300
_cell_length_b   9.30530553
_cell_length_c   9.30018430
_cell_angle_alpha   146.01066286
_cell_angle_beta   90.00000000
_cell_angle_gamma   90.00000000
_symmetry_Int_Tables_number   1
_chemical_formula_structural   La2SiNiPt7
_chemical_formula_sum   'La2 Si1 Ni1 Pt7'
_cell_volume   204.42314962
_cell_formula_units_Z   1
loop_
 _symmetry_equiv_pos_site_id
 _symmetry_equiv_pos_as_xyz
  1  'x, y, z'
loop_
 _atom_site_type_symbol
 _atom_site_label
 _atom_site_symmetry_multiplicity
 _atom_site_fract_x
 _atom_site_fract_y
 _atom_site_fract_z
 _atom_site_occupancy
  La  La0  1  0.500000  0.620196  0.371312  1
  La  La1  1  0.500000  0.372683  0.621796  1
  Si  Si2  1  0.000000  0.217994  0.221054  1
  Ni  Ni3  1  0.500000  0.790451  0.194704  1
  Pt  Pt4  1  0.000000  0.878925  0.108215  1
  Pt  Pt5  1  0.000000  0.990739  0.484518  1
  Pt  Pt6  1  0.000000  0.638707  0.639845  1
  Pt  Pt7  1  0.500000  0.196093  0.789953  1
  Pt  Pt8  1  0.000000  0.108913  0.885699  1
  Pt  Pt9  1  0.000000  0.500348  0.995859  1
  Pt  Pt10  1  0.500000  0.998536  0.000628  1
