# generated using pymatgen
data_Nd2Mn(Co3As2)3
_symmetry_space_group_name_H-M   'P 1'
_cell_length_a   3.84745400
_cell_length_b   10.79559100
_cell_length_c   12.31658200
_cell_angle_alpha   90.00000000
_cell_angle_beta   90.00000000
_cell_angle_gamma   90.00000000
_symmetry_Int_Tables_number   1
_chemical_formula_structural   Nd2Mn(Co3As2)3
_chemical_formula_sum   'Nd4 Mn2 Co18 As12'
_cell_volume   511.57588156
_cell_formula_units_Z   2
loop_
 _symmetry_equiv_pos_site_id
 _symmetry_equiv_pos_as_xyz
  1  'x, y, z'
loop_
 _atom_site_type_symbol
 _atom_site_label
 _atom_site_symmetry_multiplicity
 _atom_site_fract_x
 _atom_site_fract_y
 _atom_site_fract_z
 _atom_site_occupancy
  Nd  Nd0  1  0.250000  0.579107  0.699779  1
  Nd  Nd1  1  0.250000  0.920893  0.199779  1
  Nd  Nd2  1  0.750000  0.419042  0.297700  1
  Nd  Nd3  1  0.750000  0.080958  0.797700  1
  Mn  Mn4  1  0.250000  0.699890  0.990749  1
  Mn  Mn5  1  0.250000  0.800110  0.490749  1
  Co  Co6  1  0.750000  0.296785  0.009345  1
  Co  Co7  1  0.750000  0.203215  0.509345  1
  Co  Co8  1  0.250000  0.403059  0.489721  1
  Co  Co9  1  0.250000  0.096941  0.989721  1
  Co  Co10  1  0.750000  0.592677  0.512527  1
  Co  Co11  1  0.750000  0.907323  0.012527  1
  Co  Co12  1  0.250000  0.218543  0.174974  1
  Co  Co13  1  0.250000  0.281457  0.674974  1
  Co  Co14  1  0.750000  0.782424  0.826233  1
  Co  Co15  1  0.750000  0.717576  0.326233  1
  Co  Co16  1  0.250000  0.882484  0.697459  1
  Co  Co17  1  0.250000  0.617516  0.197459  1
  Co  Co18  1  0.750000  0.119210  0.303086  1
  Co  Co19  1  0.750000  0.380790  0.803086  1
  Co  Co20  1  0.250000  0.467430  0.932524  1
  Co  Co21  1  0.250000  0.032570  0.432524  1
  Co  Co22  1  0.750000  0.531084  0.065577  1
  Co  Co23  1  0.750000  0.968916  0.565577  1
  As  As24  1  0.250000  0.417947  0.112901  1
  As  As25  1  0.250000  0.082053  0.612901  1
  As  As26  1  0.750000  0.580503  0.884094  1
  As  As27  1  0.750000  0.919497  0.384094  1
  As  As28  1  0.250000  0.270979  0.867516  1
  As  As29  1  0.250000  0.229021  0.367516  1
  As  As30  1  0.750000  0.727924  0.135408  1
  As  As31  1  0.750000  0.772076  0.635408  1
  As  As32  1  0.250000  0.599481  0.393711  1
  As  As33  1  0.250000  0.900519  0.893711  1
  As  As34  1  0.750000  0.393235  0.606698  1
  As  As35  1  0.750000  0.106765  0.106698  1
