# generated using pymatgen
data_Ho8Sc12Sn9Bi7
_symmetry_space_group_name_H-M   'P 1'
_cell_length_a   7.90289780
_cell_length_b   7.88562441
_cell_length_c   14.94359761
_cell_angle_alpha   90.06254087
_cell_angle_beta   89.84896563
_cell_angle_gamma   90.02514810
_symmetry_Int_Tables_number   1
_chemical_formula_structural   Ho8Sc12Sn9Bi7
_chemical_formula_sum   'Ho8 Sc12 Sn9 Bi7'
_cell_volume   931.27042129
_cell_formula_units_Z   1
loop_
 _symmetry_equiv_pos_site_id
 _symmetry_equiv_pos_as_xyz
  1  'x, y, z'
loop_
 _atom_site_type_symbol
 _atom_site_label
 _atom_site_symmetry_multiplicity
 _atom_site_fract_x
 _atom_site_fract_y
 _atom_site_fract_z
 _atom_site_occupancy
  Ho  Ho0  1  0.979677  0.173233  0.098596  1
  Ho  Ho1  1  0.032077  0.824744  0.901588  1
  Ho  Ho2  1  0.524432  0.681760  0.900896  1
  Ho  Ho3  1  0.028087  0.820922  0.601321  1
  Ho  Ho4  1  0.470748  0.317249  0.100426  1
  Ho  Ho5  1  0.971391  0.178549  0.398315  1
  Ho  Ho6  1  0.471232  0.321068  0.397916  1
  Ho  Ho7  1  0.528776  0.678255  0.601889  1
  Sc  Sc8  1  0.188254  0.497177  0.750522  1
  Sc  Sc9  1  0.811643  0.503496  0.249080  1
  Sc  Sc10  1  0.311391  0.996038  0.246113  1
  Sc  Sc11  1  0.688332  0.003916  0.750279  1
  Sc  Sc12  1  0.361523  0.155673  0.629309  1
  Sc  Sc13  1  0.638463  0.844494  0.370397  1
  Sc  Sc14  1  0.137869  0.655339  0.370422  1
  Sc  Sc15  1  0.634935  0.843913  0.129147  1
  Sc  Sc16  1  0.861144  0.345303  0.630257  1
  Sc  Sc17  1  0.358711  0.153244  0.872546  1
  Sc  Sc18  1  0.860454  0.344283  0.870913  1
  Sc  Sc19  1  0.142339  0.661039  0.127999  1
  Sn  Sn20  1  0.053096  0.126311  0.750009  1
  Sn  Sn21  1  0.945891  0.873427  0.249967  1
  Sn  Sn22  1  0.446307  0.625395  0.250602  1
  Sn  Sn23  1  0.552317  0.373736  0.751178  1
  Sn  Sn24  1  0.331051  0.849322  0.750098  1
  Sn  Sn25  1  0.670757  0.150869  0.249246  1
  Sn  Sn26  1  0.168129  0.350083  0.249064  1
  Sn  Sn27  1  0.831474  0.652484  0.751839  1
  Sn  Sn28  1  0.296607  0.956814  0.042573  1
  Bi  Bi29  1  0.207743  0.457238  0.542711  1
  Bi  Bi30  1  0.791670  0.542423  0.457320  1
  Bi  Bi31  1  0.291904  0.957558  0.456520  1
  Bi  Bi32  1  0.792263  0.541730  0.042991  1
  Bi  Bi33  1  0.708082  0.042990  0.542821  1
  Bi  Bi34  1  0.206627  0.456807  0.957239  1
  Bi  Bi35  1  0.704603  0.043116  0.957892  1
