# generated using pymatgen
data_KPr(SeO3)2
_symmetry_space_group_name_H-M   'P 1'
_cell_length_a   5.86168500
_cell_length_b   8.95031400
_cell_length_c   14.02784000
_cell_angle_alpha   90.00000000
_cell_angle_beta   90.00000000
_cell_angle_gamma   90.00000000
_symmetry_Int_Tables_number   1
_chemical_formula_structural   KPr(SeO3)2
_chemical_formula_sum   'K4 Pr4 Se8 O24'
_cell_volume   735.95549404
_cell_formula_units_Z   4
loop_
 _symmetry_equiv_pos_site_id
 _symmetry_equiv_pos_as_xyz
  1  'x, y, z'
loop_
 _atom_site_type_symbol
 _atom_site_label
 _atom_site_symmetry_multiplicity
 _atom_site_fract_x
 _atom_site_fract_y
 _atom_site_fract_z
 _atom_site_occupancy
  K  K0  1  0.250000  0.994969  0.626401  1
  K  K1  1  0.250000  0.505031  0.126401  1
  K  K2  1  0.750000  0.005031  0.373599  1
  K  K3  1  0.750000  0.494969  0.873599  1
  Pr  Pr4  1  0.250000  0.813236  0.907178  1
  Pr  Pr5  1  0.250000  0.686764  0.407178  1
  Pr  Pr6  1  0.750000  0.186764  0.092822  1
  Pr  Pr7  1  0.750000  0.313236  0.592822  1
  Se  Se8  1  0.750000  0.016536  0.792909  1
  Se  Se9  1  0.750000  0.483464  0.292909  1
  Se  Se10  1  0.250000  0.983464  0.207091  1
  Se  Se11  1  0.250000  0.516536  0.707091  1
  Se  Se12  1  0.750000  0.731306  0.569446  1
  Se  Se13  1  0.750000  0.768694  0.069446  1
  Se  Se14  1  0.250000  0.268694  0.430554  1
  Se  Se15  1  0.250000  0.231306  0.930554  1
  O  O16  1  0.980589  0.897248  0.790661  1
  O  O17  1  0.519411  0.602752  0.290661  1
  O  O18  1  0.480589  0.102752  0.209339  1
  O  O19  1  0.019411  0.397248  0.709339  1
  O  O20  1  0.019411  0.102752  0.209339  1
  O  O21  1  0.480589  0.397248  0.709339  1
  O  O22  1  0.519411  0.897248  0.790661  1
  O  O23  1  0.980589  0.602752  0.290661  1
  O  O24  1  0.750000  0.080503  0.676791  1
  O  O25  1  0.750000  0.419497  0.176791  1
  O  O26  1  0.250000  0.919497  0.323209  1
  O  O27  1  0.250000  0.580503  0.823209  1
  O  O28  1  0.978341  0.809404  0.510099  1
  O  O29  1  0.521659  0.690596  0.010099  1
  O  O30  1  0.478341  0.190596  0.489901  1
  O  O31  1  0.021659  0.309404  0.989901  1
  O  O32  1  0.021659  0.190596  0.489901  1
  O  O33  1  0.478341  0.309404  0.989901  1
  O  O34  1  0.521659  0.809404  0.510099  1
  O  O35  1  0.978341  0.690596  0.010099  1
  O  O36  1  0.750000  0.553050  0.522366  1
  O  O37  1  0.750000  0.946950  0.022366  1
  O  O38  1  0.250000  0.446950  0.477634  1
  O  O39  1  0.250000  0.053050  0.977634  1
