# generated using pymatgen
data_Nd3YIr3RhO14
_symmetry_space_group_name_H-M   'P 1'
_cell_length_a   7.35183825
_cell_length_b   7.35183875
_cell_length_c   7.35183764
_cell_angle_alpha   60.22714101
_cell_angle_beta   60.22713915
_cell_angle_gamma   60.22713995
_symmetry_Int_Tables_number   1
_chemical_formula_structural   Nd3YIr3RhO14
_chemical_formula_sum   'Nd3 Y1 Ir3 Rh1 O14'
_cell_volume   282.42323415
_cell_formula_units_Z   1
loop_
 _symmetry_equiv_pos_site_id
 _symmetry_equiv_pos_as_xyz
  1  'x, y, z'
loop_
 _atom_site_type_symbol
 _atom_site_label
 _atom_site_symmetry_multiplicity
 _atom_site_fract_x
 _atom_site_fract_y
 _atom_site_fract_z
 _atom_site_occupancy
  Nd  Nd0  1  0.625000  0.125000  0.125000  1
  Nd  Nd1  1  0.125000  0.625000  0.125000  1
  Nd  Nd2  1  0.125000  0.125000  0.625000  1
  Y  Y3  1  0.125000  0.125000  0.125000  1
  Ir  Ir4  1  0.125000  0.625000  0.625000  1
  Ir  Ir5  1  0.625000  0.125000  0.625000  1
  Ir  Ir6  1  0.625000  0.625000  0.125000  1
  Rh  Rh7  1  0.625000  0.625000  0.625000  1
  O  O8  1  0.709291  0.709291  0.288027  1
  O  O9  1  0.293151  0.293151  0.714782  1
  O  O10  1  0.709291  0.288027  0.709291  1
  O  O11  1  0.293151  0.714782  0.293151  1
  O  O12  1  0.288027  0.709291  0.709291  1
  O  O13  1  0.714782  0.293151  0.293151  1
  O  O14  1  0.540709  0.540709  0.961973  1
  O  O15  1  0.956849  0.956849  0.535218  1
  O  O16  1  0.540709  0.961973  0.540709  1
  O  O17  1  0.956849  0.535218  0.956849  1
  O  O18  1  0.961973  0.540709  0.540709  1
  O  O19  1  0.535218  0.956849  0.956849  1
  O  O20  1  0.245996  0.245996  0.245996  1
  O  O21  1  0.004004  0.004004  0.004004  1
