# generated using pymatgen
data_Nb4ReMo2Ru
_symmetry_space_group_name_H-M   'P 1'
_cell_length_a   6.44705100
_cell_length_b   4.54837300
_cell_length_c   9.08963200
_cell_angle_alpha   90.00000000
_cell_angle_beta   90.00121576
_cell_angle_gamma   90.00000000
_symmetry_Int_Tables_number   1
_chemical_formula_structural   Nb4ReMo2Ru
_chemical_formula_sum   'Nb8 Re2 Mo4 Ru2'
_cell_volume   266.54066651
_cell_formula_units_Z   2
loop_
 _symmetry_equiv_pos_site_id
 _symmetry_equiv_pos_as_xyz
  1  'x, y, z'
loop_
 _atom_site_type_symbol
 _atom_site_label
 _atom_site_symmetry_multiplicity
 _atom_site_fract_x
 _atom_site_fract_y
 _atom_site_fract_z
 _atom_site_occupancy
  Nb  Nb0  1  0.499054  0.750000  0.125462  1
  Nb  Nb1  1  0.000996  0.750000  0.125456  1
  Nb  Nb2  1  0.500996  0.250000  0.374541  1
  Nb  Nb3  1  0.999063  0.250000  0.374543  1
  Nb  Nb4  1  0.999524  0.750000  0.623976  1
  Nb  Nb5  1  0.500432  0.750000  0.623975  1
  Nb  Nb6  1  0.000424  0.250000  0.876026  1
  Nb  Nb7  1  0.499527  0.250000  0.876024  1
  Re  Re8  1  0.250011  0.250000  0.123665  1
  Re  Re9  1  0.750026  0.750000  0.376340  1
  Mo  Mo10  1  0.750025  0.250000  0.124339  1
  Mo  Mo11  1  0.250019  0.750000  0.375657  1
  Mo  Mo12  1  0.749978  0.250000  0.626165  1
  Mo  Mo13  1  0.249982  0.750000  0.873839  1
  Ru  Ru14  1  0.249971  0.250000  0.625852  1
  Ru  Ru15  1  0.749971  0.750000  0.874142  1
