# generated using pymatgen
data_ErPa3Co3CuGe4
_symmetry_space_group_name_H-M   'P 1'
_cell_length_a   4.29174500
_cell_length_b   7.11169815
_cell_length_c   7.10255152
_cell_angle_alpha   90.55638831
_cell_angle_beta   90.00000000
_cell_angle_gamma   90.00000000
_symmetry_Int_Tables_number   1
_chemical_formula_structural   ErPa3Co3CuGe4
_chemical_formula_sum   'Er1 Pa3 Co3 Cu1 Ge4'
_cell_volume   216.77097990
_cell_formula_units_Z   1
loop_
 _symmetry_equiv_pos_site_id
 _symmetry_equiv_pos_as_xyz
  1  'x, y, z'
loop_
 _atom_site_type_symbol
 _atom_site_label
 _atom_site_symmetry_multiplicity
 _atom_site_fract_x
 _atom_site_fract_y
 _atom_site_fract_z
 _atom_site_occupancy
  Er  Er0  1  0.750000  0.499377  0.279207  1
  Pa  Pa1  1  0.250000  0.003250  0.795777  1
  Pa  Pa2  1  0.250000  0.527733  0.718288  1
  Pa  Pa3  1  0.750000  0.990021  0.208872  1
  Co  Co4  1  0.250000  0.757575  0.443410  1
  Co  Co5  1  0.250000  0.242842  0.054595  1
  Co  Co6  1  0.750000  0.721458  0.920292  1
  Cu  Cu7  1  0.750000  0.199137  0.579547  1
  Ge  Ge8  1  0.250000  0.220633  0.402660  1
  Ge  Ge9  1  0.250000  0.716435  0.099701  1
  Ge  Ge10  1  0.750000  0.808157  0.585399  1
  Ge  Ge11  1  0.750000  0.313381  0.912253  1
