# generated using pymatgen
data_Sr10Nb2Ni(RuO10)2
_symmetry_space_group_name_H-M   'P 1'
_cell_length_a   8.98209049
_cell_length_b   8.98208988
_cell_length_c   8.96868875
_cell_angle_alpha   120.36910129
_cell_angle_beta   120.12438781
_cell_angle_gamma   89.65940896
_symmetry_Int_Tables_number   1
_chemical_formula_structural   Sr10Nb2Ni(RuO10)2
_chemical_formula_sum   'Sr10 Nb2 Ni1 Ru2 O20'
_cell_volume   509.33704746
_cell_formula_units_Z   1
loop_
 _symmetry_equiv_pos_site_id
 _symmetry_equiv_pos_as_xyz
  1  'x, y, z'
loop_
 _atom_site_type_symbol
 _atom_site_label
 _atom_site_symmetry_multiplicity
 _atom_site_fract_x
 _atom_site_fract_y
 _atom_site_fract_z
 _atom_site_occupancy
  Sr  Sr0  1  0.756676  0.144139  0.194825  1
  Sr  Sr1  1  0.359005  0.363556  0.012111  1
  Sr  Sr2  1  0.948313  0.573022  0.807828  1
  Sr  Sr3  1  0.570610  0.751720  0.612337  1
  Sr  Sr4  1  0.141748  0.940529  0.371960  1
  Sr  Sr5  1  0.648555  0.653106  0.012111  1
  Sr  Sr6  1  0.234805  0.859515  0.807828  1
  Sr  Sr7  1  0.860616  0.041726  0.612337  1
  Sr  Sr8  1  0.431431  0.230212  0.371960  1
  Sr  Sr9  1  0.050687  0.438150  0.194825  1
  Nb  Nb10  1  0.602687  0.197195  0.799882  1
  Nb  Nb11  1  0.196069  0.400752  0.596820  1
  Ni  Ni12  1  0.000254  0.000880  0.001134  1
  Ru  Ru13  1  0.798004  0.602038  0.400044  1
  Ru  Ru14  1  0.402354  0.798904  0.201258  1
  O  O15  1  0.559504  0.960696  0.199471  1
  O  O16  1  0.167848  0.169449  0.000024  1
  O  O17  1  0.759340  0.361971  0.802252  1
  O  O18  1  0.361685  0.559568  0.601463  1
  O  O19  1  0.961214  0.760391  0.397118  1
  O  O20  1  0.830575  0.832176  0.000024  1
  O  O21  1  0.440280  0.042912  0.802252  1
  O  O22  1  0.041895  0.239778  0.601463  1
  O  O23  1  0.636727  0.435904  0.397118  1
  O  O24  1  0.238775  0.639968  0.199471  1
  O  O25  1  0.699606  0.398544  0.098150  1
  O  O26  1  0.300561  0.601534  0.902095  1
  O  O27  1  0.898685  0.795434  0.694119  1
  O  O28  1  0.499013  0.000477  0.499490  1
  O  O29  1  0.101105  0.204325  0.305430  1
  O  O30  1  0.998655  0.500461  0.499115  1
  O  O31  1  0.602489  0.701727  0.304216  1
  O  O32  1  0.204109  0.896941  0.101050  1
  O  O33  1  0.797280  0.100593  0.897872  1
  O  O34  1  0.398841  0.301702  0.700543  1
