# generated using pymatgen
data_YTi7Bi9
_symmetry_space_group_name_H-M   'P 1'
_cell_length_a   10.41629800
_cell_length_b   10.41629800
_cell_length_c   7.48838500
_cell_angle_alpha   90.00000000
_cell_angle_beta   90.00000000
_cell_angle_gamma   90.00000000
_symmetry_Int_Tables_number   1
_chemical_formula_structural   YTi7Bi9
_chemical_formula_sum   'Y2 Ti14 Bi18'
_cell_volume   812.48426123
_cell_formula_units_Z   2
loop_
 _symmetry_equiv_pos_site_id
 _symmetry_equiv_pos_as_xyz
  1  'x, y, z'
loop_
 _atom_site_type_symbol
 _atom_site_label
 _atom_site_symmetry_multiplicity
 _atom_site_fract_x
 _atom_site_fract_y
 _atom_site_fract_z
 _atom_site_occupancy
  Y  Y0  1  0.750000  0.750000  0.925479  1
  Y  Y1  1  0.250000  0.250000  0.074521  1
  Ti  Ti2  1  0.000000  0.500000  0.000000  1
  Ti  Ti3  1  0.500000  0.000000  0.000000  1
  Ti  Ti4  1  0.500000  0.500000  0.000000  1
  Ti  Ti5  1  0.000000  0.000000  0.000000  1
  Ti  Ti6  1  0.892102  0.250000  0.147086  1
  Ti  Ti7  1  0.607898  0.250000  0.147086  1
  Ti  Ti8  1  0.107898  0.750000  0.852916  1
  Ti  Ti9  1  0.392102  0.750000  0.852916  1
  Ti  Ti10  1  0.750000  0.107898  0.852916  1
  Ti  Ti11  1  0.750000  0.392102  0.852916  1
  Ti  Ti12  1  0.250000  0.892102  0.147086  1
  Ti  Ti13  1  0.250000  0.607898  0.147086  1
  Ti  Ti14  1  0.750000  0.750000  0.427420  1
  Ti  Ti15  1  0.250000  0.250000  0.572580  1
  Bi  Bi16  1  0.419142  0.080858  0.352679  1
  Bi  Bi17  1  0.080858  0.419142  0.352679  1
  Bi  Bi18  1  0.580858  0.580858  0.647321  1
  Bi  Bi19  1  0.919142  0.919142  0.647321  1
  Bi  Bi20  1  0.919142  0.580858  0.647321  1
  Bi  Bi21  1  0.580858  0.919142  0.647321  1
  Bi  Bi22  1  0.419142  0.419142  0.352679  1
  Bi  Bi23  1  0.080858  0.080858  0.352679  1
  Bi  Bi24  1  0.250000  0.750000  0.499999  1
  Bi  Bi25  1  0.750000  0.250000  0.499999  1
  Bi  Bi26  1  0.492617  0.250000  0.802090  1
  Bi  Bi27  1  0.007382  0.250000  0.802090  1
  Bi  Bi28  1  0.507382  0.750000  0.197909  1
  Bi  Bi29  1  0.992618  0.750000  0.197909  1
  Bi  Bi30  1  0.750000  0.507382  0.197909  1
  Bi  Bi31  1  0.750000  0.992618  0.197909  1
  Bi  Bi32  1  0.250000  0.492617  0.802090  1
  Bi  Bi33  1  0.250000  0.007382  0.802090  1
