# generated using pymatgen
data_YHo3Al16(SiRh3)2
_symmetry_space_group_name_H-M   'P 1'
_cell_length_a   7.53975518
_cell_length_b   7.51144032
_cell_length_c   9.42785340
_cell_angle_alpha   89.97633243
_cell_angle_beta   89.86854413
_cell_angle_gamma   119.67568063
_symmetry_Int_Tables_number   1
_chemical_formula_structural   YHo3Al16(SiRh3)2
_chemical_formula_sum   'Y1 Ho3 Al16 Si2 Rh6'
_cell_volume   463.90828328
_cell_formula_units_Z   1
loop_
 _symmetry_equiv_pos_site_id
 _symmetry_equiv_pos_as_xyz
  1  'x, y, z'
loop_
 _atom_site_type_symbol
 _atom_site_label
 _atom_site_symmetry_multiplicity
 _atom_site_fract_x
 _atom_site_fract_y
 _atom_site_fract_z
 _atom_site_occupancy
  Y  Y0  1  0.324268  0.998871  0.752831  1
  Ho  Ho1  1  0.994646  0.664632  0.243021  1
  Ho  Ho2  1  0.005336  0.335293  0.756967  1
  Ho  Ho3  1  0.675958  0.001318  0.247171  1
  Al  Al4  1  0.128759  0.127182  0.250451  1
  Al  Al5  1  0.871056  0.872821  0.749564  1
  Al  Al6  1  0.998639  0.665290  0.569061  1
  Al  Al7  1  0.334916  0.999064  0.424902  1
  Al  Al8  1  0.001136  0.334485  0.430768  1
  Al  Al9  1  0.665308  0.000902  0.574710  1
  Al  Al10  1  0.661661  0.996686  0.922629  1
  Al  Al11  1  0.338583  0.003286  0.077743  1
  Al  Al12  1  0.332988  0.332040  0.553429  1
  Al  Al13  1  0.667015  0.668171  0.446361  1
  Al  Al14  1  0.664031  0.667084  0.054204  1
  Al  Al15  1  0.335936  0.333133  0.946012  1
  Al  Al16  1  0.339840  0.550350  0.249806  1
  Al  Al17  1  0.660471  0.449941  0.750173  1
  Al  Al18  1  0.548131  0.341666  0.250229  1
  Al  Al19  1  0.451857  0.658127  0.749776  1
  Si  Si20  1  0.002697  0.328705  0.077045  1
  Si  Si21  1  0.997004  0.671046  0.923158  1
  Rh  Rh22  1  0.690007  0.337344  0.001636  1
  Rh  Rh23  1  0.310026  0.662614  0.998514  1
  Rh  Rh24  1  0.327180  0.670985  0.500429  1
  Rh  Rh25  1  0.672878  0.328965  0.499382  1
  Rh  Rh26  1  0.999820  0.000021  0.000139  1
  Rh  Rh27  1  0.999854  0.999978  0.499888  1
