# generated using pymatgen
data_Ho3MgCdSb3O14
_symmetry_space_group_name_H-M   'P 1'
_cell_length_a   7.23067668
_cell_length_b   7.23069449
_cell_length_c   7.23067491
_cell_angle_alpha   118.06679923
_cell_angle_beta   61.93336382
_cell_angle_gamma   118.06680210
_symmetry_Int_Tables_number   1
_chemical_formula_structural   Ho3MgCdSb3O14
_chemical_formula_sum   'Ho3 Mg1 Cd1 Sb3 O14'
_cell_volume   278.87952518
_cell_formula_units_Z   1
loop_
 _symmetry_equiv_pos_site_id
 _symmetry_equiv_pos_as_xyz
  1  'x, y, z'
loop_
 _atom_site_type_symbol
 _atom_site_label
 _atom_site_symmetry_multiplicity
 _atom_site_fract_x
 _atom_site_fract_y
 _atom_site_fract_z
 _atom_site_occupancy
  Ho  Ho0  1  0.000020  0.499992  0.999951  1
  Ho  Ho1  1  0.499950  0.999959  0.999941  1
  Ho  Ho2  1  0.500063  0.500152  0.500026  1
  Mg  Mg3  1  0.000189  0.000156  0.500060  1
  Cd  Cd4  1  0.500060  0.500039  0.999967  1
  Sb  Sb5  1  0.499965  0.999956  0.500027  1
  Sb  Sb6  1  0.999976  0.499971  0.499972  1
  Sb  Sb7  1  0.999983  0.999986  0.000006  1
  O  O8  1  0.625776  0.374200  0.125783  1
  O  O9  1  0.374184  0.625794  0.874194  1
  O  O10  1  0.076184  0.325611  0.174379  1
  O  O11  1  0.674341  0.923731  0.174350  1
  O  O12  1  0.674357  0.325631  0.576235  1
  O  O13  1  0.923797  0.674352  0.825639  1
  O  O14  1  0.325597  0.076125  0.825607  1
  O  O15  1  0.325614  0.674373  0.423841  1
  O  O16  1  0.654226  0.910113  0.589869  1
  O  O17  1  0.089873  0.345787  0.589909  1
  O  O18  1  0.089865  0.910097  0.154231  1
  O  O19  1  0.345834  0.089908  0.410069  1
  O  O20  1  0.910077  0.654183  0.410115  1
  O  O21  1  0.910070  0.089887  0.845830  1
