# generated using pymatgen
data_Zr6Ti2Al4Ga10SiIr7
_symmetry_space_group_name_H-M   'P 1'
_cell_length_a   8.81351501
_cell_length_b   8.81351417
_cell_length_c   8.81351500
_cell_angle_alpha   120.14670421
_cell_angle_beta   119.78860253
_cell_angle_gamma   90.05631327
_symmetry_Int_Tables_number   1
_chemical_formula_structural   Zr6Ti2Al4Ga10SiIr7
_chemical_formula_sum   'Zr6 Ti2 Al4 Ga10 Si1 Ir7'
_cell_volume   484.32754778
_cell_formula_units_Z   1
loop_
 _symmetry_equiv_pos_site_id
 _symmetry_equiv_pos_as_xyz
  1  'x, y, z'
loop_
 _atom_site_type_symbol
 _atom_site_label
 _atom_site_symmetry_multiplicity
 _atom_site_fract_x
 _atom_site_fract_y
 _atom_site_fract_z
 _atom_site_occupancy
  Zr  Zr0  1  0.798896  0.293097  0.084530  1
  Zr  Zr1  1  0.208567  0.293097  0.494201  1
  Zr  Zr2  1  0.203291  0.703291  0.500000  1
  Zr  Zr3  1  0.208567  0.714367  0.915470  1
  Zr  Zr4  1  0.798896  0.714367  0.505799  1
  Zr  Zr5  1  0.789240  0.289240  0.500000  1
  Ti  Ti6  1  0.378878  0.125189  0.746311  1
  Ti  Ti7  1  0.378878  0.632568  0.253689  1
  Al  Al8  1  0.619552  0.874732  0.255181  1
  Al  Al9  1  0.619552  0.364371  0.744819  1
  Al  Al10  1  0.617276  0.875919  0.741356  1
  Al  Al11  1  0.134561  0.875919  0.258644  1
  Ga  Ga12  1  0.161180  0.342334  0.181153  1
  Ga  Ga13  1  0.161180  0.980030  0.818847  1
  Ga  Ga14  1  0.156728  0.343809  0.812918  1
  Ga  Ga15  1  0.530888  0.343809  0.187082  1
  Ga  Ga16  1  0.840890  0.657603  0.816714  1
  Ga  Ga17  1  0.840890  0.024174  0.183286  1
  Ga  Ga18  1  0.839789  0.658371  0.181419  1
  Ga  Ga19  1  0.476951  0.658371  0.818581  1
  Ga  Ga20  1  0.381999  0.120293  0.261707  1
  Ga  Ga21  1  0.858588  0.120293  0.738293  1
  Si  Si22  1  0.996581  0.496581  0.500000  1
  Ir  Ir23  1  0.003152  0.000479  0.500635  1
  Ir  Ir24  1  0.499842  0.000479  0.997326  1
  Ir  Ir25  1  0.498505  0.498505  0.000000  1
  Ir  Ir26  1  0.499842  0.502516  0.499365  1
  Ir  Ir27  1  0.003152  0.502516  0.002674  1
  Ir  Ir28  1  0.000318  0.000318  0.000000  1
  Ir  Ir29  1  0.493361  0.993361  0.500000  1
