# generated using pymatgen
data_Sr5Yb3(In4Au3)4
_symmetry_space_group_name_H-M   'P 1'
_cell_length_a   15.29036800
_cell_length_b   15.29036790
_cell_length_c   4.50762200
_cell_angle_alpha   90.00000000
_cell_angle_beta   90.00000000
_cell_angle_gamma   120.00000023
_symmetry_Int_Tables_number   1
_chemical_formula_structural   Sr5Yb3(In4Au3)4
_chemical_formula_sum   'Sr5 Yb3 In16 Au12'
_cell_volume   912.67045836
_cell_formula_units_Z   1
loop_
 _symmetry_equiv_pos_site_id
 _symmetry_equiv_pos_as_xyz
  1  'x, y, z'
loop_
 _atom_site_type_symbol
 _atom_site_label
 _atom_site_symmetry_multiplicity
 _atom_site_fract_x
 _atom_site_fract_y
 _atom_site_fract_z
 _atom_site_occupancy
  Sr  Sr0  1  0.333333  0.666667  0.000000  1
  Sr  Sr1  1  0.666667  0.333333  0.000000  1
  Sr  Sr2  1  0.818919  0.000000  0.500000  1
  Sr  Sr3  1  0.000000  0.818919  0.500000  1
  Sr  Sr4  1  0.181081  0.181081  0.500000  1
  Yb  Yb5  1  0.450896  0.000000  0.000000  1
  Yb  Yb6  1  0.000000  0.450896  0.000000  1
  Yb  Yb7  1  0.549104  0.549104  0.000000  1
  In  In8  1  0.181237  0.379222  0.000000  1
  In  In9  1  0.620778  0.802016  0.000000  1
  In  In10  1  0.379222  0.181237  0.000000  1
  In  In11  1  0.197984  0.818763  0.000000  1
  In  In12  1  0.802016  0.620778  0.000000  1
  In  In13  1  0.818763  0.197984  0.000000  1
  In  In14  1  0.285643  0.000000  0.500000  1
  In  In15  1  0.000000  0.285643  0.500000  1
  In  In16  1  0.714357  0.714357  0.500000  1
  In  In17  1  0.354193  0.476752  0.500000  1
  In  In18  1  0.523248  0.877440  0.500000  1
  In  In19  1  0.476752  0.354193  0.500000  1
  In  In20  1  0.122560  0.645807  0.500000  1
  In  In21  1  0.877440  0.523248  0.500000  1
  In  In22  1  0.645807  0.122560  0.500000  1
  In  In23  1  0.000000  0.000000  0.000000  1
  Au  Au24  1  0.171202  0.491558  0.500000  1
  Au  Au25  1  0.508442  0.679646  0.500000  1
  Au  Au26  1  0.491558  0.171202  0.500000  1
  Au  Au27  1  0.320354  0.828798  0.500000  1
  Au  Au28  1  0.679646  0.508442  0.500000  1
  Au  Au29  1  0.828798  0.320354  0.500000  1
  Au  Au30  1  0.176881  0.000000  0.000000  1
  Au  Au31  1  0.000000  0.176881  0.000000  1
  Au  Au32  1  0.823119  0.823119  0.000000  1
  Au  Au33  1  0.652624  0.000000  0.000000  1
  Au  Au34  1  0.000000  0.652624  0.000000  1
  Au  Au35  1  0.347376  0.347376  0.000000  1
