# generated using pymatgen
data_HoEr3(Si5Pt3)2
_symmetry_space_group_name_H-M   'P 1'
_cell_length_a   8.13847292
_cell_length_b   8.13951933
_cell_length_c   8.13951869
_cell_angle_alpha   136.27352257
_cell_angle_beta   104.41178145
_cell_angle_gamma   91.63308679
_symmetry_Int_Tables_number   1
_chemical_formula_structural   HoEr3(Si5Pt3)2
_chemical_formula_sum   'Ho1 Er3 Si10 Pt6'
_cell_volume   343.04011682
_cell_formula_units_Z   1
loop_
 _symmetry_equiv_pos_site_id
 _symmetry_equiv_pos_as_xyz
  1  'x, y, z'
loop_
 _atom_site_type_symbol
 _atom_site_label
 _atom_site_symmetry_multiplicity
 _atom_site_fract_x
 _atom_site_fract_y
 _atom_site_fract_z
 _atom_site_occupancy
  Ho  Ho0  1  0.899953  0.129425  0.770528  1
  Er  Er1  1  0.642310  0.370271  0.272039  1
  Er  Er2  1  0.358101  0.629870  0.728232  1
  Er  Er3  1  0.098560  0.870088  0.228472  1
  Si  Si4  1  0.272071  0.521480  0.249694  1
  Si  Si5  1  0.728384  0.477848  0.749793  1
  Si  Si6  1  0.728384  0.978591  0.250537  1
  Si  Si7  1  0.272071  0.022377  0.750591  1
  Si  Si8  1  0.460503  0.111719  0.348784  1
  Si  Si9  1  0.538465  0.887204  0.651260  1
  Si  Si10  1  0.763728  0.611895  0.151833  1
  Si  Si11  1  0.236780  0.388648  0.848132  1
  Si  Si12  1  0.000025  0.249116  0.248939  1
  Si  Si13  1  0.000025  0.751086  0.750908  1
  Pt  Pt14  1  0.251429  0.137751  0.113678  1
  Pt  Pt15  1  0.748531  0.861894  0.886637  1
  Pt  Pt16  1  0.024748  0.637559  0.387189  1
  Pt  Pt17  1  0.976191  0.363252  0.612939  1
  Pt  Pt18  1  0.499869  0.250193  0.750139  1
  Pt  Pt19  1  0.499869  0.749731  0.249676  1
