# generated using pymatgen
data_Th2V2Ni10P7
_symmetry_space_group_name_H-M   'P 1'
_cell_length_a   9.18371755
_cell_length_b   9.14560153
_cell_length_c   3.75232000
_cell_angle_alpha   90.00000000
_cell_angle_beta   90.00000000
_cell_angle_gamma   119.74766437
_symmetry_Int_Tables_number   1
_chemical_formula_structural   Th2V2Ni10P7
_chemical_formula_sum   'Th2 V2 Ni10 P7'
_cell_volume   273.62764252
_cell_formula_units_Z   1
loop_
 _symmetry_equiv_pos_site_id
 _symmetry_equiv_pos_as_xyz
  1  'x, y, z'
loop_
 _atom_site_type_symbol
 _atom_site_label
 _atom_site_symmetry_multiplicity
 _atom_site_fract_x
 _atom_site_fract_y
 _atom_site_fract_z
 _atom_site_occupancy
  Th  Th0  1  0.329925  0.663807  0.000000  1
  Th  Th1  1  0.999233  0.001825  0.500000  1
  V  V2  1  0.766755  0.543401  0.500000  1
  V  V3  1  0.454512  0.221362  0.500000  1
  Ni  Ni4  1  0.039206  0.270305  0.000000  1
  Ni  Ni5  1  0.729006  0.763672  0.000000  1
  Ni  Ni6  1  0.234943  0.963924  0.000000  1
  Ni  Ni7  1  0.540467  0.055307  0.000000  1
  Ni  Ni8  1  0.941046  0.481569  0.000000  1
  Ni  Ni9  1  0.514469  0.462349  0.000000  1
  Ni  Ni10  1  0.616476  0.902431  0.500000  1
  Ni  Ni11  1  0.102466  0.716663  0.500000  1
  Ni  Ni12  1  0.283524  0.386193  0.500000  1
  Ni  Ni13  1  0.784710  0.233786  0.500000  1
  P  P14  1  0.771683  0.037778  0.000000  1
  P  P15  1  0.963368  0.735308  0.000000  1
  P  P16  1  0.265849  0.228489  0.000000  1
  P  P17  1  0.374094  0.936091  0.500000  1
  P  P18  1  0.059972  0.437938  0.500000  1
  P  P19  1  0.563018  0.626427  0.500000  1
  P  P20  1  0.665277  0.331376  0.000000  1
