# generated using pymatgen
data_U4GaSi4Tc7As
_symmetry_space_group_name_H-M   'P 1'
_cell_length_a   7.15987993
_cell_length_b   7.16012018
_cell_length_c   7.16012014
_cell_angle_alpha   109.72552348
_cell_angle_beta   109.38245984
_cell_angle_gamma   109.30732926
_symmetry_Int_Tables_number   1
_chemical_formula_structural   U4GaSi4Tc7As
_chemical_formula_sum   'U4 Ga1 Si4 Tc7 As1'
_cell_volume   282.56000308
_cell_formula_units_Z   1
loop_
 _symmetry_equiv_pos_site_id
 _symmetry_equiv_pos_as_xyz
  1  'x, y, z'
loop_
 _atom_site_type_symbol
 _atom_site_label
 _atom_site_symmetry_multiplicity
 _atom_site_fract_x
 _atom_site_fract_y
 _atom_site_fract_z
 _atom_site_occupancy
  U  U0  1  0.492685  0.491450  0.489804  1
  U  U1  1  0.004229  0.506622  0.001238  1
  U  U2  1  0.492685  0.002881  0.001235  1
  U  U3  1  0.004229  0.002991  0.497606  1
  Ga  Ga4  1  0.701048  0.000695  0.700353  1
  Si  Si5  1  0.305276  0.308401  0.996876  1
  Si  Si6  1  0.997659  0.690122  0.686512  1
  Si  Si7  1  0.997659  0.311147  0.307537  1
  Si  Si8  1  0.319138  0.000268  0.318870  1
  Tc  Tc9  1  0.494711  0.746094  0.247294  1
  Tc  Tc10  1  0.748754  0.250586  0.498169  1
  Tc  Tc11  1  0.245735  0.747535  0.498201  1
  Tc  Tc12  1  0.243255  0.496814  0.746440  1
  Tc  Tc13  1  0.021089  0.005065  0.016024  1
  Tc  Tc14  1  0.494711  0.247416  0.748616  1
  Tc  Tc15  1  0.745653  0.497117  0.248536  1
  As  As16  1  0.691481  0.694795  0.996686  1
