# generated using pymatgen
data_Tm10Ga3FeBi2
_symmetry_space_group_name_H-M   'P 1'
_cell_length_a   8.56221148
_cell_length_b   8.56221151
_cell_length_c   8.67282142
_cell_angle_alpha   125.62652573
_cell_angle_beta   125.62652417
_cell_angle_gamma   79.62739850
_symmetry_Int_Tables_number   1
_chemical_formula_structural   Tm10Ga3FeBi2
_chemical_formula_sum   'Tm10 Ga3 Fe1 Bi2'
_cell_volume   407.69451358
_cell_formula_units_Z   1
loop_
 _symmetry_equiv_pos_site_id
 _symmetry_equiv_pos_as_xyz
  1  'x, y, z'
loop_
 _atom_site_type_symbol
 _atom_site_label
 _atom_site_symmetry_multiplicity
 _atom_site_fract_x
 _atom_site_fract_y
 _atom_site_fract_z
 _atom_site_occupancy
  Tm  Tm0  1  0.007441  0.003263  0.010705  1
  Tm  Tm1  1  0.496737  0.492559  0.989295  1
  Tm  Tm2  1  0.779396  0.296574  0.796897  1
  Tm  Tm3  1  0.203426  0.720604  0.203103  1
  Tm  Tm4  1  0.482499  0.999677  0.203103  1
  Tm  Tm5  1  0.309069  0.453834  0.500000  1
  Tm  Tm6  1  0.046166  0.190931  0.500000  1
  Tm  Tm7  1  0.500323  0.017501  0.796897  1
  Tm  Tm8  1  0.703885  0.518932  0.500000  1
  Tm  Tm9  1  0.981068  0.796115  0.500000  1
  Ga  Ga10  1  0.138564  0.641703  0.780268  1
  Ga  Ga11  1  0.858297  0.361436  0.219732  1
  Ga  Ga12  1  0.632191  0.867809  0.500000  1
  Fe  Fe13  1  0.375054  0.124946  0.500000  1
  Bi  Bi14  1  0.242942  0.257058  0.000000  1
  Bi  Bi15  1  0.742942  0.757058  0.000000  1
