# generated using pymatgen
data_Pr5Nd5(Sn5Ir2)4
_symmetry_space_group_name_H-M   'P 1'
_cell_length_a   14.19651200
_cell_length_b   14.19651200
_cell_length_c   4.69392600
_cell_angle_alpha   90.00000000
_cell_angle_beta   90.00000000
_cell_angle_gamma   90.00000000
_symmetry_Int_Tables_number   1
_chemical_formula_structural   Pr5Nd5(Sn5Ir2)4
_chemical_formula_sum   'Pr5 Nd5 Sn20 Ir8'
_cell_volume   946.01831919
_cell_formula_units_Z   1
loop_
 _symmetry_equiv_pos_site_id
 _symmetry_equiv_pos_as_xyz
  1  'x, y, z'
loop_
 _atom_site_type_symbol
 _atom_site_label
 _atom_site_symmetry_multiplicity
 _atom_site_fract_x
 _atom_site_fract_y
 _atom_site_fract_z
 _atom_site_occupancy
  Pr  Pr0  1  0.000000  0.000000  0.000000  1
  Pr  Pr1  1  0.887208  0.387206  0.500000  1
  Pr  Pr2  1  0.112792  0.612794  0.500000  1
  Pr  Pr3  1  0.387206  0.112792  0.500000  1
  Pr  Pr4  1  0.612794  0.887208  0.500000  1
  Nd  Nd5  1  0.500000  0.500000  0.000000  1
  Nd  Nd6  1  0.676990  0.176993  0.500000  1
  Nd  Nd7  1  0.323010  0.823007  0.500000  1
  Nd  Nd8  1  0.176993  0.323010  0.500000  1
  Nd  Nd9  1  0.823007  0.676990  0.500000  1
  Sn  Sn10  1  0.569809  0.069825  0.000000  1
  Sn  Sn11  1  0.430191  0.930175  0.000000  1
  Sn  Sn12  1  0.069825  0.430191  0.000000  1
  Sn  Sn13  1  0.930175  0.569809  0.000000  1
  Sn  Sn14  1  0.655053  0.698412  0.000000  1
  Sn  Sn15  1  0.344947  0.301588  0.000000  1
  Sn  Sn16  1  0.155097  0.801518  0.000000  1
  Sn  Sn17  1  0.844903  0.198482  0.000000  1
  Sn  Sn18  1  0.301588  0.655053  0.000000  1
  Sn  Sn19  1  0.698412  0.344947  0.000000  1
  Sn  Sn20  1  0.198482  0.155097  0.000000  1
  Sn  Sn21  1  0.801518  0.844903  0.000000  1
  Sn  Sn22  1  0.662975  0.505288  0.500000  1
  Sn  Sn23  1  0.337025  0.494712  0.500000  1
  Sn  Sn24  1  0.163401  0.994707  0.500000  1
  Sn  Sn25  1  0.836599  0.005293  0.500000  1
  Sn  Sn26  1  0.494712  0.662975  0.500000  1
  Sn  Sn27  1  0.505288  0.337025  0.500000  1
  Sn  Sn28  1  0.005293  0.163401  0.500000  1
  Sn  Sn29  1  0.994707  0.836599  0.500000  1
  Ir  Ir30  1  0.746114  0.528161  0.000000  1
  Ir  Ir31  1  0.253886  0.471839  0.000000  1
  Ir  Ir32  1  0.246390  0.971803  0.000000  1
  Ir  Ir33  1  0.753610  0.028197  0.000000  1
  Ir  Ir34  1  0.471839  0.746114  0.000000  1
  Ir  Ir35  1  0.528161  0.253886  0.000000  1
  Ir  Ir36  1  0.028197  0.246390  0.000000  1
  Ir  Ir37  1  0.971803  0.753610  0.000000  1
