# generated using pymatgen
data_Ti13Al10Rh7
_symmetry_space_group_name_H-M   'P 1'
_cell_length_a   8.74104067
_cell_length_b   8.74104024
_cell_length_c   8.74104106
_cell_angle_alpha   59.82631636
_cell_angle_beta   59.82631426
_cell_angle_gamma   59.82632736
_symmetry_Int_Tables_number   1
_chemical_formula_structural   Ti13Al10Rh7
_chemical_formula_sum   'Ti13 Al10 Rh7'
_cell_volume   470.39102490
_cell_formula_units_Z   1
loop_
 _symmetry_equiv_pos_site_id
 _symmetry_equiv_pos_as_xyz
  1  'x, y, z'
loop_
 _atom_site_type_symbol
 _atom_site_label
 _atom_site_symmetry_multiplicity
 _atom_site_fract_x
 _atom_site_fract_y
 _atom_site_fract_z
 _atom_site_occupancy
  Ti  Ti0  1  0.215051  0.215051  0.784332  1
  Ti  Ti1  1  0.784332  0.215051  0.215051  1
  Ti  Ti2  1  0.215051  0.784332  0.215051  1
  Ti  Ti3  1  0.792910  0.792910  0.195245  1
  Ti  Ti4  1  0.195245  0.792910  0.792910  1
  Ti  Ti5  1  0.792910  0.195245  0.792910  1
  Ti  Ti6  1  0.377710  0.377710  0.377710  1
  Ti  Ti7  1  0.378478  0.868120  0.378478  1
  Ti  Ti8  1  0.868120  0.378478  0.378478  1
  Ti  Ti9  1  0.378478  0.378478  0.868120  1
  Ti  Ti10  1  0.843810  0.470492  0.843810  1
  Ti  Ti11  1  0.470492  0.843810  0.843810  1
  Ti  Ti12  1  0.843810  0.843810  0.470492  1
  Al  Al13  1  0.151342  0.151342  0.151342  1
  Al  Al14  1  0.154948  0.539226  0.154948  1
  Al  Al15  1  0.539226  0.154948  0.154948  1
  Al  Al16  1  0.154948  0.154948  0.539226  1
  Al  Al17  1  0.619001  0.619001  0.619001  1
  Al  Al18  1  0.620274  0.142607  0.620274  1
  Al  Al19  1  0.142607  0.620274  0.620274  1
  Al  Al20  1  0.620274  0.620274  0.142607  1
  Al  Al21  1  0.831858  0.831858  0.831858  1
  Al  Al22  1  0.003643  0.003643  0.003643  1
  Rh  Rh23  1  0.003884  0.003884  0.497190  1
  Rh  Rh24  1  0.497190  0.003884  0.003884  1
  Rh  Rh25  1  0.003884  0.497190  0.003884  1
  Rh  Rh26  1  0.499670  0.499670  0.000867  1
  Rh  Rh27  1  0.000867  0.499670  0.499670  1
  Rh  Rh28  1  0.499670  0.000867  0.499670  1
  Rh  Rh29  1  0.500317  0.500317  0.500317  1
