# generated using pymatgen
data_PrGdSi3
_symmetry_space_group_name_H-M   'P 1'
_cell_length_a   3.98961500
_cell_length_b   4.37351780
_cell_length_c   12.59942100
_cell_angle_alpha   99.99488653
_cell_angle_beta   90.00000000
_cell_angle_gamma   90.00000000
_symmetry_Int_Tables_number   1
_chemical_formula_structural   PrGdSi3
_chemical_formula_sum   'Pr2 Gd2 Si6'
_cell_volume   216.50641352
_cell_formula_units_Z   2
loop_
 _symmetry_equiv_pos_site_id
 _symmetry_equiv_pos_as_xyz
  1  'x, y, z'
loop_
 _atom_site_type_symbol
 _atom_site_label
 _atom_site_symmetry_multiplicity
 _atom_site_fract_x
 _atom_site_fract_y
 _atom_site_fract_z
 _atom_site_occupancy
  Pr  Pr0  1  0.750000  0.429511  0.859022  1
  Pr  Pr1  1  0.250000  0.570489  0.140978  1
  Gd  Gd2  1  0.750000  0.702348  0.404699  1
  Gd  Gd3  1  0.250000  0.297652  0.595301  1
  Si  Si4  1  0.750000  0.025075  0.050149  1
  Si  Si5  1  0.250000  0.974925  0.949851  1
  Si  Si6  1  0.750000  0.120608  0.241218  1
  Si  Si7  1  0.250000  0.879392  0.758782  1
  Si  Si8  1  0.750000  0.821918  0.643838  1
  Si  Si9  1  0.250000  0.178082  0.356162  1
