# generated using pymatgen
data_Th8Cu3Os5
_symmetry_space_group_name_H-M   'P 1'
_cell_length_a   4.36464700
_cell_length_b   5.89085063
_cell_length_c   14.54300539
_cell_angle_alpha   90.46258020
_cell_angle_beta   90.00000000
_cell_angle_gamma   90.00000000
_symmetry_Int_Tables_number   1
_chemical_formula_structural   Th8Cu3Os5
_chemical_formula_sum   'Th8 Cu3 Os5'
_cell_volume   373.91005672
_cell_formula_units_Z   1
loop_
 _symmetry_equiv_pos_site_id
 _symmetry_equiv_pos_as_xyz
  1  'x, y, z'
loop_
 _atom_site_type_symbol
 _atom_site_label
 _atom_site_symmetry_multiplicity
 _atom_site_fract_x
 _atom_site_fract_y
 _atom_site_fract_z
 _atom_site_occupancy
  Th  Th0  1  0.250000  0.546844  0.287290  1
  Th  Th1  1  0.750000  0.465986  0.718545  1
  Th  Th2  1  0.250000  0.965864  0.782063  1
  Th  Th3  1  0.250000  0.758964  0.533909  1
  Th  Th4  1  0.250000  0.743524  0.037925  1
  Th  Th5  1  0.750000  0.261601  0.961852  1
  Th  Th6  1  0.750000  0.028005  0.218950  1
  Th  Th7  1  0.750000  0.241285  0.457104  1
  Cu  Cu8  1  0.750000  0.749425  0.898040  1
  Cu  Cu9  1  0.250000  0.252531  0.104886  1
  Cu  Cu10  1  0.250000  0.245346  0.604900  1
  Os  Os11  1  0.250000  0.063799  0.347055  1
  Os  Os12  1  0.750000  0.542654  0.136151  1
  Os  Os13  1  0.750000  0.723720  0.406202  1
  Os  Os14  1  0.250000  0.450921  0.854986  1
  Os  Os15  1  0.750000  0.959533  0.650145  1
