# generated using pymatgen
data_CeEuCl6
_symmetry_space_group_name_H-M   'P 1'
_cell_length_a   6.82556900
_cell_length_b   6.82556775
_cell_length_c   12.78694500
_cell_angle_alpha   90.00000000
_cell_angle_beta   90.00000000
_cell_angle_gamma   120.00000119
_symmetry_Int_Tables_number   1
_chemical_formula_structural   CeEuCl6
_chemical_formula_sum   'Ce2 Eu2 Cl12'
_cell_volume   515.91133176
_cell_formula_units_Z   2
loop_
 _symmetry_equiv_pos_site_id
 _symmetry_equiv_pos_as_xyz
  1  'x, y, z'
loop_
 _atom_site_type_symbol
 _atom_site_label
 _atom_site_symmetry_multiplicity
 _atom_site_fract_x
 _atom_site_fract_y
 _atom_site_fract_z
 _atom_site_occupancy
  Ce  Ce0  1  0.000000  0.000000  0.500000  1
  Ce  Ce1  1  0.000000  0.000000  0.000000  1
  Eu  Eu2  1  0.666667  0.333333  0.750000  1
  Eu  Eu3  1  0.333333  0.666667  0.250000  1
  Cl  Cl4  1  0.682395  0.003366  0.621960  1
  Cl  Cl5  1  0.317605  0.996634  0.378040  1
  Cl  Cl6  1  0.996634  0.679029  0.621960  1
  Cl  Cl7  1  0.682395  0.679029  0.878040  1
  Cl  Cl8  1  0.003366  0.320971  0.378040  1
  Cl  Cl9  1  0.317605  0.320971  0.121960  1
  Cl  Cl10  1  0.320971  0.317605  0.621960  1
  Cl  Cl11  1  0.996634  0.317605  0.878040  1
  Cl  Cl12  1  0.679029  0.682395  0.378040  1
  Cl  Cl13  1  0.003366  0.682395  0.121960  1
  Cl  Cl14  1  0.320971  0.003366  0.878040  1
  Cl  Cl15  1  0.679029  0.996634  0.121960  1
