# generated using pymatgen
data_Hf4Si(B7Ir6)2
_symmetry_space_group_name_H-M   'P 1'
_cell_length_a   3.48132471
_cell_length_b   7.70705712
_cell_length_c   13.33841811
_cell_angle_alpha   90.00545702
_cell_angle_beta   90.03873345
_cell_angle_gamma   90.07034786
_symmetry_Int_Tables_number   1
_chemical_formula_structural   Hf4Si(B7Ir6)2
_chemical_formula_sum   'Hf4 Si1 B14 Ir12'
_cell_volume   357.87965378
_cell_formula_units_Z   1
loop_
 _symmetry_equiv_pos_site_id
 _symmetry_equiv_pos_as_xyz
  1  'x, y, z'
loop_
 _atom_site_type_symbol
 _atom_site_label
 _atom_site_symmetry_multiplicity
 _atom_site_fract_x
 _atom_site_fract_y
 _atom_site_fract_z
 _atom_site_occupancy
  Hf  Hf0  1  0.251535  0.498737  0.833762  1
  Hf  Hf1  1  0.253475  0.001300  0.332876  1
  Hf  Hf2  1  0.746525  0.998700  0.667124  1
  Hf  Hf3  1  0.748465  0.501263  0.166238  1
  Si  Si4  1  0.500000  0.500000  0.500000  1
  B  B5  1  0.500000  0.000000  0.000000  1
  B  B6  1  0.000000  0.000000  0.000000  1
  B  B7  1  0.758660  0.326202  0.726479  1
  B  B8  1  0.754375  0.828402  0.221963  1
  B  B9  1  0.751556  0.751829  0.803161  1
  B  B10  1  0.757420  0.247863  0.299788  1
  B  B11  1  0.749278  0.424403  0.974421  1
  B  B12  1  0.766281  0.921521  0.474168  1
  B  B13  1  0.245625  0.171598  0.778037  1
  B  B14  1  0.241340  0.673798  0.273521  1
  B  B15  1  0.242580  0.752137  0.700212  1
  B  B16  1  0.248444  0.248171  0.196839  1
  B  B17  1  0.233719  0.078479  0.525832  1
  B  B18  1  0.250722  0.575597  0.025579  1
  Ir  Ir19  1  0.743335  0.591348  0.670931  1
  Ir  Ir20  1  0.750303  0.089539  0.164611  1
  Ir  Ir21  1  0.751664  0.704421  0.962262  1
  Ir  Ir22  1  0.737172  0.201901  0.460471  1
  Ir  Ir23  1  0.748318  0.203666  0.873546  1
  Ir  Ir24  1  0.743082  0.708572  0.368291  1
  Ir  Ir25  1  0.249697  0.910461  0.835389  1
  Ir  Ir26  1  0.256665  0.408652  0.329069  1
  Ir  Ir27  1  0.262828  0.798099  0.539529  1
  Ir  Ir28  1  0.248336  0.295579  0.037738  1
  Ir  Ir29  1  0.256918  0.291428  0.631709  1
  Ir  Ir30  1  0.251682  0.796334  0.126454  1
