# generated using pymatgen
data_PrNd3Rh4F28
_symmetry_space_group_name_H-M   'P 1'
_cell_length_a   5.65438405
_cell_length_b   9.16966433
_cell_length_c   12.24187911
_cell_angle_alpha   62.14495232
_cell_angle_beta   89.98612652
_cell_angle_gamma   89.98646784
_symmetry_Int_Tables_number   1
_chemical_formula_structural   PrNd3Rh4F28
_chemical_formula_sum   'Pr1 Nd3 Rh4 F28'
_cell_volume   561.18254703
_cell_formula_units_Z   1
loop_
 _symmetry_equiv_pos_site_id
 _symmetry_equiv_pos_as_xyz
  1  'x, y, z'
loop_
 _atom_site_type_symbol
 _atom_site_label
 _atom_site_symmetry_multiplicity
 _atom_site_fract_x
 _atom_site_fract_y
 _atom_site_fract_z
 _atom_site_occupancy
  Pr  Pr0  1  0.739320  0.811009  0.265003  1
  Nd  Nd1  1  0.760691  0.810900  0.765045  1
  Nd  Nd2  1  0.260571  0.189118  0.734905  1
  Nd  Nd3  1  0.239093  0.190326  0.234917  1
  Rh  Rh4  1  0.756159  0.274472  0.956452  1
  Rh  Rh5  1  0.256115  0.725871  0.543893  1
  Rh  Rh6  1  0.244347  0.725942  0.042407  1
  Rh  Rh7  1  0.743880  0.273144  0.457303  1
  F  F8  1  0.433955  0.708296  0.916057  1
  F  F9  1  0.933768  0.291185  0.583342  1
  F  F10  1  0.566239  0.291757  0.082925  1
  F  F11  1  0.067607  0.707782  0.417476  1
  F  F12  1  0.451899  0.281703  0.540566  1
  F  F13  1  0.951403  0.717984  0.959396  1
  F  F14  1  0.547912  0.717176  0.461109  1
  F  F15  1  0.048046  0.282211  0.040029  1
  F  F16  1  0.765310  0.513497  0.861990  1
  F  F17  1  0.264919  0.487835  0.637884  1
  F  F18  1  0.235018  0.488030  0.136884  1
  F  F19  1  0.734645  0.511531  0.362745  1
  F  F20  1  0.758616  0.035644  0.047668  1
  F  F21  1  0.258869  0.963634  0.452250  1
  F  F22  1  0.241177  0.963961  0.951561  1
  F  F23  1  0.741190  0.034516  0.548692  1
  F  F24  1  0.968416  0.729647  0.630868  1
  F  F25  1  0.468871  0.270835  0.869085  1
  F  F26  1  0.031275  0.270132  0.369802  1
  F  F27  1  0.531833  0.728982  0.129620  1
  F  F28  1  0.058821  0.741607  0.171139  1
  F  F29  1  0.557194  0.257466  0.328893  1
  F  F30  1  0.943434  0.258245  0.828190  1
  F  F31  1  0.442762  0.742213  0.672074  1
  F  F32  1  0.402430  0.968350  0.229224  1
  F  F33  1  0.905526  0.034993  0.270574  1
  F  F34  1  0.594413  0.032756  0.770299  1
  F  F35  1  0.094275  0.967250  0.729731  1
