# generated using pymatgen
data_Dy4YEr3(P3Ir4)4
_symmetry_space_group_name_H-M   'P 1'
_cell_length_a   12.96080618
_cell_length_b   12.96452389
_cell_length_c   4.00107500
_cell_angle_alpha   90.00000000
_cell_angle_beta   90.00000000
_cell_angle_gamma   120.00948710
_symmetry_Int_Tables_number   1
_chemical_formula_structural   Dy4YEr3(P3Ir4)4
_chemical_formula_sum   'Dy4 Y1 Er3 P12 Ir16'
_cell_volume   582.17611874
_cell_formula_units_Z   1
loop_
 _symmetry_equiv_pos_site_id
 _symmetry_equiv_pos_as_xyz
  1  'x, y, z'
loop_
 _atom_site_type_symbol
 _atom_site_label
 _atom_site_symmetry_multiplicity
 _atom_site_fract_x
 _atom_site_fract_y
 _atom_site_fract_z
 _atom_site_occupancy
  Dy  Dy0  1  0.333355  0.666674  0.500000  1
  Dy  Dy1  1  0.666645  0.333317  0.500000  1
  Dy  Dy2  1  0.185327  0.185328  0.000000  1
  Dy  Dy3  1  0.814673  0.000000  0.000000  1
  Y  Y4  1  0.000000  0.814647  0.000000  1
  Er  Er5  1  0.000000  0.446305  0.500000  1
  Er  Er6  1  0.553583  0.553636  0.500000  1
  Er  Er7  1  0.446417  0.000053  0.500000  1
  P  P8  1  0.000000  0.652395  0.500000  1
  P  P9  1  0.347326  0.347315  0.500000  1
  P  P10  1  0.652674  0.999989  0.500000  1
  P  P11  1  0.516786  0.688444  0.000000  1
  P  P12  1  0.311549  0.828322  0.000000  1
  P  P13  1  0.171645  0.483160  0.000000  1
  P  P14  1  0.483214  0.171659  0.000000  1
  P  P15  1  0.688451  0.516772  0.000000  1
  P  P16  1  0.828355  0.311515  0.000000  1
  P  P17  1  0.000000  0.176712  0.500000  1
  P  P18  1  0.823296  0.823564  0.500000  1
  P  P19  1  0.176704  0.000267  0.500000  1
  Ir  Ir20  1  0.509416  0.865750  0.000000  1
  Ir  Ir21  1  0.134277  0.643597  0.000000  1
  Ir  Ir22  1  0.356348  0.490581  0.000000  1
  Ir  Ir23  1  0.490584  0.356333  0.000000  1
  Ir  Ir24  1  0.865723  0.509319  0.000000  1
  Ir  Ir25  1  0.643652  0.134233  0.000000  1
  Ir  Ir26  1  0.000000  0.274804  0.000000  1
  Ir  Ir27  1  0.725097  0.725160  0.000000  1
  Ir  Ir28  1  0.274903  0.000064  0.000000  1
  Ir  Ir29  1  0.630388  0.809238  0.500000  1
  Ir  Ir30  1  0.190961  0.821188  0.500000  1
  Ir  Ir31  1  0.178809  0.369582  0.500000  1
  Ir  Ir32  1  0.369612  0.178849  0.500000  1
  Ir  Ir33  1  0.809039  0.630226  0.500000  1
  Ir  Ir34  1  0.821191  0.190772  0.500000  1
  Ir  Ir35  1  0.000000  0.000229  0.500000  1
