# generated using pymatgen
data_Hf3U(InRh5)2
_symmetry_space_group_name_H-M   'P 1'
_cell_length_a   4.14675900
_cell_length_b   5.67525222
_cell_length_c   11.22933348
_cell_angle_alpha   89.70089259
_cell_angle_beta   90.00000000
_cell_angle_gamma   90.00000000
_symmetry_Int_Tables_number   1
_chemical_formula_structural   Hf3U(InRh5)2
_chemical_formula_sum   'Hf3 U1 In2 Rh10'
_cell_volume   264.26644629
_cell_formula_units_Z   1
loop_
 _symmetry_equiv_pos_site_id
 _symmetry_equiv_pos_as_xyz
  1  'x, y, z'
loop_
 _atom_site_type_symbol
 _atom_site_label
 _atom_site_symmetry_multiplicity
 _atom_site_fract_x
 _atom_site_fract_y
 _atom_site_fract_z
 _atom_site_occupancy
  Hf  Hf0  1  0.500000  0.809911  0.353930  1
  Hf  Hf1  1  0.500000  0.685430  0.865925  1
  Hf  Hf2  1  0.500000  0.311073  0.141091  1
  U  U3  1  0.500000  0.186925  0.640491  1
  In  In4  1  0.000000  0.512063  0.495434  1
  In  In5  1  0.000000  0.001180  0.002269  1
  Rh  Rh6  1  0.500000  0.209777  0.880607  1
  Rh  Rh7  1  0.500000  0.785521  0.116882  1
  Rh  Rh8  1  0.500000  0.715820  0.619862  1
  Rh  Rh9  1  0.500000  0.283272  0.384742  1
  Rh  Rh10  1  0.000000  0.439290  0.745795  1
  Rh  Rh11  1  0.000000  0.552346  0.249940  1
  Rh  Rh12  1  0.000000  0.007816  0.502107  1
  Rh  Rh13  1  0.000000  0.500555  0.000275  1
  Rh  Rh14  1  0.000000  0.052600  0.248882  1
  Rh  Rh15  1  0.000000  0.946421  0.751767  1
