# generated using pymatgen
data_Ho4Er4Re(B8Ru)3
_symmetry_space_group_name_H-M   'P 1'
_cell_length_a   3.64829900
_cell_length_b   9.11225212
_cell_length_c   11.49728644
_cell_angle_alpha   89.87864310
_cell_angle_beta   90.00000000
_cell_angle_gamma   90.00000000
_symmetry_Int_Tables_number   1
_chemical_formula_structural   Ho4Er4Re(B8Ru)3
_chemical_formula_sum   'Ho4 Er4 Re1 B24 Ru3'
_cell_volume   382.21746570
_cell_formula_units_Z   1
loop_
 _symmetry_equiv_pos_site_id
 _symmetry_equiv_pos_as_xyz
  1  'x, y, z'
loop_
 _atom_site_type_symbol
 _atom_site_label
 _atom_site_symmetry_multiplicity
 _atom_site_fract_x
 _atom_site_fract_y
 _atom_site_fract_z
 _atom_site_occupancy
  Ho  Ho0  1  0.000000  0.323903  0.413370  1
  Ho  Ho1  1  0.000000  0.676962  0.583812  1
  Ho  Ho2  1  0.000000  0.820696  0.087907  1
  Ho  Ho3  1  0.000000  0.177086  0.914888  1
  Er  Er4  1  0.000000  0.944287  0.372599  1
  Er  Er5  1  0.000000  0.056872  0.628232  1
  Er  Er6  1  0.000000  0.444089  0.127625  1
  Er  Er7  1  0.000000  0.556501  0.871440  1
  Re  Re8  1  0.000000  0.638041  0.321128  1
  B  B9  1  0.500000  0.552953  0.433343  1
  B  B10  1  0.500000  0.446057  0.567547  1
  B  B11  1  0.500000  0.053984  0.066937  1
  B  B12  1  0.500000  0.946009  0.933049  1
  B  B13  1  0.500000  0.749086  0.419609  1
  B  B14  1  0.500000  0.251438  0.580499  1
  B  B15  1  0.500000  0.248613  0.080276  1
  B  B16  1  0.500000  0.751333  0.919585  1
  B  B17  1  0.500000  0.792397  0.265974  1
  B  B18  1  0.500000  0.208408  0.734037  1
  B  B19  1  0.500000  0.291491  0.233226  1
  B  B20  1  0.500000  0.708797  0.766001  1
  B  B21  1  0.500000  0.631706  0.185134  1
  B  B22  1  0.500000  0.367885  0.815150  1
  B  B23  1  0.500000  0.131859  0.314612  1
  B  B24  1  0.500000  0.868515  0.685008  1
  B  B25  1  0.500000  0.983506  0.212792  1
  B  B26  1  0.500000  0.016657  0.787548  1
  B  B27  1  0.500000  0.482269  0.287131  1
  B  B28  1  0.500000  0.516372  0.712785  1
  B  B29  1  0.500000  0.606626  0.028770  1
  B  B30  1  0.500000  0.392745  0.970070  1
  B  B31  1  0.500000  0.107292  0.470845  1
  B  B32  1  0.500000  0.894220  0.529900  1
  Ru  Ru33  1  0.000000  0.361431  0.679702  1
  Ru  Ru34  1  0.000000  0.138106  0.178668  1
  Ru  Ru35  1  0.000000  0.861810  0.820803  1
