# generated using pymatgen
data_LiTl(PO3)2
_symmetry_space_group_name_H-M   'P 1'
_cell_length_a   9.89274890
_cell_length_b   9.89274933
_cell_length_c   12.01527600
_cell_angle_alpha   89.80739105
_cell_angle_beta   89.80739104
_cell_angle_gamma   90.32156171
_symmetry_Int_Tables_number   1
_chemical_formula_structural   LiTl(PO3)2
_chemical_formula_sum   'Li8 Tl8 P16 O48'
_cell_volume   1175.86094628
_cell_formula_units_Z   8
loop_
 _symmetry_equiv_pos_site_id
 _symmetry_equiv_pos_as_xyz
  1  'x, y, z'
loop_
 _atom_site_type_symbol
 _atom_site_label
 _atom_site_symmetry_multiplicity
 _atom_site_fract_x
 _atom_site_fract_y
 _atom_site_fract_z
 _atom_site_occupancy
  Li  Li0  1  0.609942  0.771580  0.127451  1
  Li  Li1  1  0.257289  0.883434  0.568135  1
  Li  Li2  1  0.116566  0.742711  0.931865  1
  Li  Li3  1  0.390058  0.228420  0.872549  1
  Li  Li4  1  0.228420  0.390058  0.372549  1
  Li  Li5  1  0.771580  0.609942  0.627451  1
  Li  Li6  1  0.883434  0.257289  0.068135  1
  Li  Li7  1  0.742711  0.116566  0.431865  1
  Tl  Tl8  1  0.779228  0.533153  0.952489  1
  Tl  Tl9  1  0.466847  0.220772  0.547511  1
  Tl  Tl10  1  0.999071  0.747614  0.476238  1
  Tl  Tl11  1  0.220772  0.466847  0.047511  1
  Tl  Tl12  1  0.533153  0.779228  0.452489  1
  Tl  Tl13  1  0.000929  0.252386  0.523762  1
  Tl  Tl14  1  0.252386  0.000929  0.023762  1
  Tl  Tl15  1  0.747614  0.999071  0.976238  1
  P  P16  1  0.481829  0.518171  0.250000  1
  P  P17  1  0.034391  0.965609  0.750000  1
  P  P18  1  0.552558  0.287835  0.098908  1
  P  P19  1  0.470487  0.948618  0.750667  1
  P  P20  1  0.712165  0.447442  0.401092  1
  P  P21  1  0.287835  0.552558  0.598908  1
  P  P22  1  0.529513  0.051382  0.249333  1
  P  P23  1  0.948618  0.470487  0.250667  1
  P  P24  1  0.246619  0.055674  0.339329  1
  P  P25  1  0.944326  0.753381  0.160671  1
  P  P26  1  0.518171  0.481829  0.750000  1
  P  P27  1  0.051382  0.529513  0.749333  1
  P  P28  1  0.055674  0.246619  0.839329  1
  P  P29  1  0.965609  0.034391  0.250000  1
  P  P30  1  0.753381  0.944326  0.660671  1
  P  P31  1  0.447442  0.712165  0.901092  1
  O  O32  1  0.052630  0.128080  0.746595  1
  O  O33  1  0.557700  0.451955  0.356864  1
  O  O34  1  0.947370  0.871920  0.253405  1
  O  O35  1  0.453092  0.791024  0.782699  1
  O  O36  1  0.583160  0.037903  0.365873  1
  O  O37  1  0.336388  0.478380  0.262557  1
  O  O38  1  0.546908  0.208976  0.217301  1
  O  O39  1  0.962881  0.581147  0.658052  1
  O  O40  1  0.083457  0.910861  0.858603  1
  O  O41  1  0.478380  0.336388  0.762557  1
  O  O42  1  0.037119  0.418853  0.341948  1
  O  O43  1  0.128080  0.052630  0.246595  1
  O  O44  1  0.442300  0.548045  0.643136  1
  O  O45  1  0.236119  0.936823  0.415908  1
  O  O46  1  0.742367  0.571624  0.468099  1
  O  O47  1  0.962097  0.416840  0.134127  1
  O  O48  1  0.037903  0.583160  0.865873  1
  O  O49  1  0.571624  0.742367  0.968099  1
  O  O50  1  0.257074  0.195244  0.387492  1
  O  O51  1  0.804756  0.742926  0.112508  1
  O  O52  1  0.910861  0.083457  0.358603  1
  O  O53  1  0.416840  0.962097  0.634127  1
  O  O54  1  0.063177  0.763881  0.084092  1
  O  O55  1  0.367605  0.030567  0.250007  1
  O  O56  1  0.451955  0.557700  0.856864  1
  O  O57  1  0.270035  0.688431  0.545313  1
  O  O58  1  0.632395  0.969433  0.749993  1
  O  O59  1  0.257633  0.428376  0.531901  1
  O  O60  1  0.089139  0.916543  0.641397  1
  O  O61  1  0.418853  0.037119  0.841948  1
  O  O62  1  0.688431  0.270035  0.045313  1
  O  O63  1  0.742926  0.804756  0.612508  1
  O  O64  1  0.916543  0.089139  0.141397  1
  O  O65  1  0.581147  0.962881  0.158052  1
  O  O66  1  0.311569  0.729965  0.954687  1
  O  O67  1  0.521620  0.663612  0.237443  1
  O  O68  1  0.969433  0.632395  0.249993  1
  O  O69  1  0.936823  0.236119  0.915908  1
  O  O70  1  0.208976  0.546908  0.717301  1
  O  O71  1  0.195244  0.257074  0.887492  1
  O  O72  1  0.548045  0.442300  0.143136  1
  O  O73  1  0.763881  0.063177  0.584092  1
  O  O74  1  0.428376  0.257633  0.031901  1
  O  O75  1  0.030567  0.367605  0.750007  1
  O  O76  1  0.871920  0.947370  0.753405  1
  O  O77  1  0.729965  0.311569  0.454687  1
  O  O78  1  0.663612  0.521620  0.737443  1
  O  O79  1  0.791024  0.453092  0.282699  1
