# generated using pymatgen
data_V3Si2B4W7
_symmetry_space_group_name_H-M   'P 1'
_cell_length_a   6.93631211
_cell_length_b   6.93631288
_cell_length_c   6.96943433
_cell_angle_alpha   129.15609789
_cell_angle_beta   129.15610313
_cell_angle_gamma   74.68574673
_symmetry_Int_Tables_number   1
_chemical_formula_structural   V3Si2B4W7
_chemical_formula_sum   'V3 Si2 B4 W7'
_cell_volume   196.50584172
_cell_formula_units_Z   1
loop_
 _symmetry_equiv_pos_site_id
 _symmetry_equiv_pos_as_xyz
  1  'x, y, z'
loop_
 _atom_site_type_symbol
 _atom_site_label
 _atom_site_symmetry_multiplicity
 _atom_site_fract_x
 _atom_site_fract_y
 _atom_site_fract_z
 _atom_site_occupancy
  V  V0  1  0.301889  0.801889  0.830977  1
  V  V1  1  0.002611  0.999348  0.999338  1
  V  V2  1  0.499348  0.502611  0.999338  1
  Si  Si3  1  0.249964  0.242343  0.996511  1
  Si  Si4  1  0.742343  0.749964  0.996511  1
  B  B5  1  0.627418  0.127418  0.755129  1
  B  B6  1  0.124967  0.381794  0.503788  1
  B  B7  1  0.881794  0.624967  0.503788  1
  B  B8  1  0.372533  0.872533  0.243173  1
  W  W9  1  0.526716  0.694865  0.498141  1
  W  W10  1  0.027770  0.527770  0.832464  1
  W  W11  1  0.695578  0.195578  0.168088  1
  W  W12  1  0.976499  0.476499  0.174787  1
  W  W13  1  0.194865  0.026716  0.498141  1
  W  W14  1  0.472328  0.303374  0.499913  1
  W  W15  1  0.803374  0.972328  0.499913  1
