# generated using pymatgen
data_K5Ca(MoH9)3
_symmetry_space_group_name_H-M   'P 1'
_cell_length_a   9.45635900
_cell_length_b   9.17297484
_cell_length_c   5.23620500
_cell_angle_alpha   90.00000000
_cell_angle_beta   90.00000000
_cell_angle_gamma   119.01354522
_symmetry_Int_Tables_number   1
_chemical_formula_structural   K5Ca(MoH9)3
_chemical_formula_sum   'K5 Ca1 Mo3 H27'
_cell_volume   397.20355439
_cell_formula_units_Z   1
loop_
 _symmetry_equiv_pos_site_id
 _symmetry_equiv_pos_as_xyz
  1  'x, y, z'
loop_
 _atom_site_type_symbol
 _atom_site_label
 _atom_site_symmetry_multiplicity
 _atom_site_fract_x
 _atom_site_fract_y
 _atom_site_fract_z
 _atom_site_occupancy
  K  K0  1  0.746220  0.758400  0.500000  1
  K  K1  1  0.253780  0.012181  0.500000  1
  K  K2  1  0.000000  0.597885  0.000000  1
  K  K3  1  0.379944  0.383854  0.000000  1
  K  K4  1  0.620056  0.003910  0.000000  1
  Ca  Ca5  1  0.000000  0.255385  0.500000  1
  Mo  Mo6  1  0.675291  0.311476  0.500000  1
  Mo  Mo7  1  0.324709  0.636186  0.500000  1
  Mo  Mo8  1  0.000000  0.018465  0.000000  1
  H  H9  1  0.816208  0.307549  0.718302  1
  H  H10  1  0.635898  0.446622  0.698431  1
  H  H11  1  0.545310  0.200056  0.751645  1
  H  H12  1  0.183792  0.491341  0.281698  1
  H  H13  1  0.545310  0.200056  0.248355  1
  H  H14  1  0.816208  0.307549  0.281698  1
  H  H15  1  0.635898  0.446622  0.301569  1
  H  H16  1  0.364102  0.810725  0.698431  1
  H  H17  1  0.454690  0.654747  0.751645  1
  H  H18  1  0.182339  0.016576  0.000000  1
  H  H19  1  0.817661  0.834237  0.000000  1
  H  H20  1  0.000000  0.210407  0.000000  1
  H  H21  1  0.871741  0.020970  0.242220  1
  H  H22  1  0.128259  0.149230  0.757780  1
  H  H23  1  0.000000  0.876181  0.776216  1
  H  H24  1  0.000000  0.876181  0.223784  1
  H  H25  1  0.128259  0.149230  0.242220  1
  H  H26  1  0.871741  0.020970  0.757780  1
  H  H27  1  0.154037  0.661886  0.500000  1
  H  H28  1  0.404647  0.855946  0.500000  1
  H  H29  1  0.349727  0.459473  0.500000  1
  H  H30  1  0.595353  0.451300  0.500000  1
  H  H31  1  0.845963  0.507848  0.500000  1
  H  H32  1  0.650273  0.109746  0.500000  1
  H  H33  1  0.183792  0.491341  0.718302  1
  H  H34  1  0.364102  0.810725  0.301569  1
  H  H35  1  0.454690  0.654747  0.248355  1
