# generated using pymatgen
data_Ac2SnS5
_symmetry_space_group_name_H-M   'P 1'
_cell_length_a   4.14479600
_cell_length_b   8.15015600
_cell_length_c   11.63195900
_cell_angle_alpha   90.00000000
_cell_angle_beta   90.00000000
_cell_angle_gamma   90.00000000
_symmetry_Int_Tables_number   1
_chemical_formula_structural   Ac2SnS5
_chemical_formula_sum   'Ac4 Sn2 S10'
_cell_volume   392.93611274
_cell_formula_units_Z   2
loop_
 _symmetry_equiv_pos_site_id
 _symmetry_equiv_pos_as_xyz
  1  'x, y, z'
loop_
 _atom_site_type_symbol
 _atom_site_label
 _atom_site_symmetry_multiplicity
 _atom_site_fract_x
 _atom_site_fract_y
 _atom_site_fract_z
 _atom_site_occupancy
  Ac  Ac0  1  0.500000  0.575697  0.169788  1
  Ac  Ac1  1  0.500000  0.424303  0.830212  1
  Ac  Ac2  1  0.500000  0.075697  0.330212  1
  Ac  Ac3  1  0.500000  0.924303  0.669788  1
  Sn  Sn4  1  0.000000  0.500000  0.500000  1
  Sn  Sn5  1  0.000000  0.000000  0.000000  1
  S  S6  1  0.500000  0.686582  0.433645  1
  S  S7  1  0.500000  0.313418  0.566355  1
  S  S8  1  0.500000  0.186582  0.066355  1
  S  S9  1  0.500000  0.813418  0.933645  1
  S  S10  1  0.000000  0.859103  0.200192  1
  S  S11  1  0.000000  0.140897  0.799808  1
  S  S12  1  0.000000  0.500000  0.000000  1
  S  S13  1  0.000000  0.000000  0.500000  1
  S  S14  1  0.000000  0.640897  0.700192  1
  S  S15  1  0.000000  0.359103  0.299808  1
