# generated using pymatgen
data_ErSnHIr
_symmetry_space_group_name_H-M   'P 1'
_cell_length_a   4.35021300
_cell_length_b   7.21865200
_cell_length_c   8.40130200
_cell_angle_alpha   90.00000000
_cell_angle_beta   90.00000000
_cell_angle_gamma   90.00000000
_symmetry_Int_Tables_number   1
_chemical_formula_structural   ErSnHIr
_chemical_formula_sum   'Er4 Sn4 H4 Ir4'
_cell_volume   263.82334597
_cell_formula_units_Z   4
loop_
 _symmetry_equiv_pos_site_id
 _symmetry_equiv_pos_as_xyz
  1  'x, y, z'
loop_
 _atom_site_type_symbol
 _atom_site_label
 _atom_site_symmetry_multiplicity
 _atom_site_fract_x
 _atom_site_fract_y
 _atom_site_fract_z
 _atom_site_occupancy
  Er  Er0  1  0.750000  0.018029  0.690583  1
  Er  Er1  1  0.250000  0.981971  0.309417  1
  Er  Er2  1  0.250000  0.481971  0.190583  1
  Er  Er3  1  0.750000  0.518029  0.809417  1
  Sn  Sn4  1  0.750000  0.655985  0.418605  1
  Sn  Sn5  1  0.250000  0.344015  0.581395  1
  Sn  Sn6  1  0.250000  0.844015  0.918605  1
  Sn  Sn7  1  0.750000  0.155985  0.081395  1
  H  H8  1  0.250000  0.461019  0.922579  1
  H  H9  1  0.750000  0.538981  0.077421  1
  H  H10  1  0.750000  0.038981  0.422579  1
  H  H11  1  0.250000  0.961019  0.577421  1
  Ir  Ir12  1  0.750000  0.772064  0.102229  1
  Ir  Ir13  1  0.250000  0.227936  0.897771  1
  Ir  Ir14  1  0.250000  0.727936  0.602229  1
  Ir  Ir15  1  0.750000  0.272064  0.397771  1
