# generated using pymatgen
data_LaPrCu7Pd3
_symmetry_space_group_name_H-M   'P 1'
_cell_length_a   4.12303200
_cell_length_b   5.15709509
_cell_length_c   9.39855306
_cell_angle_alpha   88.13451918
_cell_angle_beta   90.00000000
_cell_angle_gamma   90.00000000
_symmetry_Int_Tables_number   1
_chemical_formula_structural   LaPrCu7Pd3
_chemical_formula_sum   'La1 Pr1 Cu7 Pd3'
_cell_volume   199.73428051
_cell_formula_units_Z   1
loop_
 _symmetry_equiv_pos_site_id
 _symmetry_equiv_pos_as_xyz
  1  'x, y, z'
loop_
 _atom_site_type_symbol
 _atom_site_label
 _atom_site_symmetry_multiplicity
 _atom_site_fract_x
 _atom_site_fract_y
 _atom_site_fract_z
 _atom_site_occupancy
  La  La0  1  0.000000  0.763248  0.245386  1
  Pr  Pr1  1  0.000000  0.237099  0.754199  1
  Cu  Cu2  1  0.000000  0.272772  0.078155  1
  Cu  Cu3  1  0.000000  0.747375  0.569582  1
  Cu  Cu4  1  0.000000  0.727397  0.920058  1
  Cu  Cu5  1  0.000000  0.251862  0.432319  1
  Cu  Cu6  1  0.500000  0.499005  0.501119  1
  Cu  Cu7  1  0.500000  0.499460  0.998707  1
  Cu  Cu8  1  0.500000  0.000989  0.501397  1
  Pd  Pd9  1  0.500000  0.734182  0.744573  1
  Pd  Pd10  1  0.500000  0.266433  0.255433  1
  Pd  Pd11  1  0.500000  0.000178  0.999072  1
