# generated using pymatgen
data_YThSc2(Ga3Ir)6
_symmetry_space_group_name_H-M   'P 1'
_cell_length_a   7.59862742
_cell_length_b   7.58513902
_cell_length_c   9.44297900
_cell_angle_alpha   90.00000000
_cell_angle_beta   90.00000000
_cell_angle_gamma   119.80925890
_symmetry_Int_Tables_number   1
_chemical_formula_structural   YThSc2(Ga3Ir)6
_chemical_formula_sum   'Y1 Th1 Sc2 Ga18 Ir6'
_cell_volume   472.24772539
_cell_formula_units_Z   1
loop_
 _symmetry_equiv_pos_site_id
 _symmetry_equiv_pos_as_xyz
  1  'x, y, z'
loop_
 _atom_site_type_symbol
 _atom_site_label
 _atom_site_symmetry_multiplicity
 _atom_site_fract_x
 _atom_site_fract_y
 _atom_site_fract_z
 _atom_site_occupancy
  Y  Y0  1  0.670593  0.997176  0.250000  1
  Th  Th1  1  0.996336  0.669237  0.250000  1
  Sc  Sc2  1  0.000126  0.330628  0.750000  1
  Sc  Sc3  1  0.327866  0.999635  0.750000  1
  Ga  Ga4  1  0.131144  0.133346  0.250000  1
  Ga  Ga5  1  0.877035  0.879798  0.750000  1
  Ga  Ga6  1  0.001400  0.329568  0.072889  1
  Ga  Ga7  1  0.005096  0.665126  0.907606  1
  Ga  Ga8  1  0.005096  0.665126  0.592394  1
  Ga  Ga9  1  0.340688  0.005620  0.427060  1
  Ga  Ga10  1  0.001400  0.329568  0.427111  1
  Ga  Ga11  1  0.665518  0.006282  0.587804  1
  Ga  Ga12  1  0.665518  0.006282  0.912196  1
  Ga  Ga13  1  0.340688  0.005620  0.072940  1
  Ga  Ga14  1  0.326470  0.326213  0.576022  1
  Ga  Ga15  1  0.661755  0.666824  0.443767  1
  Ga  Ga16  1  0.661755  0.666824  0.056233  1
  Ga  Ga17  1  0.326470  0.326213  0.923978  1
  Ga  Ga18  1  0.342988  0.546405  0.250000  1
  Ga  Ga19  1  0.657697  0.446257  0.750000  1
  Ga  Ga20  1  0.541420  0.336250  0.250000  1
  Ga  Ga21  1  0.447196  0.660679  0.750000  1
  Ir  Ir22  1  0.675534  0.332551  0.999971  1
  Ir  Ir23  1  0.326886  0.671619  0.999451  1
  Ir  Ir24  1  0.326886  0.671619  0.500549  1
  Ir  Ir25  1  0.675534  0.332551  0.500029  1
  Ir  Ir26  1  0.000453  0.996490  0.000072  1
  Ir  Ir27  1  0.000453  0.996490  0.499928  1
