# generated using pymatgen
data_Dy5Hf5(Co2Si5)4
_symmetry_space_group_name_H-M   'P 1'
_cell_length_a   12.16479100
_cell_length_b   12.16479100
_cell_length_c   3.98812700
_cell_angle_alpha   90.00000000
_cell_angle_beta   90.00000000
_cell_angle_gamma   90.00000000
_symmetry_Int_Tables_number   1
_chemical_formula_structural   Dy5Hf5(Co2Si5)4
_chemical_formula_sum   'Dy5 Hf5 Co8 Si20'
_cell_volume   590.17156835
_cell_formula_units_Z   1
loop_
 _symmetry_equiv_pos_site_id
 _symmetry_equiv_pos_as_xyz
  1  'x, y, z'
loop_
 _atom_site_type_symbol
 _atom_site_label
 _atom_site_symmetry_multiplicity
 _atom_site_fract_x
 _atom_site_fract_y
 _atom_site_fract_z
 _atom_site_occupancy
  Dy  Dy0  1  0.000000  0.000000  0.000000  1
  Dy  Dy1  1  0.885441  0.386869  0.500000  1
  Dy  Dy2  1  0.114559  0.613131  0.500000  1
  Dy  Dy3  1  0.386869  0.114559  0.500000  1
  Dy  Dy4  1  0.613131  0.885441  0.500000  1
  Hf  Hf5  1  0.500000  0.500000  0.000000  1
  Hf  Hf6  1  0.675763  0.177290  0.500000  1
  Hf  Hf7  1  0.324237  0.822710  0.500000  1
  Hf  Hf8  1  0.177290  0.324237  0.500000  1
  Hf  Hf9  1  0.822710  0.675763  0.500000  1
  Co  Co10  1  0.740993  0.525561  0.000000  1
  Co  Co11  1  0.259007  0.474439  0.000000  1
  Co  Co12  1  0.245800  0.973841  0.000000  1
  Co  Co13  1  0.754200  0.026159  0.000000  1
  Co  Co14  1  0.474439  0.740993  0.000000  1
  Co  Co15  1  0.525561  0.259007  0.000000  1
  Co  Co16  1  0.026159  0.245800  0.000000  1
  Co  Co17  1  0.973841  0.754200  0.000000  1
  Si  Si18  1  0.568653  0.070371  0.000000  1
  Si  Si19  1  0.431347  0.929629  0.000000  1
  Si  Si20  1  0.070371  0.431347  0.000000  1
  Si  Si21  1  0.929629  0.568653  0.000000  1
  Si  Si22  1  0.656702  0.696546  0.000000  1
  Si  Si23  1  0.343298  0.303454  0.000000  1
  Si  Si24  1  0.157049  0.802689  0.000000  1
  Si  Si25  1  0.842951  0.197311  0.000000  1
  Si  Si26  1  0.303454  0.656702  0.000000  1
  Si  Si27  1  0.696546  0.343298  0.000000  1
  Si  Si28  1  0.197311  0.157049  0.000000  1
  Si  Si29  1  0.802689  0.842951  0.000000  1
  Si  Si30  1  0.661146  0.507065  0.500000  1
  Si  Si31  1  0.338854  0.492935  0.500000  1
  Si  Si32  1  0.166910  0.993443  0.500000  1
  Si  Si33  1  0.833090  0.006557  0.500000  1
  Si  Si34  1  0.492935  0.661146  0.500000  1
  Si  Si35  1  0.507065  0.338854  0.500000  1
  Si  Si36  1  0.006557  0.166910  0.500000  1
  Si  Si37  1  0.993443  0.833090  0.500000  1
