# generated using pymatgen
data_Er10Si5Ge
_symmetry_space_group_name_H-M   'P 1'
_cell_length_a   8.36798200
_cell_length_b   8.36928751
_cell_length_c   6.29137100
_cell_angle_alpha   90.00000000
_cell_angle_beta   90.00000000
_cell_angle_gamma   119.99483219
_symmetry_Int_Tables_number   1
_chemical_formula_structural   Er10Si5Ge
_chemical_formula_sum   'Er10 Si5 Ge1'
_cell_volume   381.59947255
_cell_formula_units_Z   1
loop_
 _symmetry_equiv_pos_site_id
 _symmetry_equiv_pos_as_xyz
  1  'x, y, z'
loop_
 _atom_site_type_symbol
 _atom_site_label
 _atom_site_symmetry_multiplicity
 _atom_site_fract_x
 _atom_site_fract_y
 _atom_site_fract_z
 _atom_site_occupancy
  Er  Er0  1  0.998966  0.756355  0.750000  1
  Er  Er1  1  0.999950  0.242881  0.250000  1
  Er  Er2  1  0.757070  0.757119  0.250000  1
  Er  Er3  1  0.757873  0.000000  0.750000  1
  Er  Er4  1  0.242611  0.243645  0.750000  1
  Er  Er5  1  0.242595  0.000000  0.250000  1
  Er  Er6  1  0.333198  0.665875  0.499364  1
  Er  Er7  1  0.667324  0.334125  0.000636  1
  Er  Er8  1  0.667324  0.334125  0.499364  1
  Er  Er9  1  0.333198  0.665875  0.000636  1
  Si  Si10  1  0.394443  0.394405  0.250000  1
  Si  Si11  1  0.000038  0.605595  0.250000  1
  Si  Si12  1  0.999980  0.394435  0.750000  1
  Si  Si13  1  0.605545  0.605565  0.750000  1
  Si  Si14  1  0.605692  0.000000  0.250000  1
  Ge  Ge15  1  0.394195  0.000000  0.750000  1
