# generated using pymatgen
data_Hf4Ir2N
_symmetry_space_group_name_H-M   'P 1'
_cell_length_a   8.72160243
_cell_length_b   8.72166929
_cell_length_c   8.72164700
_cell_angle_alpha   60.00014821
_cell_angle_beta   59.99989794
_cell_angle_gamma   60.00002545
_symmetry_Int_Tables_number   1
_chemical_formula_structural   Hf4Ir2N
_chemical_formula_sum   'Hf16 Ir8 N4'
_cell_volume   469.11534920
_cell_formula_units_Z   4
loop_
 _symmetry_equiv_pos_site_id
 _symmetry_equiv_pos_as_xyz
  1  'x, y, z'
loop_
 _atom_site_type_symbol
 _atom_site_label
 _atom_site_symmetry_multiplicity
 _atom_site_fract_x
 _atom_site_fract_y
 _atom_site_fract_z
 _atom_site_occupancy
  Hf  Hf0  1  0.124983  0.624985  0.625033  1
  Hf  Hf1  1  0.624993  0.124994  0.625023  1
  Hf  Hf2  1  0.625019  0.625002  0.124963  1
  Hf  Hf3  1  0.625001  0.624983  0.625031  1
  Hf  Hf4  1  0.815935  0.815932  0.184054  1
  Hf  Hf5  1  0.184080  0.184062  0.815932  1
  Hf  Hf6  1  0.815924  0.184066  0.815930  1
  Hf  Hf7  1  0.184081  0.815933  0.184050  1
  Hf  Hf8  1  0.184069  0.815930  0.815938  1
  Hf  Hf9  1  0.815929  0.184077  0.184066  1
  Hf  Hf10  1  0.434075  0.434072  0.065920  1
  Hf  Hf11  1  0.065909  0.065947  0.434075  1
  Hf  Hf12  1  0.434072  0.065940  0.434076  1
  Hf  Hf13  1  0.065929  0.434072  0.065926  1
  Hf  Hf14  1  0.065926  0.434066  0.434073  1
  Hf  Hf15  1  0.434077  0.065943  0.065903  1
  Ir  Ir16  1  0.769623  0.410117  0.410131  1
  Ir  Ir17  1  0.410130  0.769621  0.410125  1
  Ir  Ir18  1  0.410132  0.410113  0.769629  1
  Ir  Ir19  1  0.410134  0.410115  0.410129  1
  Ir  Ir20  1  0.480383  0.839876  0.839874  1
  Ir  Ir21  1  0.839868  0.480379  0.839880  1
  Ir  Ir22  1  0.839865  0.839879  0.480386  1
  Ir  Ir23  1  0.839863  0.839878  0.839876  1
  N  N24  1  0.624998  0.125009  0.124989  1
  N  N25  1  0.125006  0.624995  0.124993  1
  N  N26  1  0.124996  0.125003  0.625004  1
  N  N27  1  0.125003  0.125009  0.124990  1
