# generated using pymatgen
data_Dy2Er3Zn2Bi
_symmetry_space_group_name_H-M   'P 1'
_cell_length_a   8.57857449
_cell_length_b   8.57857432
_cell_length_c   8.57857382
_cell_angle_alpha   123.45241052
_cell_angle_beta   123.45240776
_cell_angle_gamma   84.11752350
_symmetry_Int_Tables_number   1
_chemical_formula_structural   Dy2Er3Zn2Bi
_chemical_formula_sum   'Dy4 Er6 Zn4 Bi2'
_cell_volume   420.68540983
_cell_formula_units_Z   2
loop_
 _symmetry_equiv_pos_site_id
 _symmetry_equiv_pos_as_xyz
  1  'x, y, z'
loop_
 _atom_site_type_symbol
 _atom_site_label
 _atom_site_symmetry_multiplicity
 _atom_site_fract_x
 _atom_site_fract_y
 _atom_site_fract_z
 _atom_site_occupancy
  Dy  Dy0  1  0.510173  0.010173  0.805173  1
  Dy  Dy1  1  0.205000  0.705000  0.194827  1
  Dy  Dy2  1  0.010173  0.205000  0.500000  1
  Dy  Dy3  1  0.705000  0.510173  0.500000  1
  Er  Er4  1  0.500423  0.500423  0.000000  1
  Er  Er5  1  0.000423  0.000423  0.000000  1
  Er  Er6  1  0.489447  0.989447  0.195986  1
  Er  Er7  1  0.793461  0.293461  0.804014  1
  Er  Er8  1  0.989447  0.793461  0.500000  1
  Er  Er9  1  0.293461  0.489447  0.500000  1
  Zn  Zn10  1  0.140369  0.640369  0.779245  1
  Zn  Zn11  1  0.861125  0.361125  0.220755  1
  Zn  Zn12  1  0.640369  0.861125  0.500000  1
  Zn  Zn13  1  0.361125  0.140369  0.500000  1
  Bi  Bi14  1  0.250002  0.250002  0.000000  1
  Bi  Bi15  1  0.750002  0.750002  0.000000  1
