# generated using pymatgen
data_Y2PaFe2
_symmetry_space_group_name_H-M   'P 1'
_cell_length_a   3.72513291
_cell_length_b   5.97439697
_cell_length_c   5.97439594
_cell_angle_alpha   57.70726158
_cell_angle_beta   71.83478197
_cell_angle_gamma   71.83478415
_symmetry_Int_Tables_number   1
_chemical_formula_structural   Y2PaFe2
_chemical_formula_sum   'Y2 Pa1 Fe2'
_cell_volume   105.03596922
_cell_formula_units_Z   1
loop_
 _symmetry_equiv_pos_site_id
 _symmetry_equiv_pos_as_xyz
  1  'x, y, z'
loop_
 _atom_site_type_symbol
 _atom_site_label
 _atom_site_symmetry_multiplicity
 _atom_site_fract_x
 _atom_site_fract_y
 _atom_site_fract_z
 _atom_site_occupancy
  Y  Y0  1  0.196955  0.303045  0.303045  1
  Y  Y1  1  0.803045  0.696955  0.696955  1
  Pa  Pa2  1  0.000000  0.000000  0.000000  1
  Fe  Fe3  1  0.500000  0.293714  0.706286  1
  Fe  Fe4  1  0.500000  0.706286  0.293714  1
