# generated using pymatgen
data_SrLa3(US5)2
_symmetry_space_group_name_H-M   'P 1'
_cell_length_a   7.59007000
_cell_length_b   8.15062336
_cell_length_c   12.02040800
_cell_angle_alpha   90.00000000
_cell_angle_beta   90.00000000
_cell_angle_gamma   90.49595990
_symmetry_Int_Tables_number   1
_chemical_formula_structural   SrLa3(US5)2
_chemical_formula_sum   'Sr2 La6 U4 S20'
_cell_volume   743.60027888
_cell_formula_units_Z   2
loop_
 _symmetry_equiv_pos_site_id
 _symmetry_equiv_pos_as_xyz
  1  'x, y, z'
loop_
 _atom_site_type_symbol
 _atom_site_label
 _atom_site_symmetry_multiplicity
 _atom_site_fract_x
 _atom_site_fract_y
 _atom_site_fract_z
 _atom_site_occupancy
  Sr  Sr0  1  0.530559  0.501408  0.325133  1
  Sr  Sr1  1  0.969441  0.998592  0.825133  1
  La  La2  1  0.471528  0.001487  0.678135  1
  La  La3  1  0.028472  0.498513  0.178135  1
  La  La4  1  0.466309  0.498801  0.672187  1
  La  La5  1  0.033691  0.001199  0.172187  1
  La  La6  1  0.529437  0.997380  0.325484  1
  La  La7  1  0.970563  0.502620  0.825484  1
  U  U8  1  0.064379  0.753654  0.492399  1
  U  U9  1  0.435621  0.746346  0.992399  1
  U  U10  1  0.932263  0.250934  0.507580  1
  U  U11  1  0.567737  0.249066  0.007580  1
  S  S12  1  0.835931  0.958154  0.586560  1
  S  S13  1  0.664069  0.541846  0.086560  1
  S  S14  1  0.155191  0.464781  0.409942  1
  S  S15  1  0.344809  0.035219  0.909942  1
  S  S16  1  0.162936  0.041578  0.408709  1
  S  S17  1  0.337064  0.458422  0.908709  1
  S  S18  1  0.837471  0.541947  0.591273  1
  S  S19  1  0.662529  0.958053  0.091273  1
  S  S20  1  0.843546  0.755092  0.313463  1
  S  S21  1  0.656454  0.744908  0.813463  1
  S  S22  1  0.163225  0.256227  0.682777  1
  S  S23  1  0.336775  0.243773  0.182777  1
  S  S24  1  0.445727  0.757193  0.500287  1
  S  S25  1  0.054273  0.742807  0.000287  1
  S  S26  1  0.554344  0.244755  0.506130  1
  S  S27  1  0.945656  0.255245  0.006130  1
  S  S28  1  0.188191  0.745805  0.709627  1
  S  S29  1  0.311809  0.754195  0.209627  1
  S  S30  1  0.815623  0.243469  0.290313  1
  S  S31  1  0.684377  0.256531  0.790313  1
