# generated using pymatgen
data_Li4CaNd2ErSi6
_symmetry_space_group_name_H-M   'P 1'
_cell_length_a   9.42913985
_cell_length_b   9.42913933
_cell_length_c   6.85731500
_cell_angle_alpha   90.00000000
_cell_angle_beta   90.00000000
_cell_angle_gamma   153.59502495
_symmetry_Int_Tables_number   1
_chemical_formula_structural   Li4CaNd2ErSi6
_chemical_formula_sum   'Li4 Ca1 Nd2 Er1 Si6'
_cell_volume   271.13027175
_cell_formula_units_Z   1
loop_
 _symmetry_equiv_pos_site_id
 _symmetry_equiv_pos_as_xyz
  1  'x, y, z'
loop_
 _atom_site_type_symbol
 _atom_site_label
 _atom_site_symmetry_multiplicity
 _atom_site_fract_x
 _atom_site_fract_y
 _atom_site_fract_z
 _atom_site_occupancy
  Li  Li0  1  0.189366  0.810634  0.059487  1
  Li  Li1  1  0.189366  0.810634  0.440513  1
  Li  Li2  1  0.810086  0.189914  0.943305  1
  Li  Li3  1  0.810086  0.189914  0.556695  1
  Ca  Ca4  1  0.341600  0.658400  0.250000  1
  Nd  Nd5  1  0.553349  0.446651  0.250000  1
  Nd  Nd6  1  0.447099  0.552901  0.750000  1
  Er  Er7  1  0.657695  0.342305  0.750000  1
  Si  Si8  1  0.718365  0.281635  0.250000  1
  Si  Si9  1  0.274404  0.725596  0.750000  1
  Si  Si10  1  0.060214  0.939786  0.922967  1
  Si  Si11  1  0.944079  0.055921  0.075568  1
  Si  Si12  1  0.944079  0.055921  0.424432  1
  Si  Si13  1  0.060214  0.939786  0.577033  1
