# generated using pymatgen
data_Ce2Ho2Tc5Os3
_symmetry_space_group_name_H-M   'P 1'
_cell_length_a   5.29108375
_cell_length_b   5.23884819
_cell_length_c   9.19152975
_cell_angle_alpha   89.99999950
_cell_angle_beta   89.90954984
_cell_angle_gamma   119.67397489
_symmetry_Int_Tables_number   1
_chemical_formula_structural   Ce2Ho2Tc5Os3
_chemical_formula_sum   'Ce2 Ho2 Tc5 Os3'
_cell_volume   221.36837230
_cell_formula_units_Z   1
loop_
 _symmetry_equiv_pos_site_id
 _symmetry_equiv_pos_as_xyz
  1  'x, y, z'
loop_
 _atom_site_type_symbol
 _atom_site_label
 _atom_site_symmetry_multiplicity
 _atom_site_fract_x
 _atom_site_fract_y
 _atom_site_fract_z
 _atom_site_occupancy
  Ce  Ce0  1  0.333309  0.666655  0.439450  1
  Ce  Ce1  1  0.669494  0.334746  0.559956  1
  Ho  Ho2  1  0.667666  0.333833  0.933870  1
  Ho  Ho3  1  0.332436  0.666219  0.064366  1
  Tc  Tc4  1  0.829175  0.169409  0.245404  1
  Tc  Tc5  1  0.829175  0.659765  0.245404  1
  Tc  Tc6  1  0.339074  0.169537  0.246174  1
  Tc  Tc7  1  0.166866  0.829683  0.755093  1
  Tc  Tc8  1  0.166866  0.337183  0.755093  1
  Os  Os9  1  0.006668  0.003334  0.500824  1
  Os  Os10  1  0.003270  0.001635  0.000069  1
  Os  Os11  1  0.656002  0.828001  0.754297  1
