# generated using pymatgen
data_TbHo3In2(NiAg)2
_symmetry_space_group_name_H-M   'P 1'
_cell_length_a   7.74599908
_cell_length_b   7.74599916
_cell_length_c   3.67863400
_cell_angle_alpha   90.00000000
_cell_angle_beta   90.00000000
_cell_angle_gamma   88.38418174
_symmetry_Int_Tables_number   1
_chemical_formula_structural   TbHo3In2(NiAg)2
_chemical_formula_sum   'Tb1 Ho3 In2 Ni2 Ag2'
_cell_volume   220.63212255
_cell_formula_units_Z   1
loop_
 _symmetry_equiv_pos_site_id
 _symmetry_equiv_pos_as_xyz
  1  'x, y, z'
loop_
 _atom_site_type_symbol
 _atom_site_label
 _atom_site_symmetry_multiplicity
 _atom_site_fract_x
 _atom_site_fract_y
 _atom_site_fract_z
 _atom_site_occupancy
  Tb  Tb0  1  0.802637  0.697363  0.500000  1
  Ho  Ho1  1  0.657142  0.158444  0.500000  1
  Ho  Ho2  1  0.341556  0.842858  0.500000  1
  Ho  Ho3  1  0.197621  0.302379  0.500000  1
  In  In4  1  0.499246  0.498798  0.000000  1
  In  In5  1  0.001202  0.000754  0.000000  1
  Ni  Ni6  1  0.615467  0.884533  0.000000  1
  Ni  Ni7  1  0.383094  0.116906  0.000000  1
  Ag  Ag8  1  0.126456  0.624420  0.000000  1
  Ag  Ag9  1  0.875580  0.373544  0.000000  1
