# generated using pymatgen
data_Tm3LuGa18Ir5Pt
_symmetry_space_group_name_H-M   'P 1'
_cell_length_a   7.57283678
_cell_length_b   7.57303282
_cell_length_c   9.45181490
_cell_angle_alpha   89.98804209
_cell_angle_beta   89.96420784
_cell_angle_gamma   119.82096596
_symmetry_Int_Tables_number   1
_chemical_formula_structural   Tm3LuGa18Ir5Pt
_chemical_formula_sum   'Tm3 Lu1 Ga18 Ir5 Pt1'
_cell_volume   470.27813212
_cell_formula_units_Z   1
loop_
 _symmetry_equiv_pos_site_id
 _symmetry_equiv_pos_as_xyz
  1  'x, y, z'
loop_
 _atom_site_type_symbol
 _atom_site_label
 _atom_site_symmetry_multiplicity
 _atom_site_fract_x
 _atom_site_fract_y
 _atom_site_fract_z
 _atom_site_occupancy
  Tm  Tm0  1  0.002800  0.329276  0.248910  1
  Tm  Tm1  1  0.670614  0.997083  0.751059  1
  Tm  Tm2  1  0.330330  0.004047  0.249019  1
  Lu  Lu3  1  0.995921  0.669801  0.751185  1
  Ga  Ga4  1  0.129691  0.128337  0.750044  1
  Ga  Ga5  1  0.871490  0.869993  0.249843  1
  Ga  Ga6  1  0.002216  0.335693  0.582797  1
  Ga  Ga7  1  0.004700  0.667907  0.418206  1
  Ga  Ga8  1  0.001286  0.664635  0.080077  1
  Ga  Ga9  1  0.335083  0.998001  0.919241  1
  Ga  Ga10  1  0.998591  0.335693  0.918498  1
  Ga  Ga11  1  0.664771  0.000939  0.081014  1
  Ga  Ga12  1  0.664955  0.997696  0.417671  1
  Ga  Ga13  1  0.331847  0.995043  0.582640  1
  Ga  Ga14  1  0.330774  0.330887  0.067679  1
  Ga  Ga15  1  0.669767  0.669557  0.931907  1
  Ga  Ga16  1  0.669459  0.671956  0.571932  1
  Ga  Ga17  1  0.328305  0.331244  0.428619  1
  Ga  Ga18  1  0.339648  0.548053  0.750463  1
  Ga  Ga19  1  0.660873  0.455815  0.247729  1
  Ga  Ga20  1  0.544588  0.339161  0.752040  1
  Ga  Ga21  1  0.451786  0.660051  0.249465  1
  Ir  Ir22  1  0.329179  0.670974  0.500127  1
  Ir  Ir23  1  0.328487  0.671315  0.999880  1
  Ir  Ir24  1  0.671497  0.328273  0.999876  1
  Ir  Ir25  1  0.000168  0.999881  0.500151  1
  Ir  Ir26  1  0.999948  0.000086  0.999839  1
  Pt  Pt27  1  0.671227  0.328599  0.500091  1
