# generated using pymatgen
data_Hf3ZrScSn3
_symmetry_space_group_name_H-M   'P 1'
_cell_length_a   8.48211696
_cell_length_b   8.49268325
_cell_length_c   5.80019500
_cell_angle_alpha   90.00000000
_cell_angle_beta   90.00000000
_cell_angle_gamma   120.04119588
_symmetry_Int_Tables_number   1
_chemical_formula_structural   Hf3ZrScSn3
_chemical_formula_sum   'Hf6 Zr2 Sc2 Sn6'
_cell_volume   361.69455976
_cell_formula_units_Z   2
loop_
 _symmetry_equiv_pos_site_id
 _symmetry_equiv_pos_as_xyz
  1  'x, y, z'
loop_
 _atom_site_type_symbol
 _atom_site_label
 _atom_site_symmetry_multiplicity
 _atom_site_fract_x
 _atom_site_fract_y
 _atom_site_fract_z
 _atom_site_occupancy
  Hf  Hf0  1  0.000000  0.248897  0.750000  1
  Hf  Hf1  1  0.000000  0.755928  0.250000  1
  Hf  Hf2  1  0.667736  0.332236  0.000206  1
  Hf  Hf3  1  0.332264  0.664501  0.000206  1
  Hf  Hf4  1  0.332264  0.664501  0.499794  1
  Hf  Hf5  1  0.667736  0.332236  0.499794  1
  Zr  Zr6  1  0.240805  0.241952  0.250000  1
  Zr  Zr7  1  0.759195  0.001147  0.250000  1
  Sc  Sc8  1  0.756193  0.756988  0.750000  1
  Sc  Sc9  1  0.243807  0.000796  0.750000  1
  Sn  Sn10  1  0.393061  0.391430  0.750000  1
  Sn  Sn11  1  0.606939  0.998368  0.750000  1
  Sn  Sn12  1  0.000000  0.610054  0.750000  1
  Sn  Sn13  1  0.608157  0.607479  0.250000  1
  Sn  Sn14  1  0.391843  0.999322  0.250000  1
  Sn  Sn15  1  0.000000  0.394162  0.250000  1
