# generated using pymatgen
data_Ac4Br5N2Cl
_symmetry_space_group_name_H-M   'P 1'
_cell_length_a   8.81113794
_cell_length_b   8.94961235
_cell_length_c   8.94961207
_cell_angle_alpha   137.03523210
_cell_angle_beta   129.78694287
_cell_angle_gamma   68.43896352
_symmetry_Int_Tables_number   1
_chemical_formula_structural   Ac4Br5N2Cl
_chemical_formula_sum   'Ac4 Br5 N2 Cl1'
_cell_volume   362.69807054
_cell_formula_units_Z   1
loop_
 _symmetry_equiv_pos_site_id
 _symmetry_equiv_pos_as_xyz
  1  'x, y, z'
loop_
 _atom_site_type_symbol
 _atom_site_label
 _atom_site_symmetry_multiplicity
 _atom_site_fract_x
 _atom_site_fract_y
 _atom_site_fract_z
 _atom_site_occupancy
  Ac  Ac0  1  0.921102  0.590765  0.330337  1
  Ac  Ac1  1  0.069291  0.407588  0.661703  1
  Ac  Ac2  1  0.737560  0.910188  0.827372  1
  Ac  Ac3  1  0.265904  0.093413  0.172491  1
  Br  Br4  1  0.496737  0.249123  0.747948  1
  Br  Br5  1  0.496737  0.748790  0.247614  1
  Br  Br6  1  0.988200  0.803279  0.184920  1
  Br  Br7  1  0.010768  0.196532  0.814238  1
  Br  Br8  1  0.390408  0.697191  0.693217  1
  N  N9  1  0.999464  0.250335  0.248256  1
  N  N10  1  0.999464  0.751208  0.749129  1
  Cl  Cl11  1  0.624364  0.301589  0.322775  1
