# generated using pymatgen
data_PrNd(Hg2Pd)2
_symmetry_space_group_name_H-M   'P 1'
_cell_length_a   5.57664721
_cell_length_b   5.57664694
_cell_length_c   8.33038900
_cell_angle_alpha   90.00000000
_cell_angle_beta   90.00000000
_cell_angle_gamma   133.97582293
_symmetry_Int_Tables_number   1
_chemical_formula_structural   PrNd(Hg2Pd)2
_chemical_formula_sum   'Pr1 Nd1 Hg4 Pd2'
_cell_volume   186.43291486
_cell_formula_units_Z   1
loop_
 _symmetry_equiv_pos_site_id
 _symmetry_equiv_pos_as_xyz
  1  'x, y, z'
loop_
 _atom_site_type_symbol
 _atom_site_label
 _atom_site_symmetry_multiplicity
 _atom_site_fract_x
 _atom_site_fract_y
 _atom_site_fract_z
 _atom_site_occupancy
  Pr  Pr0  1  0.930750  0.069250  0.250000  1
  Nd  Nd1  1  0.069498  0.930502  0.750000  1
  Hg  Hg2  1  0.639012  0.360988  0.448999  1
  Hg  Hg3  1  0.360952  0.639048  0.552054  1
  Hg  Hg4  1  0.639012  0.360988  0.051001  1
  Hg  Hg5  1  0.360952  0.639048  0.947946  1
  Pd  Pd6  1  0.223420  0.776580  0.250000  1
  Pd  Pd7  1  0.776402  0.223598  0.750000  1
