# generated using pymatgen
data_Nb8CdTcS16
_symmetry_space_group_name_H-M   'P 1'
_cell_length_a   6.72127100
_cell_length_b   6.72127001
_cell_length_c   12.87206500
_cell_angle_alpha   90.00000000
_cell_angle_beta   90.00000000
_cell_angle_gamma   120.00000979
_symmetry_Int_Tables_number   1
_chemical_formula_structural   Nb8CdTcS16
_chemical_formula_sum   'Nb8 Cd1 Tc1 S16'
_cell_volume   503.59517662
_cell_formula_units_Z   1
loop_
 _symmetry_equiv_pos_site_id
 _symmetry_equiv_pos_as_xyz
  1  'x, y, z'
loop_
 _atom_site_type_symbol
 _atom_site_label
 _atom_site_symmetry_multiplicity
 _atom_site_fract_x
 _atom_site_fract_y
 _atom_site_fract_z
 _atom_site_occupancy
  Nb  Nb0  1  0.000000  0.000000  0.235868  1
  Nb  Nb1  1  0.000000  0.000000  0.764132  1
  Nb  Nb2  1  0.505294  0.494706  0.233619  1
  Nb  Nb3  1  0.505294  0.010588  0.233619  1
  Nb  Nb4  1  0.989412  0.494706  0.233619  1
  Nb  Nb5  1  0.494706  0.505294  0.766381  1
  Nb  Nb6  1  0.494706  0.989412  0.766381  1
  Nb  Nb7  1  0.010588  0.505294  0.766381  1
  Cd  Cd8  1  0.000000  0.000000  0.500000  1
  Tc  Tc9  1  0.000000  0.000000  0.000000  1
  S  S10  1  0.333333  0.666667  0.889673  1
  S  S11  1  0.666667  0.333333  0.110327  1
  S  S12  1  0.666667  0.333333  0.357945  1
  S  S13  1  0.333333  0.666667  0.642055  1
  S  S14  1  0.169219  0.830781  0.356031  1
  S  S15  1  0.169219  0.338438  0.356031  1
  S  S16  1  0.661562  0.830781  0.356031  1
  S  S17  1  0.830781  0.169219  0.643969  1
  S  S18  1  0.830781  0.661562  0.643969  1
  S  S19  1  0.338438  0.169219  0.643969  1
  S  S20  1  0.835855  0.164145  0.886081  1
  S  S21  1  0.835855  0.671712  0.886081  1
  S  S22  1  0.328288  0.164145  0.886081  1
  S  S23  1  0.164145  0.835855  0.113919  1
  S  S24  1  0.164145  0.328288  0.113919  1
  S  S25  1  0.671712  0.835855  0.113919  1
