# generated using pymatgen
data_Li7Tm8CdPb8
_symmetry_space_group_name_H-M   'P 1'
_cell_length_a   9.56435700
_cell_length_b   9.55600541
_cell_length_c   7.19946822
_cell_angle_alpha   90.08181735
_cell_angle_beta   90.00012957
_cell_angle_gamma   120.02887235
_symmetry_Int_Tables_number   1
_chemical_formula_structural   Li7Tm8CdPb8
_chemical_formula_sum   'Li7 Tm8 Cd1 Pb8'
_cell_volume   569.68685435
_cell_formula_units_Z   1
loop_
 _symmetry_equiv_pos_site_id
 _symmetry_equiv_pos_as_xyz
  1  'x, y, z'
loop_
 _atom_site_type_symbol
 _atom_site_label
 _atom_site_symmetry_multiplicity
 _atom_site_fract_x
 _atom_site_fract_y
 _atom_site_fract_z
 _atom_site_occupancy
  Li  Li0  1  0.836674  0.168332  0.712574  1
  Li  Li1  1  0.331070  0.662138  0.819119  1
  Li  Li2  1  0.666404  0.332806  0.317311  1
  Li  Li3  1  0.665840  0.833936  0.214172  1
  Li  Li4  1  0.166741  0.333478  0.212257  1
  Li  Li5  1  0.168095  0.833937  0.214170  1
  Li  Li6  1  0.331655  0.168333  0.712571  1
  Tm  Tm7  1  0.999403  0.998805  0.999446  1
  Tm  Tm8  1  0.002066  0.004133  0.497568  1
  Tm  Tm9  1  0.511217  0.488948  0.006823  1
  Tm  Tm10  1  0.023865  0.509796  0.505758  1
  Tm  Tm11  1  0.489118  0.978236  0.500383  1
  Tm  Tm12  1  0.510549  0.021101  0.011970  1
  Tm  Tm13  1  0.977732  0.488946  0.006827  1
  Tm  Tm14  1  0.485933  0.509797  0.505764  1
  Cd  Cd15  1  0.833403  0.666806  0.706623  1
  Pb  Pb16  1  0.180890  0.840426  0.775166  1
  Pb  Pb17  1  0.659211  0.318424  0.748876  1
  Pb  Pb18  1  0.332903  0.665805  0.244152  1
  Pb  Pb19  1  0.834384  0.167738  0.271172  1
  Pb  Pb20  1  0.166387  0.332782  0.768089  1
  Pb  Pb21  1  0.333355  0.167728  0.271179  1
  Pb  Pb22  1  0.833571  0.667141  0.260868  1
  Pb  Pb23  1  0.659536  0.840427  0.775166  1
