# generated using pymatgen
data_Sm6Cd22AgP
_symmetry_space_group_name_H-M   'P 1'
_cell_length_a   9.98396794
_cell_length_b   10.00305745
_cell_length_c   9.98396709
_cell_angle_alpha   59.93693193
_cell_angle_beta   60.30629043
_cell_angle_gamma   59.93693102
_symmetry_Int_Tables_number   1
_chemical_formula_structural   Sm6Cd22AgP
_chemical_formula_sum   'Sm6 Cd22 Ag1 P1'
_cell_volume   705.99676837
_cell_formula_units_Z   1
loop_
 _symmetry_equiv_pos_site_id
 _symmetry_equiv_pos_as_xyz
  1  'x, y, z'
loop_
 _atom_site_type_symbol
 _atom_site_label
 _atom_site_symmetry_multiplicity
 _atom_site_fract_x
 _atom_site_fract_y
 _atom_site_fract_z
 _atom_site_occupancy
  Sm  Sm0  1  0.799824  0.798939  0.200175  1
  Sm  Sm1  1  0.201894  0.798106  0.201894  1
  Sm  Sm2  1  0.799825  0.201061  0.200176  1
  Sm  Sm3  1  0.200176  0.201061  0.799825  1
  Sm  Sm4  1  0.798106  0.201894  0.798106  1
  Sm  Sm5  1  0.200175  0.798939  0.799824  1
  Cd  Cd6  1  0.829605  0.837373  0.495650  1
  Cd  Cd7  1  0.834574  0.494102  0.834574  1
  Cd  Cd8  1  0.495650  0.837373  0.829605  1
  Cd  Cd9  1  0.834574  0.836750  0.834574  1
  Cd  Cd10  1  0.170395  0.162627  0.504350  1
  Cd  Cd11  1  0.165426  0.505898  0.165426  1
  Cd  Cd12  1  0.504350  0.162627  0.170395  1
  Cd  Cd13  1  0.165426  0.163250  0.165426  1
  Cd  Cd14  1  0.622146  0.621568  0.134718  1
  Cd  Cd15  1  0.618160  0.135238  0.618160  1
  Cd  Cd16  1  0.134718  0.621568  0.622146  1
  Cd  Cd17  1  0.618160  0.628442  0.618160  1
  Cd  Cd18  1  0.377854  0.378432  0.865282  1
  Cd  Cd19  1  0.381840  0.864762  0.381840  1
  Cd  Cd20  1  0.865282  0.378432  0.377854  1
  Cd  Cd21  1  0.381840  0.371558  0.381840  1
  Cd  Cd22  1  0.000000  0.000000  0.500000  1
  Cd  Cd23  1  0.000000  0.500000  0.500000  1
  Cd  Cd24  1  0.500000  0.500000  0.000000  1
  Cd  Cd25  1  0.000000  0.500000  0.000000  1
  Cd  Cd26  1  0.500000  0.000000  0.000000  1
  Cd  Cd27  1  0.500000  0.500000  0.500000  1
  Ag  Ag28  1  0.500000  0.000000  0.500000  1
  P  P29  1  0.000000  0.000000  0.000000  1
