# generated using pymatgen
data_Yb2Mn3P7Ir9
_symmetry_space_group_name_H-M   'P 1'
_cell_length_a   9.40052500
_cell_length_b   9.40052435
_cell_length_c   3.88768600
_cell_angle_alpha   90.00000000
_cell_angle_beta   90.00000000
_cell_angle_gamma   119.99999266
_symmetry_Int_Tables_number   1
_chemical_formula_structural   Yb2Mn3P7Ir9
_chemical_formula_sum   'Yb2 Mn3 P7 Ir9'
_cell_volume   297.52675937
_cell_formula_units_Z   1
loop_
 _symmetry_equiv_pos_site_id
 _symmetry_equiv_pos_as_xyz
  1  'x, y, z'
loop_
 _atom_site_type_symbol
 _atom_site_label
 _atom_site_symmetry_multiplicity
 _atom_site_fract_x
 _atom_site_fract_y
 _atom_site_fract_z
 _atom_site_occupancy
  Yb  Yb0  1  0.333333  0.666667  0.000000  1
  Yb  Yb1  1  0.666667  0.333333  0.500000  1
  Mn  Mn2  1  0.107524  0.842094  0.000000  1
  Mn  Mn3  1  0.734570  0.892476  0.000000  1
  Mn  Mn4  1  0.157906  0.265430  0.000000  1
  P  P5  1  0.888040  0.591251  0.000000  1
  P  P6  1  0.703212  0.111960  0.000000  1
  P  P7  1  0.408749  0.296788  0.000000  1
  P  P8  1  0.278747  0.876117  0.500000  1
  P  P9  1  0.597370  0.721253  0.500000  1
  P  P10  1  0.123883  0.402630  0.500000  1
  P  P11  1  0.000000  0.000000  0.000000  1
  Ir  Ir12  1  0.630541  0.568313  0.000000  1
  Ir  Ir13  1  0.937772  0.369459  0.000000  1
  Ir  Ir14  1  0.431687  0.062228  0.000000  1
  Ir  Ir15  1  0.056625  0.612482  0.500000  1
  Ir  Ir16  1  0.555857  0.943375  0.500000  1
  Ir  Ir17  1  0.387518  0.444143  0.500000  1
  Ir  Ir18  1  0.865671  0.771333  0.500000  1
  Ir  Ir19  1  0.905662  0.134329  0.500000  1
  Ir  Ir20  1  0.228667  0.094338  0.500000  1
