# generated using pymatgen
data_Ce6Mn3Al18Si6Ru5
_symmetry_space_group_name_H-M   'P 1'
_cell_length_a   8.74907879
_cell_length_b   8.74907954
_cell_length_c   9.38320834
_cell_angle_alpha   90.13209634
_cell_angle_beta   89.86790441
_cell_angle_gamma   119.92277996
_symmetry_Int_Tables_number   1
_chemical_formula_structural   Ce6Mn3Al18Si6Ru5
_chemical_formula_sum   'Ce6 Mn3 Al18 Si6 Ru5'
_cell_volume   622.50457926
_cell_formula_units_Z   1
loop_
 _symmetry_equiv_pos_site_id
 _symmetry_equiv_pos_as_xyz
  1  'x, y, z'
loop_
 _atom_site_type_symbol
 _atom_site_label
 _atom_site_symmetry_multiplicity
 _atom_site_fract_x
 _atom_site_fract_y
 _atom_site_fract_z
 _atom_site_occupancy
  Ce  Ce0  1  0.805871  0.615034  0.751433  1
  Ce  Ce1  1  0.192501  0.807499  0.247956  1
  Ce  Ce2  1  0.615034  0.805871  0.248567  1
  Ce  Ce3  1  0.384966  0.194129  0.751433  1
  Ce  Ce4  1  0.807499  0.192501  0.752044  1
  Ce  Ce5  1  0.194129  0.384966  0.248567  1
  Mn  Mn6  1  0.000000  0.000000  0.500000  1
  Mn  Mn7  1  0.000000  0.000000  0.000000  1
  Mn  Mn8  1  0.500000  0.500000  0.000000  1
  Al  Al9  1  0.162077  0.323825  0.576998  1
  Al  Al10  1  0.676175  0.837923  0.576998  1
  Al  Al11  1  0.161394  0.838606  0.577552  1
  Al  Al12  1  0.838386  0.161614  0.077470  1
  Al  Al13  1  0.838606  0.161394  0.422448  1
  Al  Al14  1  0.834726  0.674862  0.076474  1
  Al  Al15  1  0.325138  0.165274  0.076474  1
  Al  Al16  1  0.674862  0.834726  0.923526  1
  Al  Al17  1  0.165274  0.325138  0.923526  1
  Al  Al18  1  0.837923  0.676175  0.423002  1
  Al  Al19  1  0.564325  0.128559  0.250182  1
  Al  Al20  1  0.436638  0.563362  0.753920  1
  Al  Al21  1  0.128559  0.564325  0.749818  1
  Al  Al22  1  0.871441  0.435675  0.250182  1
  Al  Al23  1  0.563362  0.436638  0.246080  1
  Al  Al24  1  0.435675  0.871441  0.749818  1
  Al  Al25  1  0.161614  0.838386  0.922530  1
  Al  Al26  1  0.323825  0.162077  0.423002  1
  Si  Si27  1  0.333232  0.666768  0.468483  1
  Si  Si28  1  0.663007  0.336993  0.972110  1
  Si  Si29  1  0.666768  0.333232  0.531517  1
  Si  Si30  1  0.336993  0.663007  0.027890  1
  Si  Si31  1  0.999774  0.000226  0.249875  1
  Si  Si32  1  0.000226  0.999774  0.750125  1
  Ru  Ru33  1  0.500000  0.000000  0.500000  1
  Ru  Ru34  1  0.000000  0.500000  0.000000  1
  Ru  Ru35  1  0.000000  0.500000  0.500000  1
  Ru  Ru36  1  0.500000  0.500000  0.500000  1
  Ru  Ru37  1  0.500000  0.000000  0.000000  1
