# generated using pymatgen
data_Tb11Y(OsPt)2
_symmetry_space_group_name_H-M   'P 1'
_cell_length_a   6.45394446
_cell_length_b   7.29183917
_cell_length_c   9.32053800
_cell_angle_alpha   90.00566527
_cell_angle_beta   90.03847568
_cell_angle_gamma   89.91984162
_symmetry_Int_Tables_number   1
_chemical_formula_structural   Tb11Y(OsPt)2
_chemical_formula_sum   'Tb11 Y1 Os2 Pt2'
_cell_volume   438.63447349
_cell_formula_units_Z   1
loop_
 _symmetry_equiv_pos_site_id
 _symmetry_equiv_pos_as_xyz
  1  'x, y, z'
loop_
 _atom_site_type_symbol
 _atom_site_label
 _atom_site_symmetry_multiplicity
 _atom_site_fract_x
 _atom_site_fract_y
 _atom_site_fract_z
 _atom_site_occupancy
  Tb  Tb0  1  0.124119  0.040248  0.250180  1
  Tb  Tb1  1  0.623955  0.459960  0.750139  1
  Tb  Tb2  1  0.369370  0.532688  0.249954  1
  Tb  Tb3  1  0.869101  0.967415  0.750199  1
  Tb  Tb4  1  0.674234  0.182491  0.059571  1
  Tb  Tb5  1  0.174029  0.317543  0.940726  1
  Tb  Tb6  1  0.827685  0.674183  0.435828  1
  Tb  Tb7  1  0.327597  0.825935  0.564130  1
  Tb  Tb8  1  0.327970  0.825449  0.935912  1
  Tb  Tb9  1  0.827995  0.674295  0.064156  1
  Tb  Tb10  1  0.174153  0.317827  0.558904  1
  Y  Y11  1  0.673649  0.182157  0.441133  1
  Os  Os12  1  0.958202  0.387282  0.249843  1
  Os  Os13  1  0.457975  0.113003  0.749748  1
  Pt  Pt14  1  0.544668  0.888656  0.249739  1
  Pt  Pt15  1  0.045297  0.610868  0.749838  1
