# generated using pymatgen
data_Sc12Mn3Pb2
_symmetry_space_group_name_H-M   'P 1'
_cell_length_a   7.85864242
_cell_length_b   7.85864241
_cell_length_c   7.85864237
_cell_angle_alpha   108.58986745
_cell_angle_beta   108.58986787
_cell_angle_gamma   111.24867834
_symmetry_Int_Tables_number   1
_chemical_formula_structural   Sc12Mn3Pb2
_chemical_formula_sum   'Sc12 Mn3 Pb2'
_cell_volume   373.34129731
_cell_formula_units_Z   1
loop_
 _symmetry_equiv_pos_site_id
 _symmetry_equiv_pos_as_xyz
  1  'x, y, z'
loop_
 _atom_site_type_symbol
 _atom_site_label
 _atom_site_symmetry_multiplicity
 _atom_site_fract_x
 _atom_site_fract_y
 _atom_site_fract_z
 _atom_site_occupancy
  Sc  Sc0  1  0.306273  0.306273  0.612547  1
  Sc  Sc1  1  0.693727  0.693727  0.387453  1
  Sc  Sc2  1  0.693727  0.306273  0.000000  1
  Sc  Sc3  1  0.306273  0.693727  0.000000  1
  Sc  Sc4  1  0.192262  0.425207  0.232945  1
  Sc  Sc5  1  0.807738  0.574793  0.767055  1
  Sc  Sc6  1  0.192262  0.959313  0.767055  1
  Sc  Sc7  1  0.959313  0.192262  0.767055  1
  Sc  Sc8  1  0.807738  0.040687  0.232945  1
  Sc  Sc9  1  0.040687  0.807738  0.232945  1
  Sc  Sc10  1  0.425207  0.192262  0.232945  1
  Sc  Sc11  1  0.574793  0.807738  0.767055  1
  Mn  Mn12  1  0.381008  0.381008  0.000000  1
  Mn  Mn13  1  0.618992  0.618992  0.000000  1
  Mn  Mn14  1  0.000000  0.000000  0.000000  1
  Pb  Pb15  1  0.000000  0.500000  0.500000  1
  Pb  Pb16  1  0.500000  0.000000  0.500000  1
