# generated using pymatgen
data_LiTbY8Cd3Ru
_symmetry_space_group_name_H-M   'P 1'
_cell_length_a   9.49812002
_cell_length_b   9.49584029
_cell_length_c   9.75918728
_cell_angle_alpha   90.00000156
_cell_angle_beta   89.94927584
_cell_angle_gamma   119.99205722
_symmetry_Int_Tables_number   1
_chemical_formula_structural   LiTbY8Cd3Ru
_chemical_formula_sum   'Li2 Tb2 Y16 Cd6 Ru2'
_cell_volume   762.34203193
_cell_formula_units_Z   2
loop_
 _symmetry_equiv_pos_site_id
 _symmetry_equiv_pos_as_xyz
  1  'x, y, z'
loop_
 _atom_site_type_symbol
 _atom_site_label
 _atom_site_symmetry_multiplicity
 _atom_site_fract_x
 _atom_site_fract_y
 _atom_site_fract_z
 _atom_site_occupancy
  Li  Li0  1  0.999842  0.999921  0.500084  1
  Li  Li1  1  0.999973  0.999987  0.000063  1
  Tb  Tb2  1  0.208270  0.791850  0.441048  1
  Tb  Tb3  1  0.208270  0.416421  0.441048  1
  Y  Y4  1  0.584261  0.792131  0.441584  1
  Y  Y5  1  0.791948  0.208082  0.558545  1
  Y  Y6  1  0.791948  0.583864  0.558545  1
  Y  Y7  1  0.416140  0.208069  0.558550  1
  Y  Y8  1  0.791984  0.208081  0.941409  1
  Y  Y9  1  0.791984  0.583902  0.941409  1
  Y  Y10  1  0.416057  0.208028  0.941405  1
  Y  Y11  1  0.208035  0.792056  0.058411  1
  Y  Y12  1  0.208035  0.415979  0.058411  1
  Y  Y13  1  0.584011  0.792006  0.058465  1
  Y  Y14  1  0.542443  0.457553  0.249958  1
  Y  Y15  1  0.542443  0.084891  0.249958  1
  Y  Y16  1  0.915135  0.457568  0.250069  1
  Y  Y17  1  0.457665  0.542458  0.749988  1
  Y  Y18  1  0.457665  0.915206  0.749988  1
  Y  Y19  1  0.084808  0.542404  0.749956  1
  Cd  Cd20  1  0.891558  0.108306  0.249978  1
  Cd  Cd21  1  0.891558  0.783253  0.249978  1
  Cd  Cd22  1  0.216887  0.108444  0.249889  1
  Cd  Cd23  1  0.108298  0.891724  0.750175  1
  Cd  Cd24  1  0.108298  0.216573  0.750175  1
  Cd  Cd25  1  0.783348  0.891673  0.749984  1
  Ru  Ru26  1  0.332454  0.666228  0.251033  1
  Ru  Ru27  1  0.666683  0.333341  0.749896  1
