# generated using pymatgen
data_Cs8Na4YEr3Sb8
_symmetry_space_group_name_H-M   'P 1'
_cell_length_a   11.64212067
_cell_length_b   11.64211908
_cell_length_c   7.58474132
_cell_angle_alpha   89.97468171
_cell_angle_beta   90.02531255
_cell_angle_gamma   100.01687044
_symmetry_Int_Tables_number   1
_chemical_formula_structural   Cs8Na4YEr3Sb8
_chemical_formula_sum   'Cs8 Na4 Y1 Er3 Sb8'
_cell_volume   1012.35708429
_cell_formula_units_Z   1
loop_
 _symmetry_equiv_pos_site_id
 _symmetry_equiv_pos_as_xyz
  1  'x, y, z'
loop_
 _atom_site_type_symbol
 _atom_site_label
 _atom_site_symmetry_multiplicity
 _atom_site_fract_x
 _atom_site_fract_y
 _atom_site_fract_z
 _atom_site_occupancy
  Cs  Cs0  1  0.070645  0.429281  0.249955  1
  Cs  Cs1  1  0.429281  0.070645  0.750045  1
  Cs  Cs2  1  0.929571  0.570614  0.750134  1
  Cs  Cs3  1  0.570614  0.929571  0.249866  1
  Cs  Cs4  1  0.677056  0.322745  0.212767  1
  Cs  Cs5  1  0.822954  0.177080  0.712881  1
  Cs  Cs6  1  0.322745  0.677056  0.787233  1
  Cs  Cs7  1  0.177080  0.822954  0.287119  1
  Na  Na8  1  0.381757  0.381757  0.000000  1
  Na  Na9  1  0.118201  0.118201  0.500000  1
  Na  Na10  1  0.618136  0.618136  0.000000  1
  Na  Na11  1  0.882007  0.882007  0.500000  1
  Y  Y12  1  0.630890  0.630890  0.500000  1
  Er  Er13  1  0.130552  0.130552  0.000000  1
  Er  Er14  1  0.369109  0.369109  0.500000  1
  Er  Er15  1  0.869666  0.869666  0.000000  1
  Sb  Sb16  1  0.842365  0.659007  0.248612  1
  Sb  Sb17  1  0.659007  0.842365  0.751388  1
  Sb  Sb18  1  0.158840  0.341110  0.749944  1
  Sb  Sb19  1  0.341110  0.158840  0.250056  1
  Sb  Sb20  1  0.905325  0.094735  0.209274  1
  Sb  Sb21  1  0.594267  0.404085  0.710098  1
  Sb  Sb22  1  0.094735  0.905325  0.790726  1
  Sb  Sb23  1  0.404085  0.594267  0.289902  1
