# generated using pymatgen
data_LiLu4Co19Si5P7
_symmetry_space_group_name_H-M   'P 1'
_cell_length_a   3.64508600
_cell_length_b   10.31135679
_cell_length_c   11.79260652
_cell_angle_alpha   89.91567706
_cell_angle_beta   90.00000000
_cell_angle_gamma   90.00000000
_symmetry_Int_Tables_number   1
_chemical_formula_structural   LiLu4Co19Si5P7
_chemical_formula_sum   'Li1 Lu4 Co19 Si5 P7'
_cell_volume   443.23386109
_cell_formula_units_Z   1
loop_
 _symmetry_equiv_pos_site_id
 _symmetry_equiv_pos_as_xyz
  1  'x, y, z'
loop_
 _atom_site_type_symbol
 _atom_site_label
 _atom_site_symmetry_multiplicity
 _atom_site_fract_x
 _atom_site_fract_y
 _atom_site_fract_z
 _atom_site_occupancy
  Li  Li0  1  0.250000  0.704785  0.990000  1
  Lu  Lu1  1  0.250000  0.583399  0.701785  1
  Lu  Lu2  1  0.250000  0.918081  0.203554  1
  Lu  Lu3  1  0.750000  0.417233  0.297461  1
  Lu  Lu4  1  0.750000  0.077972  0.796782  1
  Co  Co5  1  0.250000  0.784140  0.498842  1
  Co  Co6  1  0.750000  0.287412  0.010180  1
  Co  Co7  1  0.750000  0.216562  0.510496  1
  Co  Co8  1  0.250000  0.407983  0.491896  1
  Co  Co9  1  0.250000  0.089897  0.989378  1
  Co  Co10  1  0.750000  0.593405  0.517093  1
  Co  Co11  1  0.750000  0.908499  0.014259  1
  Co  Co12  1  0.250000  0.214681  0.173814  1
  Co  Co13  1  0.250000  0.285780  0.675408  1
  Co  Co14  1  0.750000  0.780343  0.821788  1
  Co  Co15  1  0.750000  0.721939  0.328910  1
  Co  Co16  1  0.250000  0.882872  0.699119  1
  Co  Co17  1  0.250000  0.623598  0.197257  1
  Co  Co18  1  0.750000  0.115012  0.298536  1
  Co  Co19  1  0.750000  0.384118  0.798671  1
  Co  Co20  1  0.250000  0.470726  0.927408  1
  Co  Co21  1  0.250000  0.025286  0.426596  1
  Co  Co22  1  0.750000  0.538401  0.065174  1
  Co  Co23  1  0.750000  0.963712  0.565401  1
  Si  Si24  1  0.250000  0.417974  0.109823  1
  Si  Si25  1  0.250000  0.085964  0.607799  1
  Si  Si26  1  0.250000  0.268039  0.871296  1
  Si  Si27  1  0.250000  0.229393  0.372260  1
  Si  Si28  1  0.250000  0.601575  0.392537  1
  P  P29  1  0.750000  0.578804  0.882572  1
  P  P30  1  0.750000  0.919616  0.385923  1
  P  P31  1  0.750000  0.732174  0.138619  1
  P  P32  1  0.750000  0.770625  0.631791  1
  P  P33  1  0.250000  0.899178  0.890014  1
  P  P34  1  0.750000  0.399169  0.609497  1
  P  P35  1  0.750000  0.101652  0.108065  1
