# generated using pymatgen
data_Y5Co7(AsRu)12
_symmetry_space_group_name_H-M   'P 1'
_cell_length_a   12.81008200
_cell_length_b   12.81008062
_cell_length_c   3.91022200
_cell_angle_alpha   90.00000000
_cell_angle_beta   90.00000000
_cell_angle_gamma   119.99999323
_symmetry_Int_Tables_number   1
_chemical_formula_structural   Y5Co7(AsRu)12
_chemical_formula_sum   'Y5 Co7 As12 Ru12'
_cell_volume   555.69418090
_cell_formula_units_Z   1
loop_
 _symmetry_equiv_pos_site_id
 _symmetry_equiv_pos_as_xyz
  1  'x, y, z'
loop_
 _atom_site_type_symbol
 _atom_site_label
 _atom_site_symmetry_multiplicity
 _atom_site_fract_x
 _atom_site_fract_y
 _atom_site_fract_z
 _atom_site_occupancy
  Y  Y0  1  0.666667  0.333333  0.000000  1
  Y  Y1  1  0.333333  0.666667  0.000000  1
  Y  Y2  1  0.183918  0.181829  0.500000  1
  Y  Y3  1  0.818171  0.002089  0.500000  1
  Y  Y4  1  0.997911  0.816082  0.500000  1
  Co  Co5  1  0.196013  0.823496  0.000000  1
  Co  Co6  1  0.627484  0.803987  0.000000  1
  Co  Co7  1  0.176504  0.372516  0.000000  1
  Co  Co8  1  0.716731  0.722191  0.500000  1
  Co  Co9  1  0.277809  0.994540  0.500000  1
  Co  Co10  1  0.005460  0.283269  0.500000  1
  Co  Co11  1  0.000000  0.000000  0.000000  1
  As  As12  1  0.361986  0.365392  0.000000  1
  As  As13  1  0.634608  0.996593  0.000000  1
  As  As14  1  0.003407  0.638014  0.000000  1
  As  As15  1  0.839165  0.316097  0.500000  1
  As  As16  1  0.683903  0.523069  0.500000  1
  As  As17  1  0.476931  0.160835  0.500000  1
  As  As18  1  0.317353  0.839157  0.500000  1
  As  As19  1  0.521804  0.682647  0.500000  1
  As  As20  1  0.160843  0.478196  0.500000  1
  As  As21  1  0.819359  0.826378  0.000000  1
  As  As22  1  0.173622  0.992980  0.000000  1
  As  As23  1  0.007020  0.180641  0.000000  1
  Ru  Ru24  1  0.553180  0.561706  0.000000  1
  Ru  Ru25  1  0.438294  0.991473  0.000000  1
  Ru  Ru26  1  0.008527  0.446820  0.000000  1
  Ru  Ru27  1  0.826358  0.196388  0.000000  1
  Ru  Ru28  1  0.803612  0.629970  0.000000  1
  Ru  Ru29  1  0.370030  0.173642  0.000000  1
  Ru  Ru30  1  0.641628  0.123668  0.500000  1
  Ru  Ru31  1  0.876332  0.517962  0.500000  1
  Ru  Ru32  1  0.482038  0.358372  0.500000  1
  Ru  Ru33  1  0.129530  0.648705  0.500000  1
  Ru  Ru34  1  0.519174  0.870470  0.500000  1
  Ru  Ru35  1  0.351295  0.480826  0.500000  1
