# generated using pymatgen
data_Ac4TbUS10
_symmetry_space_group_name_H-M   'P 1'
_cell_length_a   7.76429900
_cell_length_b   8.30236900
_cell_length_c   12.31922000
_cell_angle_alpha   90.00000000
_cell_angle_beta   90.00000000
_cell_angle_gamma   90.00000000
_symmetry_Int_Tables_number   1
_chemical_formula_structural   Ac4TbUS10
_chemical_formula_sum   'Ac8 Tb2 U2 S20'
_cell_volume   794.12248758
_cell_formula_units_Z   2
loop_
 _symmetry_equiv_pos_site_id
 _symmetry_equiv_pos_as_xyz
  1  'x, y, z'
loop_
 _atom_site_type_symbol
 _atom_site_label
 _atom_site_symmetry_multiplicity
 _atom_site_fract_x
 _atom_site_fract_y
 _atom_site_fract_z
 _atom_site_occupancy
  Ac  Ac0  1  0.535070  0.502822  0.325319  1
  Ac  Ac1  1  0.964930  0.997178  0.825319  1
  Ac  Ac2  1  0.469545  0.999913  0.674398  1
  Ac  Ac3  1  0.030455  0.500087  0.174398  1
  Ac  Ac4  1  0.469545  0.500087  0.674398  1
  Ac  Ac5  1  0.030455  0.999913  0.174398  1
  Ac  Ac6  1  0.535070  0.997178  0.325319  1
  Ac  Ac7  1  0.964930  0.502822  0.825319  1
  Tb  Tb8  1  0.066930  0.750000  0.494709  1
  Tb  Tb9  1  0.433070  0.750000  0.994709  1
  U  U10  1  0.951001  0.250000  0.504473  1
  U  U11  1  0.548999  0.250000  0.004473  1
  S  S12  1  0.838554  0.975259  0.588980  1
  S  S13  1  0.661446  0.524741  0.088980  1
  S  S14  1  0.162770  0.455912  0.411489  1
  S  S15  1  0.337230  0.044088  0.911489  1
  S  S16  1  0.162770  0.044088  0.411489  1
  S  S17  1  0.337230  0.455912  0.911489  1
  S  S18  1  0.838554  0.524741  0.588980  1
  S  S19  1  0.661446  0.975259  0.088980  1
  S  S20  1  0.837885  0.750000  0.312492  1
  S  S21  1  0.662115  0.750000  0.812492  1
  S  S22  1  0.158725  0.250000  0.682572  1
  S  S23  1  0.341275  0.250000  0.182572  1
  S  S24  1  0.445206  0.750000  0.495592  1
  S  S25  1  0.054794  0.750000  0.995592  1
  S  S26  1  0.557134  0.250000  0.502916  1
  S  S27  1  0.942866  0.250000  0.002916  1
  S  S28  1  0.184662  0.750000  0.710085  1
  S  S29  1  0.315338  0.750000  0.210085  1
  S  S30  1  0.821191  0.250000  0.296792  1
  S  S31  1  0.678809  0.250000  0.796792  1
