# generated using pymatgen
data_LaTh3Re15Si8Mo
_symmetry_space_group_name_H-M   'P 1'
_cell_length_a   4.19254900
_cell_length_b   7.29512010
_cell_length_c   15.70283968
_cell_angle_alpha   89.95155062
_cell_angle_beta   90.00000000
_cell_angle_gamma   90.00000000
_symmetry_Int_Tables_number   1
_chemical_formula_structural   LaTh3Re15Si8Mo
_chemical_formula_sum   'La1 Th3 Re15 Si8 Mo1'
_cell_volume   480.27351192
_cell_formula_units_Z   1
loop_
 _symmetry_equiv_pos_site_id
 _symmetry_equiv_pos_as_xyz
  1  'x, y, z'
loop_
 _atom_site_type_symbol
 _atom_site_label
 _atom_site_symmetry_multiplicity
 _atom_site_fract_x
 _atom_site_fract_y
 _atom_site_fract_z
 _atom_site_occupancy
  La  La0  1  0.000000  0.587084  0.118529  1
  Th  Th1  1  0.000000  0.414941  0.881806  1
  Th  Th2  1  0.500000  0.085078  0.382890  1
  Th  Th3  1  0.500000  0.914949  0.618053  1
  Re  Re4  1  0.000000  0.856659  0.944528  1
  Re  Re5  1  0.500000  0.643540  0.450347  1
  Re  Re6  1  0.500000  0.356379  0.550955  1
  Re  Re7  1  0.000000  0.741899  0.322436  1
  Re  Re8  1  0.000000  0.262471  0.678035  1
  Re  Re9  1  0.500000  0.231055  0.182127  1
  Re  Re10  1  0.500000  0.759255  0.819864  1
  Re  Re11  1  0.000000  0.431645  0.420748  1
  Re  Re12  1  0.000000  0.570474  0.581049  1
  Re  Re13  1  0.500000  0.933119  0.079401  1
  Re  Re14  1  0.500000  0.066901  0.916525  1
  Re  Re15  1  0.000000  0.003049  0.208424  1
  Re  Re16  1  0.000000  0.005234  0.792557  1
  Re  Re17  1  0.500000  0.496432  0.295694  1
  Re  Re18  1  0.500000  0.504476  0.704680  1
  Si  Si19  1  0.000000  0.828853  0.475525  1
  Si  Si20  1  0.000000  0.171732  0.525082  1
  Si  Si21  1  0.500000  0.324712  0.025389  1
  Si  Si22  1  0.500000  0.671386  0.974117  1
  Si  Si23  1  0.000000  0.306756  0.274896  1
  Si  Si24  1  0.000000  0.698750  0.727096  1
  Si  Si25  1  0.500000  0.800675  0.227212  1
  Si  Si26  1  0.500000  0.200185  0.771205  1
  Mo  Mo27  1  0.000000  0.132310  0.050827  1
