# generated using pymatgen
data_PrMgAgAu4
_symmetry_space_group_name_H-M   'P 1'
_cell_length_a   5.79924664
_cell_length_b   5.79924600
_cell_length_c   5.79924587
_cell_angle_alpha   103.03810025
_cell_angle_beta   103.03810162
_cell_angle_gamma   123.28487130
_symmetry_Int_Tables_number   1
_chemical_formula_structural   PrMgAgAu4
_chemical_formula_sum   'Pr1 Mg1 Ag1 Au4'
_cell_volume   143.47594561
_cell_formula_units_Z   1
loop_
 _symmetry_equiv_pos_site_id
 _symmetry_equiv_pos_as_xyz
  1  'x, y, z'
loop_
 _atom_site_type_symbol
 _atom_site_label
 _atom_site_symmetry_multiplicity
 _atom_site_fract_x
 _atom_site_fract_y
 _atom_site_fract_z
 _atom_site_occupancy
  Pr  Pr0  1  0.000000  0.000000  0.000000  1
  Mg  Mg1  1  0.750000  0.250000  0.500000  1
  Ag  Ag2  1  0.250000  0.750000  0.500000  1
  Au  Au3  1  0.300721  0.300721  0.601441  1
  Au  Au4  1  0.699279  0.699279  0.398559  1
  Au  Au5  1  0.699279  0.300721  0.000000  1
  Au  Au6  1  0.300721  0.699279  0.000000  1
