# generated using pymatgen
data_Tm4Al23ZnPt9
_symmetry_space_group_name_H-M   'P 1'
_cell_length_a   7.51355231
_cell_length_b   7.52916838
_cell_length_c   13.11069847
_cell_angle_alpha   84.58906453
_cell_angle_beta   79.02588273
_cell_angle_gamma   59.91204550
_symmetry_Int_Tables_number   1
_chemical_formula_structural   Tm4Al23ZnPt9
_chemical_formula_sum   'Tm4 Al23 Zn1 Pt9'
_cell_volume   630.01003727
_cell_formula_units_Z   1
loop_
 _symmetry_equiv_pos_site_id
 _symmetry_equiv_pos_as_xyz
  1  'x, y, z'
loop_
 _atom_site_type_symbol
 _atom_site_label
 _atom_site_symmetry_multiplicity
 _atom_site_fract_x
 _atom_site_fract_y
 _atom_site_fract_z
 _atom_site_occupancy
  Tm  Tm0  1  0.394935  0.167068  0.808879  1
  Tm  Tm1  1  0.606414  0.831717  0.190246  1
  Tm  Tm2  1  0.733306  0.499831  0.808873  1
  Tm  Tm3  1  0.266685  0.501291  0.191773  1
  Al  Al4  1  0.321765  0.161556  0.054800  1
  Al  Al5  1  0.146824  0.832068  0.562251  1
  Al  Al6  1  0.853317  0.167966  0.437958  1
  Al  Al7  1  0.480379  0.166415  0.559366  1
  Al  Al8  1  0.520005  0.833454  0.440689  1
  Al  Al9  1  0.218454  0.165196  0.327606  1
  Al  Al10  1  0.782286  0.834487  0.671973  1
  Al  Al11  1  0.436034  0.506616  0.672749  1
  Al  Al12  1  0.563615  0.493777  0.327770  1
  Al  Al13  1  0.108746  0.160156  0.671218  1
  Al  Al14  1  0.890689  0.839856  0.329347  1
  Al  Al15  1  0.353527  0.499363  0.943681  1
  Al  Al16  1  0.647430  0.505823  0.054777  1
  Al  Al17  1  0.016326  0.168076  0.952874  1
  Al  Al18  1  0.980559  0.831259  0.044913  1
  Al  Al19  1  0.186709  0.499471  0.440909  1
  Al  Al20  1  0.813524  0.500567  0.559379  1
  Al  Al21  1  0.733889  0.164557  0.183053  1
  Al  Al22  1  0.265427  0.835762  0.817337  1
  Al  Al23  1  0.057580  0.631758  0.817838  1
  Al  Al24  1  0.938750  0.369105  0.184179  1
  Al  Al25  1  0.851778  0.041214  0.818518  1
  Al  Al26  1  0.145076  0.958047  0.183788  1
  Zn  Zn27  1  0.685083  0.833648  0.938052  1
  Pt  Pt28  1  0.120271  0.491279  0.639344  1
  Pt  Pt29  1  0.880001  0.508880  0.361183  1
  Pt  Pt30  1  0.656450  0.179082  0.001050  1
  Pt  Pt31  1  0.336466  0.827913  0.001726  1
  Pt  Pt32  1  0.537011  0.166906  0.361028  1
  Pt  Pt33  1  0.462838  0.833125  0.639163  1
  Pt  Pt34  1  0.778421  0.175545  0.638077  1
  Pt  Pt35  1  0.221896  0.824317  0.362555  1
  Pt  Pt36  1  0.007533  0.492849  0.001079  1
