# generated using pymatgen
data_Y5Er5Al3Ru
_symmetry_space_group_name_H-M   'P 1'
_cell_length_a   9.50322822
_cell_length_b   9.50073983
_cell_length_c   9.59294915
_cell_angle_alpha   89.99999904
_cell_angle_beta   90.09255490
_cell_angle_gamma   119.99133800
_symmetry_Int_Tables_number   1
_chemical_formula_structural   Y5Er5Al3Ru
_chemical_formula_sum   'Y10 Er10 Al6 Ru2'
_cell_volume   750.15067383
_cell_formula_units_Z   2
loop_
 _symmetry_equiv_pos_site_id
 _symmetry_equiv_pos_as_xyz
  1  'x, y, z'
loop_
 _atom_site_type_symbol
 _atom_site_label
 _atom_site_symmetry_multiplicity
 _atom_site_fract_x
 _atom_site_fract_y
 _atom_site_fract_z
 _atom_site_occupancy
  Y  Y0  1  0.414016  0.207007  0.939614  1
  Y  Y1  1  0.205412  0.793237  0.060199  1
  Y  Y2  1  0.205412  0.412176  0.060199  1
  Y  Y3  1  0.587881  0.793941  0.060040  1
  Y  Y4  1  0.540363  0.460296  0.251804  1
  Y  Y5  1  0.540363  0.080066  0.251804  1
  Y  Y6  1  0.919336  0.459668  0.251091  1
  Y  Y7  1  0.460717  0.540095  0.748093  1
  Y  Y8  1  0.460717  0.920621  0.748093  1
  Y  Y9  1  0.078429  0.539214  0.748659  1
  Er  Er10  1  0.999866  0.999933  0.500215  1
  Er  Er11  1  0.999315  0.999658  0.999713  1
  Er  Er12  1  0.206916  0.792888  0.440041  1
  Er  Er13  1  0.206916  0.414029  0.440041  1
  Er  Er14  1  0.585984  0.792993  0.439993  1
  Er  Er15  1  0.792939  0.207156  0.560599  1
  Er  Er16  1  0.792939  0.585782  0.560599  1
  Er  Er17  1  0.414577  0.207288  0.560239  1
  Er  Er18  1  0.793121  0.207553  0.938828  1
  Er  Er19  1  0.793121  0.585567  0.938828  1
  Al  Al20  1  0.889066  0.110908  0.249847  1
  Al  Al21  1  0.889066  0.778159  0.249847  1
  Al  Al22  1  0.221794  0.110898  0.250028  1
  Al  Al23  1  0.110978  0.889050  0.750026  1
  Al  Al24  1  0.110978  0.221927  0.750026  1
  Al  Al25  1  0.778102  0.889050  0.749741  1
  Ru  Ru26  1  0.333465  0.666733  0.253022  1
  Ru  Ru27  1  0.668213  0.334106  0.748774  1
