# generated using pymatgen
data_Be2Nb6SiAs
_symmetry_space_group_name_H-M   'P 1'
_cell_length_a   6.67404963
_cell_length_b   6.67466363
_cell_length_c   3.44581200
_cell_angle_alpha   90.00000000
_cell_angle_beta   90.00000000
_cell_angle_gamma   89.95024444
_symmetry_Int_Tables_number   1
_chemical_formula_structural   Be2Nb6SiAs
_chemical_formula_sum   'Be2 Nb6 Si1 As1'
_cell_volume   153.50065443
_cell_formula_units_Z   1
loop_
 _symmetry_equiv_pos_site_id
 _symmetry_equiv_pos_as_xyz
  1  'x, y, z'
loop_
 _atom_site_type_symbol
 _atom_site_label
 _atom_site_symmetry_multiplicity
 _atom_site_fract_x
 _atom_site_fract_y
 _atom_site_fract_z
 _atom_site_occupancy
  Be  Be0  1  0.619333  0.877650  0.000000  1
  Be  Be1  1  0.123427  0.625517  0.000000  1
  Nb  Nb2  1  0.996975  0.991928  0.000000  1
  Nb  Nb3  1  0.493716  0.505783  0.000000  1
  Nb  Nb4  1  0.674526  0.167732  0.500000  1
  Nb  Nb5  1  0.182949  0.328495  0.500000  1
  Nb  Nb6  1  0.823353  0.688157  0.500000  1
  Nb  Nb7  1  0.323432  0.816686  0.500000  1
  Si  Si8  1  0.381004  0.111657  0.000000  1
  As  As9  1  0.881286  0.386395  0.000000  1
