# generated using pymatgen
data_CeDy2P4Pd7
_symmetry_space_group_name_H-M   'P 1'
_cell_length_a   7.93099531
_cell_length_b   7.93099668
_cell_length_c   9.46503300
_cell_angle_alpha   55.66755148
_cell_angle_beta   55.66754475
_cell_angle_gamma   29.20635928
_symmetry_Int_Tables_number   1
_chemical_formula_structural   CeDy2P4Pd7
_chemical_formula_sum   'Ce1 Dy2 P4 Pd7'
_cell_volume   236.06714648
_cell_formula_units_Z   1
loop_
 _symmetry_equiv_pos_site_id
 _symmetry_equiv_pos_as_xyz
  1  'x, y, z'
loop_
 _atom_site_type_symbol
 _atom_site_label
 _atom_site_symmetry_multiplicity
 _atom_site_fract_x
 _atom_site_fract_y
 _atom_site_fract_z
 _atom_site_occupancy
  Ce  Ce0  1  0.500000  0.500000  0.500000  1
  Dy  Dy1  1  0.820338  0.820338  0.176543  1
  Dy  Dy2  1  0.179662  0.179662  0.823457  1
  P  P3  1  0.394078  0.394078  0.319632  1
  P  P4  1  0.605922  0.605922  0.680368  1
  P  P5  1  0.840816  0.840816  0.752525  1
  P  P6  1  0.159184  0.159184  0.247475  1
  Pd  Pd7  1  0.668734  0.668734  0.074085  1
  Pd  Pd8  1  0.009898  0.009898  0.212329  1
  Pd  Pd9  1  0.990102  0.990102  0.787671  1
  Pd  Pd10  1  0.500000  0.500000  0.000000  1
  Pd  Pd11  1  0.194444  0.194444  0.470870  1
  Pd  Pd12  1  0.805556  0.805556  0.529130  1
  Pd  Pd13  1  0.331266  0.331266  0.925915  1
