# generated using pymatgen
data_Er2Fe10P7W2
_symmetry_space_group_name_H-M   'P 1'
_cell_length_a   9.12189566
_cell_length_b   9.02989411
_cell_length_c   3.66291100
_cell_angle_alpha   90.00000000
_cell_angle_beta   90.00000000
_cell_angle_gamma   119.86376711
_symmetry_Int_Tables_number   1
_chemical_formula_structural   Er2Fe10P7W2
_chemical_formula_sum   'Er2 Fe10 P7 W2'
_cell_volume   261.64913799
_cell_formula_units_Z   1
loop_
 _symmetry_equiv_pos_site_id
 _symmetry_equiv_pos_as_xyz
  1  'x, y, z'
loop_
 _atom_site_type_symbol
 _atom_site_label
 _atom_site_symmetry_multiplicity
 _atom_site_fract_x
 _atom_site_fract_y
 _atom_site_fract_z
 _atom_site_occupancy
  Er  Er0  1  0.662792  0.333512  0.500000  1
  Er  Er1  1  0.338815  0.664976  0.000000  1
  Fe  Fe2  1  0.725051  0.880355  0.000000  1
  Fe  Fe3  1  0.945872  0.378076  0.000000  1
  Fe  Fe4  1  0.155928  0.273057  0.000000  1
  Fe  Fe5  1  0.389345  0.439472  0.500000  1
  Fe  Fe6  1  0.116728  0.836581  0.000000  1
  Fe  Fe7  1  0.427594  0.052197  0.000000  1
  Fe  Fe8  1  0.043063  0.610195  0.500000  1
  Fe  Fe9  1  0.564093  0.949340  0.500000  1
  Fe  Fe10  1  0.632712  0.577242  0.000000  1
  Fe  Fe11  1  0.878512  0.787166  0.500000  1
  P  P12  1  0.416251  0.308456  0.000000  1
  P  P13  1  0.289297  0.873909  0.500000  1
  P  P14  1  0.695571  0.112419  0.000000  1
  P  P15  1  0.599622  0.712211  0.500000  1
  P  P16  1  0.879332  0.590093  0.000000  1
  P  P17  1  0.126992  0.411780  0.500000  1
  P  P18  1  0.994974  0.990237  0.000000  1
  W  W19  1  0.220432  0.100216  0.500000  1
  W  W20  1  0.897026  0.118505  0.500000  1
