# generated using pymatgen
data_Zr2Fe2Ni8Mo2P7
_symmetry_space_group_name_H-M   'P 1'
_cell_length_a   9.05114898
_cell_length_b   9.04249744
_cell_length_c   3.64497600
_cell_angle_alpha   90.00000000
_cell_angle_beta   90.00000000
_cell_angle_gamma   119.58121418
_symmetry_Int_Tables_number   1
_chemical_formula_structural   Zr2Fe2Ni8Mo2P7
_chemical_formula_sum   'Zr2 Fe2 Ni8 Mo2 P7'
_cell_volume   259.43866159
_cell_formula_units_Z   1
loop_
 _symmetry_equiv_pos_site_id
 _symmetry_equiv_pos_as_xyz
  1  'x, y, z'
loop_
 _atom_site_type_symbol
 _atom_site_label
 _atom_site_symmetry_multiplicity
 _atom_site_fract_x
 _atom_site_fract_y
 _atom_site_fract_z
 _atom_site_occupancy
  Zr  Zr0  1  0.999642  0.006062  0.000000  1
  Zr  Zr1  1  0.331147  0.662829  0.500000  1
  Fe  Fe2  1  0.231543  0.944099  0.500000  1
  Fe  Fe3  1  0.054091  0.280784  0.500000  1
  Ni  Ni4  1  0.292156  0.391631  0.000000  1
  Ni  Ni5  1  0.102618  0.705713  0.000000  1
  Ni  Ni6  1  0.383532  0.167720  0.000000  1
  Ni  Ni7  1  0.790859  0.625040  0.000000  1
  Ni  Ni8  1  0.828291  0.208859  0.000000  1
  Ni  Ni9  1  0.721559  0.778578  0.500000  1
  Ni  Ni10  1  0.576337  0.117575  0.500000  1
  Ni  Ni11  1  0.598832  0.897491  0.000000  1
  Mo  Mo12  1  0.885935  0.456016  0.500000  1
  Mo  Mo13  1  0.541414  0.426894  0.500000  1
  P  P14  1  0.666263  0.332856  0.000000  1
  P  P15  1  0.082471  0.447442  0.000000  1
  P  P16  1  0.250550  0.203833  0.500000  1
  P  P17  1  0.787181  0.047802  0.500000  1
  P  P18  1  0.962098  0.750287  0.500000  1
  P  P19  1  0.547110  0.631069  0.000000  1
  P  P20  1  0.366370  0.917425  0.000000  1
