# generated using pymatgen
data_TaBe8Nb2Ru
_symmetry_space_group_name_H-M   'P 1'
_cell_length_a   4.52833000
_cell_length_b   4.52833066
_cell_length_c   7.44684400
_cell_angle_alpha   90.00000000
_cell_angle_beta   90.00000000
_cell_angle_gamma   120.00000980
_symmetry_Int_Tables_number   1
_chemical_formula_structural   TaBe8Nb2Ru
_chemical_formula_sum   'Ta1 Be8 Nb2 Ru1'
_cell_volume   132.24493419
_cell_formula_units_Z   1
loop_
 _symmetry_equiv_pos_site_id
 _symmetry_equiv_pos_as_xyz
  1  'x, y, z'
loop_
 _atom_site_type_symbol
 _atom_site_label
 _atom_site_symmetry_multiplicity
 _atom_site_fract_x
 _atom_site_fract_y
 _atom_site_fract_z
 _atom_site_occupancy
  Ta  Ta0  1  0.666667  0.333333  0.057219  1
  Be  Be1  1  0.000000  0.000000  0.502910  1
  Be  Be2  1  0.000000  0.000000  0.000556  1
  Be  Be3  1  0.661385  0.830692  0.246819  1
  Be  Be4  1  0.169308  0.830692  0.246819  1
  Be  Be5  1  0.169308  0.338615  0.246819  1
  Be  Be6  1  0.337610  0.168806  0.753029  1
  Be  Be7  1  0.831194  0.168806  0.753029  1
  Be  Be8  1  0.831194  0.662390  0.753029  1
  Nb  Nb9  1  0.666667  0.333333  0.432771  1
  Nb  Nb10  1  0.333333  0.666667  0.571862  1
  Ru  Ru11  1  0.333333  0.666667  0.935140  1
