# generated using pymatgen
data_YbAlWO5
_symmetry_space_group_name_H-M   'P 1'
_cell_length_a   9.04189000
_cell_length_b   6.57756478
_cell_length_c   7.68708025
_cell_angle_alpha   61.76989118
_cell_angle_beta   90.00000000
_cell_angle_gamma   90.00000000
_symmetry_Int_Tables_number   1
_chemical_formula_structural   YbAlWO5
_chemical_formula_sum   'Yb4 Al4 W4 O20'
_cell_volume   402.79937817
_cell_formula_units_Z   4
loop_
 _symmetry_equiv_pos_site_id
 _symmetry_equiv_pos_as_xyz
  1  'x, y, z'
loop_
 _atom_site_type_symbol
 _atom_site_label
 _atom_site_symmetry_multiplicity
 _atom_site_fract_x
 _atom_site_fract_y
 _atom_site_fract_z
 _atom_site_occupancy
  Yb  Yb0  1  0.661650  0.684824  0.310502  1
  Yb  Yb1  1  0.838350  0.684824  0.810502  1
  Yb  Yb2  1  0.338350  0.315176  0.689498  1
  Yb  Yb3  1  0.161650  0.315176  0.189498  1
  Al  Al4  1  0.187892  0.759067  0.752474  1
  Al  Al5  1  0.687892  0.240933  0.747526  1
  Al  Al6  1  0.312108  0.759067  0.252474  1
  Al  Al7  1  0.812108  0.240933  0.247526  1
  W  W8  1  0.500000  0.000000  0.500000  1
  W  W9  1  0.500000  0.500000  0.000000  1
  W  W10  1  0.000000  0.500000  0.500000  1
  W  W11  1  0.000000  0.000000  0.000000  1
  O  O12  1  0.804333  0.001341  0.868342  1
  O  O13  1  0.566423  0.257474  0.560542  1
  O  O14  1  0.918688  0.767054  0.250142  1
  O  O15  1  0.433577  0.742526  0.439458  1
  O  O16  1  0.695667  0.001341  0.368342  1
  O  O17  1  0.204563  0.504880  0.384912  1
  O  O18  1  0.418688  0.232946  0.249858  1
  O  O19  1  0.704563  0.495120  0.115088  1
  O  O20  1  0.795437  0.495120  0.615088  1
  O  O21  1  0.559278  0.291919  0.898879  1
  O  O22  1  0.940722  0.291919  0.398879  1
  O  O23  1  0.066423  0.742526  0.939458  1
  O  O24  1  0.933577  0.257474  0.060542  1
  O  O25  1  0.581312  0.767054  0.750142  1
  O  O26  1  0.059278  0.708081  0.601121  1
  O  O27  1  0.440722  0.708081  0.101121  1
  O  O28  1  0.295437  0.504880  0.884912  1
  O  O29  1  0.304333  0.998659  0.631658  1
  O  O30  1  0.081312  0.232946  0.749858  1
  O  O31  1  0.195667  0.998659  0.131658  1
