# generated using pymatgen
data_La6Nd2AlPd24
_symmetry_space_group_name_H-M   'P 1'
_cell_length_a   8.53901358
_cell_length_b   8.53901316
_cell_length_c   8.53901300
_cell_angle_alpha   90.02113613
_cell_angle_beta   89.97886387
_cell_angle_gamma   89.97886496
_symmetry_Int_Tables_number   1
_chemical_formula_structural   La6Nd2AlPd24
_chemical_formula_sum   'La6 Nd2 Al1 Pd24'
_cell_volume   622.61986557
_cell_formula_units_Z   1
loop_
 _symmetry_equiv_pos_site_id
 _symmetry_equiv_pos_as_xyz
  1  'x, y, z'
loop_
 _atom_site_type_symbol
 _atom_site_label
 _atom_site_symmetry_multiplicity
 _atom_site_fract_x
 _atom_site_fract_y
 _atom_site_fract_z
 _atom_site_occupancy
  La  La0  1  0.252964  0.252928  0.252928  1
  La  La1  1  0.747036  0.747072  0.747072  1
  La  La2  1  0.747072  0.747036  0.252928  1
  La  La3  1  0.747072  0.252928  0.747036  1
  La  La4  1  0.252928  0.252964  0.747072  1
  La  La5  1  0.252928  0.747072  0.252964  1
  Nd  Nd6  1  0.251795  0.748205  0.748205  1
  Nd  Nd7  1  0.748205  0.251795  0.251795  1
  Al  Al8  1  0.000000  0.000000  0.000000  1
  Pd  Pd9  1  0.260179  0.500476  0.999353  1
  Pd  Pd10  1  0.739821  0.499524  0.000647  1
  Pd  Pd11  1  0.999353  0.260179  0.499524  1
  Pd  Pd12  1  0.500476  0.260179  0.000647  1
  Pd  Pd13  1  0.000647  0.739821  0.500476  1
  Pd  Pd14  1  0.499524  0.739821  0.999353  1
  Pd  Pd15  1  0.500476  0.000647  0.260179  1
  Pd  Pd16  1  0.260179  0.999353  0.500476  1
  Pd  Pd17  1  0.499524  0.999353  0.739821  1
  Pd  Pd18  1  0.739821  0.000647  0.499524  1
  Pd  Pd19  1  0.999353  0.499524  0.260179  1
  Pd  Pd20  1  0.000647  0.500476  0.739821  1
  Pd  Pd21  1  0.253041  0.500724  0.500724  1
  Pd  Pd22  1  0.746959  0.499276  0.499276  1
  Pd  Pd23  1  0.500724  0.253041  0.499276  1
  Pd  Pd24  1  0.499276  0.746959  0.500724  1
  Pd  Pd25  1  0.500724  0.499276  0.253041  1
  Pd  Pd26  1  0.499276  0.500724  0.746959  1
  Pd  Pd27  1  0.291084  0.999289  0.999289  1
  Pd  Pd28  1  0.708916  0.000711  0.000711  1
  Pd  Pd29  1  0.999289  0.291084  0.000711  1
  Pd  Pd30  1  0.000711  0.708916  0.999289  1
  Pd  Pd31  1  0.999289  0.000711  0.291084  1
  Pd  Pd32  1  0.000711  0.999289  0.708916  1
