# generated using pymatgen
data_K3InSe3
_symmetry_space_group_name_H-M   'P 1'
_cell_length_a   8.13231400
_cell_length_b   8.37930210
_cell_length_c   16.93405114
_cell_angle_alpha   61.05701985
_cell_angle_beta   90.00000000
_cell_angle_gamma   90.00000000
_symmetry_Int_Tables_number   1
_chemical_formula_structural   K3InSe3
_chemical_formula_sum   'K12 In4 Se12'
_cell_volume   1009.81404386
_cell_formula_units_Z   4
loop_
 _symmetry_equiv_pos_site_id
 _symmetry_equiv_pos_as_xyz
  1  'x, y, z'
loop_
 _atom_site_type_symbol
 _atom_site_label
 _atom_site_symmetry_multiplicity
 _atom_site_fract_x
 _atom_site_fract_y
 _atom_site_fract_z
 _atom_site_occupancy
  K  K0  1  0.028125  0.939062  0.285891  1
  K  K1  1  0.528125  0.060938  0.214109  1
  K  K2  1  0.971875  0.060938  0.714109  1
  K  K3  1  0.471875  0.939062  0.785891  1
  K  K4  1  0.995611  0.727239  0.110129  1
  K  K5  1  0.495611  0.272761  0.389871  1
  K  K6  1  0.004389  0.272761  0.889871  1
  K  K7  1  0.504389  0.727239  0.610129  1
  K  K8  1  0.995818  0.308734  0.398616  1
  K  K9  1  0.495818  0.691266  0.101384  1
  K  K10  1  0.004182  0.691266  0.601384  1
  K  K11  1  0.504182  0.308734  0.898616  1
  In  In12  1  0.641873  0.662350  0.419437  1
  In  In13  1  0.141873  0.337650  0.080563  1
  In  In14  1  0.358127  0.337650  0.580563  1
  In  In15  1  0.858127  0.662350  0.919437  1
  Se  Se16  1  0.810553  0.351989  0.069942  1
  Se  Se17  1  0.310553  0.648011  0.430058  1
  Se  Se18  1  0.189447  0.648011  0.930058  1
  Se  Se19  1  0.689447  0.351989  0.569942  1
  Se  Se20  1  0.238595  0.345449  0.224204  1
  Se  Se21  1  0.738595  0.654551  0.275796  1
  Se  Se22  1  0.761405  0.654551  0.775796  1
  Se  Se23  1  0.261405  0.345449  0.724204  1
  Se  Se24  1  0.753664  0.943233  0.427222  1
  Se  Se25  1  0.253664  0.056767  0.072778  1
  Se  Se26  1  0.246336  0.056767  0.572778  1
  Se  Se27  1  0.746336  0.943233  0.927222  1
