# generated using pymatgen
data_K6MoAs4
_symmetry_space_group_name_H-M   'P 1'
_cell_length_a   10.35829007
_cell_length_b   10.35829053
_cell_length_c   8.23688013
_cell_angle_alpha   89.97045522
_cell_angle_beta   89.97046003
_cell_angle_gamma   119.99853533
_symmetry_Int_Tables_number   1
_chemical_formula_structural   K6MoAs4
_chemical_formula_sum   'K12 Mo2 As8'
_cell_volume   765.37753893
_cell_formula_units_Z   2
loop_
 _symmetry_equiv_pos_site_id
 _symmetry_equiv_pos_as_xyz
  1  'x, y, z'
loop_
 _atom_site_type_symbol
 _atom_site_label
 _atom_site_symmetry_multiplicity
 _atom_site_fract_x
 _atom_site_fract_y
 _atom_site_fract_z
 _atom_site_occupancy
  K  K0  1  0.468018  0.532222  0.500885  1
  K  K1  1  0.063464  0.532056  0.501839  1
  K  K2  1  0.532222  0.468018  0.000885  1
  K  K3  1  0.532056  0.063464  0.001839  1
  K  K4  1  0.853029  0.145802  0.680432  1
  K  K5  1  0.295209  0.147230  0.682279  1
  K  K6  1  0.853490  0.707638  0.679576  1
  K  K7  1  0.145802  0.853029  0.180432  1
  K  K8  1  0.707638  0.853490  0.179576  1
  K  K9  1  0.147230  0.295209  0.182279  1
  K  K10  1  0.467031  0.934611  0.500131  1
  K  K11  1  0.934611  0.467031  0.000131  1
  Mo  Mo12  1  0.666760  0.333173  0.391395  1
  Mo  Mo13  1  0.333173  0.666760  0.891395  1
  As  As14  1  0.667566  0.333722  0.685046  1
  As  As15  1  0.333722  0.667566  0.185046  1
  As  As16  1  0.795463  0.204002  0.297682  1
  As  As17  1  0.408849  0.204100  0.298093  1
  As  As18  1  0.795583  0.590982  0.296934  1
  As  As19  1  0.204002  0.795463  0.797682  1
  As  As20  1  0.590982  0.795583  0.796934  1
  As  As21  1  0.204100  0.408849  0.798093  1
