# generated using pymatgen
data_Er3TmReRu7
_symmetry_space_group_name_H-M   'P 1'
_cell_length_a   5.18699117
_cell_length_b   5.41526569
_cell_length_c   8.92981000
_cell_angle_alpha   90.00177711
_cell_angle_beta   89.99635560
_cell_angle_gamma   121.34800298
_symmetry_Int_Tables_number   1
_chemical_formula_structural   Er3TmReRu7
_chemical_formula_sum   'Er3 Tm1 Re1 Ru7'
_cell_volume   214.21367957
_cell_formula_units_Z   1
loop_
 _symmetry_equiv_pos_site_id
 _symmetry_equiv_pos_as_xyz
  1  'x, y, z'
loop_
 _atom_site_type_symbol
 _atom_site_label
 _atom_site_symmetry_multiplicity
 _atom_site_fract_x
 _atom_site_fract_y
 _atom_site_fract_z
 _atom_site_occupancy
  Er  Er0  1  0.328053  0.664157  0.433225  1
  Er  Er1  1  0.654219  0.327000  0.565157  1
  Er  Er2  1  0.654185  0.326987  0.935067  1
  Tm  Tm3  1  0.328327  0.664301  0.066738  1
  Re  Re4  1  0.686005  0.842827  0.750219  1
  Ru  Ru5  1  0.975196  0.987602  0.499469  1
  Ru  Ru6  1  0.974899  0.987466  0.000618  1
  Ru  Ru7  1  0.837950  0.167725  0.249636  1
  Ru  Ru8  1  0.836797  0.668964  0.249657  1
  Ru  Ru9  1  0.356984  0.178483  0.249678  1
  Ru  Ru10  1  0.183540  0.829204  0.750258  1
  Ru  Ru11  1  0.183846  0.355287  0.750278  1
