# generated using pymatgen
data_Ho12FeTc3
_symmetry_space_group_name_H-M   'P 1'
_cell_length_a   6.24680503
_cell_length_b   7.32362887
_cell_length_c   9.11998800
_cell_angle_alpha   90.00000000
_cell_angle_beta   90.00000000
_cell_angle_gamma   89.95328035
_symmetry_Int_Tables_number   1
_chemical_formula_structural   Ho12FeTc3
_chemical_formula_sum   'Ho12 Fe1 Tc3'
_cell_volume   417.23276113
_cell_formula_units_Z   1
loop_
 _symmetry_equiv_pos_site_id
 _symmetry_equiv_pos_as_xyz
  1  'x, y, z'
loop_
 _atom_site_type_symbol
 _atom_site_label
 _atom_site_symmetry_multiplicity
 _atom_site_fract_x
 _atom_site_fract_y
 _atom_site_fract_z
 _atom_site_occupancy
  Ho  Ho0  1  0.336234  0.676264  0.062176  1
  Ho  Ho1  1  0.161486  0.175788  0.438039  1
  Ho  Ho2  1  0.661658  0.328021  0.564944  1
  Ho  Ho3  1  0.834678  0.822237  0.935840  1
  Ho  Ho4  1  0.661658  0.328021  0.935056  1
  Ho  Ho5  1  0.834678  0.822237  0.564160  1
  Ho  Ho6  1  0.336234  0.676264  0.437824  1
  Ho  Ho7  1  0.161486  0.175788  0.061961  1
  Ho  Ho8  1  0.873312  0.540306  0.250000  1
  Ho  Ho9  1  0.626772  0.039755  0.250000  1
  Ho  Ho10  1  0.135641  0.459350  0.750000  1
  Ho  Ho11  1  0.376392  0.952913  0.750000  1
  Fe  Fe12  1  0.536687  0.616673  0.750000  1
  Tc  Tc13  1  0.039873  0.885424  0.250000  1
  Tc  Tc14  1  0.461240  0.386485  0.250000  1
  Tc  Tc15  1  0.961970  0.114476  0.750000  1
