# generated using pymatgen
data_ErTmRe3W
_symmetry_space_group_name_H-M   'P 1'
_cell_length_a   5.45438600
_cell_length_b   5.45438614
_cell_length_c   8.77380300
_cell_angle_alpha   90.00000000
_cell_angle_beta   90.00000000
_cell_angle_gamma   119.99999915
_symmetry_Int_Tables_number   1
_chemical_formula_structural   ErTmRe3W
_chemical_formula_sum   'Er2 Tm2 Re6 W2'
_cell_volume   226.05299415
_cell_formula_units_Z   2
loop_
 _symmetry_equiv_pos_site_id
 _symmetry_equiv_pos_as_xyz
  1  'x, y, z'
loop_
 _atom_site_type_symbol
 _atom_site_label
 _atom_site_symmetry_multiplicity
 _atom_site_fract_x
 _atom_site_fract_y
 _atom_site_fract_z
 _atom_site_occupancy
  Er  Er0  1  0.333333  0.666667  0.437179  1
  Er  Er1  1  0.666667  0.333333  0.562821  1
  Tm  Tm2  1  0.666667  0.333333  0.937281  1
  Tm  Tm3  1  0.333333  0.666667  0.062719  1
  Re  Re4  1  0.828603  0.171397  0.249598  1
  Re  Re5  1  0.828603  0.657206  0.249598  1
  Re  Re6  1  0.342794  0.171397  0.249598  1
  Re  Re7  1  0.171397  0.828603  0.750402  1
  Re  Re8  1  0.171397  0.342794  0.750402  1
  Re  Re9  1  0.657206  0.828603  0.750402  1
  W  W10  1  0.000000  0.000000  0.500000  1
  W  W11  1  0.000000  0.000000  0.000000  1
