# generated using pymatgen
data_Fe3Re10NiAs24
_symmetry_space_group_name_H-M   'P 1'
_cell_length_a   3.13514600
_cell_length_b   12.84562400
_cell_length_c   15.83680264
_cell_angle_alpha   90.06506703
_cell_angle_beta   90.00000000
_cell_angle_gamma   90.00000000
_symmetry_Int_Tables_number   1
_chemical_formula_structural   Fe3Re10NiAs24
_chemical_formula_sum   'Fe3 Re10 Ni1 As24'
_cell_volume   637.79366397
_cell_formula_units_Z   1
loop_
 _symmetry_equiv_pos_site_id
 _symmetry_equiv_pos_as_xyz
  1  'x, y, z'
loop_
 _atom_site_type_symbol
 _atom_site_label
 _atom_site_symmetry_multiplicity
 _atom_site_fract_x
 _atom_site_fract_y
 _atom_site_fract_z
 _atom_site_occupancy
  Fe  Fe0  1  0.000000  0.374937  0.844157  1
  Fe  Fe1  1  0.000000  0.625510  0.156127  1
  Fe  Fe2  1  0.500000  0.875774  0.654521  1
  Re  Re3  1  0.000000  0.183902  0.603510  1
  Re  Re4  1  0.000000  0.814505  0.395450  1
  Re  Re5  1  0.500000  0.684061  0.896258  1
  Re  Re6  1  0.500000  0.316473  0.102272  1
  Re  Re7  1  0.000000  0.586565  0.760653  1
  Re  Re8  1  0.000000  0.413212  0.238269  1
  Re  Re9  1  0.500000  0.085171  0.739385  1
  Re  Re10  1  0.500000  0.915277  0.262881  1
  Re  Re11  1  0.000000  0.000447  0.001107  1
  Re  Re12  1  0.500000  0.499176  0.499763  1
  Ni  Ni13  1  0.500000  0.127983  0.347885  1
  As  As14  1  0.000000  0.596079  0.596958  1
  As  As15  1  0.000000  0.403553  0.402514  1
  As  As16  1  0.500000  0.096553  0.903330  1
  As  As17  1  0.500000  0.902301  0.097194  1
  As  As18  1  0.000000  0.931956  0.760041  1
  As  As19  1  0.000000  0.066718  0.238791  1
  As  As20  1  0.500000  0.432235  0.740533  1
  As  As21  1  0.500000  0.567910  0.259379  1
  As  As22  1  0.000000  0.768855  0.240728  1
  As  As23  1  0.000000  0.231086  0.759077  1
  As  As24  1  0.500000  0.268491  0.255492  1
  As  As25  1  0.500000  0.731935  0.741513  1
  As  As26  1  0.000000  0.844937  0.906203  1
  As  As27  1  0.000000  0.157351  0.090753  1
  As  As28  1  0.500000  0.345403  0.595028  1
  As  As29  1  0.500000  0.653780  0.406231  1
  As  As30  1  0.000000  0.531106  0.920483  1
  As  As31  1  0.000000  0.469760  0.078390  1
  As  As32  1  0.500000  0.032083  0.580671  1
  As  As33  1  0.500000  0.964758  0.422543  1
  As  As34  1  0.000000  0.792772  0.559961  1
  As  As35  1  0.000000  0.207781  0.443352  1
  As  As36  1  0.500000  0.294432  0.938893  1
  As  As37  1  0.500000  0.705173  0.059705  1
