# generated using pymatgen
data_Nd6BeSi5Rh12
_symmetry_space_group_name_H-M   'P 1'
_cell_length_a   5.65752200
_cell_length_b   5.65752220
_cell_length_c   15.09169300
_cell_angle_alpha   90.00000000
_cell_angle_beta   90.00000000
_cell_angle_gamma   119.99999886
_symmetry_Int_Tables_number   1
_chemical_formula_structural   Nd6BeSi5Rh12
_chemical_formula_sum   'Nd6 Be1 Si5 Rh12'
_cell_volume   418.33202865
_cell_formula_units_Z   1
loop_
 _symmetry_equiv_pos_site_id
 _symmetry_equiv_pos_as_xyz
  1  'x, y, z'
loop_
 _atom_site_type_symbol
 _atom_site_label
 _atom_site_symmetry_multiplicity
 _atom_site_fract_x
 _atom_site_fract_y
 _atom_site_fract_z
 _atom_site_occupancy
  Nd  Nd0  1  0.666667  0.333333  0.038578  1
  Nd  Nd1  1  0.666667  0.333333  0.250000  1
  Nd  Nd2  1  0.666667  0.333333  0.461422  1
  Nd  Nd3  1  0.333333  0.666667  0.534123  1
  Nd  Nd4  1  0.333333  0.666667  0.750000  1
  Nd  Nd5  1  0.333333  0.666667  0.965877  1
  Be  Be6  1  0.000000  0.000000  0.250000  1
  Si  Si7  1  0.000000  0.000000  0.000518  1
  Si  Si8  1  0.333333  0.666667  0.250000  1
  Si  Si9  1  0.000000  0.000000  0.499482  1
  Si  Si10  1  0.000000  0.000000  0.750000  1
  Si  Si11  1  0.666667  0.333333  0.750000  1
  Rh  Rh12  1  0.162541  0.325082  0.135794  1
  Rh  Rh13  1  0.162541  0.837459  0.135794  1
  Rh  Rh14  1  0.674918  0.837459  0.135794  1
  Rh  Rh15  1  0.162541  0.325082  0.364206  1
  Rh  Rh16  1  0.162541  0.837459  0.364206  1
  Rh  Rh17  1  0.674918  0.837459  0.364206  1
  Rh  Rh18  1  0.331027  0.165513  0.632454  1
  Rh  Rh19  1  0.834487  0.165513  0.632454  1
  Rh  Rh20  1  0.834487  0.668973  0.632454  1
  Rh  Rh21  1  0.331027  0.165513  0.867546  1
  Rh  Rh22  1  0.834487  0.165513  0.867546  1
  Rh  Rh23  1  0.834487  0.668973  0.867546  1
