# generated using pymatgen
data_Y2Er4TcRu
_symmetry_space_group_name_H-M   'P 1'
_cell_length_a   6.23405800
_cell_length_b   7.37895200
_cell_length_c   9.07022200
_cell_angle_alpha   90.00000000
_cell_angle_beta   90.00000000
_cell_angle_gamma   90.00000000
_symmetry_Int_Tables_number   1
_chemical_formula_structural   Y2Er4TcRu
_chemical_formula_sum   'Y4 Er8 Tc2 Ru2'
_cell_volume   417.23760194
_cell_formula_units_Z   2
loop_
 _symmetry_equiv_pos_site_id
 _symmetry_equiv_pos_as_xyz
  1  'x, y, z'
loop_
 _atom_site_type_symbol
 _atom_site_label
 _atom_site_symmetry_multiplicity
 _atom_site_fract_x
 _atom_site_fract_y
 _atom_site_fract_z
 _atom_site_occupancy
  Y  Y0  1  0.877316  0.538810  0.250000  1
  Y  Y1  1  0.622684  0.038810  0.250000  1
  Y  Y2  1  0.129735  0.458080  0.750000  1
  Y  Y3  1  0.370265  0.958080  0.750000  1
  Er  Er4  1  0.336916  0.676291  0.063337  1
  Er  Er5  1  0.163084  0.176291  0.436663  1
  Er  Er6  1  0.661845  0.324548  0.562474  1
  Er  Er7  1  0.838155  0.824548  0.937526  1
  Er  Er8  1  0.661845  0.324548  0.937526  1
  Er  Er9  1  0.838155  0.824548  0.562474  1
  Er  Er10  1  0.336916  0.676291  0.436663  1
  Er  Er11  1  0.163084  0.176291  0.063337  1
  Tc  Tc12  1  0.044221  0.885665  0.250000  1
  Tc  Tc13  1  0.455779  0.385665  0.250000  1
  Ru  Ru14  1  0.955433  0.115769  0.750000  1
  Ru  Ru15  1  0.544567  0.615769  0.750000  1
