# generated using pymatgen
data_Sm3Si2Rh3
_symmetry_space_group_name_H-M   'P 1'
_cell_length_a   5.64826300
_cell_length_b   7.66428300
_cell_length_c   15.00089400
_cell_angle_alpha   90.00000000
_cell_angle_beta   90.00000000
_cell_angle_gamma   90.00000000
_symmetry_Int_Tables_number   1
_chemical_formula_structural   Sm3Si2Rh3
_chemical_formula_sum   'Sm12 Si8 Rh12'
_cell_volume   649.38699251
_cell_formula_units_Z   4
loop_
 _symmetry_equiv_pos_site_id
 _symmetry_equiv_pos_as_xyz
  1  'x, y, z'
loop_
 _atom_site_type_symbol
 _atom_site_label
 _atom_site_symmetry_multiplicity
 _atom_site_fract_x
 _atom_site_fract_y
 _atom_site_fract_z
 _atom_site_occupancy
  Sm  Sm0  1  0.136478  0.473817  0.891575  1
  Sm  Sm1  1  0.363522  0.973817  0.891575  1
  Sm  Sm2  1  0.611350  0.332272  0.750000  1
  Sm  Sm3  1  0.388650  0.667728  0.250000  1
  Sm  Sm4  1  0.636478  0.026183  0.391575  1
  Sm  Sm5  1  0.863522  0.526183  0.108425  1
  Sm  Sm6  1  0.863522  0.526183  0.391575  1
  Sm  Sm7  1  0.363522  0.973817  0.608425  1
  Sm  Sm8  1  0.888650  0.832272  0.750000  1
  Sm  Sm9  1  0.136478  0.473817  0.608425  1
  Sm  Sm10  1  0.636478  0.026183  0.108425  1
  Sm  Sm11  1  0.111350  0.167728  0.250000  1
  Si  Si12  1  0.370553  0.375364  0.100322  1
  Si  Si13  1  0.629447  0.624636  0.899678  1
  Si  Si14  1  0.870553  0.124636  0.899678  1
  Si  Si15  1  0.370553  0.375364  0.399678  1
  Si  Si16  1  0.870553  0.124636  0.600322  1
  Si  Si17  1  0.629447  0.624636  0.600322  1
  Si  Si18  1  0.129447  0.875364  0.399678  1
  Si  Si19  1  0.129447  0.875364  0.100322  1
  Rh  Rh20  1  0.601591  0.335290  0.962258  1
  Rh  Rh21  1  0.398409  0.664710  0.037742  1
  Rh  Rh22  1  0.581808  0.322443  0.250000  1
  Rh  Rh23  1  0.398409  0.664710  0.462258  1
  Rh  Rh24  1  0.081808  0.177557  0.750000  1
  Rh  Rh25  1  0.101591  0.164710  0.462258  1
  Rh  Rh26  1  0.418192  0.677557  0.750000  1
  Rh  Rh27  1  0.918192  0.822443  0.250000  1
  Rh  Rh28  1  0.101591  0.164710  0.037742  1
  Rh  Rh29  1  0.601591  0.335290  0.537742  1
  Rh  Rh30  1  0.898409  0.835290  0.537742  1
  Rh  Rh31  1  0.898409  0.835290  0.962258  1
