# generated using pymatgen
data_Dy2Al9Os2Rh
_symmetry_space_group_name_H-M   'P 1'
_cell_length_a   7.54850599
_cell_length_b   7.54850570
_cell_length_c   9.61745100
_cell_angle_alpha   90.00000000
_cell_angle_beta   90.00000000
_cell_angle_gamma   119.78915096
_symmetry_Int_Tables_number   1
_chemical_formula_structural   Dy2Al9Os2Rh
_chemical_formula_sum   'Dy4 Al18 Os4 Rh2'
_cell_volume   475.58857750
_cell_formula_units_Z   2
loop_
 _symmetry_equiv_pos_site_id
 _symmetry_equiv_pos_as_xyz
  1  'x, y, z'
loop_
 _atom_site_type_symbol
 _atom_site_label
 _atom_site_symmetry_multiplicity
 _atom_site_fract_x
 _atom_site_fract_y
 _atom_site_fract_z
 _atom_site_occupancy
  Dy  Dy0  1  0.996601  0.666723  0.750000  1
  Dy  Dy1  1  0.003399  0.333277  0.250000  1
  Dy  Dy2  1  0.666723  0.996601  0.750000  1
  Dy  Dy3  1  0.333277  0.003399  0.250000  1
  Al  Al4  1  0.126585  0.126585  0.750000  1
  Al  Al5  1  0.873415  0.873415  0.250000  1
  Al  Al6  1  0.002841  0.335434  0.571819  1
  Al  Al7  1  0.997159  0.664566  0.428181  1
  Al  Al8  1  0.997159  0.664566  0.071819  1
  Al  Al9  1  0.335434  0.002841  0.928181  1
  Al  Al10  1  0.002841  0.335434  0.928181  1
  Al  Al11  1  0.664566  0.997159  0.071819  1
  Al  Al12  1  0.664566  0.997159  0.428181  1
  Al  Al13  1  0.335434  0.002841  0.571819  1
  Al  Al14  1  0.337149  0.337149  0.051639  1
  Al  Al15  1  0.662851  0.662851  0.948361  1
  Al  Al16  1  0.662851  0.662851  0.551639  1
  Al  Al17  1  0.337149  0.337149  0.448361  1
  Al  Al18  1  0.336361  0.547057  0.750000  1
  Al  Al19  1  0.663639  0.452943  0.250000  1
  Al  Al20  1  0.547057  0.336361  0.750000  1
  Al  Al21  1  0.452943  0.663639  0.250000  1
  Os  Os22  1  0.672771  0.327229  0.500000  1
  Os  Os23  1  0.327229  0.672771  0.500000  1
  Os  Os24  1  0.327229  0.672771  0.000000  1
  Os  Os25  1  0.672771  0.327229  0.000000  1
  Rh  Rh26  1  0.000000  0.000000  0.500000  1
  Rh  Rh27  1  0.000000  0.000000  0.000000  1
