# generated using pymatgen
data_Yb2SmYIn2
_symmetry_space_group_name_H-M   'P 1'
_cell_length_a   5.42071600
_cell_length_b   5.42071534
_cell_length_c   6.79100200
_cell_angle_alpha   90.00000000
_cell_angle_beta   90.00000000
_cell_angle_gamma   120.00000403
_symmetry_Int_Tables_number   1
_chemical_formula_structural   Yb2SmYIn2
_chemical_formula_sum   'Yb2 Sm1 Y1 In2'
_cell_volume   172.81352484
_cell_formula_units_Z   1
loop_
 _symmetry_equiv_pos_site_id
 _symmetry_equiv_pos_as_xyz
  1  'x, y, z'
loop_
 _atom_site_type_symbol
 _atom_site_label
 _atom_site_symmetry_multiplicity
 _atom_site_fract_x
 _atom_site_fract_y
 _atom_site_fract_z
 _atom_site_occupancy
  Yb  Yb0  1  0.000000  0.000000  0.000485  1
  Yb  Yb1  1  0.000000  0.000000  0.499515  1
  Sm  Sm2  1  0.333333  0.666667  0.750000  1
  Y  Y3  1  0.666667  0.333333  0.250000  1
  In  In4  1  0.333333  0.666667  0.250000  1
  In  In5  1  0.666667  0.333333  0.750000  1
