# generated using pymatgen
data_LiLu16In3NiRh3
_symmetry_space_group_name_H-M   'P 1'
_cell_length_a   9.45769662
_cell_length_b   9.45769715
_cell_length_c   9.45769644
_cell_angle_alpha   59.69607587
_cell_angle_beta   59.69607789
_cell_angle_gamma   59.69607562
_symmetry_Int_Tables_number   1
_chemical_formula_structural   LiLu16In3NiRh3
_chemical_formula_sum   'Li1 Lu16 In3 Ni1 Rh3'
_cell_volume   594.06298494
_cell_formula_units_Z   1
loop_
 _symmetry_equiv_pos_site_id
 _symmetry_equiv_pos_as_xyz
  1  'x, y, z'
loop_
 _atom_site_type_symbol
 _atom_site_label
 _atom_site_symmetry_multiplicity
 _atom_site_fract_x
 _atom_site_fract_y
 _atom_site_fract_z
 _atom_site_occupancy
  Li  Li0  1  0.822988  0.822988  0.822988  1
  Lu  Lu1  1  0.599871  0.599871  0.599871  1
  Lu  Lu2  1  0.596881  0.596881  0.205425  1
  Lu  Lu3  1  0.596881  0.205425  0.596881  1
  Lu  Lu4  1  0.205425  0.596881  0.596881  1
  Lu  Lu5  1  0.062617  0.440347  0.440347  1
  Lu  Lu6  1  0.438380  0.062465  0.062465  1
  Lu  Lu7  1  0.440347  0.062617  0.440347  1
  Lu  Lu8  1  0.062465  0.438380  0.062465  1
  Lu  Lu9  1  0.440347  0.440347  0.062617  1
  Lu  Lu10  1  0.062465  0.062465  0.438380  1
  Lu  Lu11  1  0.186145  0.811981  0.811981  1
  Lu  Lu12  1  0.812406  0.187420  0.187420  1
  Lu  Lu13  1  0.811981  0.186145  0.811981  1
  Lu  Lu14  1  0.187420  0.812406  0.187420  1
  Lu  Lu15  1  0.811981  0.811981  0.186145  1
  Lu  Lu16  1  0.187420  0.187420  0.812406  1
  In  In17  1  0.834260  0.834260  0.502958  1
  In  In18  1  0.834260  0.502958  0.834260  1
  In  In19  1  0.502958  0.834260  0.834260  1
  Ni  Ni20  1  0.392212  0.392212  0.392212  1
  Rh  Rh21  1  0.393111  0.393111  0.824067  1
  Rh  Rh22  1  0.393111  0.824067  0.393111  1
  Rh  Rh23  1  0.824067  0.393111  0.393111  1
