# generated using pymatgen
data_La5Ga2RuRh2
_symmetry_space_group_name_H-M   'P 1'
_cell_length_a   8.67100943
_cell_length_b   8.63838629
_cell_length_c   8.64262000
_cell_angle_alpha   109.40927423
_cell_angle_beta   109.70642794
_cell_angle_gamma   109.54769885
_symmetry_Int_Tables_number   1
_chemical_formula_structural   La5Ga2RuRh2
_chemical_formula_sum   'La10 Ga4 Ru2 Rh4'
_cell_volume   496.79568353
_cell_formula_units_Z   2
loop_
 _symmetry_equiv_pos_site_id
 _symmetry_equiv_pos_as_xyz
  1  'x, y, z'
loop_
 _atom_site_type_symbol
 _atom_site_label
 _atom_site_symmetry_multiplicity
 _atom_site_fract_x
 _atom_site_fract_y
 _atom_site_fract_z
 _atom_site_occupancy
  La  La0  1  0.251561  0.690875  0.445117  1
  La  La1  1  0.744314  0.805197  0.054577  1
  La  La2  1  0.441666  0.250727  0.692294  1
  La  La3  1  0.690332  0.445157  0.251226  1
  La  La4  1  0.057675  0.749410  0.806993  1
  La  La5  1  0.804843  0.053663  0.745155  1
  La  La6  1  0.219571  0.219256  0.219115  1
  La  La7  1  0.502842  0.997558  0.281088  1
  La  La8  1  0.283700  0.504116  0.001635  1
  La  La9  1  0.004633  0.283597  0.502841  1
  Ga  Ga10  1  0.499329  0.998533  0.903548  1
  Ga  Ga11  1  0.593154  0.595005  0.594309  1
  Ga  Ga12  1  0.902963  0.499852  0.000008  1
  Ga  Ga13  1  0.998130  0.903612  0.498678  1
  Ru  Ru14  1  0.627619  0.751610  0.377117  1
  Ru  Ru15  1  0.374396  0.623999  0.750057  1
  Rh  Rh16  1  0.251294  0.124355  0.875356  1
  Rh  Rh17  1  0.751076  0.376578  0.626368  1
  Rh  Rh18  1  0.874613  0.250884  0.123536  1
  Rh  Rh19  1  0.126287  0.876020  0.250984  1
