# generated using pymatgen
data_ZrZn2Ga3Ni
_symmetry_space_group_name_H-M   'P 1'
_cell_length_a   4.13395100
_cell_length_b   4.20765400
_cell_length_c   6.61206800
_cell_angle_alpha   90.00000000
_cell_angle_beta   90.00000000
_cell_angle_gamma   90.00000000
_symmetry_Int_Tables_number   1
_chemical_formula_structural   ZrZn2Ga3Ni
_chemical_formula_sum   'Zr1 Zn2 Ga3 Ni1'
_cell_volume   115.01186768
_cell_formula_units_Z   1
loop_
 _symmetry_equiv_pos_site_id
 _symmetry_equiv_pos_as_xyz
  1  'x, y, z'
loop_
 _atom_site_type_symbol
 _atom_site_label
 _atom_site_symmetry_multiplicity
 _atom_site_fract_x
 _atom_site_fract_y
 _atom_site_fract_z
 _atom_site_occupancy
  Zr  Zr0  1  0.000000  0.000000  0.997336  1
  Zn  Zn1  1  0.000000  0.500000  0.296194  1
  Zn  Zn2  1  0.500000  0.500000  0.005196  1
  Ga  Ga3  1  0.000000  0.500000  0.697836  1
  Ga  Ga4  1  0.500000  0.000000  0.297046  1
  Ga  Ga5  1  0.500000  0.000000  0.702116  1
  Ni  Ni6  1  0.000000  0.000000  0.504274  1
