# generated using pymatgen
data_Er2MgB2Ir2Rh3
_symmetry_space_group_name_H-M   'P 1'
_cell_length_a   9.67990403
_cell_length_b   9.65276603
_cell_length_c   3.14594900
_cell_angle_alpha   90.00000000
_cell_angle_beta   90.00000000
_cell_angle_gamma   89.99033830
_symmetry_Int_Tables_number   1
_chemical_formula_structural   Er2MgB2Ir2Rh3
_chemical_formula_sum   'Er4 Mg2 B4 Ir4 Rh6'
_cell_volume   293.95070306
_cell_formula_units_Z   2
loop_
 _symmetry_equiv_pos_site_id
 _symmetry_equiv_pos_as_xyz
  1  'x, y, z'
loop_
 _atom_site_type_symbol
 _atom_site_label
 _atom_site_symmetry_multiplicity
 _atom_site_fract_x
 _atom_site_fract_y
 _atom_site_fract_z
 _atom_site_occupancy
  Er  Er0  1  0.677895  0.177329  0.000000  1
  Er  Er1  1  0.322105  0.822671  0.000000  1
  Er  Er2  1  0.177840  0.322420  0.000000  1
  Er  Er3  1  0.822160  0.677580  0.000000  1
  Mg  Mg4  1  0.000000  0.000000  0.000000  1
  Mg  Mg5  1  0.500000  0.500000  0.000000  1
  B  B6  1  0.121826  0.622376  0.000000  1
  B  B7  1  0.878174  0.377624  0.000000  1
  B  B8  1  0.623978  0.878801  0.000000  1
  B  B9  1  0.376022  0.121199  0.000000  1
  Ir  Ir10  1  0.500000  0.000000  0.500000  1
  Ir  Ir11  1  0.000000  0.500000  0.500000  1
  Ir  Ir12  1  0.224116  0.070601  0.500000  1
  Ir  Ir13  1  0.775884  0.929399  0.500000  1
  Rh  Rh14  1  0.069565  0.776395  0.500000  1
  Rh  Rh15  1  0.724537  0.429009  0.500000  1
  Rh  Rh16  1  0.930435  0.223605  0.500000  1
  Rh  Rh17  1  0.275463  0.570991  0.500000  1
  Rh  Rh18  1  0.569374  0.723116  0.500000  1
  Rh  Rh19  1  0.430626  0.276884  0.500000  1
