# generated using pymatgen
data_DyY6(LuSb2)3
_symmetry_space_group_name_H-M   'P 1'
_cell_length_a   6.26307400
_cell_length_b   8.95060862
_cell_length_c   8.95054202
_cell_angle_alpha   120.00185522
_cell_angle_beta   90.00157412
_cell_angle_gamma   89.99925905
_symmetry_Int_Tables_number   1
_chemical_formula_structural   DyY6(LuSb2)3
_chemical_formula_sum   'Dy1 Y6 Lu3 Sb6'
_cell_volume   434.52218871
_cell_formula_units_Z   1
loop_
 _symmetry_equiv_pos_site_id
 _symmetry_equiv_pos_as_xyz
  1  'x, y, z'
loop_
 _atom_site_type_symbol
 _atom_site_label
 _atom_site_symmetry_multiplicity
 _atom_site_fract_x
 _atom_site_fract_y
 _atom_site_fract_z
 _atom_site_occupancy
  Dy  Dy0  1  0.500000  0.333320  0.666658  1
  Y  Y1  1  0.750010  0.247734  0.999822  1
  Y  Y2  1  0.750000  0.752168  0.752330  1
  Y  Y3  1  0.750003  0.000194  0.247844  1
  Y  Y4  1  0.250036  0.752081  0.999815  1
  Y  Y5  1  0.250029  0.247644  0.247843  1
  Y  Y6  1  0.250028  0.000157  0.752331  1
  Lu  Lu7  1  0.499891  0.666634  0.333378  1
  Lu  Lu8  1  0.999917  0.666732  0.333367  1
  Lu  Lu9  1  0.000016  0.333354  0.666641  1
  Sb  Sb10  1  0.751251  0.610882  0.001474  1
  Sb  Sb11  1  0.751245  0.390623  0.389136  1
  Sb  Sb12  1  0.751248  0.998523  0.609380  1
  Sb  Sb13  1  0.248786  0.390589  0.001472  1
  Sb  Sb14  1  0.248769  0.610852  0.609374  1
  Sb  Sb15  1  0.248769  0.998513  0.389135  1
