# generated using pymatgen
data_Tm5Hf3(P3Ir4)4
_symmetry_space_group_name_H-M   'P 1'
_cell_length_a   12.86082400
_cell_length_b   12.86082374
_cell_length_c   3.95510600
_cell_angle_alpha   90.00000000
_cell_angle_beta   90.00000000
_cell_angle_gamma   120.00000066
_symmetry_Int_Tables_number   1
_chemical_formula_structural   Tm5Hf3(P3Ir4)4
_chemical_formula_sum   'Tm5 Hf3 P12 Ir16'
_cell_volume   566.53446792
_cell_formula_units_Z   1
loop_
 _symmetry_equiv_pos_site_id
 _symmetry_equiv_pos_as_xyz
  1  'x, y, z'
loop_
 _atom_site_type_symbol
 _atom_site_label
 _atom_site_symmetry_multiplicity
 _atom_site_fract_x
 _atom_site_fract_y
 _atom_site_fract_z
 _atom_site_occupancy
  Tm  Tm0  1  0.333333  0.666667  0.000000  1
  Tm  Tm1  1  0.666667  0.333333  0.000000  1
  Tm  Tm2  1  0.816661  0.000000  0.500000  1
  Tm  Tm3  1  0.000000  0.816661  0.500000  1
  Tm  Tm4  1  0.183339  0.183339  0.500000  1
  Hf  Hf5  1  0.449989  0.000000  0.000000  1
  Hf  Hf6  1  0.000000  0.449989  0.000000  1
  Hf  Hf7  1  0.550011  0.550011  0.000000  1
  P  P8  1  0.174654  0.000000  0.000000  1
  P  P9  1  0.000000  0.174654  0.000000  1
  P  P10  1  0.825346  0.825346  0.000000  1
  P  P11  1  0.170003  0.482974  0.500000  1
  P  P12  1  0.517026  0.687028  0.500000  1
  P  P13  1  0.312972  0.829997  0.500000  1
  P  P14  1  0.687028  0.517026  0.500000  1
  P  P15  1  0.829997  0.312972  0.500000  1
  P  P16  1  0.482974  0.170003  0.500000  1
  P  P17  1  0.651314  0.000000  0.000000  1
  P  P18  1  0.000000  0.651314  0.000000  1
  P  P19  1  0.348686  0.348686  0.000000  1
  Ir  Ir20  1  0.358092  0.494143  0.500000  1
  Ir  Ir21  1  0.505857  0.863949  0.500000  1
  Ir  Ir22  1  0.136051  0.641908  0.500000  1
  Ir  Ir23  1  0.863949  0.505857  0.500000  1
  Ir  Ir24  1  0.641908  0.136051  0.500000  1
  Ir  Ir25  1  0.494143  0.358092  0.500000  1
  Ir  Ir26  1  0.177765  0.370128  0.000000  1
  Ir  Ir27  1  0.629872  0.807638  0.000000  1
  Ir  Ir28  1  0.192362  0.822235  0.000000  1
  Ir  Ir29  1  0.807638  0.629872  0.000000  1
  Ir  Ir30  1  0.822235  0.192362  0.000000  1
  Ir  Ir31  1  0.370128  0.177765  0.000000  1
  Ir  Ir32  1  0.280696  0.000000  0.500000  1
  Ir  Ir33  1  0.000000  0.280696  0.500000  1
  Ir  Ir34  1  0.719304  0.719304  0.500000  1
  Ir  Ir35  1  0.000000  0.000000  0.000000  1
