# generated using pymatgen
data_CaNd9(In2Rh)4
_symmetry_space_group_name_H-M   'P 1'
_cell_length_a   3.77927300
_cell_length_b   8.25222955
_cell_length_c   18.67548474
_cell_angle_alpha   90.06591524
_cell_angle_beta   90.00000000
_cell_angle_gamma   90.00000000
_symmetry_Int_Tables_number   1
_chemical_formula_structural   CaNd9(In2Rh)4
_chemical_formula_sum   'Ca1 Nd9 In8 Rh4'
_cell_volume   582.43995625
_cell_formula_units_Z   1
loop_
 _symmetry_equiv_pos_site_id
 _symmetry_equiv_pos_as_xyz
  1  'x, y, z'
loop_
 _atom_site_type_symbol
 _atom_site_label
 _atom_site_symmetry_multiplicity
 _atom_site_fract_x
 _atom_site_fract_y
 _atom_site_fract_z
 _atom_site_occupancy
  Ca  Ca0  1  0.000000  0.000000  0.000000  1
  Nd  Nd1  1  0.000000  0.116121  0.411949  1
  Nd  Nd2  1  0.000000  0.883879  0.588051  1
  Nd  Nd3  1  0.000000  0.385127  0.912247  1
  Nd  Nd4  1  0.000000  0.614873  0.087753  1
  Nd  Nd5  1  0.000000  0.244608  0.221479  1
  Nd  Nd6  1  0.000000  0.755392  0.778521  1
  Nd  Nd7  1  0.000000  0.255314  0.721476  1
  Nd  Nd8  1  0.000000  0.744686  0.278524  1
  Nd  Nd9  1  0.000000  0.500000  0.500000  1
  In  In10  1  0.500000  0.432493  0.348788  1
  In  In11  1  0.500000  0.567507  0.651212  1
  In  In12  1  0.500000  0.068541  0.849250  1
  In  In13  1  0.500000  0.931459  0.150750  1
  In  In14  1  0.500000  0.289551  0.069227  1
  In  In15  1  0.500000  0.710449  0.930773  1
  In  In16  1  0.500000  0.209698  0.570133  1
  In  In17  1  0.500000  0.790302  0.429867  1
  Rh  Rh18  1  0.500000  0.017521  0.305358  1
  Rh  Rh19  1  0.500000  0.982479  0.694642  1
  Rh  Rh20  1  0.500000  0.484153  0.805273  1
  Rh  Rh21  1  0.500000  0.515847  0.194727  1
