# generated using pymatgen
data_Ba2NpPa3Te10
_symmetry_space_group_name_H-M   'P 1'
_cell_length_a   9.62444238
_cell_length_b   9.62444240
_cell_length_c   9.62025631
_cell_angle_alpha   128.36342225
_cell_angle_beta   128.36341791
_cell_angle_gamma   76.06891429
_symmetry_Int_Tables_number   1
_chemical_formula_structural   Ba2NpPa3Te10
_chemical_formula_sum   'Ba2 Np1 Pa3 Te10'
_cell_volume   532.52345613
_cell_formula_units_Z   1
loop_
 _symmetry_equiv_pos_site_id
 _symmetry_equiv_pos_as_xyz
  1  'x, y, z'
loop_
 _atom_site_type_symbol
 _atom_site_label
 _atom_site_symmetry_multiplicity
 _atom_site_fract_x
 _atom_site_fract_y
 _atom_site_fract_z
 _atom_site_occupancy
  Ba  Ba0  1  0.749993  0.750007  0.000000  1
  Ba  Ba1  1  0.249993  0.250007  0.000000  1
  Np  Np2  1  0.849345  0.650655  0.500000  1
  Pa  Pa3  1  0.653966  0.148678  0.802645  1
  Pa  Pa4  1  0.351322  0.846034  0.197355  1
  Pa  Pa5  1  0.147117  0.352883  0.500000  1
  Te  Te6  1  0.018364  0.515542  0.802330  1
  Te  Te7  1  0.716034  0.213211  0.197670  1
  Te  Te8  1  0.513847  0.720202  0.500000  1
  Te  Te9  1  0.217102  0.018550  0.500000  1
  Te  Te10  1  0.984458  0.481636  0.197670  1
  Te  Te11  1  0.286789  0.783966  0.802330  1
  Te  Te12  1  0.481450  0.282898  0.500000  1
  Te  Te13  1  0.779798  0.986153  0.500000  1
  Te  Te14  1  0.002914  0.002492  0.005406  1
  Te  Te15  1  0.497508  0.497086  0.994594  1
