# generated using pymatgen
data_Y2Sc3Si7Pt9
_symmetry_space_group_name_H-M   'P 1'
_cell_length_a   10.05803000
_cell_length_b   10.05803044
_cell_length_c   3.98037800
_cell_angle_alpha   90.00000000
_cell_angle_beta   90.00000000
_cell_angle_gamma   119.99999855
_symmetry_Int_Tables_number   1
_chemical_formula_structural   Y2Sc3Si7Pt9
_chemical_formula_sum   'Y2 Sc3 Si7 Pt9'
_cell_volume   348.72318896
_cell_formula_units_Z   1
loop_
 _symmetry_equiv_pos_site_id
 _symmetry_equiv_pos_as_xyz
  1  'x, y, z'
loop_
 _atom_site_type_symbol
 _atom_site_label
 _atom_site_symmetry_multiplicity
 _atom_site_fract_x
 _atom_site_fract_y
 _atom_site_fract_z
 _atom_site_occupancy
  Y  Y0  1  0.000000  0.000000  0.000000  1
  Y  Y1  1  0.333333  0.666667  0.500000  1
  Sc  Sc2  1  0.895134  0.456369  0.500000  1
  Sc  Sc3  1  0.561235  0.104866  0.500000  1
  Sc  Sc4  1  0.543631  0.438765  0.500000  1
  Si  Si5  1  0.245583  0.194657  0.500000  1
  Si  Si6  1  0.805343  0.050927  0.500000  1
  Si  Si7  1  0.949073  0.754417  0.500000  1
  Si  Si8  1  0.556945  0.647362  0.000000  1
  Si  Si9  1  0.352638  0.909582  0.000000  1
  Si  Si10  1  0.090418  0.443055  0.000000  1
  Si  Si11  1  0.666667  0.333333  0.000000  1
  Pt  Pt12  1  0.218805  0.935829  0.500000  1
  Pt  Pt13  1  0.064171  0.282978  0.500000  1
  Pt  Pt14  1  0.717022  0.781195  0.500000  1
  Pt  Pt15  1  0.314581  0.413348  0.000000  1
  Pt  Pt16  1  0.586652  0.901233  0.000000  1
  Pt  Pt17  1  0.098767  0.685419  0.000000  1
  Pt  Pt18  1  0.383681  0.171631  0.000000  1
  Pt  Pt19  1  0.828369  0.212050  0.000000  1
  Pt  Pt20  1  0.787950  0.616319  0.000000  1
