# generated using pymatgen
data_Nd2Dy3Si3Ag
_symmetry_space_group_name_H-M   'P 1'
_cell_length_a   7.70876100
_cell_length_b   7.72182200
_cell_length_c   15.11892900
_cell_angle_alpha   90.00000000
_cell_angle_beta   90.00000000
_cell_angle_gamma   90.00000000
_symmetry_Int_Tables_number   1
_chemical_formula_structural   Nd2Dy3Si3Ag
_chemical_formula_sum   'Nd8 Dy12 Si12 Ag4'
_cell_volume   899.96453387
_cell_formula_units_Z   4
loop_
 _symmetry_equiv_pos_site_id
 _symmetry_equiv_pos_as_xyz
  1  'x, y, z'
loop_
 _atom_site_type_symbol
 _atom_site_label
 _atom_site_symmetry_multiplicity
 _atom_site_fract_x
 _atom_site_fract_y
 _atom_site_fract_z
 _atom_site_occupancy
  Nd  Nd0  1  0.985506  0.824464  0.104206  1
  Nd  Nd1  1  0.485506  0.675536  0.395794  1
  Nd  Nd2  1  0.514494  0.324464  0.895794  1
  Nd  Nd3  1  0.014494  0.175536  0.604206  1
  Nd  Nd4  1  0.025354  0.179902  0.895382  1
  Nd  Nd5  1  0.525354  0.320098  0.604618  1
  Nd  Nd6  1  0.474646  0.679902  0.104618  1
  Nd  Nd7  1  0.974646  0.820098  0.395382  1
  Dy  Dy8  1  0.657641  0.996689  0.254574  1
  Dy  Dy9  1  0.157641  0.503311  0.245426  1
  Dy  Dy10  1  0.842359  0.496689  0.745426  1
  Dy  Dy11  1  0.342359  0.003311  0.754574  1
  Dy  Dy12  1  0.667528  0.828115  0.874588  1
  Dy  Dy13  1  0.167528  0.671885  0.625412  1
  Dy  Dy14  1  0.832472  0.328115  0.125412  1
  Dy  Dy15  1  0.332472  0.171885  0.374588  1
  Dy  Dy16  1  0.322191  0.172530  0.121083  1
  Dy  Dy17  1  0.822191  0.327470  0.378917  1
  Dy  Dy18  1  0.177809  0.672530  0.878917  1
  Dy  Dy19  1  0.677809  0.827470  0.621083  1
  Si  Si20  1  0.773382  0.624219  0.249314  1
  Si  Si21  1  0.273382  0.875781  0.250686  1
  Si  Si22  1  0.726618  0.124219  0.750686  1
  Si  Si23  1  0.226618  0.375781  0.749314  1
  Si  Si24  1  0.032328  0.115684  0.251241  1
  Si  Si25  1  0.532328  0.384316  0.248759  1
  Si  Si26  1  0.467672  0.615684  0.748759  1
  Si  Si27  1  0.967672  0.884316  0.751241  1
  Si  Si28  1  0.155210  0.468654  0.043466  1
  Si  Si29  1  0.655210  0.031346  0.456534  1
  Si  Si30  1  0.344790  0.968654  0.956534  1
  Si  Si31  1  0.844790  0.531346  0.543466  1
  Ag  Ag32  1  0.843121  0.532751  0.960642  1
  Ag  Ag33  1  0.343121  0.967249  0.539358  1
  Ag  Ag34  1  0.656879  0.032751  0.039358  1
  Ag  Ag35  1  0.156879  0.467249  0.460642  1
