# generated using pymatgen
data_EuInSn5Ir4
_symmetry_space_group_name_H-M   'P 1'
_cell_length_a   7.07900934
_cell_length_b   6.98248958
_cell_length_c   7.02084200
_cell_angle_alpha   119.49656476
_cell_angle_beta   119.95448047
_cell_angle_gamma   90.55659831
_symmetry_Int_Tables_number   1
_chemical_formula_structural   EuInSn5Ir4
_chemical_formula_sum   'Eu1 In1 Sn5 Ir4'
_cell_volume   246.21987630
_cell_formula_units_Z   1
loop_
 _symmetry_equiv_pos_site_id
 _symmetry_equiv_pos_as_xyz
  1  'x, y, z'
loop_
 _atom_site_type_symbol
 _atom_site_label
 _atom_site_symmetry_multiplicity
 _atom_site_fract_x
 _atom_site_fract_y
 _atom_site_fract_z
 _atom_site_occupancy
  Eu  Eu0  1  0.999472  0.998430  0.000000  1
  In  In1  1  0.880578  0.529999  0.000000  1
  Sn  Sn2  1  0.536089  0.873531  0.000000  1
  Sn  Sn3  1  0.466177  0.467708  0.342758  1
  Sn  Sn4  1  0.500024  0.001977  0.501985  1
  Sn  Sn5  1  0.998038  0.499991  0.498015  1
  Sn  Sn6  1  0.123418  0.124949  0.657241  1
  Ir  Ir7  1  0.592690  0.245089  0.000000  1
  Ir  Ir8  1  0.251275  0.599163  0.000000  1
  Ir  Ir9  1  0.755467  0.758931  0.358697  1
  Ir  Ir10  1  0.396768  0.400233  0.641303  1
