# generated using pymatgen
data_Gd5HoC2I11
_symmetry_space_group_name_H-M   'P 1'
_cell_length_a   9.50507549
_cell_length_b   10.79204628
_cell_length_c   15.05569000
_cell_angle_alpha   89.59685740
_cell_angle_beta   104.25252111
_cell_angle_gamma   109.71026411
_symmetry_Int_Tables_number   1
_chemical_formula_structural   Gd5HoC2I11
_chemical_formula_sum   'Gd10 Ho2 C4 I22'
_cell_volume   1404.26686127
_cell_formula_units_Z   2
loop_
 _symmetry_equiv_pos_site_id
 _symmetry_equiv_pos_as_xyz
  1  'x, y, z'
loop_
 _atom_site_type_symbol
 _atom_site_label
 _atom_site_symmetry_multiplicity
 _atom_site_fract_x
 _atom_site_fract_y
 _atom_site_fract_z
 _atom_site_occupancy
  Gd  Gd0  1  0.383144  0.477151  0.120166  1
  Gd  Gd1  1  0.616856  0.522849  0.879834  1
  Gd  Gd2  1  0.422101  0.783128  0.267477  1
  Gd  Gd3  1  0.577899  0.216872  0.732523  1
  Gd  Gd4  1  0.627456  0.578897  0.365177  1
  Gd  Gd5  1  0.372544  0.421103  0.634823  1
  Gd  Gd6  1  0.834122  0.646866  0.199810  1
  Gd  Gd7  1  0.165878  0.353134  0.800190  1
  Gd  Gd8  1  0.628907  0.846938  0.100676  1
  Gd  Gd9  1  0.371093  0.153062  0.899324  1
  Ho  Ho10  1  0.860267  0.945469  0.347346  1
  Ho  Ho11  1  0.139733  0.054531  0.652654  1
  C  C12  1  0.431397  0.343076  0.796070  1
  C  C13  1  0.568603  0.656924  0.203930  1
  C  C14  1  0.316391  0.232035  0.740121  1
  C  C15  1  0.683609  0.767965  0.259879  1
  I  I16  1  0.384877  0.307409  0.277706  1
  I  I17  1  0.615123  0.692591  0.722294  1
  I  I18  1  0.118811  0.558431  0.150738  1
  I  I19  1  0.881189  0.441569  0.849262  1
  I  I20  1  0.630139  0.373907  0.064619  1
  I  I21  1  0.369861  0.626093  0.935381  1
  I  I22  1  0.117144  0.206282  0.479186  1
  I  I23  1  0.882856  0.793718  0.520814  1
  I  I24  1  0.618740  0.036713  0.391074  1
  I  I25  1  0.381260  0.963287  0.608926  1
  I  I26  1  0.128999  0.871138  0.306840  1
  I  I27  1  0.871001  0.128862  0.693160  1
  I  I28  1  0.126222  0.532922  0.649229  1
  I  I29  1  0.873778  0.467078  0.350771  1
  I  I30  1  0.621184  0.370364  0.560538  1
  I  I31  1  0.378816  0.629636  0.439462  1
  I  I32  1  0.136594  0.219451  0.982938  1
  I  I33  1  0.863406  0.780549  0.017062  1
  I  I34  1  0.630549  0.048663  0.900265  1
  I  I35  1  0.369451  0.951337  0.099735  1
  I  I36  1  0.123733  0.889321  0.815382  1
  I  I37  1  0.876267  0.110679  0.184618  1
