# generated using pymatgen
data_HoPaFe14(SiC)3
_symmetry_space_group_name_H-M   'P 1'
_cell_length_a   6.42058163
_cell_length_b   6.42058317
_cell_length_c   6.42058186
_cell_angle_alpha   83.62012559
_cell_angle_beta   83.62012933
_cell_angle_gamma   83.62012737
_symmetry_Int_Tables_number   1
_chemical_formula_structural   HoPaFe14(SiC)3
_chemical_formula_sum   'Ho1 Pa1 Fe14 Si3 C3'
_cell_volume   260.10256773
_cell_formula_units_Z   1
loop_
 _symmetry_equiv_pos_site_id
 _symmetry_equiv_pos_as_xyz
  1  'x, y, z'
loop_
 _atom_site_type_symbol
 _atom_site_label
 _atom_site_symmetry_multiplicity
 _atom_site_fract_x
 _atom_site_fract_y
 _atom_site_fract_z
 _atom_site_occupancy
  Ho  Ho0  1  0.652344  0.652344  0.652344  1
  Pa  Pa1  1  0.347432  0.347432  0.347432  1
  Fe  Fe2  1  0.715398  0.284209  0.999328  1
  Fe  Fe3  1  0.999328  0.715398  0.284209  1
  Fe  Fe4  1  0.284209  0.999328  0.715398  1
  Fe  Fe5  1  0.999328  0.284209  0.715398  1
  Fe  Fe6  1  0.715398  0.999328  0.284209  1
  Fe  Fe7  1  0.284209  0.715398  0.999328  1
  Fe  Fe8  1  0.340745  0.860310  0.340745  1
  Fe  Fe9  1  0.340745  0.340745  0.860310  1
  Fe  Fe10  1  0.860310  0.340745  0.340745  1
  Fe  Fe11  1  0.658810  0.139822  0.658810  1
  Fe  Fe12  1  0.658810  0.658810  0.139822  1
  Fe  Fe13  1  0.139822  0.658810  0.658810  1
  Fe  Fe14  1  0.905057  0.905057  0.905057  1
  Fe  Fe15  1  0.099710  0.099710  0.099710  1
  Si  Si16  1  0.999206  0.999206  0.500332  1
  Si  Si17  1  0.500332  0.999206  0.999206  1
  Si  Si18  1  0.999206  0.500332  0.999206  1
  C  C19  1  0.501259  0.501259  0.997086  1
  C  C20  1  0.997086  0.501259  0.501259  1
  C  C21  1  0.501259  0.997086  0.501259  1
