# generated using pymatgen
data_Y6Co16NiP12Ru
_symmetry_space_group_name_H-M   'P 1'
_cell_length_a   3.70671400
_cell_length_b   10.49458800
_cell_length_c   12.21457500
_cell_angle_alpha   90.00000000
_cell_angle_beta   90.00000000
_cell_angle_gamma   90.00000000
_symmetry_Int_Tables_number   1
_chemical_formula_structural   Y6Co16NiP12Ru
_chemical_formula_sum   'Y6 Co16 Ni1 P12 Ru1'
_cell_volume   475.15229628
_cell_formula_units_Z   1
loop_
 _symmetry_equiv_pos_site_id
 _symmetry_equiv_pos_as_xyz
  1  'x, y, z'
loop_
 _atom_site_type_symbol
 _atom_site_label
 _atom_site_symmetry_multiplicity
 _atom_site_fract_x
 _atom_site_fract_y
 _atom_site_fract_z
 _atom_site_occupancy
  Y  Y0  1  0.000000  0.500000  0.523320  1
  Y  Y1  1  0.500000  0.000000  0.478361  1
  Y  Y2  1  0.500000  0.817202  0.206808  1
  Y  Y3  1  0.500000  0.182798  0.206808  1
  Y  Y4  1  0.000000  0.684822  0.794606  1
  Y  Y5  1  0.000000  0.315178  0.794606  1
  Co  Co6  1  0.000000  0.000000  0.840116  1
  Co  Co7  1  0.000000  0.000000  0.295660  1
  Co  Co8  1  0.000000  0.500000  0.987363  1
  Co  Co9  1  0.500000  0.000000  0.014511  1
  Co  Co10  1  0.500000  0.331974  0.991019  1
  Co  Co11  1  0.500000  0.668026  0.991019  1
  Co  Co12  1  0.000000  0.166346  0.005467  1
  Co  Co13  1  0.000000  0.833654  0.005467  1
  Co  Co14  1  0.500000  0.297933  0.430250  1
  Co  Co15  1  0.500000  0.702067  0.430250  1
  Co  Co16  1  0.000000  0.202490  0.568516  1
  Co  Co17  1  0.000000  0.797510  0.568516  1
  Co  Co18  1  0.500000  0.879239  0.709626  1
  Co  Co19  1  0.500000  0.120761  0.709626  1
  Co  Co20  1  0.000000  0.620384  0.291545  1
  Co  Co21  1  0.000000  0.379616  0.291545  1
  Ni  Ni22  1  0.500000  0.500000  0.703654  1
  P  P23  1  0.500000  0.500000  0.883104  1
  P  P24  1  0.000000  0.000000  0.117202  1
  P  P25  1  0.500000  0.500000  0.349431  1
  P  P26  1  0.000000  0.000000  0.656194  1
  P  P27  1  0.500000  0.309533  0.615661  1
  P  P28  1  0.500000  0.690467  0.615661  1
  P  P29  1  0.000000  0.188440  0.384162  1
  P  P30  1  0.000000  0.811560  0.384162  1
  P  P31  1  0.500000  0.849779  0.892635  1
  P  P32  1  0.500000  0.150221  0.892635  1
  P  P33  1  0.000000  0.655035  0.105567  1
  P  P34  1  0.000000  0.344965  0.105567  1
  Ru  Ru35  1  0.500000  0.500000  0.159361  1
