# generated using pymatgen
data_NpPaB8
_symmetry_space_group_name_H-M   'P 1'
_cell_length_a   7.07900993
_cell_length_b   7.07900993
_cell_length_c   4.00084400
_cell_angle_alpha   90.00000000
_cell_angle_beta   90.00000000
_cell_angle_gamma   90.80098081
_symmetry_Int_Tables_number   1
_chemical_formula_structural   NpPaB8
_chemical_formula_sum   'Np2 Pa2 B16'
_cell_volume   200.47223033
_cell_formula_units_Z   2
loop_
 _symmetry_equiv_pos_site_id
 _symmetry_equiv_pos_as_xyz
  1  'x, y, z'
loop_
 _atom_site_type_symbol
 _atom_site_label
 _atom_site_symmetry_multiplicity
 _atom_site_fract_x
 _atom_site_fract_y
 _atom_site_fract_z
 _atom_site_occupancy
  Np  Np0  1  0.310968  0.189032  0.000000  1
  Np  Np1  1  0.689032  0.810968  0.000000  1
  Pa  Pa2  1  0.810021  0.310021  0.000000  1
  Pa  Pa3  1  0.189979  0.689979  0.000000  1
  B  B4  1  0.500000  0.500000  0.800103  1
  B  B5  1  0.000000  0.000000  0.800103  1
  B  B6  1  0.500000  0.500000  0.199897  1
  B  B7  1  0.000000  0.000000  0.199897  1
  B  B8  1  0.411761  0.911761  0.500000  1
  B  B9  1  0.588239  0.088239  0.500000  1
  B  B10  1  0.913289  0.586711  0.500000  1
  B  B11  1  0.086711  0.413289  0.500000  1
  B  B12  1  0.678079  0.539896  0.500000  1
  B  B13  1  0.321921  0.460104  0.500000  1
  B  B14  1  0.178124  0.961693  0.500000  1
  B  B15  1  0.821876  0.038307  0.500000  1
  B  B16  1  0.461693  0.678124  0.500000  1
  B  B17  1  0.538307  0.321876  0.500000  1
  B  B18  1  0.039896  0.178079  0.500000  1
  B  B19  1  0.960104  0.821921  0.500000  1
