# generated using pymatgen
data_Dy2HoLuPt2
_symmetry_space_group_name_H-M   'P 1'
_cell_length_a   4.75608900
_cell_length_b   7.14019100
_cell_length_c   8.73938500
_cell_angle_alpha   90.00000000
_cell_angle_beta   90.00000000
_cell_angle_gamma   90.00000000
_symmetry_Int_Tables_number   1
_chemical_formula_structural   Dy2HoLuPt2
_chemical_formula_sum   'Dy4 Ho2 Lu2 Pt4'
_cell_volume   296.78413003
_cell_formula_units_Z   2
loop_
 _symmetry_equiv_pos_site_id
 _symmetry_equiv_pos_as_xyz
  1  'x, y, z'
loop_
 _atom_site_type_symbol
 _atom_site_label
 _atom_site_symmetry_multiplicity
 _atom_site_fract_x
 _atom_site_fract_y
 _atom_site_fract_z
 _atom_site_occupancy
  Dy  Dy0  1  0.750000  0.490416  0.833233  1
  Dy  Dy1  1  0.250000  0.011341  0.328429  1
  Dy  Dy2  1  0.750000  0.990416  0.666767  1
  Dy  Dy3  1  0.250000  0.511341  0.171571  1
  Ho  Ho4  1  0.250000  0.643755  0.579188  1
  Ho  Ho5  1  0.250000  0.143755  0.920812  1
  Lu  Lu6  1  0.750000  0.356454  0.421216  1
  Lu  Lu7  1  0.750000  0.856454  0.078784  1
  Pt  Pt8  1  0.250000  0.743329  0.910814  1
  Pt  Pt9  1  0.250000  0.243329  0.589186  1
  Pt  Pt10  1  0.750000  0.754709  0.403643  1
  Pt  Pt11  1  0.750000  0.254709  0.096357  1
