# generated using pymatgen
data_Tm3Zn3Hg2Rh
_symmetry_space_group_name_H-M   'P 1'
_cell_length_a   7.65266200
_cell_length_b   7.65266040
_cell_length_c   3.71880400
_cell_angle_alpha   90.00000000
_cell_angle_beta   90.00000000
_cell_angle_gamma   119.99998965
_symmetry_Int_Tables_number   1
_chemical_formula_structural   Tm3Zn3Hg2Rh
_chemical_formula_sum   'Tm3 Zn3 Hg2 Rh1'
_cell_volume   188.60749166
_cell_formula_units_Z   1
loop_
 _symmetry_equiv_pos_site_id
 _symmetry_equiv_pos_as_xyz
  1  'x, y, z'
loop_
 _atom_site_type_symbol
 _atom_site_label
 _atom_site_symmetry_multiplicity
 _atom_site_fract_x
 _atom_site_fract_y
 _atom_site_fract_z
 _atom_site_occupancy
  Tm  Tm0  1  0.390776  0.420049  0.000000  1
  Tm  Tm1  1  0.579951  0.970727  0.000000  1
  Tm  Tm2  1  0.029273  0.609224  0.000000  1
  Zn  Zn3  1  0.719017  0.728437  0.500000  1
  Zn  Zn4  1  0.271563  0.990580  0.500000  1
  Zn  Zn5  1  0.009420  0.280983  0.500000  1
  Hg  Hg6  1  0.000000  0.000000  0.000000  1
  Hg  Hg7  1  0.666667  0.333333  0.500000  1
  Rh  Rh8  1  0.333333  0.666667  0.500000  1
