# generated using pymatgen
data_Dy5Zr3P12Ir15Rh
_symmetry_space_group_name_H-M   'P 1'
_cell_length_a   12.90553102
_cell_length_b   12.90661548
_cell_length_c   3.97130800
_cell_angle_alpha   90.00000000
_cell_angle_beta   90.00000000
_cell_angle_gamma   120.00382145
_symmetry_Int_Tables_number   1
_chemical_formula_structural   Dy5Zr3P12Ir15Rh
_chemical_formula_sum   'Dy5 Zr3 P12 Ir15 Rh1'
_cell_volume   572.84315524
_cell_formula_units_Z   1
loop_
 _symmetry_equiv_pos_site_id
 _symmetry_equiv_pos_as_xyz
  1  'x, y, z'
loop_
 _atom_site_type_symbol
 _atom_site_label
 _atom_site_symmetry_multiplicity
 _atom_site_fract_x
 _atom_site_fract_y
 _atom_site_fract_z
 _atom_site_occupancy
  Dy  Dy0  1  0.333007  0.666573  0.500000  1
  Dy  Dy1  1  0.666634  0.333091  0.500000  1
  Dy  Dy2  1  0.000443  0.815059  0.000000  1
  Dy  Dy3  1  0.184734  0.184488  0.000000  1
  Dy  Dy4  1  0.814706  0.000051  0.000000  1
  Zr  Zr5  1  0.999797  0.448262  0.500000  1
  Zr  Zr6  1  0.550576  0.550890  0.500000  1
  Zr  Zr7  1  0.447630  0.999572  0.500000  1
  P  P8  1  0.999910  0.649822  0.500000  1
  P  P9  1  0.350341  0.350378  0.500000  1
  P  P10  1  0.649938  0.000029  0.500000  1
  P  P11  1  0.517735  0.687417  0.000000  1
  P  P12  1  0.313400  0.830299  0.000000  1
  P  P13  1  0.169653  0.482808  0.000000  1
  P  P14  1  0.482935  0.169176  0.000000  1
  P  P15  1  0.686722  0.517384  0.000000  1
  P  P16  1  0.830514  0.313213  0.000000  1
  P  P17  1  0.000040  0.176163  0.500000  1
  P  P18  1  0.823287  0.823805  0.500000  1
  P  P19  1  0.175879  0.000186  0.500000  1
  Ir  Ir20  1  0.135085  0.642817  0.000000  1
  Ir  Ir21  1  0.357060  0.493305  0.000000  1
  Ir  Ir22  1  0.493332  0.356514  0.000000  1
  Ir  Ir23  1  0.864183  0.507513  0.000000  1
  Ir  Ir24  1  0.643208  0.135123  0.000000  1
  Ir  Ir25  1  0.000225  0.278136  0.000000  1
  Ir  Ir26  1  0.722577  0.722384  0.000000  1
  Ir  Ir27  1  0.277779  0.000076  0.000000  1
  Ir  Ir28  1  0.627341  0.805668  0.500000  1
  Ir  Ir29  1  0.193320  0.821756  0.500000  1
  Ir  Ir30  1  0.178393  0.371569  0.500000  1
  Ir  Ir31  1  0.371450  0.178394  0.500000  1
  Ir  Ir32  1  0.806940  0.628850  0.500000  1
  Ir  Ir33  1  0.822040  0.193752  0.500000  1
  Ir  Ir34  1  0.999434  0.999796  0.500000  1
  Rh  Rh35  1  0.509754  0.865684  0.000000  1
