# generated using pymatgen
data_V12Ga7NiN4
_symmetry_space_group_name_H-M   'P 1'
_cell_length_a   6.58661595
_cell_length_b   6.58661601
_cell_length_c   6.58661574
_cell_angle_alpha   89.90465021
_cell_angle_beta   90.09534539
_cell_angle_gamma   90.09534918
_symmetry_Int_Tables_number   1
_chemical_formula_structural   V12Ga7NiN4
_chemical_formula_sum   'V12 Ga7 Ni1 N4'
_cell_volume   285.74932451
_cell_formula_units_Z   1
loop_
 _symmetry_equiv_pos_site_id
 _symmetry_equiv_pos_as_xyz
  1  'x, y, z'
loop_
 _atom_site_type_symbol
 _atom_site_label
 _atom_site_symmetry_multiplicity
 _atom_site_fract_x
 _atom_site_fract_y
 _atom_site_fract_z
 _atom_site_occupancy
  V  V0  1  0.790966  0.959314  0.374067  1
  V  V1  1  0.710435  0.040961  0.876831  1
  V  V2  1  0.208652  0.460190  0.124187  1
  V  V3  1  0.291770  0.542095  0.627379  1
  V  V4  1  0.959039  0.376831  0.789565  1
  V  V5  1  0.040686  0.874067  0.709034  1
  V  V6  1  0.457905  0.127379  0.208230  1
  V  V7  1  0.539810  0.624187  0.291348  1
  V  V8  1  0.375813  0.791348  0.960190  1
  V  V9  1  0.872621  0.708230  0.042095  1
  V  V10  1  0.125933  0.209034  0.459314  1
  V  V11  1  0.623169  0.289565  0.540961  1
  Ga  Ga12  1  0.318514  0.176658  0.819565  1
  Ga  Ga13  1  0.823342  0.319565  0.181486  1
  Ga  Ga14  1  0.680435  0.681486  0.676658  1
  Ga  Ga15  1  0.568884  0.431116  0.931116  1
  Ga  Ga16  1  0.419333  0.925971  0.557649  1
  Ga  Ga17  1  0.942351  0.580667  0.425971  1
  Ga  Ga18  1  0.074029  0.057649  0.080667  1
  Ni  Ni19  1  0.182383  0.817617  0.317617  1
  N  N20  1  0.875316  0.124684  0.624684  1
  N  N21  1  0.622530  0.876141  0.127775  1
  N  N22  1  0.123859  0.627775  0.877470  1
  N  N23  1  0.372225  0.377470  0.376141  1
