# generated using pymatgen
data_PrCrFe(Sb6Os)2
_symmetry_space_group_name_H-M   'P 1'
_cell_length_a   8.11624969
_cell_length_b   8.16191366
_cell_length_c   8.09555211
_cell_angle_alpha   109.46709486
_cell_angle_beta   109.32439112
_cell_angle_gamma   109.69904227
_symmetry_Int_Tables_number   1
_chemical_formula_structural   PrCrFe(Sb6Os)2
_chemical_formula_sum   'Pr1 Cr1 Fe1 Sb12 Os2'
_cell_volume   412.43523310
_cell_formula_units_Z   1
loop_
 _symmetry_equiv_pos_site_id
 _symmetry_equiv_pos_as_xyz
  1  'x, y, z'
loop_
 _atom_site_type_symbol
 _atom_site_label
 _atom_site_symmetry_multiplicity
 _atom_site_fract_x
 _atom_site_fract_y
 _atom_site_fract_z
 _atom_site_occupancy
  Pr  Pr0  1  0.000000  0.000000  0.000000  1
  Cr  Cr1  1  0.000000  0.000000  0.500000  1
  Fe  Fe2  1  0.000000  0.500000  0.000000  1
  Sb  Sb3  1  0.156673  0.814208  0.659698  1
  Sb  Sb4  1  0.843327  0.185792  0.340302  1
  Sb  Sb5  1  0.845850  0.504976  0.670632  1
  Sb  Sb6  1  0.154150  0.495024  0.329368  1
  Sb  Sb7  1  0.822530  0.654889  0.150708  1
  Sb  Sb8  1  0.177470  0.345111  0.849292  1
  Sb  Sb9  1  0.503728  0.660516  0.844037  1
  Sb  Sb10  1  0.496272  0.339484  0.155963  1
  Sb  Sb11  1  0.671090  0.165516  0.824791  1
  Sb  Sb12  1  0.328910  0.834484  0.175209  1
  Sb  Sb13  1  0.657314  0.842663  0.503169  1
  Sb  Sb14  1  0.342686  0.157337  0.496831  1
  Os  Os15  1  0.500000  0.000000  0.000000  1
  Os  Os16  1  0.500000  0.500000  0.500000  1
