# generated using pymatgen
data_TbThAl5Ga
_symmetry_space_group_name_H-M   'P 1'
_cell_length_a   6.40103061
_cell_length_b   6.39619544
_cell_length_c   4.64370900
_cell_angle_alpha   90.00000000
_cell_angle_beta   90.00000000
_cell_angle_gamma   119.97503093
_symmetry_Int_Tables_number   1
_chemical_formula_structural   TbThAl5Ga
_chemical_formula_sum   'Tb1 Th1 Al5 Ga1'
_cell_volume   164.69350542
_cell_formula_units_Z   1
loop_
 _symmetry_equiv_pos_site_id
 _symmetry_equiv_pos_as_xyz
  1  'x, y, z'
loop_
 _atom_site_type_symbol
 _atom_site_label
 _atom_site_symmetry_multiplicity
 _atom_site_fract_x
 _atom_site_fract_y
 _atom_site_fract_z
 _atom_site_occupancy
  Tb  Tb0  1  0.666307  0.333153  0.250000  1
  Th  Th1  1  0.334417  0.667209  0.750000  1
  Al  Al2  1  0.139242  0.857451  0.250000  1
  Al  Al3  1  0.857189  0.711240  0.750000  1
  Al  Al4  1  0.290335  0.145167  0.750000  1
  Al  Al5  1  0.857189  0.145949  0.750000  1
  Al  Al6  1  0.139242  0.281793  0.250000  1
  Ga  Ga7  1  0.716078  0.858039  0.250000  1
