# generated using pymatgen
data_Ca5Tb(YbBi3)2
_symmetry_space_group_name_H-M   'P 1'
_cell_length_a   8.29910214
_cell_length_b   8.39329404
_cell_length_c   8.38657113
_cell_angle_alpha   109.65725618
_cell_angle_beta   109.25738299
_cell_angle_gamma   109.26336197
_symmetry_Int_Tables_number   1
_chemical_formula_structural   Ca5Tb(YbBi3)2
_chemical_formula_sum   'Ca5 Tb1 Yb2 Bi6'
_cell_volume   451.00105760
_cell_formula_units_Z   1
loop_
 _symmetry_equiv_pos_site_id
 _symmetry_equiv_pos_as_xyz
  1  'x, y, z'
loop_
 _atom_site_type_symbol
 _atom_site_label
 _atom_site_symmetry_multiplicity
 _atom_site_fract_x
 _atom_site_fract_y
 _atom_site_fract_z
 _atom_site_occupancy
  Ca  Ca0  1  0.649181  0.648599  0.649292  1
  Ca  Ca1  1  0.997698  0.352766  0.497764  1
  Ca  Ca2  1  0.144985  0.144846  0.147183  1
  Ca  Ca3  1  0.851814  0.499914  0.999996  1
  Ca  Ca4  1  0.000092  0.850825  0.499410  1
  Tb  Tb5  1  0.354941  0.500071  0.000261  1
  Yb  Yb6  1  0.500065  0.002236  0.355098  1
  Yb  Yb7  1  0.500661  0.000575  0.851356  1
  Bi  Bi8  1  0.128750  0.745914  0.876344  1
  Bi  Bi9  1  0.882256  0.130305  0.754014  1
  Bi  Bi10  1  0.619100  0.374315  0.245667  1
  Bi  Bi11  1  0.373629  0.253821  0.628726  1
  Bi  Bi12  1  0.744404  0.871536  0.125208  1
  Bi  Bi13  1  0.252428  0.624277  0.369680  1
