# generated using pymatgen
data_Na3Ca2YbAlSb4
_symmetry_space_group_name_H-M   'P 1'
_cell_length_a   10.11960920
_cell_length_b   10.11960826
_cell_length_c   7.61230478
_cell_angle_alpha   89.95508664
_cell_angle_beta   90.04490838
_cell_angle_gamma   120.06076732
_symmetry_Int_Tables_number   1
_chemical_formula_structural   Na3Ca2YbAlSb4
_chemical_formula_sum   'Na6 Ca4 Yb2 Al2 Sb8'
_cell_volume   674.69548845
_cell_formula_units_Z   2
loop_
 _symmetry_equiv_pos_site_id
 _symmetry_equiv_pos_as_xyz
  1  'x, y, z'
loop_
 _atom_site_type_symbol
 _atom_site_label
 _atom_site_symmetry_multiplicity
 _atom_site_fract_x
 _atom_site_fract_y
 _atom_site_fract_z
 _atom_site_occupancy
  Na  Na0  1  0.855824  0.144176  0.548482  1
  Na  Na1  1  0.288292  0.144110  0.548571  1
  Na  Na2  1  0.855890  0.711708  0.548571  1
  Na  Na3  1  0.144241  0.855759  0.048764  1
  Na  Na4  1  0.711620  0.855925  0.048588  1
  Na  Na5  1  0.144075  0.288380  0.048588  1
  Ca  Ca6  1  0.479359  0.520641  0.730484  1
  Ca  Ca7  1  0.041156  0.520564  0.730525  1
  Ca  Ca8  1  0.479436  0.958844  0.730525  1
  Ca  Ca9  1  0.520548  0.479452  0.230488  1
  Yb  Yb10  1  0.959308  0.479684  0.230211  1
  Yb  Yb11  1  0.520316  0.040692  0.230211  1
  Al  Al12  1  0.666707  0.333293  0.859368  1
  Al  Al13  1  0.333151  0.666849  0.358394  1
  Sb  Sb14  1  0.812245  0.187755  0.964618  1
  Sb  Sb15  1  0.375293  0.187328  0.964377  1
  Sb  Sb16  1  0.812672  0.624707  0.964377  1
  Sb  Sb17  1  0.187630  0.812370  0.463137  1
  Sb  Sb18  1  0.624680  0.812662  0.463400  1
  Sb  Sb19  1  0.187338  0.375320  0.463400  1
  Sb  Sb20  1  0.667137  0.332863  0.497395  1
  Sb  Sb21  1  0.333079  0.666921  0.998254  1
