# generated using pymatgen
data_TbLu10ThCo4
_symmetry_space_group_name_H-M   'P 1'
_cell_length_a   6.13346893
_cell_length_b   6.84249096
_cell_length_c   9.26332000
_cell_angle_alpha   90.00000000
_cell_angle_beta   90.00000000
_cell_angle_gamma   91.02540103
_symmetry_Int_Tables_number   1
_chemical_formula_structural   TbLu10ThCo4
_chemical_formula_sum   'Tb1 Lu10 Th1 Co4'
_cell_volume   388.70266243
_cell_formula_units_Z   1
loop_
 _symmetry_equiv_pos_site_id
 _symmetry_equiv_pos_as_xyz
  1  'x, y, z'
loop_
 _atom_site_type_symbol
 _atom_site_label
 _atom_site_symmetry_multiplicity
 _atom_site_fract_x
 _atom_site_fract_y
 _atom_site_fract_z
 _atom_site_occupancy
  Tb  Tb0  1  0.139117  0.457974  0.750000  1
  Lu  Lu1  1  0.328780  0.676979  0.065434  1
  Lu  Lu2  1  0.175449  0.174340  0.433154  1
  Lu  Lu3  1  0.675110  0.321569  0.568674  1
  Lu  Lu4  1  0.822441  0.828303  0.930265  1
  Lu  Lu5  1  0.675110  0.321569  0.931326  1
  Lu  Lu6  1  0.822441  0.828303  0.569735  1
  Lu  Lu7  1  0.328780  0.676979  0.434566  1
  Lu  Lu8  1  0.175449  0.174340  0.066846  1
  Lu  Lu9  1  0.637417  0.040510  0.250000  1
  Lu  Lu10  1  0.360381  0.957766  0.750000  1
  Th  Th11  1  0.850893  0.551959  0.250000  1
  Co  Co12  1  0.043226  0.874845  0.250000  1
  Co  Co13  1  0.463306  0.387830  0.250000  1
  Co  Co14  1  0.956377  0.113594  0.750000  1
  Co  Co15  1  0.545724  0.613140  0.750000  1
