# generated using pymatgen
data_Tb4Nd4Tc(B8Ru)3
_symmetry_space_group_name_H-M   'P 1'
_cell_length_a   3.74259500
_cell_length_b   9.25570885
_cell_length_c   11.67905100
_cell_angle_alpha   89.90044034
_cell_angle_beta   90.00000000
_cell_angle_gamma   90.00000000
_symmetry_Int_Tables_number   1
_chemical_formula_structural   Tb4Nd4Tc(B8Ru)3
_chemical_formula_sum   'Tb4 Nd4 Tc1 B24 Ru3'
_cell_volume   404.56603312
_cell_formula_units_Z   1
loop_
 _symmetry_equiv_pos_site_id
 _symmetry_equiv_pos_as_xyz
  1  'x, y, z'
loop_
 _atom_site_type_symbol
 _atom_site_label
 _atom_site_symmetry_multiplicity
 _atom_site_fract_x
 _atom_site_fract_y
 _atom_site_fract_z
 _atom_site_occupancy
  Tb  Tb0  1  0.000000  0.943345  0.371719  1
  Tb  Tb1  1  0.000000  0.057213  0.629157  1
  Tb  Tb2  1  0.000000  0.444329  0.128813  1
  Tb  Tb3  1  0.000000  0.556760  0.870364  1
  Nd  Nd4  1  0.000000  0.324579  0.413335  1
  Nd  Nd5  1  0.000000  0.676166  0.583995  1
  Nd  Nd6  1  0.000000  0.821886  0.087534  1
  Nd  Nd7  1  0.000000  0.175950  0.914936  1
  Tc  Tc8  1  0.000000  0.638937  0.319964  1
  B  B9  1  0.500000  0.554981  0.430636  1
  B  B10  1  0.500000  0.444260  0.569671  1
  B  B11  1  0.500000  0.055814  0.069711  1
  B  B12  1  0.500000  0.943853  0.930708  1
  B  B13  1  0.500000  0.748587  0.417318  1
  B  B14  1  0.500000  0.251458  0.582645  1
  B  B15  1  0.500000  0.248521  0.082319  1
  B  B16  1  0.500000  0.751222  0.917547  1
  B  B17  1  0.500000  0.790241  0.267088  1
  B  B18  1  0.500000  0.210433  0.733061  1
  B  B19  1  0.500000  0.289787  0.232309  1
  B  B20  1  0.500000  0.710906  0.766935  1
  B  B21  1  0.500000  0.631212  0.186346  1
  B  B22  1  0.500000  0.368553  0.814195  1
  B  B23  1  0.500000  0.131307  0.313617  1
  B  B24  1  0.500000  0.869195  0.685951  1
  B  B25  1  0.500000  0.986155  0.213542  1
  B  B26  1  0.500000  0.013622  0.787161  1
  B  B27  1  0.500000  0.485517  0.286491  1
  B  B28  1  0.500000  0.513372  0.713260  1
  B  B29  1  0.500000  0.604302  0.027942  1
  B  B30  1  0.500000  0.395288  0.970723  1
  B  B31  1  0.500000  0.105051  0.471638  1
  B  B32  1  0.500000  0.896449  0.529272  1
  Ru  Ru33  1  0.000000  0.360700  0.680483  1
  Ru  Ru34  1  0.000000  0.138977  0.179619  1
  Ru  Ru35  1  0.000000  0.861071  0.819998  1
