# generated using pymatgen
data_Li3Al3Pd10
_symmetry_space_group_name_H-M   'P 1'
_cell_length_a   4.12883400
_cell_length_b   5.36024314
_cell_length_c   10.34825745
_cell_angle_alpha   89.24300272
_cell_angle_beta   90.00000000
_cell_angle_gamma   90.00000000
_symmetry_Int_Tables_number   1
_chemical_formula_structural   Li3Al3Pd10
_chemical_formula_sum   'Li3 Al3 Pd10'
_cell_volume   229.00303107
_cell_formula_units_Z   1
loop_
 _symmetry_equiv_pos_site_id
 _symmetry_equiv_pos_as_xyz
  1  'x, y, z'
loop_
 _atom_site_type_symbol
 _atom_site_label
 _atom_site_symmetry_multiplicity
 _atom_site_fract_x
 _atom_site_fract_y
 _atom_site_fract_z
 _atom_site_occupancy
  Li  Li0  1  0.000000  0.000000  0.000000  1
  Li  Li1  1  0.500000  0.164366  0.363064  1
  Li  Li2  1  0.500000  0.835634  0.636936  1
  Al  Al3  1  0.000000  0.500000  0.500000  1
  Al  Al4  1  0.500000  0.664005  0.139209  1
  Al  Al5  1  0.500000  0.335995  0.860791  1
  Pd  Pd6  1  0.500000  0.181622  0.105368  1
  Pd  Pd7  1  0.500000  0.818378  0.894632  1
  Pd  Pd8  1  0.500000  0.678515  0.389565  1
  Pd  Pd9  1  0.500000  0.321485  0.610435  1
  Pd  Pd10  1  0.000000  0.000000  0.500000  1
  Pd  Pd11  1  0.000000  0.500000  0.000000  1
  Pd  Pd12  1  0.000000  0.889805  0.232131  1
  Pd  Pd13  1  0.000000  0.110195  0.767869  1
  Pd  Pd14  1  0.000000  0.389065  0.264623  1
  Pd  Pd15  1  0.000000  0.610935  0.735377  1
