# generated using pymatgen
data_MnRuI6
_symmetry_space_group_name_H-M   'P 1'
_cell_length_a   7.04414016
_cell_length_b   7.04414021
_cell_length_c   7.34760860
_cell_angle_alpha   98.60931206
_cell_angle_beta   98.60931023
_cell_angle_gamma   119.94763105
_symmetry_Int_Tables_number   1
_chemical_formula_structural   MnRuI6
_chemical_formula_sum   'Mn1 Ru1 I6'
_cell_volume   301.44146893
_cell_formula_units_Z   1
loop_
 _symmetry_equiv_pos_site_id
 _symmetry_equiv_pos_as_xyz
  1  'x, y, z'
loop_
 _atom_site_type_symbol
 _atom_site_label
 _atom_site_symmetry_multiplicity
 _atom_site_fract_x
 _atom_site_fract_y
 _atom_site_fract_z
 _atom_site_occupancy
  Mn  Mn0  1  0.833580  0.166420  0.000000  1
  Ru  Ru1  1  0.166452  0.833548  0.000000  1
  I  I2  1  0.931847  0.575392  0.220038  1
  I  I3  1  0.560994  0.924802  0.219613  1
  I  I4  1  0.211572  0.204251  0.220928  1
  I  I5  1  0.795749  0.788428  0.779072  1
  I  I6  1  0.424608  0.068153  0.779962  1
  I  I7  1  0.075198  0.439006  0.780387  1
