# generated using pymatgen
data_La10(HgOs)3
_symmetry_space_group_name_H-M   'P 1'
_cell_length_a   9.16211611
_cell_length_b   9.16211616
_cell_length_c   9.16579600
_cell_angle_alpha   126.49140837
_cell_angle_beta   126.49140860
_cell_angle_gamma   79.05407971
_symmetry_Int_Tables_number   1
_chemical_formula_structural   La10(HgOs)3
_chemical_formula_sum   'La10 Hg3 Os3'
_cell_volume   481.06400386
_cell_formula_units_Z   1
loop_
 _symmetry_equiv_pos_site_id
 _symmetry_equiv_pos_as_xyz
  1  'x, y, z'
loop_
 _atom_site_type_symbol
 _atom_site_label
 _atom_site_symmetry_multiplicity
 _atom_site_fract_x
 _atom_site_fract_y
 _atom_site_fract_z
 _atom_site_occupancy
  La  La0  1  0.049051  0.202941  0.518311  1
  La  La1  1  0.507084  0.007084  0.780387  1
  La  La2  1  0.202457  0.702457  0.168973  1
  La  La3  1  0.466516  0.966516  0.168973  1
  La  La4  1  0.702941  0.549051  0.518311  1
  La  La5  1  0.969260  0.815371  0.518311  1
  La  La6  1  0.315371  0.469260  0.518311  1
  La  La7  1  0.773303  0.273303  0.780387  1
  La  La8  1  0.489374  0.514713  0.004088  1
  La  La9  1  0.014713  0.989374  0.004088  1
  Hg  Hg10  1  0.865168  0.365168  0.230337  1
  Hg  Hg11  1  0.753719  0.753719  0.007438  1
  Hg  Hg12  1  0.253719  0.253719  0.007438  1
  Os  Os13  1  0.132296  0.632296  0.764589  1
  Os  Os14  1  0.639794  0.865233  0.505027  1
  Os  Os15  1  0.365233  0.139794  0.505027  1
