# generated using pymatgen
data_HoMn2PC
_symmetry_space_group_name_H-M   'P 1'
_cell_length_a   5.52188352
_cell_length_b   5.52188408
_cell_length_c   6.87164100
_cell_angle_alpha   90.00000000
_cell_angle_beta   90.00000000
_cell_angle_gamma   141.56789302
_symmetry_Int_Tables_number   1
_chemical_formula_structural   HoMn2PC
_chemical_formula_sum   'Ho2 Mn4 P2 C2'
_cell_volume   130.23772518
_cell_formula_units_Z   2
loop_
 _symmetry_equiv_pos_site_id
 _symmetry_equiv_pos_as_xyz
  1  'x, y, z'
loop_
 _atom_site_type_symbol
 _atom_site_label
 _atom_site_symmetry_multiplicity
 _atom_site_fract_x
 _atom_site_fract_y
 _atom_site_fract_z
 _atom_site_occupancy
  Ho  Ho0  1  0.543137  0.456863  0.250000  1
  Ho  Ho1  1  0.456863  0.543137  0.750000  1
  Mn  Mn2  1  0.829410  0.170590  0.058266  1
  Mn  Mn3  1  0.170590  0.829410  0.941734  1
  Mn  Mn4  1  0.170590  0.829410  0.558266  1
  Mn  Mn5  1  0.829410  0.170590  0.441734  1
  P  P6  1  0.266367  0.733633  0.250000  1
  P  P7  1  0.733633  0.266367  0.750000  1
  C  C8  1  0.000000  0.000000  0.000000  1
  C  C9  1  0.000000  0.000000  0.500000  1
