# generated using pymatgen
data_Nd4HoEr3(ReB6)4
_symmetry_space_group_name_H-M   'P 1'
_cell_length_a   3.71897000
_cell_length_b   9.23114800
_cell_length_c   11.68783400
_cell_angle_alpha   90.00317103
_cell_angle_beta   90.00000000
_cell_angle_gamma   90.00000000
_symmetry_Int_Tables_number   1
_chemical_formula_structural   Nd4HoEr3(ReB6)4
_chemical_formula_sum   'Nd4 Ho1 Er3 Re4 B24'
_cell_volume   401.24757749
_cell_formula_units_Z   1
loop_
 _symmetry_equiv_pos_site_id
 _symmetry_equiv_pos_as_xyz
  1  'x, y, z'
loop_
 _atom_site_type_symbol
 _atom_site_label
 _atom_site_symmetry_multiplicity
 _atom_site_fract_x
 _atom_site_fract_y
 _atom_site_fract_z
 _atom_site_occupancy
  Nd  Nd0  1  0.000000  0.322810  0.414324  1
  Nd  Nd1  1  0.000000  0.677180  0.585729  1
  Nd  Nd2  1  0.000000  0.822746  0.085624  1
  Nd  Nd3  1  0.000000  0.177248  0.914292  1
  Ho  Ho4  1  0.000000  0.943084  0.369596  1
  Er  Er5  1  0.000000  0.057021  0.630667  1
  Er  Er6  1  0.000000  0.443047  0.130477  1
  Er  Er7  1  0.000000  0.556942  0.869486  1
  Re  Re8  1  0.000000  0.639450  0.319093  1
  Re  Re9  1  0.000000  0.360319  0.680916  1
  Re  Re10  1  0.000000  0.139887  0.180681  1
  Re  Re11  1  0.000000  0.860273  0.819166  1
  B  B12  1  0.500000  0.555158  0.430437  1
  B  B13  1  0.500000  0.444755  0.569594  1
  B  B14  1  0.500000  0.055235  0.069518  1
  B  B15  1  0.500000  0.944770  0.930407  1
  B  B16  1  0.500000  0.750076  0.415895  1
  B  B17  1  0.500000  0.249581  0.584090  1
  B  B18  1  0.500000  0.250456  0.084050  1
  B  B19  1  0.500000  0.749579  0.915908  1
  B  B20  1  0.500000  0.791530  0.266055  1
  B  B21  1  0.500000  0.208221  0.733883  1
  B  B22  1  0.500000  0.291893  0.233860  1
  B  B23  1  0.500000  0.708200  0.766120  1
  B  B24  1  0.500000  0.629518  0.186145  1
  B  B25  1  0.500000  0.370422  0.813796  1
  B  B26  1  0.500000  0.129817  0.313622  1
  B  B27  1  0.500000  0.870413  0.686210  1
  B  B28  1  0.500000  0.983960  0.213150  1
  B  B29  1  0.500000  0.016196  0.786673  1
  B  B30  1  0.500000  0.483740  0.286648  1
  B  B31  1  0.500000  0.516211  0.713335  1
  B  B32  1  0.500000  0.595950  0.026484  1
  B  B33  1  0.500000  0.404048  0.973504  1
  B  B34  1  0.500000  0.096243  0.473763  1
  B  B35  1  0.500000  0.904022  0.526801  1
