# generated using pymatgen
data_Tb6Zr2Co15NiP12
_symmetry_space_group_name_H-M   'P 1'
_cell_length_a   3.73540900
_cell_length_b   10.71296600
_cell_length_c   12.45634600
_cell_angle_alpha   90.00000000
_cell_angle_beta   90.00000000
_cell_angle_gamma   90.00000000
_symmetry_Int_Tables_number   1
_chemical_formula_structural   Tb6Zr2Co15NiP12
_chemical_formula_sum   'Tb6 Zr2 Co15 Ni1 P12'
_cell_volume   498.46945453
_cell_formula_units_Z   1
loop_
 _symmetry_equiv_pos_site_id
 _symmetry_equiv_pos_as_xyz
  1  'x, y, z'
loop_
 _atom_site_type_symbol
 _atom_site_label
 _atom_site_symmetry_multiplicity
 _atom_site_fract_x
 _atom_site_fract_y
 _atom_site_fract_z
 _atom_site_occupancy
  Tb  Tb0  1  0.000000  0.500000  0.527687  1
  Tb  Tb1  1  0.500000  0.000000  0.470580  1
  Tb  Tb2  1  0.500000  0.821529  0.205164  1
  Tb  Tb3  1  0.500000  0.178471  0.205164  1
  Tb  Tb4  1  0.000000  0.679850  0.795736  1
  Tb  Tb5  1  0.000000  0.320150  0.795736  1
  Zr  Zr6  1  0.500000  0.500000  0.158044  1
  Zr  Zr7  1  0.000000  0.000000  0.841855  1
  Co  Co8  1  0.000000  0.000000  0.296449  1
  Co  Co9  1  0.000000  0.500000  0.986158  1
  Co  Co10  1  0.500000  0.000000  0.013846  1
  Co  Co11  1  0.500000  0.332284  0.992757  1
  Co  Co12  1  0.500000  0.667716  0.992757  1
  Co  Co13  1  0.000000  0.168019  0.006771  1
  Co  Co14  1  0.000000  0.831981  0.006771  1
  Co  Co15  1  0.500000  0.295619  0.433947  1
  Co  Co16  1  0.500000  0.704381  0.433947  1
  Co  Co17  1  0.000000  0.204574  0.566442  1
  Co  Co18  1  0.000000  0.795426  0.566442  1
  Co  Co19  1  0.500000  0.877547  0.701509  1
  Co  Co20  1  0.500000  0.122453  0.701509  1
  Co  Co21  1  0.000000  0.622122  0.298593  1
  Co  Co22  1  0.000000  0.377878  0.298593  1
  Ni  Ni23  1  0.500000  0.500000  0.703379  1
  P  P24  1  0.500000  0.500000  0.885097  1
  P  P25  1  0.000000  0.000000  0.116312  1
  P  P26  1  0.500000  0.500000  0.362571  1
  P  P27  1  0.000000  0.000000  0.637310  1
  P  P28  1  0.500000  0.308420  0.614643  1
  P  P29  1  0.500000  0.691580  0.614643  1
  P  P30  1  0.000000  0.190308  0.384406  1
  P  P31  1  0.000000  0.809692  0.384406  1
  P  P32  1  0.500000  0.838690  0.894786  1
  P  P33  1  0.500000  0.161310  0.894786  1
  P  P34  1  0.000000  0.661869  0.105602  1
  P  P35  1  0.000000  0.338131  0.105602  1
