# generated using pymatgen
data_Nd3PaAg2Rh3
_symmetry_space_group_name_H-M   'P 1'
_cell_length_a   7.64669200
_cell_length_b   7.79681472
_cell_length_c   3.99439200
_cell_angle_alpha   90.00000000
_cell_angle_beta   90.00000000
_cell_angle_gamma   119.36509713
_symmetry_Int_Tables_number   1
_chemical_formula_structural   Nd3PaAg2Rh3
_chemical_formula_sum   'Nd3 Pa1 Ag2 Rh3'
_cell_volume   207.54640347
_cell_formula_units_Z   1
loop_
 _symmetry_equiv_pos_site_id
 _symmetry_equiv_pos_as_xyz
  1  'x, y, z'
loop_
 _atom_site_type_symbol
 _atom_site_label
 _atom_site_symmetry_multiplicity
 _atom_site_fract_x
 _atom_site_fract_y
 _atom_site_fract_z
 _atom_site_occupancy
  Nd  Nd0  1  0.640289  0.000000  0.500000  1
  Nd  Nd1  1  0.407298  0.445613  0.500000  1
  Nd  Nd2  1  0.961686  0.554387  0.500000  1
  Pa  Pa3  1  0.262013  0.000000  0.000000  1
  Ag  Ag4  1  0.750362  0.736857  0.000000  1
  Ag  Ag5  1  0.013505  0.263143  0.000000  1
  Rh  Rh6  1  0.035246  0.000000  0.500000  1
  Rh  Rh7  1  0.316752  0.703903  0.000000  1
  Rh  Rh8  1  0.612850  0.296097  0.000000  1
