# generated using pymatgen
data_CsZr2CrS6
_symmetry_space_group_name_H-M   'P 1'
_cell_length_a   9.32655854
_cell_length_b   9.32655765
_cell_length_c   9.32655900
_cell_angle_alpha   39.62799097
_cell_angle_beta   39.62799757
_cell_angle_gamma   39.62799722
_symmetry_Int_Tables_number   1
_chemical_formula_structural   CsZr2CrS6
_chemical_formula_sum   'Cs1 Zr2 Cr1 S6'
_cell_volume   297.14087427
_cell_formula_units_Z   1
loop_
 _symmetry_equiv_pos_site_id
 _symmetry_equiv_pos_as_xyz
  1  'x, y, z'
loop_
 _atom_site_type_symbol
 _atom_site_label
 _atom_site_symmetry_multiplicity
 _atom_site_fract_x
 _atom_site_fract_y
 _atom_site_fract_z
 _atom_site_occupancy
  Cs  Cs0  1  0.998892  0.998892  0.998892  1
  Zr  Zr1  1  0.501235  0.501235  0.501235  1
  Zr  Zr2  1  0.832258  0.832258  0.832258  1
  Cr  Cr3  1  0.166813  0.166813  0.166813  1
  S  S4  1  0.538661  0.220737  0.905906  1
  S  S5  1  0.905906  0.538661  0.220737  1
  S  S6  1  0.220737  0.905906  0.538661  1
  S  S7  1  0.792078  0.113698  0.429722  1
  S  S8  1  0.113698  0.429722  0.792078  1
  S  S9  1  0.429722  0.792078  0.113698  1
