# generated using pymatgen
data_Tm8Tc3B24Rh
_symmetry_space_group_name_H-M   'P 1'
_cell_length_a   3.64031800
_cell_length_b   9.08778873
_cell_length_c   11.45363514
_cell_angle_alpha   90.12831531
_cell_angle_beta   90.00000000
_cell_angle_gamma   90.00000000
_symmetry_Int_Tables_number   1
_chemical_formula_structural   Tm8Tc3B24Rh
_chemical_formula_sum   'Tm8 Tc3 B24 Rh1'
_cell_volume   378.91325732
_cell_formula_units_Z   1
loop_
 _symmetry_equiv_pos_site_id
 _symmetry_equiv_pos_as_xyz
  1  'x, y, z'
loop_
 _atom_site_type_symbol
 _atom_site_label
 _atom_site_symmetry_multiplicity
 _atom_site_fract_x
 _atom_site_fract_y
 _atom_site_fract_z
 _atom_site_occupancy
  Tm  Tm0  1  0.500000  0.318087  0.415934  1
  Tm  Tm1  1  0.500000  0.678267  0.591195  1
  Tm  Tm2  1  0.500000  0.177359  0.912780  1
  Tm  Tm3  1  0.500000  0.827102  0.081097  1
  Tm  Tm4  1  0.500000  0.440739  0.128770  1
  Tm  Tm5  1  0.500000  0.556999  0.871225  1
  Tm  Tm6  1  0.500000  0.056077  0.629435  1
  Tm  Tm7  1  0.500000  0.944004  0.369957  1
  Tc  Tc8  1  0.500000  0.138599  0.180276  1
  Tc  Tc9  1  0.500000  0.861402  0.820701  1
  Tc  Tc10  1  0.500000  0.362407  0.677803  1
  B  B11  1  0.000000  0.101308  0.471549  1
  B  B12  1  0.000000  0.895615  0.528084  1
  B  B13  1  0.000000  0.397426  0.972011  1
  B  B14  1  0.000000  0.603741  0.029133  1
  B  B15  1  0.000000  0.130792  0.315634  1
  B  B16  1  0.000000  0.868521  0.684711  1
  B  B17  1  0.000000  0.369404  0.814919  1
  B  B18  1  0.000000  0.631629  0.183463  1
  B  B19  1  0.000000  0.053626  0.066094  1
  B  B20  1  0.000000  0.947393  0.933012  1
  B  B21  1  0.000000  0.446597  0.566045  1
  B  B22  1  0.000000  0.553850  0.434302  1
  B  B23  1  0.000000  0.482280  0.287953  1
  B  B24  1  0.000000  0.518622  0.712273  1
  B  B25  1  0.000000  0.018159  0.787199  1
  B  B26  1  0.000000  0.982135  0.211806  1
  B  B27  1  0.000000  0.249638  0.080750  1
  B  B28  1  0.000000  0.751191  0.919426  1
  B  B29  1  0.000000  0.249832  0.580490  1
  B  B30  1  0.000000  0.749431  0.420703  1
  B  B31  1  0.000000  0.292417  0.235861  1
  B  B32  1  0.000000  0.707656  0.765244  1
  B  B33  1  0.000000  0.207881  0.734761  1
  B  B34  1  0.000000  0.791795  0.264435  1
  Rh  Rh35  1  0.500000  0.638017  0.320968  1
