# generated using pymatgen
data_Tb5CoRu
_symmetry_space_group_name_H-M   'P 1'
_cell_length_a   6.32950296
_cell_length_b   7.11602781
_cell_length_c   8.60251014
_cell_angle_alpha   96.35281910
_cell_angle_beta   111.58536795
_cell_angle_gamma   89.99999645
_symmetry_Int_Tables_number   1
_chemical_formula_structural   Tb5CoRu
_chemical_formula_sum   'Tb10 Co2 Ru2'
_cell_volume   357.73226920
_cell_formula_units_Z   2
loop_
 _symmetry_equiv_pos_site_id
 _symmetry_equiv_pos_as_xyz
  1  'x, y, z'
loop_
 _atom_site_type_symbol
 _atom_site_label
 _atom_site_symmetry_multiplicity
 _atom_site_fract_x
 _atom_site_fract_y
 _atom_site_fract_z
 _atom_site_occupancy
  Tb  Tb0  1  0.977858  0.911333  0.189446  1
  Tb  Tb1  1  0.788412  0.588667  0.810554  1
  Tb  Tb2  1  0.012559  0.082890  0.814174  1
  Tb  Tb3  1  0.198384  0.417110  0.185826  1
  Tb  Tb4  1  0.646763  0.811346  0.431930  1
  Tb  Tb5  1  0.214832  0.688654  0.568070  1
  Tb  Tb6  1  0.358961  0.181664  0.566070  1
  Tb  Tb7  1  0.792892  0.318336  0.433930  1
  Tb  Tb8  1  0.428833  0.750000  0.000000  1
  Tb  Tb9  1  0.577038  0.250000  0.000000  1
  Co  Co10  1  0.825319  0.576041  0.222568  1
  Co  Co11  1  0.602751  0.923959  0.777432  1
  Ru  Ru12  1  0.176892  0.428218  0.778386  1
  Ru  Ru13  1  0.398506  0.071782  0.221614  1
