# generated using pymatgen
data_CaTb3(RhO3)4
_symmetry_space_group_name_H-M   'P 1'
_cell_length_a   5.29892911
_cell_length_b   5.80578724
_cell_length_c   7.67127500
_cell_angle_alpha   90.00000000
_cell_angle_beta   90.00000000
_cell_angle_gamma   90.07453052
_symmetry_Int_Tables_number   1
_chemical_formula_structural   CaTb3(RhO3)4
_chemical_formula_sum   'Ca1 Tb3 Rh4 O12'
_cell_volume   236.00239495
_cell_formula_units_Z   1
loop_
 _symmetry_equiv_pos_site_id
 _symmetry_equiv_pos_as_xyz
  1  'x, y, z'
loop_
 _atom_site_type_symbol
 _atom_site_label
 _atom_site_symmetry_multiplicity
 _atom_site_fract_x
 _atom_site_fract_y
 _atom_site_fract_z
 _atom_site_occupancy
  Ca  Ca0  1  0.476093  0.576795  0.750000  1
  Tb  Tb1  1  0.971656  0.918187  0.250000  1
  Tb  Tb2  1  0.031458  0.080661  0.750000  1
  Tb  Tb3  1  0.529255  0.417428  0.250000  1
  Rh  Rh4  1  0.498275  0.997128  0.501680  1
  Rh  Rh5  1  0.001156  0.499799  0.501753  1
  Rh  Rh6  1  0.001156  0.499799  0.998247  1
  Rh  Rh7  1  0.498275  0.997128  0.998320  1
  O  O8  1  0.817292  0.193171  0.438010  1
  O  O9  1  0.319209  0.305787  0.557509  1
  O  O10  1  0.685434  0.694567  0.065477  1
  O  O11  1  0.169138  0.815499  0.948634  1
  O  O12  1  0.169138  0.815499  0.551366  1
  O  O13  1  0.685434  0.694567  0.434523  1
  O  O14  1  0.319209  0.305787  0.942491  1
  O  O15  1  0.817292  0.193171  0.061990  1
  O  O16  1  0.373573  0.047151  0.250000  1
  O  O17  1  0.880260  0.447183  0.750000  1
  O  O18  1  0.128393  0.547111  0.250000  1
  O  O19  1  0.628303  0.953582  0.750000  1
