# generated using pymatgen
data_CeThNi17H3
_symmetry_space_group_name_H-M   'P 1'
_cell_length_a   6.28810107
_cell_length_b   6.28810205
_cell_length_c   6.28810108
_cell_angle_alpha   83.65296202
_cell_angle_beta   83.65296207
_cell_angle_gamma   83.65296908
_symmetry_Int_Tables_number   1
_chemical_formula_structural   CeThNi17H3
_chemical_formula_sum   'Ce1 Th1 Ni17 H3'
_cell_volume   244.37441333
_cell_formula_units_Z   1
loop_
 _symmetry_equiv_pos_site_id
 _symmetry_equiv_pos_as_xyz
  1  'x, y, z'
loop_
 _atom_site_type_symbol
 _atom_site_label
 _atom_site_symmetry_multiplicity
 _atom_site_fract_x
 _atom_site_fract_y
 _atom_site_fract_z
 _atom_site_occupancy
  Ce  Ce0  1  0.336823  0.336823  0.336823  1
  Th  Th1  1  0.661320  0.661320  0.661320  1
  Ni  Ni2  1  0.000324  0.000324  0.499635  1
  Ni  Ni3  1  0.499635  0.000324  0.000324  1
  Ni  Ni4  1  0.000324  0.499635  0.000324  1
  Ni  Ni5  1  0.710646  0.288966  0.000593  1
  Ni  Ni6  1  0.000593  0.710646  0.288966  1
  Ni  Ni7  1  0.288966  0.000593  0.710646  1
  Ni  Ni8  1  0.000593  0.288966  0.710646  1
  Ni  Ni9  1  0.710646  0.000593  0.288966  1
  Ni  Ni10  1  0.288966  0.710646  0.000593  1
  Ni  Ni11  1  0.346122  0.346122  0.848846  1
  Ni  Ni12  1  0.848846  0.346122  0.346122  1
  Ni  Ni13  1  0.346122  0.848846  0.346122  1
  Ni  Ni14  1  0.652990  0.652990  0.152549  1
  Ni  Ni15  1  0.152549  0.652990  0.652990  1
  Ni  Ni16  1  0.652990  0.152549  0.652990  1
  Ni  Ni17  1  0.900882  0.900882  0.900882  1
  Ni  Ni18  1  0.100540  0.100540  0.100540  1
  H  H19  1  0.498603  0.498603  0.002917  1
  H  H20  1  0.002917  0.498603  0.498603  1
  H  H21  1  0.498603  0.002917  0.498603  1
