# generated using pymatgen
data_Y8ErMg(SiB4)4
_symmetry_space_group_name_H-M   'P 1'
_cell_length_a   7.19414100
_cell_length_b   7.19414100
_cell_length_c   8.00420300
_cell_angle_alpha   90.00000000
_cell_angle_beta   90.00000000
_cell_angle_gamma   90.00000000
_symmetry_Int_Tables_number   1
_chemical_formula_structural   Y8ErMg(SiB4)4
_chemical_formula_sum   'Y8 Er1 Mg1 Si4 B16'
_cell_volume   414.26284688
_cell_formula_units_Z   1
loop_
 _symmetry_equiv_pos_site_id
 _symmetry_equiv_pos_as_xyz
  1  'x, y, z'
loop_
 _atom_site_type_symbol
 _atom_site_label
 _atom_site_symmetry_multiplicity
 _atom_site_fract_x
 _atom_site_fract_y
 _atom_site_fract_z
 _atom_site_occupancy
  Y  Y0  1  0.682014  0.180075  0.229103  1
  Y  Y1  1  0.317986  0.819925  0.770897  1
  Y  Y2  1  0.317986  0.819925  0.229103  1
  Y  Y3  1  0.819925  0.682014  0.229103  1
  Y  Y4  1  0.819925  0.682014  0.770897  1
  Y  Y5  1  0.682014  0.180075  0.770897  1
  Y  Y6  1  0.180075  0.317986  0.770897  1
  Y  Y7  1  0.180075  0.317986  0.229103  1
  Er  Er8  1  0.500000  0.500000  0.500000  1
  Mg  Mg9  1  0.000000  0.000000  0.500000  1
  Si  Si10  1  0.115629  0.615880  0.500000  1
  Si  Si11  1  0.884371  0.384120  0.500000  1
  Si  Si12  1  0.384120  0.115629  0.500000  1
  Si  Si13  1  0.615880  0.884371  0.500000  1
  B  B14  1  0.174303  0.038454  0.000000  1
  B  B15  1  0.825697  0.961546  0.000000  1
  B  B16  1  0.961546  0.174303  0.000000  1
  B  B17  1  0.327170  0.539504  0.000000  1
  B  B18  1  0.038454  0.825697  0.000000  1
  B  B19  1  0.672830  0.460496  0.000000  1
  B  B20  1  0.539504  0.672830  0.000000  1
  B  B21  1  0.460496  0.327170  0.000000  1
  B  B22  1  0.089412  0.588562  0.000000  1
  B  B23  1  0.910588  0.411438  0.000000  1
  B  B24  1  0.411438  0.089412  0.000000  1
  B  B25  1  0.588562  0.910588  0.000000  1
  B  B26  1  0.000000  0.000000  0.158658  1
  B  B27  1  0.000000  0.000000  0.841342  1
  B  B28  1  0.500000  0.500000  0.836940  1
  B  B29  1  0.500000  0.500000  0.163060  1
