# generated using pymatgen
data_Ce3Ho6ScRu4
_symmetry_space_group_name_H-M   'P 1'
_cell_length_a   6.33717074
_cell_length_b   7.03545143
_cell_length_c   8.63703159
_cell_angle_alpha   96.18604040
_cell_angle_beta   111.36038453
_cell_angle_gamma   89.14700429
_symmetry_Int_Tables_number   1
_chemical_formula_structural   Ce3Ho6ScRu4
_chemical_formula_sum   'Ce3 Ho6 Sc1 Ru4'
_cell_volume   356.41715276
_cell_formula_units_Z   1
loop_
 _symmetry_equiv_pos_site_id
 _symmetry_equiv_pos_as_xyz
  1  'x, y, z'
loop_
 _atom_site_type_symbol
 _atom_site_label
 _atom_site_symmetry_multiplicity
 _atom_site_fract_x
 _atom_site_fract_y
 _atom_site_fract_z
 _atom_site_occupancy
  Ce  Ce0  1  0.799823  0.598808  0.815450  1
  Ce  Ce1  1  0.018399  0.094438  0.813825  1
  Ce  Ce2  1  0.197761  0.404917  0.193042  1
  Ho  Ho3  1  0.647538  0.815452  0.428572  1
  Ho  Ho4  1  0.207007  0.688334  0.561309  1
  Ho  Ho5  1  0.353641  0.180715  0.562595  1
  Ho  Ho6  1  0.789350  0.313800  0.430458  1
  Ho  Ho7  1  0.424316  0.751651  0.004590  1
  Ho  Ho8  1  0.578068  0.250258  0.001601  1
  Sc  Sc9  1  0.979973  0.915520  0.186235  1
  Ru  Ru10  1  0.850569  0.577388  0.220532  1
  Ru  Ru11  1  0.630731  0.910198  0.783137  1
  Ru  Ru12  1  0.149738  0.407934  0.779670  1
  Ru  Ru13  1  0.373088  0.090587  0.218984  1
