# generated using pymatgen
data_Yb6Ta3Al13Ir7
_symmetry_space_group_name_H-M   'P 1'
_cell_length_a   9.03957643
_cell_length_b   9.03957741
_cell_length_c   9.03957627
_cell_angle_alpha   59.73452764
_cell_angle_beta   59.73452462
_cell_angle_gamma   59.73453134
_symmetry_Int_Tables_number   1
_chemical_formula_structural   Yb6Ta3Al13Ir7
_chemical_formula_sum   'Yb6 Ta3 Al13 Ir7'
_cell_volume   519.16218012
_cell_formula_units_Z   1
loop_
 _symmetry_equiv_pos_site_id
 _symmetry_equiv_pos_as_xyz
  1  'x, y, z'
loop_
 _atom_site_type_symbol
 _atom_site_label
 _atom_site_symmetry_multiplicity
 _atom_site_fract_x
 _atom_site_fract_y
 _atom_site_fract_z
 _atom_site_occupancy
  Yb  Yb0  1  0.705645  0.705645  0.289982  1
  Yb  Yb1  1  0.295706  0.704062  0.295706  1
  Yb  Yb2  1  0.704062  0.295706  0.295706  1
  Yb  Yb3  1  0.295706  0.295706  0.704062  1
  Yb  Yb4  1  0.705645  0.289982  0.705645  1
  Yb  Yb5  1  0.289982  0.705645  0.705645  1
  Ta  Ta6  1  0.878353  0.878353  0.361464  1
  Ta  Ta7  1  0.878353  0.361464  0.878353  1
  Ta  Ta8  1  0.361464  0.878353  0.878353  1
  Al  Al9  1  0.882917  0.882917  0.882917  1
  Al  Al10  1  0.119462  0.119462  0.641186  1
  Al  Al11  1  0.119462  0.641186  0.119462  1
  Al  Al12  1  0.641186  0.119462  0.119462  1
  Al  Al13  1  0.120987  0.120987  0.120987  1
  Al  Al14  1  0.673505  0.673505  0.986658  1
  Al  Al15  1  0.673505  0.986658  0.673505  1
  Al  Al16  1  0.986658  0.673505  0.673505  1
  Al  Al17  1  0.669394  0.669394  0.669394  1
  Al  Al18  1  0.327643  0.327643  0.019580  1
  Al  Al19  1  0.327643  0.019580  0.327643  1
  Al  Al20  1  0.019580  0.327643  0.327643  1
  Al  Al21  1  0.327081  0.327081  0.327081  1
  Ir  Ir22  1  0.003258  0.003258  0.003258  1
  Ir  Ir23  1  0.998430  0.998430  0.494580  1
  Ir  Ir24  1  0.502758  0.995846  0.502758  1
  Ir  Ir25  1  0.995846  0.502758  0.502758  1
  Ir  Ir26  1  0.502758  0.502758  0.995846  1
  Ir  Ir27  1  0.998430  0.494580  0.998430  1
  Ir  Ir28  1  0.494580  0.998430  0.998430  1
