# generated using pymatgen
data_Dy4Y2CuRh17
_symmetry_space_group_name_H-M   'P 1'
_cell_length_a   5.28463117
_cell_length_b   5.28382346
_cell_length_c   17.37259700
_cell_angle_alpha   90.00000000
_cell_angle_beta   90.00000000
_cell_angle_gamma   120.00713954
_symmetry_Int_Tables_number   1
_chemical_formula_structural   Dy4Y2CuRh17
_chemical_formula_sum   'Dy4 Y2 Cu1 Rh17'
_cell_volume   420.07526342
_cell_formula_units_Z   1
loop_
 _symmetry_equiv_pos_site_id
 _symmetry_equiv_pos_as_xyz
  1  'x, y, z'
loop_
 _atom_site_type_symbol
 _atom_site_label
 _atom_site_symmetry_multiplicity
 _atom_site_fract_x
 _atom_site_fract_y
 _atom_site_fract_z
 _atom_site_occupancy
  Dy  Dy0  1  0.333315  0.666654  0.958029  1
  Dy  Dy1  1  0.666664  0.333332  0.042114  1
  Dy  Dy2  1  0.666664  0.333332  0.457886  1
  Dy  Dy3  1  0.333315  0.666654  0.541971  1
  Y  Y4  1  0.333337  0.666661  0.750000  1
  Y  Y5  1  0.666680  0.333336  0.250000  1
  Cu  Cu6  1  0.333368  0.666672  0.250000  1
  Rh  Rh7  1  0.168650  0.831389  0.373443  1
  Rh  Rh8  1  0.168628  0.337261  0.373435  1
  Rh  Rh9  1  0.662757  0.831399  0.373443  1
  Rh  Rh10  1  0.832872  0.167140  0.624713  1
  Rh  Rh11  1  0.832887  0.665768  0.624716  1
  Rh  Rh12  1  0.334260  0.167132  0.624720  1
  Rh  Rh13  1  0.832872  0.167140  0.875287  1
  Rh  Rh14  1  0.832887  0.665768  0.875284  1
  Rh  Rh15  1  0.334260  0.167132  0.875280  1
  Rh  Rh16  1  0.168650  0.831389  0.126557  1
  Rh  Rh17  1  0.168628  0.337261  0.126565  1
  Rh  Rh18  1  0.662757  0.831399  0.126557  1
  Rh  Rh19  1  0.666697  0.333387  0.750000  1
  Rh  Rh20  1  0.999959  0.999905  0.250000  1
  Rh  Rh21  1  0.999942  0.999960  0.750000  1
  Rh  Rh22  1  0.999973  0.999964  0.497716  1
  Rh  Rh23  1  0.999973  0.999964  0.002284  1
