# generated using pymatgen
data_Li8Ho8Sn5Bi2Pb
_symmetry_space_group_name_H-M   'P 1'
_cell_length_a   9.43661304
_cell_length_b   9.43653509
_cell_length_c   7.23609603
_cell_angle_alpha   89.99998870
_cell_angle_beta   90.09458352
_cell_angle_gamma   119.99976358
_symmetry_Int_Tables_number   1
_chemical_formula_structural   Li8Ho8Sn5Bi2Pb
_chemical_formula_sum   'Li8 Ho8 Sn5 Bi2 Pb1'
_cell_volume   558.03816838
_cell_formula_units_Z   1
loop_
 _symmetry_equiv_pos_site_id
 _symmetry_equiv_pos_as_xyz
  1  'x, y, z'
loop_
 _atom_site_type_symbol
 _atom_site_label
 _atom_site_symmetry_multiplicity
 _atom_site_fract_x
 _atom_site_fract_y
 _atom_site_fract_z
 _atom_site_occupancy
  Li  Li0  1  0.167736  0.334114  0.282833  1
  Li  Li1  1  0.167733  0.833620  0.282832  1
  Li  Li2  1  0.665103  0.832551  0.285365  1
  Li  Li3  1  0.829610  0.663678  0.787592  1
  Li  Li4  1  0.829609  0.165940  0.787595  1
  Li  Li5  1  0.338144  0.169073  0.791401  1
  Li  Li6  1  0.336645  0.668326  0.668935  1
  Li  Li7  1  0.665481  0.332738  0.173208  1
  Ho  Ho8  1  0.516204  0.027574  0.489796  1
  Ho  Ho9  1  0.516201  0.488630  0.489799  1
  Ho  Ho10  1  0.972013  0.486005  0.488509  1
  Ho  Ho11  1  0.492185  0.979244  0.998465  1
  Ho  Ho12  1  0.492184  0.512945  0.998466  1
  Ho  Ho13  1  0.017469  0.508735  0.999752  1
  Ho  Ho14  1  0.996589  0.998295  0.493667  1
  Ho  Ho15  1  0.996947  0.998474  0.006674  1
  Sn  Sn16  1  0.833807  0.666701  0.232371  1
  Sn  Sn17  1  0.833845  0.167111  0.232358  1
  Sn  Sn18  1  0.333177  0.166590  0.232246  1
  Sn  Sn19  1  0.332538  0.666272  0.259686  1
  Sn  Sn20  1  0.667496  0.333744  0.759810  1
  Bi  Bi21  1  0.166198  0.333366  0.733912  1
  Bi  Bi22  1  0.166197  0.832830  0.733912  1
  Pb  Pb23  1  0.666889  0.833444  0.732786  1
