# generated using pymatgen
data_Pr16MgCd3TcPt3
_symmetry_space_group_name_H-M   'P 1'
_cell_length_a   10.13138583
_cell_length_b   10.13138643
_cell_length_c   10.13138601
_cell_angle_alpha   59.42500814
_cell_angle_beta   59.42500565
_cell_angle_gamma   59.42500257
_symmetry_Int_Tables_number   1
_chemical_formula_structural   Pr16MgCd3TcPt3
_chemical_formula_sum   'Pr16 Mg1 Cd3 Tc1 Pt3'
_cell_volume   725.72535178
_cell_formula_units_Z   1
loop_
 _symmetry_equiv_pos_site_id
 _symmetry_equiv_pos_as_xyz
  1  'x, y, z'
loop_
 _atom_site_type_symbol
 _atom_site_label
 _atom_site_symmetry_multiplicity
 _atom_site_fract_x
 _atom_site_fract_y
 _atom_site_fract_z
 _atom_site_occupancy
  Pr  Pr0  1  0.352101  0.352101  0.352101  1
  Pr  Pr1  1  0.346523  0.346523  0.956194  1
  Pr  Pr2  1  0.346523  0.956194  0.346523  1
  Pr  Pr3  1  0.956194  0.346523  0.346523  1
  Pr  Pr4  1  0.815413  0.189513  0.189513  1
  Pr  Pr5  1  0.188260  0.808170  0.808170  1
  Pr  Pr6  1  0.189513  0.815413  0.189513  1
  Pr  Pr7  1  0.808170  0.188260  0.808170  1
  Pr  Pr8  1  0.189513  0.189513  0.815413  1
  Pr  Pr9  1  0.808170  0.808170  0.188260  1
  Pr  Pr10  1  0.936279  0.564065  0.564065  1
  Pr  Pr11  1  0.555869  0.938667  0.938667  1
  Pr  Pr12  1  0.564065  0.936279  0.564065  1
  Pr  Pr13  1  0.938667  0.555869  0.938667  1
  Pr  Pr14  1  0.564065  0.564065  0.936279  1
  Pr  Pr15  1  0.938667  0.938667  0.555869  1
  Mg  Mg16  1  0.574676  0.574676  0.574676  1
  Cd  Cd17  1  0.581130  0.581130  0.256666  1
  Cd  Cd18  1  0.581130  0.256666  0.581130  1
  Cd  Cd19  1  0.256666  0.581130  0.581130  1
  Tc  Tc20  1  0.142582  0.142582  0.142582  1
  Pt  Pt21  1  0.145857  0.145857  0.574108  1
  Pt  Pt22  1  0.145857  0.574108  0.145857  1
  Pt  Pt23  1  0.574108  0.145857  0.145857  1
