# generated using pymatgen
data_Li3Pr2ThAgSn4
_symmetry_space_group_name_H-M   'P 1'
_cell_length_a   8.87844689
_cell_length_b   8.86313844
_cell_length_c   8.86313973
_cell_angle_alpha   149.03119681
_cell_angle_beta   131.42822901
_cell_angle_gamma   58.70968397
_symmetry_Int_Tables_number   1
_chemical_formula_structural   Li3Pr2ThAgSn4
_chemical_formula_sum   'Li3 Pr2 Th1 Ag1 Sn4'
_cell_volume   266.99904377
_cell_formula_units_Z   1
loop_
 _symmetry_equiv_pos_site_id
 _symmetry_equiv_pos_as_xyz
  1  'x, y, z'
loop_
 _atom_site_type_symbol
 _atom_site_label
 _atom_site_symmetry_multiplicity
 _atom_site_fract_x
 _atom_site_fract_y
 _atom_site_fract_z
 _atom_site_occupancy
  Li  Li0  1  0.641922  0.328812  0.313110  1
  Li  Li1  1  0.358083  0.669548  0.688534  1
  Li  Li2  1  0.017233  0.327279  0.689956  1
  Pr  Pr3  1  0.367272  0.870347  0.496924  1
  Pr  Pr4  1  0.628311  0.129649  0.498661  1
  Th  Th5  1  0.000914  0.002396  0.998517  1
  Ag  Ag6  1  0.982638  0.672075  0.310563  1
  Sn  Sn7  1  0.225859  0.214397  0.011462  1
  Sn  Sn8  1  0.784450  0.788654  0.995796  1
  Sn  Sn9  1  0.693502  0.497551  0.195951  1
  Sn  Sn10  1  0.299818  0.499290  0.800528  1
