# generated using pymatgen
data_Ta6Co15Si7Ir
_symmetry_space_group_name_H-M   'P 1'
_cell_length_a   7.94950565
_cell_length_b   7.94950576
_cell_length_c   7.94950559
_cell_angle_alpha   59.84022584
_cell_angle_beta   59.84022432
_cell_angle_gamma   59.84022734
_symmetry_Int_Tables_number   1
_chemical_formula_structural   Ta6Co15Si7Ir
_chemical_formula_sum   'Ta6 Co15 Si7 Ir1'
_cell_volume   353.93842432
_cell_formula_units_Z   1
loop_
 _symmetry_equiv_pos_site_id
 _symmetry_equiv_pos_as_xyz
  1  'x, y, z'
loop_
 _atom_site_type_symbol
 _atom_site_label
 _atom_site_symmetry_multiplicity
 _atom_site_fract_x
 _atom_site_fract_y
 _atom_site_fract_z
 _atom_site_occupancy
  Ta  Ta0  1  0.199621  0.797882  0.797882  1
  Ta  Ta1  1  0.199582  0.802434  0.199582  1
  Ta  Ta2  1  0.802434  0.199582  0.199582  1
  Ta  Ta3  1  0.797882  0.199621  0.797882  1
  Ta  Ta4  1  0.797882  0.797882  0.199621  1
  Ta  Ta5  1  0.199582  0.199582  0.802434  1
  Co  Co6  1  0.497777  0.834455  0.834455  1
  Co  Co7  1  0.621223  0.621223  0.143511  1
  Co  Co8  1  0.162865  0.162865  0.506008  1
  Co  Co9  1  0.834455  0.834455  0.497777  1
  Co  Co10  1  0.166745  0.166745  0.166745  1
  Co  Co11  1  0.833773  0.833773  0.833773  1
  Co  Co12  1  0.380945  0.380945  0.856955  1
  Co  Co13  1  0.834455  0.497777  0.834455  1
  Co  Co14  1  0.619894  0.619894  0.619894  1
  Co  Co15  1  0.380945  0.856955  0.380945  1
  Co  Co16  1  0.143511  0.621223  0.621223  1
  Co  Co17  1  0.621223  0.143511  0.621223  1
  Co  Co18  1  0.162865  0.506008  0.162865  1
  Co  Co19  1  0.856955  0.380945  0.380945  1
  Co  Co20  1  0.506008  0.162865  0.162865  1
  Si  Si21  1  0.999707  0.999707  0.498559  1
  Si  Si22  1  0.501073  0.991446  0.501073  1
  Si  Si23  1  0.505163  0.505163  0.505163  1
  Si  Si24  1  0.999707  0.498559  0.999707  1
  Si  Si25  1  0.501073  0.501073  0.991446  1
  Si  Si26  1  0.498559  0.999707  0.999707  1
  Si  Si27  1  0.991446  0.501073  0.501073  1
  Ir  Ir28  1  0.382650  0.382650  0.382650  1
