# generated using pymatgen
data_Th2Co17Si4Os
_symmetry_space_group_name_H-M   'P 1'
_cell_length_a   7.61062376
_cell_length_b   7.61062385
_cell_length_c   7.61062313
_cell_angle_alpha   99.89107332
_cell_angle_beta   99.89107434
_cell_angle_gamma   131.02958136
_symmetry_Int_Tables_number   1
_chemical_formula_structural   Th2Co17Si4Os
_chemical_formula_sum   'Th2 Co17 Si4 Os1'
_cell_volume   302.63531020
_cell_formula_units_Z   1
loop_
 _symmetry_equiv_pos_site_id
 _symmetry_equiv_pos_as_xyz
  1  'x, y, z'
loop_
 _atom_site_type_symbol
 _atom_site_label
 _atom_site_symmetry_multiplicity
 _atom_site_fract_x
 _atom_site_fract_y
 _atom_site_fract_z
 _atom_site_occupancy
  Th  Th0  1  0.000000  0.000000  0.000000  1
  Th  Th1  1  0.250000  0.750000  0.500000  1
  Co  Co2  1  0.767822  0.186062  0.832626  1
  Co  Co3  1  0.353436  0.935197  0.167374  1
  Co  Co4  1  0.186747  0.517454  0.081531  1
  Co  Co5  1  0.894784  0.564077  0.081531  1
  Co  Co6  1  0.482546  0.813253  0.918469  1
  Co  Co7  1  0.435923  0.105216  0.918469  1
  Co  Co8  1  0.064803  0.646564  0.832626  1
  Co  Co9  1  0.813938  0.646564  0.581761  1
  Co  Co10  1  0.482546  0.564077  0.669293  1
  Co  Co11  1  0.894784  0.813253  0.330707  1
  Co  Co12  1  0.064803  0.232178  0.418239  1
  Co  Co13  1  0.353436  0.186062  0.418239  1
  Co  Co14  1  0.767822  0.935197  0.581761  1
  Co  Co15  1  0.435923  0.517454  0.330707  1
  Co  Co16  1  0.186747  0.105216  0.669293  1
  Co  Co17  1  0.813938  0.232178  0.167374  1
  Co  Co18  1  0.500000  0.500000  0.000000  1
  Si  Si19  1  0.624070  0.869717  0.245647  1
  Si  Si20  1  0.621577  0.375930  0.245647  1
  Si  Si21  1  0.130283  0.375930  0.754353  1
  Si  Si22  1  0.624070  0.378423  0.754353  1
  Os  Os23  1  0.750000  0.250000  0.500000  1
