# generated using pymatgen
data_LaSc6Co6Sn23
_symmetry_space_group_name_H-M   'P 1'
_cell_length_a   9.59890900
_cell_length_b   9.59890921
_cell_length_c   9.80485000
_cell_angle_alpha   90.00000000
_cell_angle_beta   90.00000000
_cell_angle_gamma   120.00000271
_symmetry_Int_Tables_number   1
_chemical_formula_structural   LaSc6Co6Sn23
_chemical_formula_sum   'La1 Sc6 Co6 Sn23'
_cell_volume   782.37566266
_cell_formula_units_Z   1
loop_
 _symmetry_equiv_pos_site_id
 _symmetry_equiv_pos_as_xyz
  1  'x, y, z'
loop_
 _atom_site_type_symbol
 _atom_site_label
 _atom_site_symmetry_multiplicity
 _atom_site_fract_x
 _atom_site_fract_y
 _atom_site_fract_z
 _atom_site_occupancy
  La  La0  1  0.000000  0.000000  0.000000  1
  Sc  Sc1  1  0.516997  0.483003  0.692264  1
  Sc  Sc2  1  0.516997  0.033993  0.692264  1
  Sc  Sc3  1  0.966007  0.483003  0.692264  1
  Sc  Sc4  1  0.033993  0.516997  0.307736  1
  Sc  Sc5  1  0.483003  0.966007  0.307736  1
  Sc  Sc6  1  0.483003  0.516997  0.307736  1
  Co  Co7  1  0.169687  0.830313  0.800515  1
  Co  Co8  1  0.169687  0.339374  0.800515  1
  Co  Co9  1  0.660626  0.830313  0.800515  1
  Co  Co10  1  0.339374  0.169687  0.199485  1
  Co  Co11  1  0.830313  0.660626  0.199485  1
  Co  Co12  1  0.830313  0.169687  0.199485  1
  Sn  Sn13  1  0.666667  0.333333  0.176106  1
  Sn  Sn14  1  0.666667  0.333333  0.862071  1
  Sn  Sn15  1  0.333333  0.666667  0.137929  1
  Sn  Sn16  1  0.349625  0.349625  0.000000  1
  Sn  Sn17  1  0.000000  0.650375  0.000000  1
  Sn  Sn18  1  0.650375  0.000000  0.000000  1
  Sn  Sn19  1  0.650375  0.650375  0.000000  1
  Sn  Sn20  1  0.333333  0.666667  0.823894  1
  Sn  Sn21  1  0.442401  0.221200  0.453518  1
  Sn  Sn22  1  0.221200  0.778800  0.546482  1
  Sn  Sn23  1  0.221200  0.442401  0.546482  1
  Sn  Sn24  1  0.557599  0.778800  0.546482  1
  Sn  Sn25  1  0.122680  0.877320  0.278695  1
  Sn  Sn26  1  0.778800  0.557599  0.453518  1
  Sn  Sn27  1  0.778800  0.221200  0.453518  1
  Sn  Sn28  1  0.349625  0.000000  0.000000  1
  Sn  Sn29  1  0.122680  0.245359  0.278695  1
  Sn  Sn30  1  0.754641  0.877320  0.278695  1
  Sn  Sn31  1  0.245359  0.122680  0.721305  1
  Sn  Sn32  1  0.877320  0.754641  0.721305  1
  Sn  Sn33  1  0.877320  0.122680  0.721305  1
  Sn  Sn34  1  0.000000  0.000000  0.500000  1
  Sn  Sn35  1  0.000000  0.349625  0.000000  1
