# generated using pymatgen
data_Tb4Er2Si3Pd
_symmetry_space_group_name_H-M   'P 1'
_cell_length_a   7.49678291
_cell_length_b   7.49678291
_cell_length_c   4.24877700
_cell_angle_alpha   90.00000000
_cell_angle_beta   90.00000000
_cell_angle_gamma   92.51945603
_symmetry_Int_Tables_number   1
_chemical_formula_structural   Tb4Er2Si3Pd
_chemical_formula_sum   'Tb4 Er2 Si3 Pd1'
_cell_volume   238.55789490
_cell_formula_units_Z   1
loop_
 _symmetry_equiv_pos_site_id
 _symmetry_equiv_pos_as_xyz
  1  'x, y, z'
loop_
 _atom_site_type_symbol
 _atom_site_label
 _atom_site_symmetry_multiplicity
 _atom_site_fract_x
 _atom_site_fract_y
 _atom_site_fract_z
 _atom_site_occupancy
  Tb  Tb0  1  0.321700  0.831483  0.500000  1
  Tb  Tb1  1  0.668517  0.178300  0.500000  1
  Tb  Tb2  1  0.174806  0.325194  0.500000  1
  Tb  Tb3  1  0.835805  0.664195  0.500000  1
  Er  Er4  1  0.994279  0.991382  0.000000  1
  Er  Er5  1  0.508618  0.505721  0.000000  1
  Si  Si6  1  0.372509  0.127491  0.000000  1
  Si  Si7  1  0.883141  0.377146  0.000000  1
  Si  Si8  1  0.122854  0.616859  0.000000  1
  Pd  Pd9  1  0.617770  0.882230  0.000000  1
