# generated using pymatgen
data_Y17Tm2LuSn16
_symmetry_space_group_name_H-M   'P 1'
_cell_length_a   8.02999300
_cell_length_b   8.17808471
_cell_length_c   15.49955800
_cell_angle_alpha   90.00000000
_cell_angle_beta   90.00000000
_cell_angle_gamma   89.96095446
_symmetry_Int_Tables_number   1
_chemical_formula_structural   Y17Tm2LuSn16
_chemical_formula_sum   'Y17 Tm2 Lu1 Sn16'
_cell_volume   1017.85516428
_cell_formula_units_Z   1
loop_
 _symmetry_equiv_pos_site_id
 _symmetry_equiv_pos_as_xyz
  1  'x, y, z'
loop_
 _atom_site_type_symbol
 _atom_site_label
 _atom_site_symmetry_multiplicity
 _atom_site_fract_x
 _atom_site_fract_y
 _atom_site_fract_z
 _atom_site_occupancy
  Y  Y0  1  0.367312  0.836464  0.877695  1
  Y  Y1  1  0.867290  0.663504  0.622099  1
  Y  Y2  1  0.633188  0.163912  0.378029  1
  Y  Y3  1  0.132313  0.336791  0.121997  1
  Y  Y4  1  0.633188  0.163912  0.121971  1
  Y  Y5  1  0.132313  0.336791  0.378003  1
  Y  Y6  1  0.367312  0.836464  0.622305  1
  Y  Y7  1  0.867290  0.663504  0.877901  1
  Y  Y8  1  0.522299  0.320799  0.902119  1
  Y  Y9  1  0.022342  0.179198  0.597976  1
  Y  Y10  1  0.477979  0.678917  0.402194  1
  Y  Y11  1  0.977465  0.820542  0.097797  1
  Y  Y12  1  0.477979  0.678917  0.097806  1
  Y  Y13  1  0.977465  0.820542  0.402203  1
  Y  Y14  1  0.522299  0.320799  0.597881  1
  Y  Y15  1  0.022342  0.179198  0.902024  1
  Y  Y16  1  0.301579  0.002458  0.250000  1
  Tm  Tm17  1  0.198606  0.502808  0.750000  1
  Tm  Tm18  1  0.698597  0.997241  0.750000  1
  Lu  Lu19  1  0.801149  0.497038  0.250000  1
  Sn  Sn20  1  0.292442  0.034868  0.041757  1
  Sn  Sn21  1  0.792543  0.465378  0.457431  1
  Sn  Sn22  1  0.707481  0.965389  0.542486  1
  Sn  Sn23  1  0.207608  0.534812  0.957510  1
  Sn  Sn24  1  0.707481  0.965389  0.957514  1
  Sn  Sn25  1  0.207608  0.534812  0.542490  1
  Sn  Sn26  1  0.292442  0.034868  0.458243  1
  Sn  Sn27  1  0.792543  0.465378  0.042569  1
  Sn  Sn28  1  0.564422  0.618987  0.750000  1
  Sn  Sn29  1  0.064200  0.880902  0.750000  1
  Sn  Sn30  1  0.436417  0.381788  0.250000  1
  Sn  Sn31  1  0.934372  0.119890  0.250000  1
  Sn  Sn32  1  0.330823  0.148579  0.750000  1
  Sn  Sn33  1  0.830495  0.351758  0.750000  1
  Sn  Sn34  1  0.670210  0.850798  0.250000  1
  Sn  Sn35  1  0.168606  0.646604  0.250000  1
