# generated using pymatgen
data_Tb11In9CoNi3
_symmetry_space_group_name_H-M   'P 1'
_cell_length_a   3.63192400
_cell_length_b   13.07531993
_cell_length_c   13.03629018
_cell_angle_alpha   112.46302675
_cell_angle_beta   90.00000000
_cell_angle_gamma   90.00000000
_symmetry_Int_Tables_number   1
_chemical_formula_structural   Tb11In9CoNi3
_chemical_formula_sum   'Tb11 In9 Co1 Ni3'
_cell_volume   572.10325631
_cell_formula_units_Z   1
loop_
 _symmetry_equiv_pos_site_id
 _symmetry_equiv_pos_as_xyz
  1  'x, y, z'
loop_
 _atom_site_type_symbol
 _atom_site_label
 _atom_site_symmetry_multiplicity
 _atom_site_fract_x
 _atom_site_fract_y
 _atom_site_fract_z
 _atom_site_occupancy
  Tb  Tb0  1  0.000000  0.917917  0.582679  1
  Tb  Tb1  1  0.000000  0.080705  0.417210  1
  Tb  Tb2  1  0.000000  0.583130  0.918545  1
  Tb  Tb3  1  0.000000  0.417151  0.080865  1
  Tb  Tb4  1  0.000000  0.160665  0.839219  1
  Tb  Tb5  1  0.000000  0.839798  0.161866  1
  Tb  Tb6  1  0.000000  0.374365  0.626174  1
  Tb  Tb7  1  0.000000  0.628766  0.378237  1
  Tb  Tb8  1  0.000000  0.689210  0.684007  1
  Tb  Tb9  1  0.000000  0.312365  0.312390  1
  Tb  Tb10  1  0.000000  0.999940  0.999374  1
  In  In11  1  0.500000  0.158239  0.632590  1
  In  In12  1  0.500000  0.839749  0.368835  1
  In  In13  1  0.500000  0.631761  0.157698  1
  In  In14  1  0.500000  0.368292  0.842898  1
  In  In15  1  0.500000  0.920712  0.779390  1
  In  In16  1  0.500000  0.076878  0.218796  1
  In  In17  1  0.500000  0.780944  0.922928  1
  In  In18  1  0.500000  0.218773  0.076448  1
  In  In19  1  0.500000  0.500218  0.500007  1
  Co  Co20  1  0.500000  0.755039  0.550791  1
  Ni  Ni21  1  0.500000  0.247674  0.449760  1
  Ni  Ni22  1  0.500000  0.549277  0.751166  1
  Ni  Ni23  1  0.500000  0.448430  0.248126  1
