# generated using pymatgen
data_Tb6MgFe(Co4P3)4
_symmetry_space_group_name_H-M   'P 1'
_cell_length_a   3.71784300
_cell_length_b   10.57761000
_cell_length_c   12.24652700
_cell_angle_alpha   90.00000000
_cell_angle_beta   90.00000000
_cell_angle_gamma   90.00000000
_symmetry_Int_Tables_number   1
_chemical_formula_structural   Tb6MgFe(Co4P3)4
_chemical_formula_sum   'Tb6 Mg1 Fe1 Co16 P12'
_cell_volume   481.60561404
_cell_formula_units_Z   1
loop_
 _symmetry_equiv_pos_site_id
 _symmetry_equiv_pos_as_xyz
  1  'x, y, z'
loop_
 _atom_site_type_symbol
 _atom_site_label
 _atom_site_symmetry_multiplicity
 _atom_site_fract_x
 _atom_site_fract_y
 _atom_site_fract_z
 _atom_site_occupancy
  Tb  Tb0  1  0.000000  0.500000  0.525284  1
  Tb  Tb1  1  0.500000  0.000000  0.478897  1
  Tb  Tb2  1  0.500000  0.821147  0.206562  1
  Tb  Tb3  1  0.500000  0.178853  0.206562  1
  Tb  Tb4  1  0.000000  0.682680  0.794676  1
  Tb  Tb5  1  0.000000  0.317320  0.794676  1
  Mg  Mg6  1  0.500000  0.500000  0.152826  1
  Fe  Fe7  1  0.000000  0.000000  0.840888  1
  Co  Co8  1  0.500000  0.500000  0.703746  1
  Co  Co9  1  0.000000  0.000000  0.296779  1
  Co  Co10  1  0.000000  0.500000  0.985867  1
  Co  Co11  1  0.500000  0.000000  0.012109  1
  Co  Co12  1  0.500000  0.329479  0.992945  1
  Co  Co13  1  0.500000  0.670521  0.992945  1
  Co  Co14  1  0.000000  0.163577  0.001916  1
  Co  Co15  1  0.000000  0.836423  0.001916  1
  Co  Co16  1  0.500000  0.295470  0.432711  1
  Co  Co17  1  0.500000  0.704530  0.432711  1
  Co  Co18  1  0.000000  0.202336  0.570348  1
  Co  Co19  1  0.000000  0.797664  0.570348  1
  Co  Co20  1  0.500000  0.879823  0.708580  1
  Co  Co21  1  0.500000  0.120177  0.708580  1
  Co  Co22  1  0.000000  0.622530  0.293642  1
  Co  Co23  1  0.000000  0.377470  0.293642  1
  P  P24  1  0.500000  0.500000  0.883407  1
  P  P25  1  0.000000  0.000000  0.116092  1
  P  P26  1  0.500000  0.500000  0.353048  1
  P  P27  1  0.000000  0.000000  0.656652  1
  P  P28  1  0.500000  0.308572  0.616687  1
  P  P29  1  0.500000  0.691428  0.616687  1
  P  P30  1  0.000000  0.189978  0.386008  1
  P  P31  1  0.000000  0.810022  0.386008  1
  P  P32  1  0.500000  0.849657  0.890403  1
  P  P33  1  0.500000  0.150343  0.890403  1
  P  P34  1  0.000000  0.662356  0.102726  1
  P  P35  1  0.000000  0.337644  0.102726  1
