# generated using pymatgen
data_Ta2Ni4IrRh
_symmetry_space_group_name_H-M   'P 1'
_cell_length_a   5.33689833
_cell_length_b   5.33434622
_cell_length_c   4.29981900
_cell_angle_alpha   90.00000000
_cell_angle_beta   90.00000000
_cell_angle_gamma   118.95369908
_symmetry_Int_Tables_number   1
_chemical_formula_structural   Ta2Ni4IrRh
_chemical_formula_sum   'Ta2 Ni4 Ir1 Rh1'
_cell_volume   107.11096052
_cell_formula_units_Z   1
loop_
 _symmetry_equiv_pos_site_id
 _symmetry_equiv_pos_as_xyz
  1  'x, y, z'
loop_
 _atom_site_type_symbol
 _atom_site_label
 _atom_site_symmetry_multiplicity
 _atom_site_fract_x
 _atom_site_fract_y
 _atom_site_fract_z
 _atom_site_occupancy
  Ta  Ta0  1  0.335811  0.659803  0.000000  1
  Ta  Ta1  1  0.668105  0.334661  0.500000  1
  Ni  Ni2  1  0.837763  0.162074  0.000000  1
  Ni  Ni3  1  0.153416  0.325567  0.500000  1
  Ni  Ni4  1  0.674532  0.846922  0.500000  1
  Ni  Ni5  1  0.165212  0.833829  0.500000  1
  Ir  Ir6  1  0.840599  0.677732  0.000000  1
  Rh  Rh7  1  0.324323  0.159653  0.000000  1
