# generated using pymatgen
data_Hf3VZn2N
_symmetry_space_group_name_H-M   'P 1'
_cell_length_a   8.52823540
_cell_length_b   8.52823490
_cell_length_c   8.53448500
_cell_angle_alpha   59.97574998
_cell_angle_beta   59.97575191
_cell_angle_gamma   59.62518333
_symmetry_Int_Tables_number   1
_chemical_formula_structural   Hf3VZn2N
_chemical_formula_sum   'Hf12 V4 Zn8 N4'
_cell_volume   437.49887456
_cell_formula_units_Z   4
loop_
 _symmetry_equiv_pos_site_id
 _symmetry_equiv_pos_as_xyz
  1  'x, y, z'
loop_
 _atom_site_type_symbol
 _atom_site_label
 _atom_site_symmetry_multiplicity
 _atom_site_fract_x
 _atom_site_fract_y
 _atom_site_fract_z
 _atom_site_occupancy
  Hf  Hf0  1  0.810710  0.185982  0.186692  1
  Hf  Hf1  1  0.185982  0.810710  0.186692  1
  Hf  Hf2  1  0.813177  0.813177  0.186823  1
  Hf  Hf3  1  0.185982  0.810710  0.816616  1
  Hf  Hf4  1  0.810710  0.185982  0.816616  1
  Hf  Hf5  1  0.191031  0.191031  0.808969  1
  Hf  Hf6  1  0.435173  0.074245  0.056393  1
  Hf  Hf7  1  0.074245  0.435173  0.056393  1
  Hf  Hf8  1  0.434831  0.434831  0.065169  1
  Hf  Hf9  1  0.074245  0.435173  0.434189  1
  Hf  Hf10  1  0.435173  0.074245  0.434189  1
  Hf  Hf11  1  0.063160  0.063160  0.436840  1
  V  V12  1  0.416294  0.416294  0.738994  1
  V  V13  1  0.416294  0.416294  0.428417  1
  V  V14  1  0.138253  0.612063  0.624842  1
  V  V15  1  0.612063  0.138253  0.624842  1
  Zn  Zn16  1  0.746541  0.417314  0.418072  1
  Zn  Zn17  1  0.417314  0.746541  0.418072  1
  Zn  Zn18  1  0.831185  0.831185  0.504257  1
  Zn  Zn19  1  0.831185  0.831185  0.833375  1
  Zn  Zn20  1  0.499902  0.834179  0.832960  1
  Zn  Zn21  1  0.834179  0.499902  0.832960  1
  Zn  Zn22  1  0.624951  0.624951  0.124109  1
  Zn  Zn23  1  0.624951  0.624951  0.625990  1
  N  N24  1  0.122988  0.122988  0.623844  1
  N  N25  1  0.122988  0.122988  0.130181  1
  N  N26  1  0.626200  0.120296  0.126752  1
  N  N27  1  0.120296  0.626200  0.126752  1
