# generated using pymatgen
data_Ce4ReB16Os3
_symmetry_space_group_name_H-M   'P 1'
_cell_length_a   3.63258500
_cell_length_b   6.01537213
_cell_length_c   11.65697925
_cell_angle_alpha   90.02354024
_cell_angle_beta   90.00000000
_cell_angle_gamma   90.00000000
_symmetry_Int_Tables_number   1
_chemical_formula_structural   Ce4ReB16Os3
_chemical_formula_sum   'Ce4 Re1 B16 Os3'
_cell_volume   254.72071845
_cell_formula_units_Z   1
loop_
 _symmetry_equiv_pos_site_id
 _symmetry_equiv_pos_as_xyz
  1  'x, y, z'
loop_
 _atom_site_type_symbol
 _atom_site_label
 _atom_site_symmetry_multiplicity
 _atom_site_fract_x
 _atom_site_fract_y
 _atom_site_fract_z
 _atom_site_occupancy
  Ce  Ce0  1  0.000000  0.128125  0.149433  1
  Ce  Ce1  1  0.000000  0.872163  0.850066  1
  Ce  Ce2  1  0.000000  0.627832  0.350556  1
  Ce  Ce3  1  0.000000  0.372146  0.650238  1
  Re  Re4  1  0.000000  0.362348  0.907838  1
  B  B5  1  0.500000  0.526751  0.809471  1
  B  B6  1  0.500000  0.472470  0.190293  1
  B  B7  1  0.500000  0.026573  0.690328  1
  B  B8  1  0.500000  0.972405  0.309405  1
  B  B9  1  0.500000  0.387634  0.045543  1
  B  B10  1  0.500000  0.611721  0.954018  1
  B  B11  1  0.500000  0.888401  0.454127  1
  B  B12  1  0.500000  0.111612  0.545908  1
  B  B13  1  0.500000  0.214457  0.813860  1
  B  B14  1  0.500000  0.785983  0.186157  1
  B  B15  1  0.500000  0.714771  0.685729  1
  B  B16  1  0.500000  0.285983  0.314079  1
  B  B17  1  0.500000  0.137244  0.968690  1
  B  B18  1  0.500000  0.861918  0.031423  1
  B  B19  1  0.500000  0.637641  0.531257  1
  B  B20  1  0.500000  0.362396  0.468701  1
  Os  Os21  1  0.000000  0.140452  0.405416  1
  Os  Os22  1  0.000000  0.859997  0.593467  1
  Os  Os23  1  0.000000  0.638977  0.093998  1
