# generated using pymatgen
data_Ba4LaSmU2O12
_symmetry_space_group_name_H-M   'P 1'
_cell_length_a   6.30014800
_cell_length_b   6.31371828
_cell_length_c   8.88002935
_cell_angle_alpha   90.33593046
_cell_angle_beta   90.00173356
_cell_angle_gamma   89.98934590
_symmetry_Int_Tables_number   1
_chemical_formula_structural   Ba4LaSmU2O12
_chemical_formula_sum   'Ba4 La1 Sm1 U2 O12'
_cell_volume   353.21804365
_cell_formula_units_Z   1
loop_
 _symmetry_equiv_pos_site_id
 _symmetry_equiv_pos_as_xyz
  1  'x, y, z'
loop_
 _atom_site_type_symbol
 _atom_site_label
 _atom_site_symmetry_multiplicity
 _atom_site_fract_x
 _atom_site_fract_y
 _atom_site_fract_z
 _atom_site_occupancy
  Ba  Ba0  1  0.018925  0.991271  0.746782  1
  Ba  Ba1  1  0.482038  0.490162  0.254174  1
  Ba  Ba2  1  0.517962  0.509838  0.745826  1
  Ba  Ba3  1  0.981076  0.008729  0.253218  1
  La  La4  1  0.000000  0.500000  0.000000  1
  Sm  Sm5  1  0.500000  0.000000  0.500000  1
  U  U6  1  0.000000  0.500000  0.500000  1
  U  U7  1  0.500000  0.000000  0.000000  1
  O  O8  1  0.238298  0.212265  0.047786  1
  O  O9  1  0.514302  0.918331  0.239903  1
  O  O10  1  0.740474  0.277569  0.455822  1
  O  O11  1  0.715015  0.258201  0.046769  1
  O  O12  1  0.776411  0.757173  0.541757  1
  O  O13  1  0.014991  0.581086  0.265368  1
  O  O14  1  0.223589  0.242827  0.458243  1
  O  O15  1  0.284985  0.741799  0.953231  1
  O  O16  1  0.259526  0.722431  0.544178  1
  O  O17  1  0.485698  0.081669  0.760097  1
  O  O18  1  0.761702  0.787735  0.952214  1
  O  O19  1  0.985009  0.418914  0.734632  1
