# generated using pymatgen
data_Mn(MoAs)4
_symmetry_space_group_name_H-M   'P 1'
_cell_length_a   6.99168893
_cell_length_b   6.99182249
_cell_length_c   6.99285249
_cell_angle_alpha   93.16266018
_cell_angle_beta   93.22104766
_cell_angle_gamma   152.70174175
_symmetry_Int_Tables_number   1
_chemical_formula_structural   Mn(MoAs)4
_chemical_formula_sum   'Mn1 Mo4 As4'
_cell_volume   152.35019356
_cell_formula_units_Z   1
loop_
 _symmetry_equiv_pos_site_id
 _symmetry_equiv_pos_as_xyz
  1  'x, y, z'
loop_
 _atom_site_type_symbol
 _atom_site_label
 _atom_site_symmetry_multiplicity
 _atom_site_fract_x
 _atom_site_fract_y
 _atom_site_fract_z
 _atom_site_occupancy
  Mn  Mn0  1  0.000059  0.000036  0.000026  1
  Mo  Mo1  1  0.380810  0.302404  0.683239  1
  Mo  Mo2  1  0.302343  0.619170  0.921538  1
  Mo  Mo3  1  0.697625  0.380821  0.078423  1
  Mo  Mo4  1  0.619153  0.697573  0.316720  1
  As  As5  1  0.284140  0.060344  0.344532  1
  As  As6  1  0.060337  0.715814  0.776181  1
  As  As7  1  0.939665  0.284182  0.223839  1
  As  As8  1  0.715866  0.939655  0.655503  1
