# generated using pymatgen
data_NaRh(SeO3)2
_symmetry_space_group_name_H-M   'P 1'
_cell_length_a   5.23355500
_cell_length_b   7.57633700
_cell_length_c   13.80978700
_cell_angle_alpha   90.00000000
_cell_angle_beta   90.00000000
_cell_angle_gamma   90.00000000
_symmetry_Int_Tables_number   1
_chemical_formula_structural   NaRh(SeO3)2
_chemical_formula_sum   'Na4 Rh4 Se8 O24'
_cell_volume   547.57430022
_cell_formula_units_Z   4
loop_
 _symmetry_equiv_pos_site_id
 _symmetry_equiv_pos_as_xyz
  1  'x, y, z'
loop_
 _atom_site_type_symbol
 _atom_site_label
 _atom_site_symmetry_multiplicity
 _atom_site_fract_x
 _atom_site_fract_y
 _atom_site_fract_z
 _atom_site_occupancy
  Na  Na0  1  0.885981  0.185888  0.619340  1
  Na  Na1  1  0.614019  0.185888  0.119340  1
  Na  Na2  1  0.385981  0.685888  0.880660  1
  Na  Na3  1  0.114019  0.685888  0.380660  1
  Rh  Rh4  1  0.293654  0.694227  0.126176  1
  Rh  Rh5  1  0.793654  0.194227  0.373824  1
  Rh  Rh6  1  0.206346  0.694227  0.626176  1
  Rh  Rh7  1  0.706346  0.194227  0.873824  1
  Se  Se8  1  0.309429  0.019530  0.475819  1
  Se  Se9  1  0.269669  0.365573  0.274612  1
  Se  Se10  1  0.809429  0.519530  0.024181  1
  Se  Se11  1  0.230331  0.365573  0.774612  1
  Se  Se12  1  0.190571  0.019530  0.975819  1
  Se  Se13  1  0.730331  0.865573  0.725388  1
  Se  Se14  1  0.769669  0.865573  0.225388  1
  Se  Se15  1  0.690571  0.519530  0.524181  1
  O  O16  1  0.607755  0.702828  0.035794  1
  O  O17  1  0.737108  0.461928  0.904719  1
  O  O18  1  0.523421  0.684037  0.714903  1
  O  O19  1  0.023421  0.184037  0.785097  1
  O  O20  1  0.593104  0.130969  0.497542  1
  O  O21  1  0.487287  0.755367  0.250685  1
  O  O22  1  0.892245  0.702828  0.535794  1
  O  O23  1  0.012713  0.755367  0.750685  1
  O  O24  1  0.476579  0.184037  0.285097  1
  O  O25  1  0.349518  0.430051  0.157066  1
  O  O26  1  0.406896  0.630969  0.502458  1
  O  O27  1  0.237108  0.961928  0.595281  1
  O  O28  1  0.987287  0.255367  0.249315  1
  O  O29  1  0.650482  0.930051  0.842934  1
  O  O30  1  0.976579  0.684037  0.214903  1
  O  O31  1  0.762892  0.461928  0.404719  1
  O  O32  1  0.107755  0.202828  0.464206  1
  O  O33  1  0.093104  0.630969  0.002458  1
  O  O34  1  0.849518  0.930051  0.342934  1
  O  O35  1  0.392245  0.202828  0.964206  1
  O  O36  1  0.906896  0.130969  0.997542  1
  O  O37  1  0.150482  0.430051  0.657066  1
  O  O38  1  0.512713  0.255367  0.749315  1
  O  O39  1  0.262892  0.961928  0.095281  1
