# generated using pymatgen
data_CaLa2Si(AsPd4)5
_symmetry_space_group_name_H-M   'P 1'
_cell_length_a   8.94900777
_cell_length_b   8.91018461
_cell_length_c   8.91018495
_cell_angle_alpha   60.28847539
_cell_angle_beta   59.85576417
_cell_angle_gamma   59.85576406
_symmetry_Int_Tables_number   1
_chemical_formula_structural   CaLa2Si(AsPd4)5
_chemical_formula_sum   'Ca1 La2 Si1 As5 Pd20'
_cell_volume   502.36197375
_cell_formula_units_Z   1
loop_
 _symmetry_equiv_pos_site_id
 _symmetry_equiv_pos_as_xyz
  1  'x, y, z'
loop_
 _atom_site_type_symbol
 _atom_site_label
 _atom_site_symmetry_multiplicity
 _atom_site_fract_x
 _atom_site_fract_y
 _atom_site_fract_z
 _atom_site_occupancy
  Ca  Ca0  1  0.999584  0.000416  0.000416  1
  La  La1  1  0.750020  0.749980  0.749980  1
  La  La2  1  0.250020  0.249980  0.249980  1
  Si  Si3  1  0.736164  0.263836  0.263836  1
  As  As4  1  0.737185  0.737674  0.262815  1
  As  As5  1  0.262326  0.262815  0.737674  1
  As  As6  1  0.737185  0.262815  0.737674  1
  As  As7  1  0.262326  0.737674  0.262815  1
  As  As8  1  0.262144  0.737856  0.737856  1
  Pd  Pd9  1  0.616139  0.615099  0.615099  1
  Pd  Pd10  1  0.391487  0.381658  0.381658  1
  Pd  Pd11  1  0.153662  0.615099  0.615099  1
  Pd  Pd12  1  0.618342  0.154802  0.608513  1
  Pd  Pd13  1  0.845198  0.381658  0.381658  1
  Pd  Pd14  1  0.384901  0.846338  0.383861  1
  Pd  Pd15  1  0.618342  0.608513  0.154802  1
  Pd  Pd16  1  0.384901  0.383861  0.846338  1
  Pd  Pd17  1  0.000694  0.999306  0.648663  1
  Pd  Pd18  1  0.992723  0.007277  0.347813  1
  Pd  Pd19  1  0.351337  0.648663  0.999306  1
  Pd  Pd20  1  0.652187  0.347813  0.007277  1
  Pd  Pd21  1  0.000694  0.648663  0.999306  1
  Pd  Pd22  1  0.652187  0.007277  0.347813  1
  Pd  Pd23  1  0.992723  0.347813  0.007277  1
  Pd  Pd24  1  0.351337  0.999306  0.648663  1
  Pd  Pd25  1  0.649677  0.000951  0.000951  1
  Pd  Pd26  1  0.348420  0.000951  0.000951  1
  Pd  Pd27  1  0.999049  0.651580  0.350323  1
  Pd  Pd28  1  0.999049  0.350323  0.651580  1
