# generated using pymatgen
data_Np5Pa(Ni3Bi4)2
_symmetry_space_group_name_H-M   'P 1'
_cell_length_a   8.35188989
_cell_length_b   8.35188885
_cell_length_c   8.35188900
_cell_angle_alpha   109.67682900
_cell_angle_beta   109.36851604
_cell_angle_gamma   109.36850984
_symmetry_Int_Tables_number   1
_chemical_formula_structural   Np5Pa(Ni3Bi4)2
_chemical_formula_sum   'Np5 Pa1 Ni6 Bi8'
_cell_volume   448.46453919
_cell_formula_units_Z   1
loop_
 _symmetry_equiv_pos_site_id
 _symmetry_equiv_pos_as_xyz
  1  'x, y, z'
loop_
 _atom_site_type_symbol
 _atom_site_label
 _atom_site_symmetry_multiplicity
 _atom_site_fract_x
 _atom_site_fract_y
 _atom_site_fract_z
 _atom_site_occupancy
  Np  Np0  1  0.122748  0.874010  0.248867  1
  Np  Np1  1  0.374993  0.625364  0.750820  1
  Np  Np2  1  0.875001  0.251708  0.128566  1
  Np  Np3  1  0.626539  0.751157  0.375834  1
  Np  Np4  1  0.249882  0.124095  0.873595  1
  Pa  Pa5  1  0.750142  0.375151  0.625754  1
  Ni  Ni6  1  0.633805  0.377175  0.265932  1
  Ni  Ni7  1  0.866967  0.135257  0.744338  1
  Ni  Ni8  1  0.387461  0.252562  0.621800  1
  Ni  Ni9  1  0.111611  0.734314  0.865729  1
  Ni  Ni10  1  0.248161  0.624772  0.374128  1
  Ni  Ni11  1  0.751186  0.876638  0.125227  1
  Bi  Bi12  1  0.332446  0.333883  0.332789  1
  Bi  Bi13  1  0.170101  0.499696  0.002189  1
  Bi  Bi14  1  0.003606  0.165704  0.499623  1
  Bi  Bi15  1  0.832672  0.836792  0.832465  1
  Bi  Bi16  1  0.495349  0.996475  0.162876  1
  Bi  Bi17  1  0.666619  0.499811  0.003466  1
  Bi  Bi18  1  0.498426  0.997466  0.666926  1
  Bi  Bi19  1  0.002286  0.667969  0.499074  1
