# generated using pymatgen
data_BaNd(AgPb)2
_symmetry_space_group_name_H-M   'P 1'
_cell_length_a   5.02879700
_cell_length_b   5.02879593
_cell_length_c   8.30201500
_cell_angle_alpha   90.00000000
_cell_angle_beta   90.00000000
_cell_angle_gamma   120.00000049
_symmetry_Int_Tables_number   1
_chemical_formula_structural   BaNd(AgPb)2
_chemical_formula_sum   'Ba1 Nd1 Ag2 Pb2'
_cell_volume   181.82025378
_cell_formula_units_Z   1
loop_
 _symmetry_equiv_pos_site_id
 _symmetry_equiv_pos_as_xyz
  1  'x, y, z'
loop_
 _atom_site_type_symbol
 _atom_site_label
 _atom_site_symmetry_multiplicity
 _atom_site_fract_x
 _atom_site_fract_y
 _atom_site_fract_z
 _atom_site_occupancy
  Ba  Ba0  1  0.000000  0.000000  0.019514  1
  Nd  Nd1  1  0.000000  0.000000  0.519785  1
  Ag  Ag2  1  0.666667  0.333333  0.341019  1
  Ag  Ag3  1  0.333333  0.666667  0.725761  1
  Pb  Pb4  1  0.333333  0.666667  0.298878  1
  Pb  Pb5  1  0.666667  0.333333  0.722042  1
