# generated using pymatgen
data_DyEr5TcBi2
_symmetry_space_group_name_H-M   'P 1'
_cell_length_a   8.23940780
_cell_length_b   8.24571231
_cell_length_c   4.27854600
_cell_angle_alpha   90.00000000
_cell_angle_beta   90.00000000
_cell_angle_gamma   120.02530282
_symmetry_Int_Tables_number   1
_chemical_formula_structural   DyEr5TcBi2
_chemical_formula_sum   'Dy1 Er5 Tc1 Bi2'
_cell_volume   251.67508646
_cell_formula_units_Z   1
loop_
 _symmetry_equiv_pos_site_id
 _symmetry_equiv_pos_as_xyz
  1  'x, y, z'
loop_
 _atom_site_type_symbol
 _atom_site_label
 _atom_site_symmetry_multiplicity
 _atom_site_fract_x
 _atom_site_fract_y
 _atom_site_fract_z
 _atom_site_occupancy
  Dy  Dy0  1  0.000000  0.610392  0.500000  1
  Er  Er1  1  0.232228  0.000509  0.000000  1
  Er  Er2  1  0.388796  0.388712  0.500000  1
  Er  Er3  1  0.767772  0.768281  0.000000  1
  Er  Er4  1  0.000000  0.231872  0.000000  1
  Er  Er5  1  0.611204  0.999916  0.500000  1
  Tc  Tc6  1  0.000000  0.000853  0.500000  1
  Bi  Bi7  1  0.333824  0.666645  0.000000  1
  Bi  Bi8  1  0.666176  0.332820  0.000000  1
