# generated using pymatgen
data_Th8Si8NiIr7
_symmetry_space_group_name_H-M   'P 1'
_cell_length_a   5.87463296
_cell_length_b   7.76493085
_cell_length_c   10.81812900
_cell_angle_alpha   88.29490147
_cell_angle_beta   90.06653554
_cell_angle_gamma   89.89849967
_symmetry_Int_Tables_number   1
_chemical_formula_structural   Th8Si8NiIr7
_chemical_formula_sum   'Th8 Si8 Ni1 Ir7'
_cell_volume   493.26141384
_cell_formula_units_Z   1
loop_
 _symmetry_equiv_pos_site_id
 _symmetry_equiv_pos_as_xyz
  1  'x, y, z'
loop_
 _atom_site_type_symbol
 _atom_site_label
 _atom_site_symmetry_multiplicity
 _atom_site_fract_x
 _atom_site_fract_y
 _atom_site_fract_z
 _atom_site_occupancy
  Th  Th0  1  0.353383  0.966836  0.141740  1
  Th  Th1  1  0.645758  0.030742  0.859911  1
  Th  Th2  1  0.856967  0.531964  0.858986  1
  Th  Th3  1  0.147701  0.467409  0.142085  1
  Th  Th4  1  0.872767  0.827134  0.373914  1
  Th  Th5  1  0.128581  0.172285  0.631014  1
  Th  Th6  1  0.369465  0.675326  0.629843  1
  Th  Th7  1  0.628537  0.327318  0.370348  1
  Si  Si8  1  0.863224  0.527165  0.582830  1
  Si  Si9  1  0.130216  0.463815  0.423817  1
  Si  Si10  1  0.371625  0.968017  0.421447  1
  Si  Si11  1  0.623629  0.041922  0.584417  1
  Si  Si12  1  0.642177  0.623515  0.142816  1
  Si  Si13  1  0.362395  0.378007  0.850333  1
  Si  Si14  1  0.141906  0.877158  0.855201  1
  Si  Si15  1  0.859767  0.124310  0.141229  1
  Ni  Ni16  1  0.603720  0.323991  0.666359  1
  Ir  Ir17  1  0.907450  0.834563  0.053020  1
  Ir  Ir18  1  0.100729  0.166253  0.944483  1
  Ir  Ir19  1  0.407011  0.665272  0.944308  1
  Ir  Ir20  1  0.592738  0.334615  0.051936  1
  Ir  Ir21  1  0.894248  0.822368  0.667641  1
  Ir  Ir22  1  0.097285  0.174763  0.330358  1
  Ir  Ir23  1  0.398717  0.675255  0.331962  1
