# generated using pymatgen
data_Sc22Fe2(IrPt)3
_symmetry_space_group_name_H-M   'P 1'
_cell_length_a   9.45336612
_cell_length_b   9.51338075
_cell_length_c   9.48356472
_cell_angle_alpha   59.68582527
_cell_angle_beta   59.64185311
_cell_angle_gamma   60.00033567
_symmetry_Int_Tables_number   1
_chemical_formula_structural   Sc22Fe2(IrPt)3
_chemical_formula_sum   'Sc22 Fe2 Ir3 Pt3'
_cell_volume   600.00305867
_cell_formula_units_Z   1
loop_
 _symmetry_equiv_pos_site_id
 _symmetry_equiv_pos_as_xyz
  1  'x, y, z'
loop_
 _atom_site_type_symbol
 _atom_site_label
 _atom_site_symmetry_multiplicity
 _atom_site_fract_x
 _atom_site_fract_y
 _atom_site_fract_z
 _atom_site_occupancy
  Sc  Sc0  1  0.808838  0.809208  0.191162  1
  Sc  Sc1  1  0.191110  0.808890  0.191110  1
  Sc  Sc2  1  0.808480  0.191401  0.191520  1
  Sc  Sc3  1  0.191162  0.190792  0.808838  1
  Sc  Sc4  1  0.808890  0.191110  0.808890  1
  Sc  Sc5  1  0.191520  0.808599  0.808480  1
  Sc  Sc6  1  0.613150  0.614149  0.155432  1
  Sc  Sc7  1  0.614968  0.156651  0.612071  1
  Sc  Sc8  1  0.155432  0.617267  0.613150  1
  Sc  Sc9  1  0.612071  0.616308  0.614968  1
  Sc  Sc10  1  0.386850  0.385851  0.844568  1
  Sc  Sc11  1  0.385032  0.843349  0.387929  1
  Sc  Sc12  1  0.844568  0.382733  0.386850  1
  Sc  Sc13  1  0.387929  0.383692  0.385032  1
  Sc  Sc14  1  0.837922  0.845882  0.475254  1
  Sc  Sc15  1  0.837065  0.475447  0.842453  1
  Sc  Sc16  1  0.475254  0.840940  0.837922  1
  Sc  Sc17  1  0.842453  0.845032  0.837065  1
  Sc  Sc18  1  0.162078  0.154118  0.524746  1
  Sc  Sc19  1  0.162935  0.524553  0.157547  1
  Sc  Sc20  1  0.524746  0.159060  0.162078  1
  Sc  Sc21  1  0.157547  0.154968  0.162935  1
  Fe  Fe22  1  0.000000  0.000000  0.000000  1
  Fe  Fe23  1  0.500000  0.500000  0.500000  1
  Ir  Ir24  1  0.000000  0.000000  0.500000  1
  Ir  Ir25  1  0.500000  0.000000  0.500000  1
  Ir  Ir26  1  0.500000  0.500000  0.000000  1
  Pt  Pt27  1  0.000000  0.500000  0.500000  1
  Pt  Pt28  1  0.000000  0.500000  0.000000  1
  Pt  Pt29  1  0.500000  0.000000  0.000000  1
