# generated using pymatgen
data_Ho5Co2Au
_symmetry_space_group_name_H-M   'P 1'
_cell_length_a   8.45295212
_cell_length_b   8.45295237
_cell_length_c   8.45295361
_cell_angle_alpha   127.79739817
_cell_angle_beta   127.79740050
_cell_angle_gamma   76.95346322
_symmetry_Int_Tables_number   1
_chemical_formula_structural   Ho5Co2Au
_chemical_formula_sum   'Ho10 Co4 Au2'
_cell_volume   366.09635970
_cell_formula_units_Z   2
loop_
 _symmetry_equiv_pos_site_id
 _symmetry_equiv_pos_as_xyz
  1  'x, y, z'
loop_
 _atom_site_type_symbol
 _atom_site_label
 _atom_site_symmetry_multiplicity
 _atom_site_fract_x
 _atom_site_fract_y
 _atom_site_fract_z
 _atom_site_occupancy
  Ho  Ho0  1  0.698961  0.529359  0.500000  1
  Ho  Ho1  1  0.470641  0.970641  0.169602  1
  Ho  Ho2  1  0.801039  0.301039  0.830398  1
  Ho  Ho3  1  0.529359  0.029359  0.830398  1
  Ho  Ho4  1  0.000000  0.000000  0.000000  1
  Ho  Ho5  1  0.029359  0.198961  0.500000  1
  Ho  Ho6  1  0.301039  0.470641  0.500000  1
  Ho  Ho7  1  0.198961  0.698961  0.169602  1
  Ho  Ho8  1  0.970641  0.801039  0.500000  1
  Ho  Ho9  1  0.500000  0.500000  0.000000  1
  Co  Co10  1  0.128466  0.628466  0.756930  1
  Co  Co11  1  0.871534  0.371534  0.243070  1
  Co  Co12  1  0.628466  0.871534  0.500000  1
  Co  Co13  1  0.371534  0.128466  0.500000  1
  Au  Au14  1  0.250000  0.250000  0.000000  1
  Au  Au15  1  0.750000  0.750000  0.000000  1
