# generated using pymatgen
data_Yb3Y5(SiPt)8
_symmetry_space_group_name_H-M   'P 1'
_cell_length_a   4.29521100
_cell_length_b   7.39229400
_cell_length_c   14.15768869
_cell_angle_alpha   89.98233750
_cell_angle_beta   90.00000000
_cell_angle_gamma   90.00000000
_symmetry_Int_Tables_number   1
_chemical_formula_structural   Yb3Y5(SiPt)8
_chemical_formula_sum   'Yb3 Y5 Si8 Pt8'
_cell_volume   449.52730021
_cell_formula_units_Z   1
loop_
 _symmetry_equiv_pos_site_id
 _symmetry_equiv_pos_as_xyz
  1  'x, y, z'
loop_
 _atom_site_type_symbol
 _atom_site_label
 _atom_site_symmetry_multiplicity
 _atom_site_fract_x
 _atom_site_fract_y
 _atom_site_fract_z
 _atom_site_occupancy
  Yb  Yb0  1  0.500000  0.801614  0.748314  1
  Yb  Yb1  1  0.000000  0.198669  0.751680  1
  Yb  Yb2  1  0.500000  0.796775  0.251491  1
  Y  Y3  1  0.000000  0.200044  0.248833  1
  Y  Y4  1  0.500000  0.705720  0.999495  1
  Y  Y5  1  0.000000  0.294948  0.501696  1
  Y  Y6  1  0.500000  0.700470  0.500224  1
  Y  Y7  1  0.000000  0.300520  0.998479  1
  Si  Si8  1  0.500000  0.408715  0.651009  1
  Si  Si9  1  0.000000  0.592512  0.849564  1
  Si  Si10  1  0.500000  0.408469  0.348753  1
  Si  Si11  1  0.000000  0.591041  0.148625  1
  Si  Si12  1  0.500000  0.092390  0.092543  1
  Si  Si13  1  0.000000  0.907343  0.408177  1
  Si  Si14  1  0.500000  0.091879  0.908529  1
  Si  Si15  1  0.000000  0.909106  0.591807  1
  Pt  Pt16  1  0.500000  0.083438  0.604541  1
  Pt  Pt17  1  0.000000  0.917725  0.895171  1
  Pt  Pt18  1  0.500000  0.080201  0.393092  1
  Pt  Pt19  1  0.000000  0.918766  0.107029  1
  Pt  Pt20  1  0.500000  0.418140  0.155477  1
  Pt  Pt21  1  0.000000  0.580735  0.346535  1
  Pt  Pt22  1  0.500000  0.418656  0.844778  1
  Pt  Pt23  1  0.000000  0.582122  0.654159  1
