# generated using pymatgen
data_YHo5(ScAu5)2
_symmetry_space_group_name_H-M   'P 1'
_cell_length_a   7.89464915
_cell_length_b   7.89749567
_cell_length_c   7.89577137
_cell_angle_alpha   66.26414633
_cell_angle_beta   66.28183394
_cell_angle_gamma   66.25991706
_symmetry_Int_Tables_number   1
_chemical_formula_structural   YHo5(ScAu5)2
_chemical_formula_sum   'Y1 Ho5 Sc2 Au10'
_cell_volume   395.20103085
_cell_formula_units_Z   1
loop_
 _symmetry_equiv_pos_site_id
 _symmetry_equiv_pos_as_xyz
  1  'x, y, z'
loop_
 _atom_site_type_symbol
 _atom_site_label
 _atom_site_symmetry_multiplicity
 _atom_site_fract_x
 _atom_site_fract_y
 _atom_site_fract_z
 _atom_site_occupancy
  Y  Y0  1  0.891564  0.189125  0.618425  1
  Ho  Ho1  1  0.618455  0.891566  0.189151  1
  Ho  Ho2  1  0.189233  0.618560  0.891463  1
  Ho  Ho3  1  0.108464  0.810702  0.381427  1
  Ho  Ho4  1  0.381359  0.108406  0.810839  1
  Ho  Ho5  1  0.810867  0.381434  0.108353  1
  Sc  Sc6  1  0.658601  0.658799  0.658662  1
  Sc  Sc7  1  0.341514  0.341354  0.341386  1
  Au  Au8  1  0.000124  0.999710  0.000524  1
  Au  Au9  1  0.499756  0.500209  0.499937  1
  Au  Au10  1  0.806639  0.806231  0.807147  1
  Au  Au11  1  0.193359  0.193140  0.192906  1
  Au  Au12  1  0.937183  0.551786  0.317418  1
  Au  Au13  1  0.318475  0.936767  0.550983  1
  Au  Au14  1  0.550530  0.318192  0.937567  1
  Au  Au15  1  0.063042  0.449293  0.682061  1
  Au  Au16  1  0.681854  0.062670  0.448852  1
  Au  Au17  1  0.448980  0.682058  0.062900  1
