# generated using pymatgen
data_RbUF6
_symmetry_space_group_name_H-M   'P 1'
_cell_length_a   5.42928546
_cell_length_b   5.42928524
_cell_length_c   5.42928616
_cell_angle_alpha   96.59446580
_cell_angle_beta   96.59445484
_cell_angle_gamma   96.59447567
_symmetry_Int_Tables_number   1
_chemical_formula_structural   RbUF6
_chemical_formula_sum   'Rb1 U1 F6'
_cell_volume   156.59431435
_cell_formula_units_Z   1
loop_
 _symmetry_equiv_pos_site_id
 _symmetry_equiv_pos_as_xyz
  1  'x, y, z'
loop_
 _atom_site_type_symbol
 _atom_site_label
 _atom_site_symmetry_multiplicity
 _atom_site_fract_x
 _atom_site_fract_y
 _atom_site_fract_z
 _atom_site_occupancy
  Rb  Rb0  1  0.500000  0.500000  0.500000  1
  U  U1  1  0.000000  0.000000  0.000000  1
  F  F2  1  0.690269  0.772258  0.081583  1
  F  F3  1  0.772258  0.081583  0.690269  1
  F  F4  1  0.918417  0.309731  0.227742  1
  F  F5  1  0.227742  0.918417  0.309731  1
  F  F6  1  0.309731  0.227742  0.918417  1
  F  F7  1  0.081583  0.690269  0.772258  1
