# generated using pymatgen
data_PrScV3Si7Pt9
_symmetry_space_group_name_H-M   'P 1'
_cell_length_a   9.87771100
_cell_length_b   9.87771105
_cell_length_c   3.92315200
_cell_angle_alpha   90.00000000
_cell_angle_beta   90.00000000
_cell_angle_gamma   119.99999649
_symmetry_Int_Tables_number   1
_chemical_formula_structural   PrScV3Si7Pt9
_chemical_formula_sum   'Pr1 Sc1 V3 Si7 Pt9'
_cell_volume   331.49609365
_cell_formula_units_Z   1
loop_
 _symmetry_equiv_pos_site_id
 _symmetry_equiv_pos_as_xyz
  1  'x, y, z'
loop_
 _atom_site_type_symbol
 _atom_site_label
 _atom_site_symmetry_multiplicity
 _atom_site_fract_x
 _atom_site_fract_y
 _atom_site_fract_z
 _atom_site_occupancy
  Pr  Pr0  1  0.333333  0.666667  0.500000  1
  Sc  Sc1  1  0.000000  0.000000  0.000000  1
  V  V2  1  0.879932  0.450213  0.500000  1
  V  V3  1  0.570282  0.120068  0.500000  1
  V  V4  1  0.549787  0.429718  0.500000  1
  Si  Si5  1  0.254132  0.210683  0.500000  1
  Si  Si6  1  0.789317  0.043449  0.500000  1
  Si  Si7  1  0.956551  0.745868  0.500000  1
  Si  Si8  1  0.555626  0.631262  0.000000  1
  Si  Si9  1  0.368738  0.924362  0.000000  1
  Si  Si10  1  0.075638  0.444374  0.000000  1
  Si  Si11  1  0.666667  0.333333  0.000000  1
  Pt  Pt12  1  0.221461  0.947825  0.500000  1
  Pt  Pt13  1  0.052175  0.273637  0.500000  1
  Pt  Pt14  1  0.726363  0.778539  0.500000  1
  Pt  Pt15  1  0.303225  0.404332  0.000000  1
  Pt  Pt16  1  0.595668  0.898892  0.000000  1
  Pt  Pt17  1  0.101108  0.696775  0.000000  1
  Pt  Pt18  1  0.391840  0.178619  0.000000  1
  Pt  Pt19  1  0.821381  0.213221  0.000000  1
  Pt  Pt20  1  0.786779  0.608160  0.000000  1
