# generated using pymatgen
data_Na16ZrTiAs8
_symmetry_space_group_name_H-M   'P 1'
_cell_length_a   9.85844851
_cell_length_b   9.85844880
_cell_length_c   9.85844900
_cell_angle_alpha   60.00000270
_cell_angle_beta   60.00000171
_cell_angle_gamma   60.00000213
_symmetry_Int_Tables_number   1
_chemical_formula_structural   Na16ZrTiAs8
_chemical_formula_sum   'Na16 Zr1 Ti1 As8'
_cell_volume   677.50230275
_cell_formula_units_Z   1
loop_
 _symmetry_equiv_pos_site_id
 _symmetry_equiv_pos_as_xyz
  1  'x, y, z'
loop_
 _atom_site_type_symbol
 _atom_site_label
 _atom_site_symmetry_multiplicity
 _atom_site_fract_x
 _atom_site_fract_y
 _atom_site_fract_z
 _atom_site_occupancy
  Na  Na0  1  0.623189  0.623189  0.130432  1
  Na  Na1  1  0.623189  0.130432  0.623189  1
  Na  Na2  1  0.130432  0.623189  0.623189  1
  Na  Na3  1  0.623189  0.623189  0.623189  1
  Na  Na4  1  0.029382  0.470618  0.470618  1
  Na  Na5  1  0.779276  0.220724  0.220724  1
  Na  Na6  1  0.470618  0.029382  0.470618  1
  Na  Na7  1  0.470618  0.470618  0.029382  1
  Na  Na8  1  0.029382  0.029382  0.470618  1
  Na  Na9  1  0.029382  0.470618  0.029382  1
  Na  Na10  1  0.470618  0.029382  0.029382  1
  Na  Na11  1  0.779276  0.220724  0.779276  1
  Na  Na12  1  0.220724  0.779276  0.220724  1
  Na  Na13  1  0.220724  0.220724  0.779276  1
  Na  Na14  1  0.779276  0.779276  0.220724  1
  Na  Na15  1  0.220724  0.779276  0.779276  1
  Zr  Zr16  1  0.750000  0.750000  0.750000  1
  Ti  Ti17  1  0.500000  0.500000  0.500000  1
  As  As18  1  0.858898  0.858898  0.423308  1
  As  As19  1  0.858898  0.423308  0.858898  1
  As  As20  1  0.395596  0.395596  0.813211  1
  As  As21  1  0.395596  0.813211  0.395596  1
  As  As22  1  0.813211  0.395596  0.395596  1
  As  As23  1  0.858898  0.858898  0.858898  1
  As  As24  1  0.423308  0.858898  0.858898  1
  As  As25  1  0.395596  0.395596  0.395596  1
