# generated using pymatgen
data_Ta10Si6BH
_symmetry_space_group_name_H-M   'P 1'
_cell_length_a   7.57851200
_cell_length_b   7.57851207
_cell_length_c   5.28150800
_cell_angle_alpha   90.00000000
_cell_angle_beta   90.00000000
_cell_angle_gamma   119.99999968
_symmetry_Int_Tables_number   1
_chemical_formula_structural   Ta10Si6BH
_chemical_formula_sum   'Ta10 Si6 B1 H1'
_cell_volume   262.69781741
_cell_formula_units_Z   1
loop_
 _symmetry_equiv_pos_site_id
 _symmetry_equiv_pos_as_xyz
  1  'x, y, z'
loop_
 _atom_site_type_symbol
 _atom_site_label
 _atom_site_symmetry_multiplicity
 _atom_site_fract_x
 _atom_site_fract_y
 _atom_site_fract_z
 _atom_site_occupancy
  Ta  Ta0  1  0.245331  0.000000  0.247742  1
  Ta  Ta1  1  0.754669  0.000000  0.752258  1
  Ta  Ta2  1  0.000000  0.245331  0.247742  1
  Ta  Ta3  1  0.000000  0.754669  0.752258  1
  Ta  Ta4  1  0.754669  0.754669  0.247742  1
  Ta  Ta5  1  0.245331  0.245331  0.752258  1
  Ta  Ta6  1  0.333333  0.666667  0.000000  1
  Ta  Ta7  1  0.666667  0.333333  0.000000  1
  Ta  Ta8  1  0.666667  0.333333  0.500000  1
  Ta  Ta9  1  0.333333  0.666667  0.500000  1
  Si  Si10  1  0.600301  0.000000  0.245752  1
  Si  Si11  1  0.399699  0.000000  0.754248  1
  Si  Si12  1  0.000000  0.600301  0.245752  1
  Si  Si13  1  0.000000  0.399699  0.754248  1
  Si  Si14  1  0.399699  0.399699  0.245752  1
  Si  Si15  1  0.600301  0.600301  0.754248  1
  B  B16  1  0.000000  0.000000  0.500000  1
  H  H17  1  0.000000  0.000000  0.000000  1
