# generated using pymatgen
data_Ac6Mg2HgAu9
_symmetry_space_group_name_H-M   'P 1'
_cell_length_a   8.47168043
_cell_length_b   8.47167917
_cell_length_c   8.47168100
_cell_angle_alpha   65.58719746
_cell_angle_beta   65.58720133
_cell_angle_gamma   65.58718123
_symmetry_Int_Tables_number   1
_chemical_formula_structural   Ac6Mg2HgAu9
_chemical_formula_sum   'Ac6 Mg2 Hg1 Au9'
_cell_volume   482.10592339
_cell_formula_units_Z   1
loop_
 _symmetry_equiv_pos_site_id
 _symmetry_equiv_pos_as_xyz
  1  'x, y, z'
loop_
 _atom_site_type_symbol
 _atom_site_label
 _atom_site_symmetry_multiplicity
 _atom_site_fract_x
 _atom_site_fract_y
 _atom_site_fract_z
 _atom_site_occupancy
  Ac  Ac0  1  0.897467  0.188242  0.624995  1
  Ac  Ac1  1  0.624995  0.897467  0.188242  1
  Ac  Ac2  1  0.188242  0.624995  0.897467  1
  Ac  Ac3  1  0.102533  0.811758  0.375005  1
  Ac  Ac4  1  0.375005  0.102533  0.811758  1
  Ac  Ac5  1  0.811758  0.375005  0.102533  1
  Mg  Mg6  1  0.658016  0.658016  0.658016  1
  Mg  Mg7  1  0.341984  0.341984  0.341984  1
  Hg  Hg8  1  0.500000  0.500000  0.500000  1
  Au  Au9  1  0.000000  0.000000  0.000000  1
  Au  Au10  1  0.797448  0.797448  0.797448  1
  Au  Au11  1  0.202552  0.202552  0.202552  1
  Au  Au12  1  0.938912  0.548432  0.322539  1
  Au  Au13  1  0.322539  0.938912  0.548432  1
  Au  Au14  1  0.548432  0.322539  0.938912  1
  Au  Au15  1  0.061088  0.451568  0.677461  1
  Au  Au16  1  0.677461  0.061088  0.451568  1
  Au  Au17  1  0.451568  0.677461  0.061088  1
