# generated using pymatgen
data_Co2Ni4P3
_symmetry_space_group_name_H-M   'P 1'
_cell_length_a   3.32026336
_cell_length_b   6.71948053
_cell_length_c   6.71509399
_cell_angle_alpha   128.53193276
_cell_angle_beta   60.38021123
_cell_angle_gamma   119.59389817
_symmetry_Int_Tables_number   1
_chemical_formula_structural   Co2Ni4P3
_chemical_formula_sum   'Co2 Ni4 P3'
_cell_volume   97.99790026
_cell_formula_units_Z   1
loop_
 _symmetry_equiv_pos_site_id
 _symmetry_equiv_pos_as_xyz
  1  'x, y, z'
loop_
 _atom_site_type_symbol
 _atom_site_label
 _atom_site_symmetry_multiplicity
 _atom_site_fract_x
 _atom_site_fract_y
 _atom_site_fract_z
 _atom_site_occupancy
  Co  Co0  1  0.924341  0.009146  0.741031  1
  Co  Co1  1  0.448037  0.271722  0.478991  1
  Ni  Ni2  1  0.072239  0.668765  0.752055  1
  Ni  Ni3  1  0.186043  0.533709  0.003340  1
  Ni  Ni4  1  0.687169  0.870519  0.339097  1
  Ni  Ni5  1  0.300036  0.282903  0.138897  1
  P  P6  1  0.847133  0.605873  0.414399  1
  P  P7  1  0.524997  0.944728  0.075565  1
  P  P8  1  0.686257  0.262276  0.731741  1
