# generated using pymatgen
data_Yb2Ho2RuPt3O14
_symmetry_space_group_name_H-M   'P 1'
_cell_length_a   7.23416480
_cell_length_b   7.25180122
_cell_length_c   7.22638300
_cell_angle_alpha   60.11588444
_cell_angle_beta   60.03558212
_cell_angle_gamma   59.97878919
_symmetry_Int_Tables_number   1
_chemical_formula_structural   Yb2Ho2RuPt3O14
_chemical_formula_sum   'Yb2 Ho2 Ru1 Pt3 O14'
_cell_volume   268.32813274
_cell_formula_units_Z   1
loop_
 _symmetry_equiv_pos_site_id
 _symmetry_equiv_pos_as_xyz
  1  'x, y, z'
loop_
 _atom_site_type_symbol
 _atom_site_label
 _atom_site_symmetry_multiplicity
 _atom_site_fract_x
 _atom_site_fract_y
 _atom_site_fract_z
 _atom_site_occupancy
  Yb  Yb0  1  0.625000  0.625000  0.125000  1
  Yb  Yb1  1  0.625000  0.625000  0.625000  1
  Ho  Ho2  1  0.625000  0.125000  0.625000  1
  Ho  Ho3  1  0.125000  0.625000  0.625000  1
  Ru  Ru4  1  0.125000  0.625000  0.125000  1
  Pt  Pt5  1  0.125000  0.125000  0.625000  1
  Pt  Pt6  1  0.625000  0.125000  0.125000  1
  Pt  Pt7  1  0.125000  0.125000  0.125000  1
  O  O8  1  0.463948  0.037684  0.464570  1
  O  O9  1  0.198404  0.793218  0.798072  1
  O  O10  1  0.786052  0.212316  0.216203  1
  O  O11  1  0.198404  0.793218  0.210308  1
  O  O12  1  0.803512  0.794286  0.201101  1
  O  O13  1  0.212492  0.216969  0.785269  1
  O  O14  1  0.446488  0.455714  0.048899  1
  O  O15  1  0.051596  0.456782  0.451928  1
  O  O16  1  0.463948  0.037684  0.033797  1
  O  O17  1  0.037508  0.033031  0.464731  1
  O  O18  1  0.786052  0.212316  0.785430  1
  O  O19  1  0.051596  0.456782  0.039692  1
  O  O20  1  0.493348  0.496798  0.504927  1
  O  O21  1  0.756652  0.753202  0.745073  1
