# generated using pymatgen
data_Dy4ErZr2P12Ir17
_symmetry_space_group_name_H-M   'P 1'
_cell_length_a   12.65689002
_cell_length_b   12.88843326
_cell_length_c   3.98557700
_cell_angle_alpha   90.00000000
_cell_angle_beta   90.00000000
_cell_angle_gamma   119.40091569
_symmetry_Int_Tables_number   1
_chemical_formula_structural   Dy4ErZr2P12Ir17
_chemical_formula_sum   'Dy4 Er1 Zr2 P12 Ir17'
_cell_volume   566.42078039
_cell_formula_units_Z   1
loop_
 _symmetry_equiv_pos_site_id
 _symmetry_equiv_pos_as_xyz
  1  'x, y, z'
loop_
 _atom_site_type_symbol
 _atom_site_label
 _atom_site_symmetry_multiplicity
 _atom_site_fract_x
 _atom_site_fract_y
 _atom_site_fract_z
 _atom_site_occupancy
  Dy  Dy0  1  0.668631  0.338506  0.500000  1
  Dy  Dy1  1  0.000537  0.815590  0.000000  1
  Dy  Dy2  1  0.184948  0.184404  0.000000  1
  Dy  Dy3  1  0.812867  0.000010  0.000000  1
  Er  Er4  1  0.330184  0.661357  0.500000  1
  Zr  Zr5  1  0.997747  0.446974  0.500000  1
  Zr  Zr6  1  0.550703  0.553100  0.500000  1
  P  P7  1  0.005846  0.650904  0.500000  1
  P  P8  1  0.354966  0.349043  0.500000  1
  P  P9  1  0.644915  0.000059  0.500000  1
  P  P10  1  0.514573  0.686411  0.000000  1
  P  P11  1  0.309762  0.824968  0.000000  1
  P  P12  1  0.164756  0.481191  0.000000  1
  P  P13  1  0.484550  0.174772  0.000000  1
  P  P14  1  0.683615  0.519099  0.000000  1
  P  P15  1  0.828478  0.313618  0.000000  1
  P  P16  1  0.999323  0.174104  0.500000  1
  P  P17  1  0.825201  0.825928  0.500000  1
  P  P18  1  0.181649  0.999971  0.500000  1
  Ir  Ir19  1  0.504545  0.864510  0.000000  1
  Ir  Ir20  1  0.128266  0.644126  0.000000  1
  Ir  Ir21  1  0.354736  0.495887  0.000000  1
  Ir  Ir22  1  0.483713  0.355909  0.000000  1
  Ir  Ir23  1  0.859374  0.504558  0.000000  1
  Ir  Ir24  1  0.640028  0.135095  0.000000  1
  Ir  Ir25  1  0.464616  0.999978  0.500000  1
  Ir  Ir26  1  0.996859  0.277650  0.000000  1
  Ir  Ir27  1  0.719158  0.722377  0.000000  1
  Ir  Ir28  1  0.290350  0.999965  0.000000  1
  Ir  Ir29  1  0.623806  0.808391  0.500000  1
  Ir  Ir30  1  0.204083  0.825721  0.500000  1
  Ir  Ir31  1  0.177873  0.365902  0.500000  1
  Ir  Ir32  1  0.378218  0.174183  0.500000  1
  Ir  Ir33  1  0.811976  0.634174  0.500000  1
  Ir  Ir34  1  0.815509  0.191565  0.500000  1
  Ir  Ir35  1  0.003642  0.999998  0.500000  1
