# generated using pymatgen
data_Dy4NiAu3O14
_symmetry_space_group_name_H-M   'P 1'
_cell_length_a   7.34348318
_cell_length_b   7.33745963
_cell_length_c   7.33746000
_cell_angle_alpha   59.99998933
_cell_angle_beta   60.02711953
_cell_angle_gamma   60.02711811
_symmetry_Int_Tables_number   1
_chemical_formula_structural   Dy4NiAu3O14
_chemical_formula_sum   'Dy4 Ni1 Au3 O14'
_cell_volume   279.67679848
_cell_formula_units_Z   1
loop_
 _symmetry_equiv_pos_site_id
 _symmetry_equiv_pos_as_xyz
  1  'x, y, z'
loop_
 _atom_site_type_symbol
 _atom_site_label
 _atom_site_symmetry_multiplicity
 _atom_site_fract_x
 _atom_site_fract_y
 _atom_site_fract_z
 _atom_site_occupancy
  Dy  Dy0  1  0.125000  0.125000  0.125000  1
  Dy  Dy1  1  0.625000  0.125000  0.125000  1
  Dy  Dy2  1  0.125000  0.125000  0.625000  1
  Dy  Dy3  1  0.125000  0.625000  0.125000  1
  Ni  Ni4  1  0.125000  0.625000  0.625000  1
  Au  Au5  1  0.625000  0.625000  0.625000  1
  Au  Au6  1  0.625000  0.625000  0.125000  1
  Au  Au7  1  0.625000  0.125000  0.625000  1
  O  O8  1  0.994404  0.001866  0.001866  1
  O  O9  1  0.255596  0.248134  0.248134  1
  O  O10  1  0.284243  0.277922  0.718918  1
  O  O11  1  0.538643  0.528131  0.966613  1
  O  O12  1  0.711357  0.283387  0.721869  1
  O  O13  1  0.711357  0.283387  0.283387  1
  O  O14  1  0.284243  0.718918  0.718918  1
  O  O15  1  0.284243  0.718918  0.277922  1
  O  O16  1  0.711357  0.721869  0.283387  1
  O  O17  1  0.965757  0.531082  0.531082  1
  O  O18  1  0.538643  0.966613  0.966613  1
  O  O19  1  0.965757  0.972078  0.531082  1
  O  O20  1  0.965757  0.531082  0.972078  1
  O  O21  1  0.538643  0.966613  0.528131  1
