# generated using pymatgen
data_Er8MgCdPd2
_symmetry_space_group_name_H-M   'P 1'
_cell_length_a   9.64437807
_cell_length_b   9.64437762
_cell_length_c   9.67359100
_cell_angle_alpha   59.89975232
_cell_angle_beta   59.89975385
_cell_angle_gamma   59.78406691
_symmetry_Int_Tables_number   1
_chemical_formula_structural   Er8MgCdPd2
_chemical_formula_sum   'Er16 Mg2 Cd2 Pd4'
_cell_volume   634.23446227
_cell_formula_units_Z   2
loop_
 _symmetry_equiv_pos_site_id
 _symmetry_equiv_pos_as_xyz
  1  'x, y, z'
loop_
 _atom_site_type_symbol
 _atom_site_label
 _atom_site_symmetry_multiplicity
 _atom_site_fract_x
 _atom_site_fract_y
 _atom_site_fract_z
 _atom_site_occupancy
  Er  Er0  1  0.352927  0.352927  0.351170  1
  Er  Er1  1  0.352927  0.352927  0.942976  1
  Er  Er2  1  0.353906  0.941231  0.352431  1
  Er  Er3  1  0.941231  0.353906  0.352431  1
  Er  Er4  1  0.810932  0.189239  0.189057  1
  Er  Er5  1  0.189239  0.810932  0.810772  1
  Er  Er6  1  0.189239  0.810932  0.189057  1
  Er  Er7  1  0.810932  0.189239  0.810772  1
  Er  Er8  1  0.191159  0.191159  0.808841  1
  Er  Er9  1  0.812296  0.812296  0.187704  1
  Er  Er10  1  0.935364  0.565919  0.566287  1
  Er  Er11  1  0.565919  0.935364  0.932430  1
  Er  Er12  1  0.565919  0.935364  0.566287  1
  Er  Er13  1  0.935364  0.565919  0.932430  1
  Er  Er14  1  0.567831  0.567831  0.932169  1
  Er  Er15  1  0.934813  0.934813  0.565187  1
  Mg  Mg16  1  0.577744  0.577744  0.581469  1
  Mg  Mg17  1  0.577744  0.577744  0.263042  1
  Cd  Cd18  1  0.582143  0.252850  0.582503  1
  Cd  Cd19  1  0.252850  0.582143  0.582503  1
  Pd  Pd20  1  0.144217  0.144217  0.144681  1
  Pd  Pd21  1  0.144217  0.144217  0.566885  1
  Pd  Pd22  1  0.143731  0.567355  0.144457  1
  Pd  Pd23  1  0.567355  0.143731  0.144457  1
