# generated using pymatgen
data_Y6Tm10Cd4Pt3Rh
_symmetry_space_group_name_H-M   'P 1'
_cell_length_a   9.60262440
_cell_length_b   9.60262511
_cell_length_c   9.60262426
_cell_angle_alpha   59.88496033
_cell_angle_beta   59.88495900
_cell_angle_gamma   59.88495592
_symmetry_Int_Tables_number   1
_chemical_formula_structural   Y6Tm10Cd4Pt3Rh
_chemical_formula_sum   'Y6 Tm10 Cd4 Pt3 Rh1'
_cell_volume   624.48181061
_cell_formula_units_Z   1
loop_
 _symmetry_equiv_pos_site_id
 _symmetry_equiv_pos_as_xyz
  1  'x, y, z'
loop_
 _atom_site_type_symbol
 _atom_site_label
 _atom_site_symmetry_multiplicity
 _atom_site_fract_x
 _atom_site_fract_y
 _atom_site_fract_z
 _atom_site_occupancy
  Y  Y0  1  0.936499  0.564018  0.564018  1
  Y  Y1  1  0.561953  0.937450  0.937450  1
  Y  Y2  1  0.564018  0.936499  0.564018  1
  Y  Y3  1  0.937450  0.561953  0.937450  1
  Y  Y4  1  0.564018  0.564018  0.936499  1
  Y  Y5  1  0.937450  0.937450  0.561953  1
  Tm  Tm6  1  0.351049  0.351049  0.351049  1
  Tm  Tm7  1  0.351396  0.351396  0.945440  1
  Tm  Tm8  1  0.351396  0.945440  0.351396  1
  Tm  Tm9  1  0.945440  0.351396  0.351396  1
  Tm  Tm10  1  0.813727  0.188536  0.188536  1
  Tm  Tm11  1  0.187593  0.811601  0.811601  1
  Tm  Tm12  1  0.188536  0.813727  0.188536  1
  Tm  Tm13  1  0.811601  0.187593  0.811601  1
  Tm  Tm14  1  0.188536  0.188536  0.813727  1
  Tm  Tm15  1  0.811601  0.811601  0.187593  1
  Cd  Cd16  1  0.580757  0.580757  0.580757  1
  Cd  Cd17  1  0.580911  0.580911  0.255634  1
  Cd  Cd18  1  0.580911  0.255634  0.580911  1
  Cd  Cd19  1  0.255634  0.580911  0.580911  1
  Pt  Pt20  1  0.142573  0.142573  0.571011  1
  Pt  Pt21  1  0.142573  0.571011  0.142573  1
  Pt  Pt22  1  0.571011  0.142573  0.142573  1
  Rh  Rh23  1  0.143368  0.143368  0.143368  1
