# generated using pymatgen
data_Nd2Tm2Al13Ga5Ir6
_symmetry_space_group_name_H-M   'P 1'
_cell_length_a   7.55262748
_cell_length_b   7.55399061
_cell_length_c   9.60741500
_cell_angle_alpha   90.00000000
_cell_angle_beta   90.00000000
_cell_angle_gamma   119.52320697
_symmetry_Int_Tables_number   1
_chemical_formula_structural   Nd2Tm2Al13Ga5Ir6
_chemical_formula_sum   'Nd2 Tm2 Al13 Ga5 Ir6'
_cell_volume   476.95593984
_cell_formula_units_Z   1
loop_
 _symmetry_equiv_pos_site_id
 _symmetry_equiv_pos_as_xyz
  1  'x, y, z'
loop_
 _atom_site_type_symbol
 _atom_site_label
 _atom_site_symmetry_multiplicity
 _atom_site_fract_x
 _atom_site_fract_y
 _atom_site_fract_z
 _atom_site_occupancy
  Nd  Nd0  1  0.995334  0.669865  0.250000  1
  Nd  Nd1  1  0.669957  0.996377  0.250000  1
  Tm  Tm2  1  0.000222  0.324908  0.750000  1
  Tm  Tm3  1  0.329530  0.006640  0.750000  1
  Al  Al4  1  0.003910  0.334923  0.066764  1
  Al  Al5  1  0.000060  0.665085  0.923511  1
  Al  Al6  1  0.000060  0.665085  0.576489  1
  Al  Al7  1  0.334897  0.003451  0.433338  1
  Al  Al8  1  0.003910  0.334923  0.433236  1
  Al  Al9  1  0.664233  0.998328  0.576739  1
  Al  Al10  1  0.664233  0.998328  0.923261  1
  Al  Al11  1  0.334897  0.003451  0.066662  1
  Al  Al12  1  0.333416  0.333877  0.560943  1
  Al  Al13  1  0.665300  0.665167  0.453683  1
  Al  Al14  1  0.665300  0.665167  0.046317  1
  Al  Al15  1  0.333416  0.333877  0.939057  1
  Al  Al16  1  0.448519  0.660886  0.750000  1
  Ga  Ga17  1  0.132149  0.132159  0.250000  1
  Ga  Ga18  1  0.870648  0.869881  0.750000  1
  Ga  Ga19  1  0.338097  0.544424  0.250000  1
  Ga  Ga20  1  0.661224  0.452548  0.750000  1
  Ga  Ga21  1  0.544336  0.338749  0.250000  1
  Ir  Ir22  1  0.672192  0.327799  0.997881  1
  Ir  Ir23  1  0.329053  0.671456  0.995496  1
  Ir  Ir24  1  0.329053  0.671456  0.504504  1
  Ir  Ir25  1  0.672192  0.327799  0.502119  1
  Ir  Ir26  1  0.001932  0.001696  0.996891  1
  Ir  Ir27  1  0.001932  0.001696  0.503109  1
