# generated using pymatgen
data_Dy7Ho(B6Ru)4
_symmetry_space_group_name_H-M   'P 1'
_cell_length_a   3.66099200
_cell_length_b   9.14881402
_cell_length_c   11.52060803
_cell_angle_alpha   90.00763973
_cell_angle_beta   90.00000000
_cell_angle_gamma   90.00000000
_symmetry_Int_Tables_number   1
_chemical_formula_structural   Dy7Ho(B6Ru)4
_chemical_formula_sum   'Dy7 Ho1 B24 Ru4'
_cell_volume   385.86818810
_cell_formula_units_Z   1
loop_
 _symmetry_equiv_pos_site_id
 _symmetry_equiv_pos_as_xyz
  1  'x, y, z'
loop_
 _atom_site_type_symbol
 _atom_site_label
 _atom_site_symmetry_multiplicity
 _atom_site_fract_x
 _atom_site_fract_y
 _atom_site_fract_z
 _atom_site_occupancy
  Dy  Dy0  1  0.000000  0.323082  0.414018  1
  Dy  Dy1  1  0.000000  0.676920  0.586089  1
  Dy  Dy2  1  0.000000  0.822969  0.085914  1
  Dy  Dy3  1  0.000000  0.177061  0.913960  1
  Dy  Dy4  1  0.000000  0.943906  0.372255  1
  Dy  Dy5  1  0.000000  0.056098  0.627792  1
  Dy  Dy6  1  0.000000  0.443960  0.127594  1
  Ho  Ho7  1  0.000000  0.556087  0.872255  1
  B  B8  1  0.500000  0.554259  0.432937  1
  B  B9  1  0.500000  0.445766  0.567143  1
  B  B10  1  0.500000  0.054235  0.067048  1
  B  B11  1  0.500000  0.945634  0.932909  1
  B  B12  1  0.500000  0.747710  0.419766  1
  B  B13  1  0.500000  0.252343  0.580262  1
  B  B14  1  0.500000  0.247764  0.080208  1
  B  B15  1  0.500000  0.751960  0.919731  1
  B  B16  1  0.500000  0.791171  0.266388  1
  B  B17  1  0.500000  0.208958  0.733654  1
  B  B18  1  0.500000  0.291196  0.233588  1
  B  B19  1  0.500000  0.708511  0.766491  1
  B  B20  1  0.500000  0.632344  0.185323  1
  B  B21  1  0.500000  0.367916  0.814745  1
  B  B22  1  0.500000  0.132380  0.314628  1
  B  B23  1  0.500000  0.867544  0.685427  1
  B  B24  1  0.500000  0.984124  0.212784  1
  B  B25  1  0.500000  0.015828  0.787226  1
  B  B26  1  0.500000  0.484109  0.287193  1
  B  B27  1  0.500000  0.516073  0.713056  1
  B  B28  1  0.500000  0.609055  0.029821  1
  B  B29  1  0.500000  0.391178  0.969685  1
  B  B30  1  0.500000  0.109329  0.469841  1
  B  B31  1  0.500000  0.890658  0.530180  1
  Ru  Ru32  1  0.000000  0.637911  0.321243  1
  Ru  Ru33  1  0.000000  0.362294  0.678885  1
  Ru  Ru34  1  0.000000  0.137948  0.178642  1
  Ru  Ru35  1  0.000000  0.861720  0.821321  1
