# generated using pymatgen
data_Er10GaBi2Pb3
_symmetry_space_group_name_H-M   'P 1'
_cell_length_a   8.95692713
_cell_length_b   8.95692824
_cell_length_c   6.48712900
_cell_angle_alpha   90.00000000
_cell_angle_beta   90.00000000
_cell_angle_gamma   120.26043828
_symmetry_Int_Tables_number   1
_chemical_formula_structural   Er10GaBi2Pb3
_chemical_formula_sum   'Er10 Ga1 Bi2 Pb3'
_cell_volume   449.52677969
_cell_formula_units_Z   1
loop_
 _symmetry_equiv_pos_site_id
 _symmetry_equiv_pos_as_xyz
  1  'x, y, z'
loop_
 _atom_site_type_symbol
 _atom_site_label
 _atom_site_symmetry_multiplicity
 _atom_site_fract_x
 _atom_site_fract_y
 _atom_site_fract_z
 _atom_site_occupancy
  Er  Er0  1  0.654637  0.334360  0.997998  1
  Er  Er1  1  0.334360  0.654637  0.997998  1
  Er  Er2  1  0.334360  0.654637  0.502002  1
  Er  Er3  1  0.654637  0.334360  0.502002  1
  Er  Er4  1  0.756272  0.756272  0.750000  1
  Er  Er5  1  0.243310  0.017127  0.750000  1
  Er  Er6  1  0.017127  0.243310  0.750000  1
  Er  Er7  1  0.237970  0.237970  0.250000  1
  Er  Er8  1  0.762092  0.999968  0.250000  1
  Er  Er9  1  0.999968  0.762092  0.250000  1
  Ga  Ga10  1  0.399223  0.399223  0.750000  1
  Bi  Bi11  1  0.609484  0.001907  0.750000  1
  Bi  Bi12  1  0.001907  0.609484  0.750000  1
  Pb  Pb13  1  0.607887  0.607887  0.250000  1
  Pb  Pb14  1  0.392331  0.994436  0.250000  1
  Pb  Pb15  1  0.994436  0.392331  0.250000  1
