# generated using pymatgen
data_CaTi3Sn(PO4)6
_symmetry_space_group_name_H-M   'P 1'
_cell_length_a   8.49655223
_cell_length_b   8.49655226
_cell_length_c   8.92496267
_cell_angle_alpha   61.57556177
_cell_angle_beta   118.42444218
_cell_angle_gamma   120.00000445
_symmetry_Int_Tables_number   1
_chemical_formula_structural   CaTi3Sn(PO4)6
_chemical_formula_sum   'Ca1 Ti3 Sn1 P6 O24'
_cell_volume   466.14272889
_cell_formula_units_Z   1
loop_
 _symmetry_equiv_pos_site_id
 _symmetry_equiv_pos_as_xyz
  1  'x, y, z'
loop_
 _atom_site_type_symbol
 _atom_site_label
 _atom_site_symmetry_multiplicity
 _atom_site_fract_x
 _atom_site_fract_y
 _atom_site_fract_z
 _atom_site_occupancy
  Ca  Ca0  1  0.999113  0.000887  0.997339  1
  Ti  Ti1  1  0.147988  0.852012  0.443963  1
  Ti  Ti2  1  0.850719  0.149282  0.552157  1
  Ti  Ti3  1  0.643043  0.356957  0.929129  1
  Sn  Sn4  1  0.356352  0.643648  0.069053  1
  P  P5  1  0.028166  0.244194  0.243765  1
  P  P6  1  0.755805  0.540205  0.243765  1
  P  P7  1  0.459795  0.971834  0.243765  1
  P  P8  1  0.542755  0.034344  0.754237  1
  P  P9  1  0.245827  0.457246  0.754237  1
  P  P10  1  0.965656  0.754174  0.754237  1
  O  O11  1  0.480735  0.157547  0.084092  1
  O  O12  1  0.842453  0.239096  0.084092  1
  O  O13  1  0.760904  0.519265  0.084092  1
  O  O14  1  0.185069  0.443353  0.225867  1
  O  O15  1  0.556646  0.515848  0.225867  1
  O  O16  1  0.484151  0.814931  0.225867  1
  O  O17  1  0.094817  0.095848  0.257976  1
  O  O18  1  0.904153  0.740994  0.257976  1
  O  O19  1  0.259007  0.905183  0.257976  1
  O  O20  1  0.614139  0.011374  0.419655  1
  O  O21  1  0.988625  0.183111  0.419655  1
  O  O22  1  0.816890  0.385861  0.419655  1
  O  O23  1  0.198829  0.621202  0.581112  1
  O  O24  1  0.003487  0.801170  0.581112  1
  O  O25  1  0.378797  0.996513  0.581112  1
  O  O26  1  0.740771  0.105109  0.733902  1
  O  O27  1  0.098240  0.259229  0.733902  1
  O  O28  1  0.894890  0.901759  0.733902  1
  O  O29  1  0.529138  0.186930  0.789146  1
  O  O30  1  0.446938  0.470862  0.789146  1
  O  O31  1  0.813070  0.553062  0.789146  1
  O  O32  1  0.225378  0.466371  0.913032  1
  O  O33  1  0.154026  0.774623  0.913032  1
  O  O34  1  0.533630  0.845975  0.913032  1
