# generated using pymatgen
data_Cs2Fe2Se3S
_symmetry_space_group_name_H-M   'P 1'
_cell_length_a   7.73693240
_cell_length_b   7.73693285
_cell_length_c   7.73693253
_cell_angle_alpha   137.41437137
_cell_angle_beta   123.17682708
_cell_angle_gamma   73.53129107
_symmetry_Int_Tables_number   1
_chemical_formula_structural   Cs2Fe2Se3S
_chemical_formula_sum   'Cs2 Fe2 Se3 S1'
_cell_volume   256.41396056
_cell_formula_units_Z   1
loop_
 _symmetry_equiv_pos_site_id
 _symmetry_equiv_pos_as_xyz
  1  'x, y, z'
loop_
 _atom_site_type_symbol
 _atom_site_label
 _atom_site_symmetry_multiplicity
 _atom_site_fract_x
 _atom_site_fract_y
 _atom_site_fract_z
 _atom_site_occupancy
  Cs  Cs0  1  0.329022  0.829022  0.500000  1
  Cs  Cs1  1  0.684261  0.184261  0.500000  1
  Fe  Fe2  1  0.996082  0.747177  0.751095  1
  Fe  Fe3  1  0.996082  0.244988  0.248905  1
  Se  Se4  1  0.247753  0.493644  0.754109  1
  Se  Se5  1  0.739535  0.493644  0.245891  1
  Se  Se6  1  0.147078  0.147078  0.000000  1
  S  S7  1  0.860187  0.860187  0.000000  1
