# generated using pymatgen
data_Dy8Tm2(IrAu)3
_symmetry_space_group_name_H-M   'P 1'
_cell_length_a   11.22974521
_cell_length_b   11.22027100
_cell_length_c   6.30240852
_cell_angle_alpha   90.00000000
_cell_angle_beta   89.78448466
_cell_angle_gamma   90.00000000
_symmetry_Int_Tables_number   1
_chemical_formula_structural   Dy8Tm2(IrAu)3
_chemical_formula_sum   'Dy16 Tm4 Ir6 Au6'
_cell_volume   794.10279982
_cell_formula_units_Z   2
loop_
 _symmetry_equiv_pos_site_id
 _symmetry_equiv_pos_as_xyz
  1  'x, y, z'
loop_
 _atom_site_type_symbol
 _atom_site_label
 _atom_site_symmetry_multiplicity
 _atom_site_fract_x
 _atom_site_fract_y
 _atom_site_fract_z
 _atom_site_occupancy
  Dy  Dy0  1  0.298884  0.090765  0.364668  1
  Dy  Dy1  1  0.298884  0.909235  0.864668  1
  Dy  Dy2  1  0.698583  0.083773  0.856932  1
  Dy  Dy3  1  0.698583  0.916227  0.356932  1
  Dy  Dy4  1  0.575218  0.790415  0.860969  1
  Dy  Dy5  1  0.575218  0.209585  0.360969  1
  Dy  Dy6  1  0.410311  0.792540  0.374944  1
  Dy  Dy7  1  0.410311  0.207460  0.874944  1
  Dy  Dy8  1  0.214248  0.418054  0.625798  1
  Dy  Dy9  1  0.214248  0.581946  0.125798  1
  Dy  Dy10  1  0.799006  0.415132  0.139242  1
  Dy  Dy11  1  0.799006  0.584868  0.639242  1
  Dy  Dy12  1  0.920298  0.700740  0.141031  1
  Dy  Dy13  1  0.920298  0.299260  0.641031  1
  Dy  Dy14  1  0.095506  0.699722  0.638053  1
  Dy  Dy15  1  0.095506  0.300278  0.138053  1
  Tm  Tm16  1  0.998357  0.998919  0.500301  1
  Tm  Tm17  1  0.998357  0.001081  0.000301  1
  Tm  Tm18  1  0.492232  0.497693  0.997902  1
  Tm  Tm19  1  0.492232  0.502307  0.497902  1
  Ir  Ir20  1  0.348110  0.347655  0.249440  1
  Ir  Ir21  1  0.348110  0.652345  0.749440  1
  Ir  Ir22  1  0.498770  0.999243  0.109391  1
  Ir  Ir23  1  0.498770  0.000757  0.609391  1
  Ir  Ir24  1  0.000521  0.500408  0.892017  1
  Ir  Ir25  1  0.000521  0.499592  0.392017  1
  Au  Au26  1  0.843660  0.153747  0.251770  1
  Au  Au27  1  0.843660  0.846253  0.751770  1
  Au  Au28  1  0.152690  0.153883  0.749116  1
  Au  Au29  1  0.152690  0.846117  0.249116  1
  Au  Au30  1  0.653606  0.348531  0.748426  1
  Au  Au31  1  0.653606  0.651469  0.248426  1
