# generated using pymatgen
data_K7Zr(SO4)6
_symmetry_space_group_name_H-M   'P 1'
_cell_length_a   9.53209784
_cell_length_b   9.53209749
_cell_length_c   9.53209785
_cell_angle_alpha   109.40249287
_cell_angle_beta   109.40248760
_cell_angle_gamma   109.40250137
_symmetry_Int_Tables_number   1
_chemical_formula_structural   K7Zr(SO4)6
_chemical_formula_sum   'K7 Zr1 S6 O24'
_cell_volume   668.41124309
_cell_formula_units_Z   1
loop_
 _symmetry_equiv_pos_site_id
 _symmetry_equiv_pos_as_xyz
  1  'x, y, z'
loop_
 _atom_site_type_symbol
 _atom_site_label
 _atom_site_symmetry_multiplicity
 _atom_site_fract_x
 _atom_site_fract_y
 _atom_site_fract_z
 _atom_site_occupancy
  K  K0  1  0.500000  0.500000  0.500000  1
  K  K1  1  0.838325  0.335488  0.678287  1
  K  K2  1  0.335488  0.678287  0.838325  1
  K  K3  1  0.678287  0.838325  0.335488  1
  K  K4  1  0.161675  0.664512  0.321713  1
  K  K5  1  0.664512  0.321713  0.161675  1
  K  K6  1  0.321713  0.161675  0.664512  1
  Zr  Zr7  1  0.000000  0.000000  0.000000  1
  S  S8  1  0.967322  0.743959  0.614548  1
  S  S9  1  0.743959  0.614548  0.967322  1
  S  S10  1  0.614548  0.967322  0.743959  1
  S  S11  1  0.032678  0.256041  0.385452  1
  S  S12  1  0.256041  0.385452  0.032678  1
  S  S13  1  0.385452  0.032678  0.256041  1
  O  O14  1  0.435841  0.912600  0.173603  1
  O  O15  1  0.912600  0.173603  0.435841  1
  O  O16  1  0.173603  0.435841  0.912600  1
  O  O17  1  0.564159  0.087400  0.826397  1
  O  O18  1  0.087400  0.826397  0.564159  1
  O  O19  1  0.826397  0.564159  0.087400  1
  O  O20  1  0.318062  0.985115  0.361577  1
  O  O21  1  0.985115  0.361577  0.318062  1
  O  O22  1  0.361577  0.318062  0.985115  1
  O  O23  1  0.681938  0.014885  0.638423  1
  O  O24  1  0.014885  0.638423  0.681938  1
  O  O25  1  0.638423  0.681938  0.014885  1
  O  O26  1  0.756497  0.975691  0.888624  1
  O  O27  1  0.975691  0.888624  0.756497  1
  O  O28  1  0.642578  0.470320  0.788084  1
  O  O29  1  0.788084  0.642578  0.470320  1
  O  O30  1  0.470320  0.788084  0.642578  1
  O  O31  1  0.357422  0.529680  0.211916  1
  O  O32  1  0.211916  0.357422  0.529680  1
  O  O33  1  0.529680  0.211916  0.357422  1
  O  O34  1  0.111376  0.243503  0.024309  1
  O  O35  1  0.024309  0.111376  0.243503  1
  O  O36  1  0.243503  0.024309  0.111376  1
  O  O37  1  0.888624  0.756497  0.975691  1
