# generated using pymatgen
data_LiLaF4
_symmetry_space_group_name_H-M   'P 1'
_cell_length_a   6.96015972
_cell_length_b   6.96004755
_cell_length_c   5.36488264
_cell_angle_alpha   112.49834903
_cell_angle_beta   112.49894061
_cell_angle_gamma   113.81006530
_symmetry_Int_Tables_number   1
_chemical_formula_structural   LiLaF4
_chemical_formula_sum   'Li2 La2 F8'
_cell_volume   169.61411445
_cell_formula_units_Z   2
loop_
 _symmetry_equiv_pos_site_id
 _symmetry_equiv_pos_as_xyz
  1  'x, y, z'
loop_
 _atom_site_type_symbol
 _atom_site_label
 _atom_site_symmetry_multiplicity
 _atom_site_fract_x
 _atom_site_fract_y
 _atom_site_fract_z
 _atom_site_occupancy
  Li  Li0  1  0.123360  0.876611  0.249994  1
  Li  Li1  1  0.876624  0.123362  0.749992  1
  La  La2  1  0.625354  0.374643  0.249997  1
  La  La3  1  0.374648  0.625361  0.750005  1
  F  F4  1  0.356099  0.949289  0.127252  1
  F  F5  1  0.230087  0.323490  0.179407  1
  F  F6  1  0.676531  0.769913  0.320589  1
  F  F7  1  0.050711  0.643899  0.372753  1
  F  F8  1  0.949298  0.356114  0.627274  1
  F  F9  1  0.323468  0.230080  0.679400  1
  F  F10  1  0.769913  0.676525  0.820584  1
  F  F11  1  0.643905  0.050712  0.872751  1
