# generated using pymatgen
data_TbDy9(Bi3Cl)2
_symmetry_space_group_name_H-M   'P 1'
_cell_length_a   9.28211900
_cell_length_b   9.28404895
_cell_length_c   6.49331600
_cell_angle_alpha   90.00000000
_cell_angle_beta   90.00000000
_cell_angle_gamma   119.99312726
_symmetry_Int_Tables_number   1
_chemical_formula_structural   TbDy9(Bi3Cl)2
_chemical_formula_sum   'Tb1 Dy9 Bi6 Cl2'
_cell_volume   484.63167548
_cell_formula_units_Z   1
loop_
 _symmetry_equiv_pos_site_id
 _symmetry_equiv_pos_as_xyz
  1  'x, y, z'
loop_
 _atom_site_type_symbol
 _atom_site_label
 _atom_site_symmetry_multiplicity
 _atom_site_fract_x
 _atom_site_fract_y
 _atom_site_fract_z
 _atom_site_occupancy
  Tb  Tb0  1  0.269453  0.000000  0.750000  1
  Dy  Dy1  1  0.730360  0.000000  0.250000  1
  Dy  Dy2  1  0.000035  0.269548  0.750000  1
  Dy  Dy3  1  0.999970  0.730365  0.250000  1
  Dy  Dy4  1  0.730487  0.730452  0.750000  1
  Dy  Dy5  1  0.269605  0.269635  0.250000  1
  Dy  Dy6  1  0.333367  0.666619  0.500006  1
  Dy  Dy7  1  0.666748  0.333381  0.500006  1
  Dy  Dy8  1  0.666748  0.333381  0.999994  1
  Dy  Dy9  1  0.333367  0.666619  0.999994  1
  Bi  Bi10  1  0.615678  0.000000  0.750000  1
  Bi  Bi11  1  0.384722  0.000000  0.250000  1
  Bi  Bi12  1  0.999667  0.614926  0.750000  1
  Bi  Bi13  1  0.000038  0.384675  0.250000  1
  Bi  Bi14  1  0.384741  0.385074  0.750000  1
  Bi  Bi15  1  0.615363  0.615325  0.250000  1
  Cl  Cl16  1  0.999825  0.000000  0.499795  1
  Cl  Cl17  1  0.999825  0.000000  0.000205  1
