# generated using pymatgen
data_Gd8Be3Si12Pd
_symmetry_space_group_name_H-M   'P 1'
_cell_length_a   7.97292300
_cell_length_b   7.97292374
_cell_length_c   8.23024900
_cell_angle_alpha   90.00000000
_cell_angle_beta   90.00000000
_cell_angle_gamma   119.99999279
_symmetry_Int_Tables_number   1
_chemical_formula_structural   Gd8Be3Si12Pd
_chemical_formula_sum   'Gd8 Be3 Si12 Pd1'
_cell_volume   453.08409570
_cell_formula_units_Z   1
loop_
 _symmetry_equiv_pos_site_id
 _symmetry_equiv_pos_as_xyz
  1  'x, y, z'
loop_
 _atom_site_type_symbol
 _atom_site_label
 _atom_site_symmetry_multiplicity
 _atom_site_fract_x
 _atom_site_fract_y
 _atom_site_fract_z
 _atom_site_occupancy
  Gd  Gd0  1  0.501482  0.002964  0.248303  1
  Gd  Gd1  1  0.501424  0.002848  0.751680  1
  Gd  Gd2  1  0.997036  0.498518  0.248303  1
  Gd  Gd3  1  0.997152  0.498576  0.751680  1
  Gd  Gd4  1  0.501482  0.498518  0.248303  1
  Gd  Gd5  1  0.501424  0.498576  0.751680  1
  Gd  Gd6  1  0.000000  0.000000  0.249238  1
  Gd  Gd7  1  0.000000  0.000000  0.750706  1
  Be  Be8  1  0.333333  0.666667  0.000513  1
  Be  Be9  1  0.666667  0.333333  0.999836  1
  Be  Be10  1  0.666667  0.333333  0.500048  1
  Si  Si11  1  0.172580  0.345158  0.999984  1
  Si  Si12  1  0.827426  0.654854  0.999979  1
  Si  Si13  1  0.654842  0.827420  0.999984  1
  Si  Si14  1  0.828330  0.656663  0.500029  1
  Si  Si15  1  0.345146  0.172574  0.999979  1
  Si  Si16  1  0.165795  0.331587  0.499937  1
  Si  Si17  1  0.172580  0.827420  0.999984  1
  Si  Si18  1  0.343337  0.171670  0.500029  1
  Si  Si19  1  0.827426  0.172574  0.999979  1
  Si  Si20  1  0.668413  0.834205  0.499937  1
  Si  Si21  1  0.828330  0.171670  0.500029  1
  Si  Si22  1  0.165795  0.834205  0.499937  1
  Pd  Pd23  1  0.333333  0.666667  0.499919  1
