# generated using pymatgen
data_Li2LaY2Al7
_symmetry_space_group_name_H-M   'P 1'
_cell_length_a   9.42608596
_cell_length_b   9.42608690
_cell_length_c   9.42608576
_cell_angle_alpha   34.45419783
_cell_angle_beta   34.45418916
_cell_angle_gamma   34.45419006
_symmetry_Int_Tables_number   1
_chemical_formula_structural   Li2LaY2Al7
_chemical_formula_sum   'Li2 La1 Y2 Al7'
_cell_volume   239.12791708
_cell_formula_units_Z   1
loop_
 _symmetry_equiv_pos_site_id
 _symmetry_equiv_pos_as_xyz
  1  'x, y, z'
loop_
 _atom_site_type_symbol
 _atom_site_label
 _atom_site_symmetry_multiplicity
 _atom_site_fract_x
 _atom_site_fract_y
 _atom_site_fract_z
 _atom_site_occupancy
  Li  Li0  1  0.664715  0.664715  0.664715  1
  Li  Li1  1  0.335285  0.335285  0.335285  1
  La  La2  1  0.000000  0.000000  0.000000  1
  Y  Y3  1  0.858724  0.858724  0.858724  1
  Y  Y4  1  0.141276  0.141276  0.141276  1
  Al  Al5  1  0.413406  0.413406  0.922137  1
  Al  Al6  1  0.922137  0.413406  0.413406  1
  Al  Al7  1  0.413406  0.922137  0.413406  1
  Al  Al8  1  0.500000  0.500000  0.500000  1
  Al  Al9  1  0.586594  0.077863  0.586594  1
  Al  Al10  1  0.077863  0.586594  0.586594  1
  Al  Al11  1  0.586594  0.586594  0.077863  1
