# generated using pymatgen
data_Sm2Dy4Cd23P
_symmetry_space_group_name_H-M   'P 1'
_cell_length_a   9.94580602
_cell_length_b   9.94580620
_cell_length_c   9.92621800
_cell_angle_alpha   60.06512895
_cell_angle_beta   60.06512835
_cell_angle_gamma   60.00240347
_symmetry_Int_Tables_number   1
_chemical_formula_structural   Sm2Dy4Cd23P
_chemical_formula_sum   'Sm2 Dy4 Cd23 P1'
_cell_volume   694.99794186
_cell_formula_units_Z   1
loop_
 _symmetry_equiv_pos_site_id
 _symmetry_equiv_pos_as_xyz
  1  'x, y, z'
loop_
 _atom_site_type_symbol
 _atom_site_label
 _atom_site_symmetry_multiplicity
 _atom_site_fract_x
 _atom_site_fract_y
 _atom_site_fract_z
 _atom_site_occupancy
  Sm  Sm0  1  0.800291  0.199709  0.800562  1
  Sm  Sm1  1  0.199709  0.800291  0.800562  1
  Dy  Dy2  1  0.802917  0.802917  0.197400  1
  Dy  Dy3  1  0.197738  0.802262  0.198533  1
  Dy  Dy4  1  0.802262  0.197738  0.198533  1
  Dy  Dy5  1  0.197083  0.197083  0.803234  1
  Cd  Cd6  1  0.836453  0.836453  0.490401  1
  Cd  Cd7  1  0.835389  0.494044  0.836013  1
  Cd  Cd8  1  0.494044  0.835389  0.836013  1
  Cd  Cd9  1  0.834962  0.834962  0.836544  1
  Cd  Cd10  1  0.165038  0.165038  0.506469  1
  Cd  Cd11  1  0.164611  0.505956  0.165446  1
  Cd  Cd12  1  0.505956  0.164611  0.165446  1
  Cd  Cd13  1  0.163547  0.163547  0.163307  1
  Cd  Cd14  1  0.620838  0.620838  0.137406  1
  Cd  Cd15  1  0.620776  0.135953  0.620688  1
  Cd  Cd16  1  0.135953  0.620776  0.620688  1
  Cd  Cd17  1  0.622046  0.622046  0.620132  1
  Cd  Cd18  1  0.377954  0.377954  0.864224  1
  Cd  Cd19  1  0.379224  0.864047  0.377416  1
  Cd  Cd20  1  0.864047  0.379224  0.377416  1
  Cd  Cd21  1  0.379162  0.379162  0.379081  1
  Cd  Cd22  1  0.000000  0.000000  0.499490  1
  Cd  Cd23  1  0.500526  0.999794  0.500128  1
  Cd  Cd24  1  0.999794  0.500526  0.500128  1
  Cd  Cd25  1  0.500000  0.500000  0.000486  1
  Cd  Cd26  1  0.000206  0.499474  0.000448  1
  Cd  Cd27  1  0.499474  0.000206  0.000448  1
  Cd  Cd28  1  0.500000  0.500000  0.500566  1
  P  P29  1  0.000000  0.000000  0.002795  1
