# generated using pymatgen
data_Tb4Tm2Lu2Cd2PdPt
_symmetry_space_group_name_H-M   'P 1'
_cell_length_a   9.62047750
_cell_length_b   9.62047650
_cell_length_c   9.64397500
_cell_angle_alpha   59.91917159
_cell_angle_beta   59.91917501
_cell_angle_gamma   60.16164083
_symmetry_Int_Tables_number   1
_chemical_formula_structural   Tb4Tm2Lu2Cd2PdPt
_chemical_formula_sum   'Tb8 Tm4 Lu4 Cd4 Pd2 Pt2'
_cell_volume   631.14486716
_cell_formula_units_Z   2
loop_
 _symmetry_equiv_pos_site_id
 _symmetry_equiv_pos_as_xyz
  1  'x, y, z'
loop_
 _atom_site_type_symbol
 _atom_site_label
 _atom_site_symmetry_multiplicity
 _atom_site_fract_x
 _atom_site_fract_y
 _atom_site_fract_z
 _atom_site_occupancy
  Tb  Tb0  1  0.188325  0.188325  0.811675  1
  Tb  Tb1  1  0.813235  0.813235  0.186765  1
  Tb  Tb2  1  0.936205  0.564484  0.563901  1
  Tb  Tb3  1  0.564484  0.936205  0.935410  1
  Tb  Tb4  1  0.564484  0.936205  0.563901  1
  Tb  Tb5  1  0.936205  0.564484  0.935410  1
  Tb  Tb6  1  0.564694  0.564694  0.935306  1
  Tb  Tb7  1  0.937146  0.937146  0.562854  1
  Tm  Tm8  1  0.352695  0.352695  0.348630  1
  Tm  Tm9  1  0.352695  0.352695  0.945979  1
  Tm  Tm10  1  0.356453  0.939410  0.352068  1
  Tm  Tm11  1  0.939410  0.356453  0.352068  1
  Lu  Lu12  1  0.809058  0.189912  0.189486  1
  Lu  Lu13  1  0.189912  0.809058  0.811544  1
  Lu  Lu14  1  0.189912  0.809058  0.189486  1
  Lu  Lu15  1  0.809058  0.189912  0.811544  1
  Cd  Cd16  1  0.580474  0.580474  0.582903  1
  Cd  Cd17  1  0.580474  0.580474  0.256150  1
  Cd  Cd18  1  0.580490  0.256283  0.581614  1
  Cd  Cd19  1  0.256283  0.580490  0.581614  1
  Pd  Pd20  1  0.141305  0.141305  0.149214  1
  Pd  Pd21  1  0.141305  0.141305  0.568179  1
  Pt  Pt22  1  0.145453  0.570248  0.142151  1
  Pt  Pt23  1  0.570248  0.145453  0.142151  1
