# generated using pymatgen
data_PrNdGa5Au3
_symmetry_space_group_name_H-M   'P 1'
_cell_length_a   4.38999600
_cell_length_b   4.38816100
_cell_length_c   10.78723800
_cell_angle_alpha   90.00000000
_cell_angle_beta   90.00000000
_cell_angle_gamma   90.00000000
_symmetry_Int_Tables_number   1
_chemical_formula_structural   PrNdGa5Au3
_chemical_formula_sum   'Pr1 Nd1 Ga5 Au3'
_cell_volume   207.80545248
_cell_formula_units_Z   1
loop_
 _symmetry_equiv_pos_site_id
 _symmetry_equiv_pos_as_xyz
  1  'x, y, z'
loop_
 _atom_site_type_symbol
 _atom_site_label
 _atom_site_symmetry_multiplicity
 _atom_site_fract_x
 _atom_site_fract_y
 _atom_site_fract_z
 _atom_site_occupancy
  Pr  Pr0  1  0.500000  0.000000  0.748821  1
  Nd  Nd1  1  0.000000  0.500000  0.251314  1
  Ga  Ga2  1  0.500000  0.500000  0.000138  1
  Ga  Ga3  1  0.000000  0.000000  0.000289  1
  Ga  Ga4  1  0.000000  0.500000  0.636179  1
  Ga  Ga5  1  0.500000  0.000000  0.363494  1
  Ga  Ga6  1  0.000000  0.000000  0.499761  1
  Au  Au7  1  0.000000  0.500000  0.868153  1
  Au  Au8  1  0.500000  0.000000  0.132185  1
  Au  Au9  1  0.500000  0.500000  0.499665  1
