# generated using pymatgen
data_HoEr15(In3Pt)2
_symmetry_space_group_name_H-M   'P 1'
_cell_length_a   10.43330400
_cell_length_b   10.43220731
_cell_length_c   6.93729107
_cell_angle_alpha   90.01403433
_cell_angle_beta   90.00000000
_cell_angle_gamma   120.00346490
_symmetry_Int_Tables_number   1
_chemical_formula_structural   HoEr15(In3Pt)2
_chemical_formula_sum   'Ho1 Er15 In6 Pt2'
_cell_volume   653.88810513
_cell_formula_units_Z   1
loop_
 _symmetry_equiv_pos_site_id
 _symmetry_equiv_pos_as_xyz
  1  'x, y, z'
loop_
 _atom_site_type_symbol
 _atom_site_label
 _atom_site_symmetry_multiplicity
 _atom_site_fract_x
 _atom_site_fract_y
 _atom_site_fract_z
 _atom_site_occupancy
  Ho  Ho0  1  0.530879  0.061760  0.795365  1
  Er  Er1  1  0.937955  0.468969  0.795337  1
  Er  Er2  1  0.531013  0.468969  0.795337  1
  Er  Er3  1  0.469031  0.938061  0.295339  1
  Er  Er4  1  0.061997  0.531030  0.295318  1
  Er  Er5  1  0.469034  0.531030  0.295318  1
  Er  Er6  1  0.824569  0.649139  0.501537  1
  Er  Er7  1  0.350739  0.175538  0.501308  1
  Er  Er8  1  0.824798  0.175538  0.501308  1
  Er  Er9  1  0.175443  0.350885  0.001612  1
  Er  Er10  1  0.649163  0.824379  0.001692  1
  Er  Er11  1  0.175217  0.824379  0.001692  1
  Er  Er12  1  0.666798  0.333594  0.170260  1
  Er  Er13  1  0.333225  0.666450  0.670328  1
  Er  Er14  1  0.000050  0.000100  0.775436  1
  Er  Er15  1  0.000065  0.000130  0.275535  1
  In  In16  1  0.837514  0.675028  0.037434  1
  In  In17  1  0.324422  0.162500  0.037985  1
  In  In18  1  0.838077  0.162500  0.037985  1
  In  In19  1  0.162353  0.324706  0.537622  1
  In  In20  1  0.674728  0.837503  0.537295  1
  In  In21  1  0.162776  0.837503  0.537295  1
  Pt  Pt22  1  0.666797  0.333594  0.568511  1
  Pt  Pt23  1  0.333358  0.666717  0.069052  1
