# generated using pymatgen
data_Ba13Dy8Mg4Mn4O37
_symmetry_space_group_name_H-M   'P 1'
_cell_length_a   13.55727859
_cell_length_b   13.55727870
_cell_length_c   13.55727900
_cell_angle_alpha   92.58573603
_cell_angle_beta   92.58573605
_cell_angle_gamma   155.47377399
_symmetry_Int_Tables_number   1
_chemical_formula_structural   Ba13Dy8Mg4Mn4O37
_chemical_formula_sum   'Ba13 Dy8 Mg4 Mn4 O37'
_cell_volume   1010.77893056
_cell_formula_units_Z   1
loop_
 _symmetry_equiv_pos_site_id
 _symmetry_equiv_pos_as_xyz
  1  'x, y, z'
loop_
 _atom_site_type_symbol
 _atom_site_label
 _atom_site_symmetry_multiplicity
 _atom_site_fract_x
 _atom_site_fract_y
 _atom_site_fract_z
 _atom_site_occupancy
  Ba  Ba0  1  0.202331  0.074076  0.276425  1
  Ba  Ba1  1  0.984273  0.607130  0.591402  1
  Ba  Ba2  1  0.637504  0.437208  0.074716  1
  Ba  Ba3  1  0.607138  0.015723  0.622868  1
  Ba  Ba4  1  0.015727  0.392870  0.408598  1
  Ba  Ba5  1  0.362496  0.562792  0.925284  1
  Ba  Ba6  1  0.437196  0.362501  0.799694  1
  Ba  Ba7  1  0.562804  0.637499  0.200306  1
  Ba  Ba8  1  0.925908  0.202320  0.128258  1
  Ba  Ba9  1  0.392862  0.984277  0.377132  1
  Ba  Ba10  1  0.000000  0.000000  0.000000  1
  Ba  Ba11  1  0.074092  0.797680  0.871742  1
  Ba  Ba12  1  0.797669  0.925924  0.723575  1
  Dy  Dy13  1  0.692501  0.239851  0.932367  1
  Dy  Dy14  1  0.817877  0.378580  0.196473  1
  Dy  Dy15  1  0.378568  0.182086  0.560644  1
  Dy  Dy16  1  0.307499  0.760149  0.067633  1
  Dy  Dy17  1  0.239859  0.307523  0.547375  1
  Dy  Dy18  1  0.621432  0.817914  0.439356  1
  Dy  Dy19  1  0.182123  0.621420  0.803527  1
  Dy  Dy20  1  0.760141  0.692477  0.452625  1
  Mg  Mg21  1  0.224841  0.902897  0.127692  1
  Mg  Mg22  1  0.097151  0.224809  0.321949  1
  Mg  Mg23  1  0.775159  0.097103  0.872308  1
  Mg  Mg24  1  0.902849  0.775191  0.678051  1
  Mn  Mn25  1  0.462998  0.800316  0.263281  1
  Mn  Mn26  1  0.800292  0.537054  0.337348  1
  Mn  Mn27  1  0.199708  0.462946  0.662652  1
  Mn  Mn28  1  0.537002  0.199684  0.736719  1
  O  O29  1  0.580101  0.297262  0.877334  1
  O  O30  1  0.532340  0.228972  0.238419  1
  O  O31  1  0.105754  0.514624  0.620378  1
  O  O32  1  0.485425  0.105824  0.591234  1
  O  O33  1  0.061335  0.841053  0.435408  1
  O  O34  1  0.014039  0.424824  0.940257  1
  O  O35  1  0.770715  0.009235  0.303320  1
  O  O36  1  0.985961  0.575176  0.059743  1
  O  O37  1  0.894246  0.485376  0.379622  1
  O  O38  1  0.937364  0.873818  0.811187  1
  O  O39  1  0.073781  0.014042  0.589212  1
  O  O40  1  0.467660  0.771028  0.761581  1
  O  O41  1  0.405654  0.625932  0.564586  1
  O  O42  1  0.594346  0.374068  0.435414  1
  O  O43  1  0.514575  0.894176  0.408766  1
  O  O44  1  0.873820  0.062647  0.936460  1
  O  O45  1  0.159130  0.594487  0.220309  1
  O  O46  1  0.705969  0.467467  0.696677  1
  O  O47  1  0.575176  0.515435  0.589218  1
  O  O48  1  0.840870  0.405513  0.779691  1
  O  O49  1  0.229285  0.990765  0.696680  1
  O  O50  1  0.062636  0.126182  0.188813  1
  O  O51  1  0.625802  0.061160  0.220308  1
  O  O52  1  0.419899  0.702738  0.122666  1
  O  O53  1  0.515431  0.926218  0.940260  1
  O  O54  1  0.702675  0.580109  0.282788  1
  O  O55  1  0.374198  0.938840  0.779692  1
  O  O56  1  0.990541  0.293910  0.761590  1
  O  O57  1  0.009459  0.706090  0.238410  1
  O  O58  1  0.424824  0.484565  0.410782  1
  O  O59  1  0.484569  0.073782  0.059740  1
  O  O60  1  0.500000  0.500000  0.000000  1
  O  O61  1  0.938665  0.158947  0.564592  1
  O  O62  1  0.294031  0.532533  0.303323  1
  O  O63  1  0.126180  0.937353  0.063540  1
  O  O64  1  0.926219  0.985958  0.410788  1
  O  O65  1  0.297325  0.419891  0.717212  1
