# generated using pymatgen
data_Se(NCl4)2
_symmetry_space_group_name_H-M   'P 1'
_cell_length_a   7.21607725
_cell_length_b   7.32676110
_cell_length_c   9.92039823
_cell_angle_alpha   107.53965124
_cell_angle_beta   115.25701982
_cell_angle_gamma   91.44961774
_symmetry_Int_Tables_number   1
_chemical_formula_structural   Se(NCl4)2
_chemical_formula_sum   'Se1 N2 Cl8'
_cell_volume   445.04273904
_cell_formula_units_Z   1
loop_
 _symmetry_equiv_pos_site_id
 _symmetry_equiv_pos_as_xyz
  1  'x, y, z'
loop_
 _atom_site_type_symbol
 _atom_site_label
 _atom_site_symmetry_multiplicity
 _atom_site_fract_x
 _atom_site_fract_y
 _atom_site_fract_z
 _atom_site_occupancy
  Se  Se0  1  0.633318  0.721186  0.587080  1
  N  N1  1  0.233359  0.427961  0.814353  1
  N  N2  1  0.200016  0.380059  0.687343  1
  Cl  Cl3  1  0.608975  0.407730  0.487300  1
  Cl  Cl4  1  0.812083  0.444494  0.031334  1
  Cl  Cl5  1  0.321566  0.894884  0.048683  1
  Cl  Cl6  1  0.303063  0.743784  0.496777  1
  Cl  Cl7  1  0.275760  0.147306  0.013116  1
  Cl  Cl8  1  0.872671  0.280606  0.170276  1
  Cl  Cl9  1  0.692161  0.795741  0.391836  1
  Cl  Cl10  1  0.698643  0.727342  0.844153  1
