# generated using pymatgen
data_Sm6MgCd22Si
_symmetry_space_group_name_H-M   'P 1'
_cell_length_a   10.03116189
_cell_length_b   10.03116160
_cell_length_c   10.03116200
_cell_angle_alpha   59.99999868
_cell_angle_beta   59.99999965
_cell_angle_gamma   59.99999880
_symmetry_Int_Tables_number   1
_chemical_formula_structural   Sm6MgCd22Si
_chemical_formula_sum   'Sm6 Mg1 Cd22 Si1'
_cell_volume   713.73780911
_cell_formula_units_Z   1
loop_
 _symmetry_equiv_pos_site_id
 _symmetry_equiv_pos_as_xyz
  1  'x, y, z'
loop_
 _atom_site_type_symbol
 _atom_site_label
 _atom_site_symmetry_multiplicity
 _atom_site_fract_x
 _atom_site_fract_y
 _atom_site_fract_z
 _atom_site_occupancy
  Sm  Sm0  1  0.795055  0.795055  0.204945  1
  Sm  Sm1  1  0.204945  0.795055  0.204945  1
  Sm  Sm2  1  0.795055  0.204945  0.204945  1
  Sm  Sm3  1  0.204945  0.204945  0.795055  1
  Sm  Sm4  1  0.795055  0.204945  0.795055  1
  Sm  Sm5  1  0.204945  0.795055  0.795055  1
  Mg  Mg6  1  0.500000  0.500000  0.500000  1
  Cd  Cd7  1  0.836216  0.836216  0.491353  1
  Cd  Cd8  1  0.836216  0.491353  0.836216  1
  Cd  Cd9  1  0.491353  0.836216  0.836216  1
  Cd  Cd10  1  0.836216  0.836216  0.836216  1
  Cd  Cd11  1  0.163784  0.163784  0.508647  1
  Cd  Cd12  1  0.163784  0.508647  0.163784  1
  Cd  Cd13  1  0.508647  0.163784  0.163784  1
  Cd  Cd14  1  0.163784  0.163784  0.163784  1
  Cd  Cd15  1  0.621576  0.621576  0.135273  1
  Cd  Cd16  1  0.621576  0.135273  0.621576  1
  Cd  Cd17  1  0.135273  0.621576  0.621576  1
  Cd  Cd18  1  0.621576  0.621576  0.621576  1
  Cd  Cd19  1  0.378424  0.378424  0.864727  1
  Cd  Cd20  1  0.378424  0.864727  0.378424  1
  Cd  Cd21  1  0.864727  0.378424  0.378424  1
  Cd  Cd22  1  0.378424  0.378424  0.378424  1
  Cd  Cd23  1  0.000000  0.000000  0.500000  1
  Cd  Cd24  1  0.500000  0.000000  0.500000  1
  Cd  Cd25  1  0.000000  0.500000  0.500000  1
  Cd  Cd26  1  0.500000  0.500000  0.000000  1
  Cd  Cd27  1  0.000000  0.500000  0.000000  1
  Cd  Cd28  1  0.500000  0.000000  0.000000  1
  Si  Si29  1  0.000000  0.000000  0.000000  1
