# generated using pymatgen
data_PuB3W
_symmetry_space_group_name_H-M   'P 1'
_cell_length_a   3.10415100
_cell_length_b   5.54210140
_cell_length_c   6.87194602
_cell_angle_alpha   76.84953281
_cell_angle_beta   90.00000000
_cell_angle_gamma   90.00000000
_symmetry_Int_Tables_number   1
_chemical_formula_structural   PuB3W
_chemical_formula_sum   'Pu2 B6 W2'
_cell_volume   115.12140749
_cell_formula_units_Z   2
loop_
 _symmetry_equiv_pos_site_id
 _symmetry_equiv_pos_as_xyz
  1  'x, y, z'
loop_
 _atom_site_type_symbol
 _atom_site_label
 _atom_site_symmetry_multiplicity
 _atom_site_fract_x
 _atom_site_fract_y
 _atom_site_fract_z
 _atom_site_occupancy
  Pu  Pu0  1  0.250000  0.334492  0.697936  1
  Pu  Pu1  1  0.750000  0.665508  0.302064  1
  B  B2  1  0.250000  0.923196  0.528256  1
  B  B3  1  0.750000  0.076804  0.471744  1
  B  B4  1  0.250000  0.912744  0.008211  1
  B  B5  1  0.750000  0.087256  0.991789  1
  B  B6  1  0.250000  0.582062  0.008294  1
  B  B7  1  0.750000  0.417938  0.991706  1
  W  W8  1  0.250000  0.187912  0.216780  1
  W  W9  1  0.750000  0.812088  0.783220  1
