# generated using pymatgen
data_Yb20Cd3Ag8Pt
_symmetry_space_group_name_H-M   'P 1'
_cell_length_a   8.00470103
_cell_length_b   7.99778974
_cell_length_c   14.58821329
_cell_angle_alpha   89.95178206
_cell_angle_beta   89.99833311
_cell_angle_gamma   89.98981685
_symmetry_Int_Tables_number   1
_chemical_formula_structural   Yb20Cd3Ag8Pt
_chemical_formula_sum   'Yb20 Cd3 Ag8 Pt1'
_cell_volume   933.93584063
_cell_formula_units_Z   1
loop_
 _symmetry_equiv_pos_site_id
 _symmetry_equiv_pos_as_xyz
  1  'x, y, z'
loop_
 _atom_site_type_symbol
 _atom_site_label
 _atom_site_symmetry_multiplicity
 _atom_site_fract_x
 _atom_site_fract_y
 _atom_site_fract_z
 _atom_site_occupancy
  Yb  Yb0  1  0.999888  0.999600  0.754827  1
  Yb  Yb1  1  0.503937  0.491761  0.250405  1
  Yb  Yb2  1  0.991049  0.004131  0.245318  1
  Yb  Yb3  1  0.499603  0.499889  0.749553  1
  Yb  Yb4  1  0.171692  0.662181  0.108489  1
  Yb  Yb5  1  0.668422  0.167034  0.610630  1
  Yb  Yb6  1  0.818765  0.327473  0.112727  1
  Yb  Yb7  1  0.332386  0.833819  0.610314  1
  Yb  Yb8  1  0.348498  0.170116  0.112380  1
  Yb  Yb9  1  0.832207  0.668502  0.609229  1
  Yb  Yb10  1  0.662008  0.839997  0.112395  1
  Yb  Yb11  1  0.167184  0.331003  0.609194  1
  Yb  Yb12  1  0.338127  0.828353  0.893181  1
  Yb  Yb13  1  0.823371  0.321700  0.383812  1
  Yb  Yb14  1  0.662783  0.172344  0.892865  1
  Yb  Yb15  1  0.166389  0.667595  0.388182  1
  Yb  Yb16  1  0.172832  0.336165  0.894374  1
  Yb  Yb17  1  0.666614  0.844847  0.384064  1
  Yb  Yb18  1  0.826764  0.663059  0.894495  1
  Yb  Yb19  1  0.343353  0.165279  0.384378  1
  Cd  Cd20  1  0.001132  0.000351  0.500091  1
  Cd  Cd21  1  0.001056  0.000133  0.999689  1
  Cd  Cd22  1  0.500374  0.500969  0.500176  1
  Ag  Ag23  1  0.127751  0.628110  0.751430  1
  Ag  Ag24  1  0.872429  0.372129  0.751453  1
  Ag  Ag25  1  0.368832  0.869722  0.248574  1
  Ag  Ag26  1  0.371342  0.128077  0.751702  1
  Ag  Ag27  1  0.872747  0.629092  0.248298  1
  Ag  Ag28  1  0.128481  0.371829  0.248378  1
  Ag  Ag29  1  0.628634  0.871886  0.751693  1
  Ag  Ag30  1  0.499773  0.500453  0.999346  1
  Pt  Pt31  1  0.631576  0.132401  0.248358  1
