# generated using pymatgen
data_Ho10Sn2Bi3Pb
_symmetry_space_group_name_H-M   'P 1'
_cell_length_a   9.07562879
_cell_length_b   9.04482134
_cell_length_c   6.46791800
_cell_angle_alpha   90.00000000
_cell_angle_beta   90.00000000
_cell_angle_gamma   119.92184301
_symmetry_Int_Tables_number   1
_chemical_formula_structural   Ho10Sn2Bi3Pb
_chemical_formula_sum   'Ho10 Sn2 Bi3 Pb1'
_cell_volume   460.16475159
_cell_formula_units_Z   1
loop_
 _symmetry_equiv_pos_site_id
 _symmetry_equiv_pos_as_xyz
  1  'x, y, z'
loop_
 _atom_site_type_symbol
 _atom_site_label
 _atom_site_symmetry_multiplicity
 _atom_site_fract_x
 _atom_site_fract_y
 _atom_site_fract_z
 _atom_site_occupancy
  Ho  Ho0  1  0.996851  0.761857  0.750000  1
  Ho  Ho1  1  0.993531  0.234347  0.250000  1
  Ho  Ho2  1  0.756873  0.762743  0.250000  1
  Ho  Ho3  1  0.756398  0.994236  0.750000  1
  Ho  Ho4  1  0.245280  0.242453  0.750000  1
  Ho  Ho5  1  0.243951  0.999966  0.250000  1
  Ho  Ho6  1  0.341747  0.672456  0.500119  1
  Ho  Ho7  1  0.663236  0.330584  0.000267  1
  Ho  Ho8  1  0.663236  0.330584  0.499733  1
  Ho  Ho9  1  0.341747  0.672456  0.999881  1
  Sn  Sn10  1  0.609073  0.606838  0.750000  1
  Sn  Sn11  1  0.608284  0.002753  0.250000  1
  Bi  Bi12  1  0.388309  0.389820  0.250000  1
  Bi  Bi13  1  0.001075  0.609339  0.250000  1
  Bi  Bi14  1  0.000958  0.391403  0.750000  1
  Pb  Pb15  1  0.389452  0.998166  0.750000  1
