# generated using pymatgen
data_Tb7Ho3(IrRu)3
_symmetry_space_group_name_H-M   'P 1'
_cell_length_a   10.86440616
_cell_length_b   10.85680700
_cell_length_c   6.40654600
_cell_angle_alpha   90.00000000
_cell_angle_beta   89.93723343
_cell_angle_gamma   90.00000000
_symmetry_Int_Tables_number   1
_chemical_formula_structural   Tb7Ho3(IrRu)3
_chemical_formula_sum   'Tb14 Ho6 Ir6 Ru6'
_cell_volume   755.66933489
_cell_formula_units_Z   2
loop_
 _symmetry_equiv_pos_site_id
 _symmetry_equiv_pos_as_xyz
  1  'x, y, z'
loop_
 _atom_site_type_symbol
 _atom_site_label
 _atom_site_symmetry_multiplicity
 _atom_site_fract_x
 _atom_site_fract_y
 _atom_site_fract_z
 _atom_site_occupancy
  Tb  Tb0  1  0.292414  0.086371  0.378453  1
  Tb  Tb1  1  0.292414  0.913629  0.878453  1
  Tb  Tb2  1  0.708377  0.086399  0.877651  1
  Tb  Tb3  1  0.708377  0.913601  0.377651  1
  Tb  Tb4  1  0.587484  0.793075  0.878742  1
  Tb  Tb5  1  0.587484  0.206925  0.378742  1
  Tb  Tb6  1  0.413473  0.793227  0.377863  1
  Tb  Tb7  1  0.413473  0.206773  0.877863  1
  Tb  Tb8  1  0.206402  0.413706  0.621512  1
  Tb  Tb9  1  0.206402  0.586294  0.121512  1
  Tb  Tb10  1  0.793290  0.412453  0.121943  1
  Tb  Tb11  1  0.793290  0.587547  0.621943  1
  Tb  Tb12  1  0.913631  0.707595  0.121440  1
  Tb  Tb13  1  0.913631  0.292405  0.621440  1
  Ho  Ho14  1  0.085973  0.708000  0.622029  1
  Ho  Ho15  1  0.085973  0.292000  0.122029  1
  Ho  Ho16  1  0.998703  0.000576  0.499814  1
  Ho  Ho17  1  0.998703  0.999424  0.999814  1
  Ho  Ho18  1  0.499904  0.500307  0.000241  1
  Ho  Ho19  1  0.499904  0.499693  0.500241  1
  Ir  Ir20  1  0.153046  0.153181  0.751023  1
  Ir  Ir21  1  0.153046  0.846819  0.251023  1
  Ir  Ir22  1  0.651629  0.348726  0.749685  1
  Ir  Ir23  1  0.651629  0.651274  0.249685  1
  Ir  Ir24  1  0.347650  0.347454  0.250204  1
  Ir  Ir25  1  0.347650  0.652546  0.750204  1
  Ru  Ru26  1  0.847937  0.152518  0.249478  1
  Ru  Ru27  1  0.847937  0.847482  0.749478  1
  Ru  Ru28  1  0.500220  0.000194  0.122564  1
  Ru  Ru29  1  0.500220  0.999806  0.622564  1
  Ru  Ru30  1  0.999866  0.500232  0.877358  1
  Ru  Ru31  1  0.999866  0.499768  0.377358  1
