# generated using pymatgen
data_ReMo(OsRu2)2
_symmetry_space_group_name_H-M   'P 1'
_cell_length_a   5.52506828
_cell_length_b   5.52507007
_cell_length_c   4.35740600
_cell_angle_alpha   90.00000000
_cell_angle_beta   90.00000000
_cell_angle_gamma   120.10403475
_symmetry_Int_Tables_number   1
_chemical_formula_structural   ReMo(OsRu2)2
_chemical_formula_sum   'Re1 Mo1 Os2 Ru4'
_cell_volume   115.07417295
_cell_formula_units_Z   1
loop_
 _symmetry_equiv_pos_site_id
 _symmetry_equiv_pos_as_xyz
  1  'x, y, z'
loop_
 _atom_site_type_symbol
 _atom_site_label
 _atom_site_symmetry_multiplicity
 _atom_site_fract_x
 _atom_site_fract_y
 _atom_site_fract_z
 _atom_site_occupancy
  Re  Re0  1  0.667216  0.332784  0.250000  1
  Mo  Mo1  1  0.334924  0.665076  0.750000  1
  Os  Os2  1  0.830156  0.665978  0.750000  1
  Os  Os3  1  0.334022  0.169844  0.750000  1
  Ru  Ru4  1  0.166478  0.333395  0.250000  1
  Ru  Ru5  1  0.666605  0.833522  0.250000  1
  Ru  Ru6  1  0.167115  0.832885  0.250000  1
  Ru  Ru7  1  0.833487  0.166513  0.750000  1
