# generated using pymatgen
data_La3Yb5(Si3Pd)4
_symmetry_space_group_name_H-M   'P 1'
_cell_length_a   8.29191900
_cell_length_b   8.28670643
_cell_length_c   8.50470500
_cell_angle_alpha   90.00000000
_cell_angle_beta   90.00000000
_cell_angle_gamma   120.02087814
_symmetry_Int_Tables_number   1
_chemical_formula_structural   La3Yb5(Si3Pd)4
_chemical_formula_sum   'La3 Yb5 Si12 Pd4'
_cell_volume   505.98248548
_cell_formula_units_Z   1
loop_
 _symmetry_equiv_pos_site_id
 _symmetry_equiv_pos_as_xyz
  1  'x, y, z'
loop_
 _atom_site_type_symbol
 _atom_site_label
 _atom_site_symmetry_multiplicity
 _atom_site_fract_x
 _atom_site_fract_y
 _atom_site_fract_z
 _atom_site_occupancy
  La  La0  1  0.500716  0.001432  0.250000  1
  La  La1  1  0.999922  0.999845  0.750000  1
  La  La2  1  0.000033  0.000065  0.250000  1
  Yb  Yb3  1  0.499503  0.500502  0.750000  1
  Yb  Yb4  1  0.500338  0.499821  0.250000  1
  Yb  Yb5  1  0.000998  0.500501  0.750000  1
  Yb  Yb6  1  0.999483  0.499821  0.250000  1
  Yb  Yb7  1  0.499385  0.998770  0.750000  1
  Si  Si8  1  0.835489  0.166064  0.998574  1
  Si  Si9  1  0.164515  0.833887  0.999342  1
  Si  Si10  1  0.330575  0.166064  0.998574  1
  Si  Si11  1  0.164515  0.833887  0.500658  1
  Si  Si12  1  0.669372  0.833887  0.999342  1
  Si  Si13  1  0.835489  0.166064  0.501426  1
  Si  Si14  1  0.834125  0.668250  0.000288  1
  Si  Si15  1  0.669372  0.833887  0.500658  1
  Si  Si16  1  0.165784  0.331569  0.000695  1
  Si  Si17  1  0.330575  0.166064  0.501426  1
  Si  Si18  1  0.165784  0.331569  0.499305  1
  Si  Si19  1  0.834125  0.668250  0.499712  1
  Pd  Pd20  1  0.667008  0.334017  0.993404  1
  Pd  Pd21  1  0.332942  0.665882  0.995577  1
  Pd  Pd22  1  0.332942  0.665882  0.504423  1
  Pd  Pd23  1  0.667008  0.334017  0.506596  1
