# generated using pymatgen
data_Ho2Er6Re3OsC8
_symmetry_space_group_name_H-M   'P 1'
_cell_length_a   5.06638900
_cell_length_b   6.52516998
_cell_length_c   9.77054909
_cell_angle_alpha   89.84288786
_cell_angle_beta   90.00000000
_cell_angle_gamma   90.00000000
_symmetry_Int_Tables_number   1
_chemical_formula_structural   Ho2Er6Re3OsC8
_chemical_formula_sum   'Ho2 Er6 Re3 Os1 C8'
_cell_volume   323.00385077
_cell_formula_units_Z   1
loop_
 _symmetry_equiv_pos_site_id
 _symmetry_equiv_pos_as_xyz
  1  'x, y, z'
loop_
 _atom_site_type_symbol
 _atom_site_label
 _atom_site_symmetry_multiplicity
 _atom_site_fract_x
 _atom_site_fract_y
 _atom_site_fract_z
 _atom_site_occupancy
  Ho  Ho0  1  0.750000  0.532038  0.785624  1
  Ho  Ho1  1  0.250000  0.967248  0.282894  1
  Er  Er2  1  0.750000  0.677552  0.443224  1
  Er  Er3  1  0.250000  0.824756  0.944249  1
  Er  Er4  1  0.750000  0.178408  0.056624  1
  Er  Er5  1  0.250000  0.322203  0.556790  1
  Er  Er6  1  0.250000  0.467165  0.216387  1
  Er  Er7  1  0.750000  0.034264  0.716368  1
  Re  Re8  1  0.250000  0.781289  0.633185  1
  Re  Re9  1  0.750000  0.218595  0.368258  1
  Re  Re10  1  0.750000  0.719522  0.132103  1
  Os  Os11  1  0.250000  0.280594  0.866568  1
  C  C12  1  0.250000  0.673942  0.448233  1
  C  C13  1  0.250000  0.547171  0.757977  1
  C  C14  1  0.750000  0.451858  0.240610  1
  C  C15  1  0.750000  0.825650  0.946492  1
  C  C16  1  0.250000  0.047404  0.740775  1
  C  C17  1  0.250000  0.173735  0.051067  1
  C  C18  1  0.750000  0.324702  0.553298  1
  C  C19  1  0.750000  0.951905  0.259275  1
