# generated using pymatgen
data_LaNd2(ZnPt)4
_symmetry_space_group_name_H-M   'P 1'
_cell_length_a   8.40236630
_cell_length_b   8.40236604
_cell_length_c   8.40236545
_cell_angle_alpha   151.37277682
_cell_angle_beta   127.05937474
_cell_angle_gamma   61.28861821
_symmetry_Int_Tables_number   1
_chemical_formula_structural   LaNd2(ZnPt)4
_chemical_formula_sum   'La1 Nd2 Zn4 Pt4'
_cell_volume   224.96479992
_cell_formula_units_Z   1
loop_
 _symmetry_equiv_pos_site_id
 _symmetry_equiv_pos_as_xyz
  1  'x, y, z'
loop_
 _atom_site_type_symbol
 _atom_site_label
 _atom_site_symmetry_multiplicity
 _atom_site_fract_x
 _atom_site_fract_y
 _atom_site_fract_z
 _atom_site_occupancy
  La  La0  1  0.500000  0.000000  0.500000  1
  Nd  Nd1  1  0.872682  0.872682  0.000000  1
  Nd  Nd2  1  0.127318  0.127318  0.000000  1
  Zn  Zn3  1  0.478765  0.673772  0.804993  1
  Zn  Zn4  1  0.868779  0.673772  0.195007  1
  Zn  Zn5  1  0.131221  0.326228  0.804993  1
  Zn  Zn6  1  0.521235  0.326228  0.195007  1
  Pt  Pt7  1  0.281672  0.781672  0.500000  1
  Pt  Pt8  1  0.718328  0.218328  0.500000  1
  Pt  Pt9  1  0.802597  0.500000  0.302597  1
  Pt  Pt10  1  0.197403  0.500000  0.697403  1
