# generated using pymatgen
data_Sm12B3SCl12
_symmetry_space_group_name_H-M   'P 1'
_cell_length_a   9.81368015
_cell_length_b   9.81367936
_cell_length_c   9.81368033
_cell_angle_alpha   109.94213322
_cell_angle_beta   109.94214126
_cell_angle_gamma   109.94213673
_symmetry_Int_Tables_number   1
_chemical_formula_structural   Sm12B3SCl12
_chemical_formula_sum   'Sm12 B3 S1 Cl12'
_cell_volume   714.60169451
_cell_formula_units_Z   1
loop_
 _symmetry_equiv_pos_site_id
 _symmetry_equiv_pos_as_xyz
  1  'x, y, z'
loop_
 _atom_site_type_symbol
 _atom_site_label
 _atom_site_symmetry_multiplicity
 _atom_site_fract_x
 _atom_site_fract_y
 _atom_site_fract_z
 _atom_site_occupancy
  Sm  Sm0  1  0.476599  0.500113  0.229484  1
  Sm  Sm1  1  0.750000  0.233121  0.266879  1
  Sm  Sm2  1  0.750000  0.014589  0.485411  1
  Sm  Sm3  1  0.229484  0.476599  0.500113  1
  Sm  Sm4  1  0.266879  0.750000  0.233121  1
  Sm  Sm5  1  0.023401  0.270516  0.999887  1
  Sm  Sm6  1  0.999887  0.023401  0.270516  1
  Sm  Sm7  1  0.485411  0.750000  0.014589  1
  Sm  Sm8  1  0.500113  0.229484  0.476599  1
  Sm  Sm9  1  0.014589  0.485411  0.750000  1
  Sm  Sm10  1  0.270516  0.999887  0.023401  1
  Sm  Sm11  1  0.233121  0.266879  0.750000  1
  B  B12  1  0.497811  0.002189  0.250000  1
  B  B13  1  0.002189  0.250000  0.497811  1
  B  B14  1  0.250000  0.497811  0.002189  1
  S  S15  1  0.250000  0.250000  0.250000  1
  Cl  Cl16  1  0.250000  0.755121  0.744879  1
  Cl  Cl17  1  0.505548  0.502089  0.752748  1
  Cl  Cl18  1  0.994452  0.747252  0.997911  1
  Cl  Cl19  1  0.744879  0.250000  0.755121  1
  Cl  Cl20  1  0.997911  0.994452  0.747252  1
  Cl  Cl21  1  0.250000  0.998950  0.501050  1
  Cl  Cl22  1  0.752748  0.505548  0.502089  1
  Cl  Cl23  1  0.501050  0.250000  0.998950  1
  Cl  Cl24  1  0.755121  0.744879  0.250000  1
  Cl  Cl25  1  0.747252  0.997911  0.994452  1
  Cl  Cl26  1  0.998950  0.501050  0.250000  1
  Cl  Cl27  1  0.502089  0.752748  0.505548  1
