# generated using pymatgen
data_Pa2SiOs3
_symmetry_space_group_name_H-M   'P 1'
_cell_length_a   5.62287833
_cell_length_b   5.62287899
_cell_length_c   5.04890757
_cell_angle_alpha   56.16238466
_cell_angle_beta   56.16239127
_cell_angle_gamma   59.99999432
_symmetry_Int_Tables_number   1
_chemical_formula_structural   Pa2SiOs3
_chemical_formula_sum   'Pa2 Si1 Os3'
_cell_volume   105.87798818
_cell_formula_units_Z   1
loop_
 _symmetry_equiv_pos_site_id
 _symmetry_equiv_pos_as_xyz
  1  'x, y, z'
loop_
 _atom_site_type_symbol
 _atom_site_label
 _atom_site_symmetry_multiplicity
 _atom_site_fract_x
 _atom_site_fract_y
 _atom_site_fract_z
 _atom_site_occupancy
  Pa  Pa0  1  0.748752  0.748752  0.753744  1
  Pa  Pa1  1  0.501248  0.501248  0.496256  1
  Si  Si2  1  0.125000  0.125000  0.625000  1
  Os  Os3  1  0.125000  0.625000  0.125000  1
  Os  Os4  1  0.625000  0.125000  0.125000  1
  Os  Os5  1  0.125000  0.125000  0.125000  1
