# generated using pymatgen
data_LiSc7(Si4Ru3)4
_symmetry_space_group_name_H-M   'P 1'
_cell_length_a   9.88508138
_cell_length_b   9.88375379
_cell_length_c   13.32407600
_cell_angle_alpha   54.05012580
_cell_angle_beta   53.92478042
_cell_angle_gamma   31.24992068
_symmetry_Int_Tables_number   1
_chemical_formula_structural   LiSc7(Si4Ru3)4
_chemical_formula_sum   'Li1 Sc7 Si16 Ru12'
_cell_volume   534.85514344
_cell_formula_units_Z   1
loop_
 _symmetry_equiv_pos_site_id
 _symmetry_equiv_pos_as_xyz
  1  'x, y, z'
loop_
 _atom_site_type_symbol
 _atom_site_label
 _atom_site_symmetry_multiplicity
 _atom_site_fract_x
 _atom_site_fract_y
 _atom_site_fract_z
 _atom_site_occupancy
  Li  Li0  1  0.299159  0.560748  0.645436  1
  Sc  Sc1  1  0.439408  0.706845  0.853238  1
  Sc  Sc2  1  0.695538  0.443525  0.360825  1
  Sc  Sc3  1  0.560190  0.294638  0.144241  1
  Sc  Sc4  1  0.040133  0.287657  0.640151  1
  Sc  Sc5  1  0.712580  0.960323  0.858843  1
  Sc  Sc6  1  0.965306  0.705960  0.360906  1
  Sc  Sc7  1  0.290647  0.038602  0.138917  1
  Si  Si8  1  0.871299  0.127937  0.250532  1
  Si  Si9  1  0.132178  0.863697  0.749294  1
  Si  Si10  1  0.385000  0.616533  0.249184  1
  Si  Si11  1  0.614765  0.381832  0.748709  1
  Si  Si12  1  0.972111  0.253321  0.895510  1
  Si  Si13  1  0.742624  0.031711  0.605761  1
  Si  Si14  1  0.024834  0.747798  0.106846  1
  Si  Si15  1  0.245317  0.983842  0.390970  1
  Si  Si16  1  0.575211  0.079577  0.067782  1
  Si  Si17  1  0.917500  0.424994  0.434261  1
  Si  Si18  1  0.424873  0.921028  0.932198  1
  Si  Si19  1  0.085006  0.576952  0.569486  1
  Si  Si20  1  0.385352  0.141467  0.399311  1
  Si  Si21  1  0.860251  0.610375  0.101189  1
  Si  Si22  1  0.615930  0.859286  0.597856  1
  Si  Si23  1  0.144486  0.386948  0.897396  1
  Ru  Ru24  1  0.646811  0.830353  0.283165  1
  Ru  Ru25  1  0.168050  0.353317  0.218674  1
  Ru  Ru26  1  0.754686  0.488969  0.066506  1
  Ru  Ru27  1  0.832358  0.646166  0.781816  1
  Ru  Ru28  1  0.901859  0.136525  0.586473  1
  Ru  Ru29  1  0.857665  0.103732  0.913242  1
  Ru  Ru30  1  0.099437  0.862780  0.411895  1
  Ru  Ru31  1  0.143303  0.895798  0.086339  1
  Ru  Ru32  1  0.248626  0.506714  0.935130  1
  Ru  Ru33  1  0.494057  0.751085  0.567835  1
  Ru  Ru34  1  0.503402  0.251382  0.431986  1
  Ru  Ru35  1  0.350049  0.167583  0.718099  1
