# generated using pymatgen
data_Pa6CuSn8Pt5
_symmetry_space_group_name_H-M   'P 1'
_cell_length_a   8.42988700
_cell_length_b   8.43038325
_cell_length_c   8.42963599
_cell_angle_alpha   109.27622094
_cell_angle_beta   109.84301303
_cell_angle_gamma   109.29136834
_symmetry_Int_Tables_number   1
_chemical_formula_structural   Pa6CuSn8Pt5
_chemical_formula_sum   'Pa6 Cu1 Sn8 Pt5'
_cell_volume   461.17104795
_cell_formula_units_Z   1
loop_
 _symmetry_equiv_pos_site_id
 _symmetry_equiv_pos_as_xyz
  1  'x, y, z'
loop_
 _atom_site_type_symbol
 _atom_site_label
 _atom_site_symmetry_multiplicity
 _atom_site_fract_x
 _atom_site_fract_y
 _atom_site_fract_z
 _atom_site_occupancy
  Pa  Pa0  1  0.874991  0.750046  0.125037  1
  Pa  Pa1  1  0.124224  0.376367  0.253304  1
  Pa  Pa2  1  0.624996  0.249998  0.375025  1
  Pa  Pa3  1  0.746670  0.870924  0.623067  1
  Pa  Pa4  1  0.376897  0.123581  0.747789  1
  Pa  Pa5  1  0.252191  0.629095  0.875784  1
  Cu  Cu6  1  0.125030  0.249992  0.874920  1
  Sn  Sn7  1  0.175813  0.005718  0.995014  1
  Sn  Sn8  1  0.681222  0.000802  0.999893  1
  Sn  Sn9  1  0.489310  0.494276  0.170036  1
  Sn  Sn10  1  0.319447  0.818524  0.318516  1
  Sn  Sn11  1  0.000091  0.681331  0.500998  1
  Sn  Sn12  1  0.004915  0.180828  0.510736  1
  Sn  Sn13  1  0.499139  0.499182  0.680522  1
  Sn  Sn14  1  0.830021  0.319255  0.824217  1
  Pt  Pt15  1  0.748789  0.375253  0.124990  1
  Pt  Pt16  1  0.626389  0.876177  0.251260  1
  Pt  Pt17  1  0.249711  0.124735  0.373605  1
  Pt  Pt18  1  0.375092  0.750005  0.624951  1
  Pt  Pt19  1  0.875062  0.623914  0.750335  1
