# generated using pymatgen
data_Na2AcSbS4
_symmetry_space_group_name_H-M   'P 1'
_cell_length_a   5.94130836
_cell_length_b   5.94130799
_cell_length_c   7.28356908
_cell_angle_alpha   65.87358555
_cell_angle_beta   65.87358345
_cell_angle_gamma   90.24812579
_symmetry_Int_Tables_number   1
_chemical_formula_structural   Na2AcSbS4
_chemical_formula_sum   'Na2 Ac1 Sb1 S4'
_cell_volume   209.56383511
_cell_formula_units_Z   1
loop_
 _symmetry_equiv_pos_site_id
 _symmetry_equiv_pos_as_xyz
  1  'x, y, z'
loop_
 _atom_site_type_symbol
 _atom_site_label
 _atom_site_symmetry_multiplicity
 _atom_site_fract_x
 _atom_site_fract_y
 _atom_site_fract_z
 _atom_site_occupancy
  Na  Na0  1  0.628619  0.371381  0.750000  1
  Na  Na1  1  0.366707  0.633293  0.250000  1
  Ac  Ac2  1  0.870338  0.129662  0.250000  1
  Sb  Sb3  1  0.095023  0.904977  0.750000  1
  S  S4  1  0.128461  0.322379  0.748766  1
  S  S5  1  0.677621  0.871539  0.751234  1
  S  S6  1  0.879053  0.645821  0.225022  1
  S  S7  1  0.354179  0.120947  0.274978  1
