# generated using pymatgen
data_Er2Al8GaPtRh2
_symmetry_space_group_name_H-M   'P 1'
_cell_length_a   7.54962494
_cell_length_b   7.54962471
_cell_length_c   9.45614266
_cell_angle_alpha   89.94281357
_cell_angle_beta   89.94281199
_cell_angle_gamma   119.38636947
_symmetry_Int_Tables_number   1
_chemical_formula_structural   Er2Al8GaPtRh2
_chemical_formula_sum   'Er4 Al16 Ga2 Pt2 Rh4'
_cell_volume   469.62029583
_cell_formula_units_Z   2
loop_
 _symmetry_equiv_pos_site_id
 _symmetry_equiv_pos_as_xyz
  1  'x, y, z'
loop_
 _atom_site_type_symbol
 _atom_site_label
 _atom_site_symmetry_multiplicity
 _atom_site_fract_x
 _atom_site_fract_y
 _atom_site_fract_z
 _atom_site_occupancy
  Er  Er0  1  0.994933  0.673198  0.750368  1
  Er  Er1  1  0.005067  0.326802  0.249632  1
  Er  Er2  1  0.673198  0.994933  0.750368  1
  Er  Er3  1  0.326802  0.005067  0.249632  1
  Al  Al4  1  0.001097  0.331787  0.577875  1
  Al  Al5  1  0.998903  0.668213  0.422125  1
  Al  Al6  1  0.000049  0.664374  0.074700  1
  Al  Al7  1  0.335626  0.999951  0.925300  1
  Al  Al8  1  0.999951  0.335626  0.925300  1
  Al  Al9  1  0.664374  0.000049  0.074700  1
  Al  Al10  1  0.668213  0.998903  0.422125  1
  Al  Al11  1  0.331787  0.001097  0.577875  1
  Al  Al12  1  0.332280  0.332280  0.053649  1
  Al  Al13  1  0.667720  0.667720  0.946351  1
  Al  Al14  1  0.669381  0.669381  0.559033  1
  Al  Al15  1  0.330619  0.330619  0.440967  1
  Al  Al16  1  0.338898  0.549015  0.754052  1
  Al  Al17  1  0.661102  0.450985  0.245948  1
  Al  Al18  1  0.549015  0.338898  0.754052  1
  Al  Al19  1  0.450985  0.661102  0.245948  1
  Ga  Ga20  1  0.131273  0.131273  0.750725  1
  Ga  Ga21  1  0.868727  0.868727  0.249275  1
  Pt  Pt22  1  0.671601  0.328399  0.500000  1
  Pt  Pt23  1  0.328399  0.671601  0.500000  1
  Rh  Rh24  1  0.328082  0.671918  0.000000  1
  Rh  Rh25  1  0.671918  0.328082  0.000000  1
  Rh  Rh26  1  0.000000  0.000000  0.500000  1
  Rh  Rh27  1  0.000000  0.000000  0.000000  1
