# generated using pymatgen
data_Al2VW5
_symmetry_space_group_name_H-M   'P 1'
_cell_length_a   5.00164700
_cell_length_b   4.90881600
_cell_length_c   5.00164700
_cell_angle_alpha   90.00000000
_cell_angle_beta   90.00000000
_cell_angle_gamma   90.00000000
_symmetry_Int_Tables_number   1
_chemical_formula_structural   Al2VW5
_chemical_formula_sum   'Al2 V1 W5'
_cell_volume   122.80126152
_cell_formula_units_Z   1
loop_
 _symmetry_equiv_pos_site_id
 _symmetry_equiv_pos_as_xyz
  1  'x, y, z'
loop_
 _atom_site_type_symbol
 _atom_site_label
 _atom_site_symmetry_multiplicity
 _atom_site_fract_x
 _atom_site_fract_y
 _atom_site_fract_z
 _atom_site_occupancy
  Al  Al0  1  0.000000  0.007238  0.000000  1
  Al  Al1  1  0.500000  0.492762  0.500000  1
  V  V2  1  0.500000  0.250000  0.000000  1
  W  W3  1  0.250316  0.997813  0.500000  1
  W  W4  1  0.749684  0.997813  0.500000  1
  W  W5  1  0.000000  0.502187  0.249684  1
  W  W6  1  0.000000  0.502187  0.750316  1
  W  W7  1  0.500000  0.750000  0.000000  1
