# generated using pymatgen
data_YbSc(SiTc2)4
_symmetry_space_group_name_H-M   'P 1'
_cell_length_a   7.26213474
_cell_length_b   7.26213474
_cell_length_c   4.18470700
_cell_angle_alpha   90.00000000
_cell_angle_beta   90.00000000
_cell_angle_gamma   88.80976015
_symmetry_Int_Tables_number   1
_chemical_formula_structural   YbSc(SiTc2)4
_chemical_formula_sum   'Yb1 Sc1 Si4 Tc8'
_cell_volume   220.64797442
_cell_formula_units_Z   1
loop_
 _symmetry_equiv_pos_site_id
 _symmetry_equiv_pos_as_xyz
  1  'x, y, z'
loop_
 _atom_site_type_symbol
 _atom_site_label
 _atom_site_symmetry_multiplicity
 _atom_site_fract_x
 _atom_site_fract_y
 _atom_site_fract_z
 _atom_site_occupancy
  Yb  Yb0  1  0.500000  0.500000  0.000000  1
  Sc  Sc1  1  0.000000  0.000000  0.500000  1
  Si  Si2  1  0.711368  0.711368  0.500000  1
  Si  Si3  1  0.288632  0.288632  0.500000  1
  Si  Si4  1  0.201626  0.798374  0.000000  1
  Si  Si5  1  0.798374  0.201626  0.000000  1
  Tc  Tc6  1  0.604899  0.150537  0.500000  1
  Tc  Tc7  1  0.395101  0.849463  0.500000  1
  Tc  Tc8  1  0.092756  0.341095  0.000000  1
  Tc  Tc9  1  0.907244  0.658905  0.000000  1
  Tc  Tc10  1  0.150537  0.604899  0.500000  1
  Tc  Tc11  1  0.849463  0.395101  0.500000  1
  Tc  Tc12  1  0.341095  0.092756  0.000000  1
  Tc  Tc13  1  0.658905  0.907244  0.000000  1
