# generated using pymatgen
data_Sr7Yb5(DySi2)8
_symmetry_space_group_name_H-M   'P 1'
_cell_length_a   7.57134954
_cell_length_b   7.94841065
_cell_length_c   15.43739496
_cell_angle_alpha   90.13600930
_cell_angle_beta   90.11062820
_cell_angle_gamma   89.99942910
_symmetry_Int_Tables_number   1
_chemical_formula_structural   Sr7Yb5(DySi2)8
_chemical_formula_sum   'Sr7 Yb5 Dy8 Si16'
_cell_volume   929.02109371
_cell_formula_units_Z   1
loop_
 _symmetry_equiv_pos_site_id
 _symmetry_equiv_pos_as_xyz
  1  'x, y, z'
loop_
 _atom_site_type_symbol
 _atom_site_label
 _atom_site_symmetry_multiplicity
 _atom_site_fract_x
 _atom_site_fract_y
 _atom_site_fract_z
 _atom_site_occupancy
  Sr  Sr0  1  0.974901  0.821970  0.402871  1
  Sr  Sr1  1  0.474396  0.679537  0.097096  1
  Sr  Sr2  1  0.524956  0.322109  0.596918  1
  Sr  Sr3  1  0.025241  0.178138  0.905064  1
  Sr  Sr4  1  0.025046  0.177987  0.596853  1
  Sr  Sr5  1  0.526390  0.322026  0.903698  1
  Sr  Sr6  1  0.474921  0.677708  0.402589  1
  Yb  Yb7  1  0.970891  0.814967  0.098156  1
  Yb  Yb8  1  0.354975  0.014584  0.750250  1
  Yb  Yb9  1  0.855091  0.485618  0.750227  1
  Yb  Yb10  1  0.144792  0.516242  0.248693  1
  Yb  Yb11  1  0.646209  0.983911  0.248570  1
  Dy  Dy12  1  0.314207  0.176763  0.120848  1
  Dy  Dy13  1  0.815707  0.321467  0.377639  1
  Dy  Dy14  1  0.183837  0.679728  0.879464  1
  Dy  Dy15  1  0.684078  0.821331  0.621654  1
  Dy  Dy16  1  0.314974  0.177675  0.377042  1
  Dy  Dy17  1  0.816280  0.321646  0.121697  1
  Dy  Dy18  1  0.184497  0.678455  0.621711  1
  Dy  Dy19  1  0.686057  0.822002  0.879066  1
  Si  Si20  1  0.862897  0.537541  0.537828  1
  Si  Si21  1  0.364946  0.963226  0.962397  1
  Si  Si22  1  0.636816  0.037878  0.461570  1
  Si  Si23  1  0.136490  0.467844  0.040070  1
  Si  Si24  1  0.137329  0.461844  0.461634  1
  Si  Si25  1  0.642197  0.034535  0.039258  1
  Si  Si26  1  0.362655  0.962296  0.537691  1
  Si  Si27  1  0.862943  0.542486  0.964139  1
  Si  Si28  1  0.975309  0.876728  0.750223  1
  Si  Si29  1  0.474999  0.623754  0.750395  1
  Si  Si30  1  0.524884  0.377420  0.249369  1
  Si  Si31  1  0.023441  0.121535  0.248351  1
  Si  Si32  1  0.246728  0.405297  0.750424  1
  Si  Si33  1  0.747026  0.095148  0.750360  1
  Si  Si34  1  0.249313  0.902373  0.247037  1
  Si  Si35  1  0.754583  0.596231  0.249150  1
