# generated using pymatgen
data_PuPdPt4
_symmetry_space_group_name_H-M   'P 1'
_cell_length_a   5.34420450
_cell_length_b   5.34420382
_cell_length_c   5.34420400
_cell_angle_alpha   59.99999886
_cell_angle_beta   60.00000307
_cell_angle_gamma   59.99999783
_symmetry_Int_Tables_number   1
_chemical_formula_structural   PuPdPt4
_chemical_formula_sum   'Pu1 Pd1 Pt4'
_cell_volume   107.92799520
_cell_formula_units_Z   1
loop_
 _symmetry_equiv_pos_site_id
 _symmetry_equiv_pos_as_xyz
  1  'x, y, z'
loop_
 _atom_site_type_symbol
 _atom_site_label
 _atom_site_symmetry_multiplicity
 _atom_site_fract_x
 _atom_site_fract_y
 _atom_site_fract_z
 _atom_site_occupancy
  Pu  Pu0  1  0.000000  0.000000  0.000000  1
  Pd  Pd1  1  0.750000  0.750000  0.750000  1
  Pt  Pt2  1  0.874151  0.375283  0.375283  1
  Pt  Pt3  1  0.375283  0.874151  0.375283  1
  Pt  Pt4  1  0.375283  0.375283  0.874151  1
  Pt  Pt5  1  0.375283  0.375283  0.375283  1
