# generated using pymatgen
data_Ta4Co2PtS12
_symmetry_space_group_name_H-M   'P 1'
_cell_length_a   6.87841026
_cell_length_b   6.87840994
_cell_length_c   18.71608759
_cell_angle_alpha   70.35722725
_cell_angle_beta   70.35722805
_cell_angle_gamma   28.15965816
_symmetry_Int_Tables_number   1
_chemical_formula_structural   Ta4Co2PtS12
_chemical_formula_sum   'Ta4 Co2 Pt1 S12'
_cell_volume   391.99770144
_cell_formula_units_Z   1
loop_
 _symmetry_equiv_pos_site_id
 _symmetry_equiv_pos_as_xyz
  1  'x, y, z'
loop_
 _atom_site_type_symbol
 _atom_site_label
 _atom_site_symmetry_multiplicity
 _atom_site_fract_x
 _atom_site_fract_y
 _atom_site_fract_z
 _atom_site_occupancy
  Ta  Ta0  1  0.623729  0.623729  0.849705  1
  Ta  Ta1  1  0.376271  0.376271  0.150295  1
  Ta  Ta2  1  0.743924  0.743924  0.592561  1
  Ta  Ta3  1  0.256076  0.256076  0.407439  1
  Co  Co4  1  0.230618  0.230618  0.717265  1
  Co  Co5  1  0.769382  0.769382  0.282735  1
  Pt  Pt6  1  0.000000  0.000000  0.000000  1
  S  S7  1  0.976327  0.976327  0.881284  1
  S  S8  1  0.023673  0.023673  0.118716  1
  S  S9  1  0.631510  0.631510  0.395531  1
  S  S10  1  0.368490  0.368490  0.604469  1
  S  S11  1  0.138731  0.138731  0.549919  1
  S  S12  1  0.861269  0.861269  0.450081  1
  S  S13  1  0.804989  0.804989  0.763844  1
  S  S14  1  0.195011  0.195011  0.236156  1
  S  S15  1  0.183296  0.183296  0.925230  1
  S  S16  1  0.816704  0.816704  0.074770  1
  S  S17  1  0.611261  0.611261  0.719256  1
  S  S18  1  0.388739  0.388739  0.280744  1
