# generated using pymatgen
data_Dy2HoGa6(Co2Ni)3
_symmetry_space_group_name_H-M   'P 1'
_cell_length_a   4.04974700
_cell_length_b   8.69583198
_cell_length_c   8.69583105
_cell_angle_alpha   60.01630984
_cell_angle_beta   90.00000000
_cell_angle_gamma   90.00000000
_symmetry_Int_Tables_number   1
_chemical_formula_structural   Dy2HoGa6(Co2Ni)3
_chemical_formula_sum   'Dy2 Ho1 Ga6 Co6 Ni3'
_cell_volume   265.24799483
_cell_formula_units_Z   1
loop_
 _symmetry_equiv_pos_site_id
 _symmetry_equiv_pos_as_xyz
  1  'x, y, z'
loop_
 _atom_site_type_symbol
 _atom_site_label
 _atom_site_symmetry_multiplicity
 _atom_site_fract_x
 _atom_site_fract_y
 _atom_site_fract_z
 _atom_site_occupancy
  Dy  Dy0  1  0.500000  0.333281  0.333278  1
  Dy  Dy1  1  0.500000  0.666722  0.666719  1
  Ho  Ho2  1  0.000000  0.000025  0.999975  1
  Ga  Ga3  1  0.000000  0.508035  0.491965  1
  Ga  Ga4  1  0.000000  0.491818  0.000037  1
  Ga  Ga5  1  0.000000  0.999963  0.508182  1
  Ga  Ga6  1  0.500000  0.273662  0.726338  1
  Ga  Ga7  1  0.500000  0.726440  0.999926  1
  Ga  Ga8  1  0.500000  0.000074  0.273560  1
  Co  Co9  1  0.000000  0.178124  0.186180  1
  Co  Co10  1  0.000000  0.186071  0.635799  1
  Co  Co11  1  0.000000  0.635716  0.178178  1
  Co  Co12  1  0.000000  0.813820  0.821876  1
  Co  Co13  1  0.000000  0.364201  0.813929  1
  Co  Co14  1  0.000000  0.821822  0.364284  1
  Ni  Ni15  1  0.500000  0.701636  0.298364  1
  Ni  Ni16  1  0.500000  0.298455  0.999964  1
  Ni  Ni17  1  0.500000  0.000036  0.701545  1
