# generated using pymatgen
data_Tm6Sc4(TlBi)3
_symmetry_space_group_name_H-M   'P 1'
_cell_length_a   8.81668000
_cell_length_b   8.84211845
_cell_length_c   6.36381000
_cell_angle_alpha   90.00000000
_cell_angle_beta   90.00000000
_cell_angle_gamma   119.90488385
_symmetry_Int_Tables_number   1
_chemical_formula_structural   Tm6Sc4(TlBi)3
_chemical_formula_sum   'Tm6 Sc4 Tl3 Bi3'
_cell_volume   430.05568871
_cell_formula_units_Z   1
loop_
 _symmetry_equiv_pos_site_id
 _symmetry_equiv_pos_as_xyz
  1  'x, y, z'
loop_
 _atom_site_type_symbol
 _atom_site_label
 _atom_site_symmetry_multiplicity
 _atom_site_fract_x
 _atom_site_fract_y
 _atom_site_fract_z
 _atom_site_occupancy
  Tm  Tm0  1  0.234964  0.000000  0.250000  1
  Tm  Tm1  1  0.238908  0.231455  0.750000  1
  Tm  Tm2  1  0.007454  0.768545  0.750000  1
  Tm  Tm3  1  0.008544  0.243337  0.250000  1
  Tm  Tm4  1  0.765207  0.756663  0.250000  1
  Tm  Tm5  1  0.761400  0.000000  0.750000  1
  Sc  Sc6  1  0.328939  0.667127  0.003492  1
  Sc  Sc7  1  0.661812  0.332873  0.496508  1
  Sc  Sc8  1  0.661812  0.332873  0.003492  1
  Sc  Sc9  1  0.328939  0.667127  0.496508  1
  Tl  Tl10  1  0.997767  0.598928  0.250000  1
  Tl  Tl11  1  0.398839  0.401072  0.250000  1
  Tl  Tl12  1  0.402156  0.000000  0.750000  1
  Bi  Bi13  1  0.605657  0.000000  0.250000  1
  Bi  Bi14  1  0.600811  0.604019  0.750000  1
  Bi  Bi15  1  0.996792  0.395981  0.750000  1
