# generated using pymatgen
data_Ho4TmSc3(Co4P3)4
_symmetry_space_group_name_H-M   'P 1'
_cell_length_a   12.23146212
_cell_length_b   12.23146210
_cell_length_c   3.71818800
_cell_angle_alpha   90.00000000
_cell_angle_beta   90.00000000
_cell_angle_gamma   119.98394970
_symmetry_Int_Tables_number   1
_chemical_formula_structural   Ho4TmSc3(Co4P3)4
_chemical_formula_sum   'Ho4 Tm1 Sc3 Co16 P12'
_cell_volume   481.82456982
_cell_formula_units_Z   1
loop_
 _symmetry_equiv_pos_site_id
 _symmetry_equiv_pos_as_xyz
  1  'x, y, z'
loop_
 _atom_site_type_symbol
 _atom_site_label
 _atom_site_symmetry_multiplicity
 _atom_site_fract_x
 _atom_site_fract_y
 _atom_site_fract_z
 _atom_site_occupancy
  Ho  Ho0  1  0.666723  0.333361  0.000000  1
  Ho  Ho1  1  0.333361  0.666723  0.000000  1
  Ho  Ho2  1  0.184033  0.999900  0.500000  1
  Ho  Ho3  1  0.999900  0.184033  0.500000  1
  Tm  Tm4  1  0.815620  0.815620  0.500000  1
  Sc  Sc5  1  0.440418  0.440418  0.000000  1
  Sc  Sc6  1  0.560064  0.000011  0.000000  1
  Sc  Sc7  1  0.000011  0.560064  0.000000  1
  Co  Co8  1  0.875438  0.355206  0.500000  1
  Co  Co9  1  0.645022  0.520602  0.500000  1
  Co  Co10  1  0.479833  0.124535  0.500000  1
  Co  Co11  1  0.355206  0.875438  0.500000  1
  Co  Co12  1  0.520602  0.645022  0.500000  1
  Co  Co13  1  0.124535  0.479833  0.500000  1
  Co  Co14  1  0.805041  0.178755  0.000000  1
  Co  Co15  1  0.820931  0.626518  0.000000  1
  Co  Co16  1  0.373953  0.194928  0.000000  1
  Co  Co17  1  0.178755  0.805041  0.000000  1
  Co  Co18  1  0.626518  0.820931  0.000000  1
  Co  Co19  1  0.194928  0.373953  0.000000  1
  Co  Co20  1  0.278226  0.278226  0.500000  1
  Co  Co21  1  0.721904  0.999596  0.500000  1
  Co  Co22  1  0.999596  0.721904  0.500000  1
  Co  Co23  1  0.999500  0.999500  0.000000  1
  P  P24  1  0.692362  0.171026  0.500000  1
  P  P25  1  0.828861  0.521172  0.500000  1
  P  P26  1  0.478848  0.307745  0.500000  1
  P  P27  1  0.171026  0.692362  0.500000  1
  P  P28  1  0.521172  0.828861  0.500000  1
  P  P29  1  0.307745  0.478848  0.500000  1
  P  P30  1  0.178968  0.178968  0.000000  1
  P  P31  1  0.820887  0.999290  0.000000  1
  P  P32  1  0.999290  0.820887  0.000000  1
  P  P33  1  0.646204  0.646204  0.000000  1
  P  P34  1  0.354532  0.999988  0.000000  1
  P  P35  1  0.999988  0.354532  0.000000  1
