# generated using pymatgen
data_Pa5Fe13(P2Ir)6
_symmetry_space_group_name_H-M   'P 1'
_cell_length_a   12.20393419
_cell_length_b   12.14841918
_cell_length_c   3.79452100
_cell_angle_alpha   90.00000000
_cell_angle_beta   90.00000000
_cell_angle_gamma   119.91185326
_symmetry_Int_Tables_number   1
_chemical_formula_structural   Pa5Fe13(P2Ir)6
_chemical_formula_sum   'Pa5 Fe13 P12 Ir6'
_cell_volume   487.63209755
_cell_formula_units_Z   1
loop_
 _symmetry_equiv_pos_site_id
 _symmetry_equiv_pos_as_xyz
  1  'x, y, z'
loop_
 _atom_site_type_symbol
 _atom_site_label
 _atom_site_symmetry_multiplicity
 _atom_site_fract_x
 _atom_site_fract_y
 _atom_site_fract_z
 _atom_site_occupancy
  Pa  Pa0  1  0.665726  0.332504  0.000000  1
  Pa  Pa1  1  0.334808  0.673838  0.000000  1
  Pa  Pa2  1  0.816172  0.814590  0.500000  1
  Pa  Pa3  1  0.188244  0.000912  0.500000  1
  Pa  Pa4  1  0.999107  0.183934  0.500000  1
  Fe  Fe5  1  0.800419  0.178910  0.000000  1
  Fe  Fe6  1  0.820595  0.622996  0.000000  1
  Fe  Fe7  1  0.376647  0.194011  0.000000  1
  Fe  Fe8  1  0.182879  0.807130  0.000000  1
  Fe  Fe9  1  0.624020  0.817339  0.000000  1
  Fe  Fe10  1  0.193465  0.377105  0.000000  1
  Fe  Fe11  1  0.285609  0.282450  0.500000  1
  Fe  Fe12  1  0.717128  0.001093  0.500000  1
  Fe  Fe13  1  0.998921  0.714689  0.500000  1
  Fe  Fe14  1  0.868597  0.360081  0.500000  1
  Fe  Fe15  1  0.639841  0.507615  0.500000  1
  Fe  Fe16  1  0.491093  0.126832  0.500000  1
  Fe  Fe17  1  0.366237  0.879590  0.500000  1
  P  P18  1  0.692427  0.168991  0.500000  1
  P  P19  1  0.831025  0.523312  0.500000  1
  P  P20  1  0.475823  0.304302  0.500000  1
  P  P21  1  0.175195  0.707811  0.500000  1
  P  P22  1  0.526531  0.839976  0.500000  1
  P  P23  1  0.302039  0.469024  0.500000  1
  P  P24  1  0.644232  0.633235  0.000000  1
  P  P25  1  0.365567  0.002681  0.000000  1
  P  P26  1  0.987924  0.355223  0.000000  1
  P  P27  1  0.191742  0.191991  0.000000  1
  P  P28  1  0.807752  0.999144  0.000000  1
  P  P29  1  0.001278  0.809326  0.000000  1
  Ir  Ir30  1  0.455583  0.443733  0.000000  1
  Ir  Ir31  1  0.551128  0.000271  0.000000  1
  Ir  Ir32  1  0.989012  0.545505  0.000000  1
  Ir  Ir33  1  0.508691  0.635358  0.500000  1
  Ir  Ir34  1  0.124529  0.493948  0.500000  1
  Ir  Ir35  1  0.000013  0.000552  0.000000  1
