# generated using pymatgen
data_HoHf(SnIr)2
_symmetry_space_group_name_H-M   'P 1'
_cell_length_a   7.45740000
_cell_length_b   7.45740063
_cell_length_c   7.60144400
_cell_angle_alpha   90.00000000
_cell_angle_beta   90.00000000
_cell_angle_gamma   120.00000606
_symmetry_Int_Tables_number   1
_chemical_formula_structural   HoHf(SnIr)2
_chemical_formula_sum   'Ho3 Hf3 Sn6 Ir6'
_cell_volume   366.10159353
_cell_formula_units_Z   3
loop_
 _symmetry_equiv_pos_site_id
 _symmetry_equiv_pos_as_xyz
  1  'x, y, z'
loop_
 _atom_site_type_symbol
 _atom_site_label
 _atom_site_symmetry_multiplicity
 _atom_site_fract_x
 _atom_site_fract_y
 _atom_site_fract_z
 _atom_site_occupancy
  Ho  Ho0  1  0.999786  0.406034  0.750000  1
  Ho  Ho1  1  0.593966  0.593752  0.750000  1
  Ho  Ho2  1  0.406248  0.000214  0.750000  1
  Hf  Hf3  1  0.998476  0.390922  0.250000  1
  Hf  Hf4  1  0.609078  0.607554  0.250000  1
  Hf  Hf5  1  0.392446  0.001524  0.250000  1
  Sn  Sn6  1  0.266045  0.267095  0.494361  1
  Sn  Sn7  1  0.001049  0.733955  0.494361  1
  Sn  Sn8  1  0.001049  0.733955  0.005639  1
  Sn  Sn9  1  0.732905  0.998951  0.494361  1
  Sn  Sn10  1  0.732905  0.998951  0.005639  1
  Sn  Sn11  1  0.266045  0.267095  0.005639  1
  Ir  Ir12  1  0.333333  0.666667  0.461117  1
  Ir  Ir13  1  0.666667  0.333333  0.464033  1
  Ir  Ir14  1  0.333333  0.666667  0.038883  1
  Ir  Ir15  1  0.000000  0.000000  0.750000  1
  Ir  Ir16  1  0.000000  0.000000  0.250000  1
  Ir  Ir17  1  0.666667  0.333333  0.035967  1
