# generated using pymatgen
data_Nb5ZnFeB4Ru9
_symmetry_space_group_name_H-M   'P 1'
_cell_length_a   9.34035419
_cell_length_b   9.31129261
_cell_length_c   3.01390200
_cell_angle_alpha   90.00000000
_cell_angle_beta   90.00000000
_cell_angle_gamma   89.82886217
_symmetry_Int_Tables_number   1
_chemical_formula_structural   Nb5ZnFeB4Ru9
_chemical_formula_sum   'Nb5 Zn1 Fe1 B4 Ru9'
_cell_volume   262.12021127
_cell_formula_units_Z   1
loop_
 _symmetry_equiv_pos_site_id
 _symmetry_equiv_pos_as_xyz
  1  'x, y, z'
loop_
 _atom_site_type_symbol
 _atom_site_label
 _atom_site_symmetry_multiplicity
 _atom_site_fract_x
 _atom_site_fract_y
 _atom_site_fract_z
 _atom_site_occupancy
  Nb  Nb0  1  0.818278  0.676331  0.000000  1
  Nb  Nb1  1  0.181722  0.323669  0.000000  1
  Nb  Nb2  1  0.330329  0.826577  0.000000  1
  Nb  Nb3  1  0.669671  0.173423  0.000000  1
  Nb  Nb4  1  0.000000  0.000000  0.000000  1
  Zn  Zn5  1  0.500000  0.500000  0.000000  1
  Fe  Fe6  1  0.500000  0.000000  0.500000  1
  B  B7  1  0.608086  0.880230  0.000000  1
  B  B8  1  0.391914  0.119770  0.000000  1
  B  B9  1  0.130845  0.616709  0.000000  1
  B  B10  1  0.869155  0.383291  0.000000  1
  Ru  Ru11  1  0.565778  0.720833  0.500000  1
  Ru  Ru12  1  0.434222  0.279167  0.500000  1
  Ru  Ru13  1  0.070982  0.781248  0.500000  1
  Ru  Ru14  1  0.929018  0.218752  0.500000  1
  Ru  Ru15  1  0.285690  0.569459  0.500000  1
  Ru  Ru16  1  0.714310  0.430541  0.500000  1
  Ru  Ru17  1  0.224899  0.067877  0.500000  1
  Ru  Ru18  1  0.775101  0.932123  0.500000  1
  Ru  Ru19  1  0.000000  0.500000  0.500000  1
