# generated using pymatgen
data_Np2RuBr12
_symmetry_space_group_name_H-M   'P 1'
_cell_length_a   9.90486274
_cell_length_b   9.90486234
_cell_length_c   7.70311809
_cell_angle_alpha   71.82156490
_cell_angle_beta   71.82157123
_cell_angle_gamma   85.10428569
_symmetry_Int_Tables_number   1
_chemical_formula_structural   Np2RuBr12
_chemical_formula_sum   'Np2 Ru1 Br12'
_cell_volume   682.10974215
_cell_formula_units_Z   1
loop_
 _symmetry_equiv_pos_site_id
 _symmetry_equiv_pos_as_xyz
  1  'x, y, z'
loop_
 _atom_site_type_symbol
 _atom_site_label
 _atom_site_symmetry_multiplicity
 _atom_site_fract_x
 _atom_site_fract_y
 _atom_site_fract_z
 _atom_site_occupancy
  Np  Np0  1  0.256673  0.256673  0.751738  1
  Np  Np1  1  0.743327  0.743327  0.248262  1
  Ru  Ru2  1  0.000000  0.000000  0.000000  1
  Br  Br3  1  0.970331  0.235968  0.766923  1
  Br  Br4  1  0.235968  0.970331  0.766923  1
  Br  Br5  1  0.029669  0.764032  0.233077  1
  Br  Br6  1  0.764032  0.029669  0.233077  1
  Br  Br7  1  0.219814  0.514160  0.789708  1
  Br  Br8  1  0.514160  0.219814  0.789708  1
  Br  Br9  1  0.780186  0.485840  0.210292  1
  Br  Br10  1  0.485840  0.780186  0.210292  1
  Br  Br11  1  0.125347  0.125347  0.146440  1
  Br  Br12  1  0.874653  0.874653  0.853560  1
  Br  Br13  1  0.654654  0.654654  0.626670  1
  Br  Br14  1  0.345346  0.345346  0.373330  1
