# generated using pymatgen
data_YbDy3Al15(SiIr2)3
_symmetry_space_group_name_H-M   'P 1'
_cell_length_a   7.52735055
_cell_length_b   7.51746185
_cell_length_c   9.33521406
_cell_angle_alpha   90.00178052
_cell_angle_beta   89.90170604
_cell_angle_gamma   119.77039303
_symmetry_Int_Tables_number   1
_chemical_formula_structural   YbDy3Al15(SiIr2)3
_chemical_formula_sum   'Yb1 Dy3 Al15 Si3 Ir6'
_cell_volume   458.52986379
_cell_formula_units_Z   1
loop_
 _symmetry_equiv_pos_site_id
 _symmetry_equiv_pos_as_xyz
  1  'x, y, z'
loop_
 _atom_site_type_symbol
 _atom_site_label
 _atom_site_symmetry_multiplicity
 _atom_site_fract_x
 _atom_site_fract_y
 _atom_site_fract_z
 _atom_site_occupancy
  Yb  Yb0  1  0.994003  0.668889  0.747919  1
  Dy  Dy1  1  0.004941  0.325326  0.253900  1
  Dy  Dy2  1  0.679759  0.000905  0.747254  1
  Dy  Dy3  1  0.324496  0.004562  0.250075  1
  Al  Al4  1  0.997766  0.668535  0.423169  1
  Al  Al5  1  0.998537  0.664030  0.074660  1
  Al  Al6  1  0.335291  0.999199  0.923618  1
  Al  Al7  1  0.002200  0.337604  0.927919  1
  Al  Al8  1  0.663285  0.998905  0.076526  1
  Al  Al9  1  0.659477  0.993987  0.421445  1
  Al  Al10  1  0.334448  0.999229  0.576319  1
  Al  Al11  1  0.336235  0.335793  0.058003  1
  Al  Al12  1  0.665658  0.665308  0.941778  1
  Al  Al13  1  0.664864  0.664774  0.559092  1
  Al  Al14  1  0.339185  0.335784  0.442195  1
  Al  Al15  1  0.335003  0.547016  0.750103  1
  Al  Al16  1  0.665399  0.451082  0.250451  1
  Al  Al17  1  0.546343  0.335333  0.750182  1
  Al  Al18  1  0.450388  0.662977  0.249587  1
  Si  Si19  1  0.132843  0.128621  0.750684  1
  Si  Si20  1  0.871394  0.872420  0.249894  1
  Si  Si21  1  0.001090  0.338450  0.573230  1
  Ir  Ir22  1  0.678097  0.327650  0.501210  1
  Ir  Ir23  1  0.320862  0.664030  0.499659  1
  Ir  Ir24  1  0.328470  0.671277  0.999983  1
  Ir  Ir25  1  0.671322  0.327832  0.999702  1
  Ir  Ir26  1  0.999115  0.008996  0.501540  1
  Ir  Ir27  1  0.999530  0.001491  0.999903  1
