# generated using pymatgen
data_Dy3Ho(Ta3Ge4)2
_symmetry_space_group_name_H-M   'P 1'
_cell_length_a   7.01757900
_cell_length_b   7.14982314
_cell_length_c   13.53865323
_cell_angle_alpha   90.02184490
_cell_angle_beta   90.00000000
_cell_angle_gamma   90.00000000
_symmetry_Int_Tables_number   1
_chemical_formula_structural   Dy3Ho(Ta3Ge4)2
_chemical_formula_sum   'Dy6 Ho2 Ta12 Ge16'
_cell_volume   679.29441274
_cell_formula_units_Z   2
loop_
 _symmetry_equiv_pos_site_id
 _symmetry_equiv_pos_as_xyz
  1  'x, y, z'
loop_
 _atom_site_type_symbol
 _atom_site_label
 _atom_site_symmetry_multiplicity
 _atom_site_fract_x
 _atom_site_fract_y
 _atom_site_fract_z
 _atom_site_occupancy
  Dy  Dy0  1  0.495549  0.326340  0.094194  1
  Dy  Dy1  1  0.995549  0.173660  0.405806  1
  Dy  Dy2  1  0.504379  0.673453  0.594152  1
  Dy  Dy3  1  0.004379  0.826547  0.905848  1
  Dy  Dy4  1  0.504413  0.673678  0.905865  1
  Dy  Dy5  1  0.004413  0.826322  0.594135  1
  Ho  Ho6  1  0.495337  0.326240  0.405608  1
  Ho  Ho7  1  0.995337  0.173760  0.094392  1
  Ta  Ta8  1  0.664235  0.014792  0.749996  1
  Ta  Ta9  1  0.164235  0.485208  0.750004  1
  Ta  Ta10  1  0.335933  0.985291  0.249963  1
  Ta  Ta11  1  0.835933  0.514709  0.250037  1
  Ta  Ta12  1  0.840170  0.330166  0.626188  1
  Ta  Ta13  1  0.340170  0.169834  0.873812  1
  Ta  Ta14  1  0.159834  0.669688  0.126310  1
  Ta  Ta15  1  0.659834  0.830312  0.373690  1
  Ta  Ta16  1  0.159818  0.669536  0.373745  1
  Ta  Ta17  1  0.659818  0.830464  0.126255  1
  Ta  Ta18  1  0.840538  0.330058  0.873846  1
  Ta  Ta19  1  0.340538  0.169942  0.626154  1
  Ge  Ge20  1  0.805423  0.640146  0.750043  1
  Ge  Ge21  1  0.305423  0.859854  0.749957  1
  Ge  Ge22  1  0.194702  0.359396  0.249972  1
  Ge  Ge23  1  0.694702  0.140604  0.250028  1
  Ge  Ge24  1  0.539933  0.378754  0.750108  1
  Ge  Ge25  1  0.039933  0.121246  0.749892  1
  Ge  Ge26  1  0.460167  0.620952  0.250027  1
  Ge  Ge27  1  0.960167  0.879048  0.249973  1
  Ge  Ge28  1  0.675995  0.038697  0.541710  1
  Ge  Ge29  1  0.175995  0.461303  0.958290  1
  Ge  Ge30  1  0.323398  0.961726  0.041994  1
  Ge  Ge31  1  0.823398  0.538274  0.458006  1
  Ge  Ge32  1  0.324008  0.961715  0.458048  1
  Ge  Ge33  1  0.824008  0.538285  0.041952  1
  Ge  Ge34  1  0.676169  0.038681  0.958226  1
  Ge  Ge35  1  0.176169  0.461319  0.541774  1
