# generated using pymatgen
data_LuPtI18
_symmetry_space_group_name_H-M   'P 1'
_cell_length_a   10.54454319
_cell_length_b   10.18391838
_cell_length_c   10.16385713
_cell_angle_alpha   88.39357371
_cell_angle_beta   86.61532353
_cell_angle_gamma   88.87926185
_symmetry_Int_Tables_number   1
_chemical_formula_structural   LuPtI18
_chemical_formula_sum   'Lu1 Pt1 I18'
_cell_volume   1088.93603615
_cell_formula_units_Z   1
loop_
 _symmetry_equiv_pos_site_id
 _symmetry_equiv_pos_as_xyz
  1  'x, y, z'
loop_
 _atom_site_type_symbol
 _atom_site_label
 _atom_site_symmetry_multiplicity
 _atom_site_fract_x
 _atom_site_fract_y
 _atom_site_fract_z
 _atom_site_occupancy
  Lu  Lu0  1  0.000000  0.000000  0.000000  1
  Pt  Pt1  1  0.500000  0.500000  0.500000  1
  I  I2  1  0.776012  0.470006  0.506434  1
  I  I3  1  0.503145  0.763789  0.474243  1
  I  I4  1  0.470169  0.502270  0.765042  1
  I  I5  1  0.223988  0.529994  0.493566  1
  I  I6  1  0.496855  0.236211  0.525757  1
  I  I7  1  0.529831  0.497730  0.234958  1
  I  I8  1  0.889658  0.380052  0.743578  1
  I  I9  1  0.746378  0.879362  0.380964  1
  I  I10  1  0.376202  0.747648  0.882532  1
  I  I11  1  0.110342  0.619948  0.256422  1
  I  I12  1  0.253622  0.120638  0.619036  1
  I  I13  1  0.623798  0.252352  0.117468  1
  I  I14  1  0.024743  0.971488  0.707567  1
  I  I15  1  0.715568  0.020116  0.970901  1
  I  I16  1  0.968622  0.710756  0.018259  1
  I  I17  1  0.975257  0.028512  0.292433  1
  I  I18  1  0.284432  0.979884  0.029099  1
  I  I19  1  0.031378  0.289244  0.981741  1
