# generated using pymatgen
data_K4CePtCl12
_symmetry_space_group_name_H-M   'P 1'
_cell_length_a   7.25940600
_cell_length_b   7.25940600
_cell_length_c   10.23422500
_cell_angle_alpha   90.00000000
_cell_angle_beta   90.00000000
_cell_angle_gamma   90.00000000
_symmetry_Int_Tables_number   1
_chemical_formula_structural   K4CePtCl12
_chemical_formula_sum   'K4 Ce1 Pt1 Cl12'
_cell_volume   539.33317226
_cell_formula_units_Z   1
loop_
 _symmetry_equiv_pos_site_id
 _symmetry_equiv_pos_as_xyz
  1  'x, y, z'
loop_
 _atom_site_type_symbol
 _atom_site_label
 _atom_site_symmetry_multiplicity
 _atom_site_fract_x
 _atom_site_fract_y
 _atom_site_fract_z
 _atom_site_occupancy
  K  K0  1  0.500000  0.000000  0.761023  1
  K  K1  1  0.000000  0.500000  0.238977  1
  K  K2  1  0.500000  0.000000  0.238977  1
  K  K3  1  0.000000  0.500000  0.761023  1
  Ce  Ce4  1  0.500000  0.500000  0.500000  1
  Pt  Pt5  1  0.000000  0.000000  0.000000  1
  Cl  Cl6  1  0.000000  0.000000  0.770506  1
  Cl  Cl7  1  0.500000  0.500000  0.242390  1
  Cl  Cl8  1  0.753774  0.753774  0.500000  1
  Cl  Cl9  1  0.229019  0.229019  0.000000  1
  Cl  Cl10  1  0.753774  0.246226  0.500000  1
  Cl  Cl11  1  0.229019  0.770981  0.000000  1
  Cl  Cl12  1  0.000000  0.000000  0.229494  1
  Cl  Cl13  1  0.500000  0.500000  0.757610  1
  Cl  Cl14  1  0.246226  0.246226  0.500000  1
  Cl  Cl15  1  0.770981  0.770981  0.000000  1
  Cl  Cl16  1  0.246226  0.753774  0.500000  1
  Cl  Cl17  1  0.770981  0.229019  0.000000  1
