# generated using pymatgen
data_BaNiP3N5O2
_symmetry_space_group_name_H-M   'P 1'
_cell_length_a   6.74733400
_cell_length_b   7.13871638
_cell_length_c   14.27945340
_cell_angle_alpha   60.89827377
_cell_angle_beta   90.00000000
_cell_angle_gamma   90.00000000
_symmetry_Int_Tables_number   1
_chemical_formula_structural   BaNiP3N5O2
_chemical_formula_sum   'Ba4 Ni4 P12 N20 O8'
_cell_volume   600.97287639
_cell_formula_units_Z   4
loop_
 _symmetry_equiv_pos_site_id
 _symmetry_equiv_pos_as_xyz
  1  'x, y, z'
loop_
 _atom_site_type_symbol
 _atom_site_label
 _atom_site_symmetry_multiplicity
 _atom_site_fract_x
 _atom_site_fract_y
 _atom_site_fract_z
 _atom_site_occupancy
  Ba  Ba0  1  0.750821  0.508085  0.611988  1
  Ba  Ba1  1  0.250821  0.491915  0.888012  1
  Ba  Ba2  1  0.249179  0.491915  0.388012  1
  Ba  Ba3  1  0.749179  0.508085  0.111988  1
  Ni  Ni4  1  0.509879  0.995085  0.877967  1
  Ni  Ni5  1  0.009879  0.004915  0.622033  1
  Ni  Ni6  1  0.490121  0.004915  0.122033  1
  Ni  Ni7  1  0.990121  0.995085  0.377967  1
  P  P8  1  0.014929  0.950377  0.876485  1
  P  P9  1  0.514929  0.049623  0.623515  1
  P  P10  1  0.985071  0.049623  0.123515  1
  P  P11  1  0.485071  0.950377  0.376485  1
  P  P12  1  0.278971  0.742809  0.584572  1
  P  P13  1  0.778971  0.257191  0.915428  1
  P  P14  1  0.721029  0.257191  0.415428  1
  P  P15  1  0.221029  0.742809  0.084572  1
  P  P16  1  0.762092  0.729467  0.793990  1
  P  P17  1  0.262092  0.270533  0.706010  1
  P  P18  1  0.237908  0.270533  0.206010  1
  P  P19  1  0.737908  0.729467  0.293990  1
  N  N20  1  0.310637  0.927235  0.620715  1
  N  N21  1  0.810637  0.072765  0.879285  1
  N  N22  1  0.689363  0.072765  0.379285  1
  N  N23  1  0.189363  0.927235  0.120715  1
  N  N24  1  0.706701  0.887718  0.665951  1
  N  N25  1  0.206701  0.112282  0.834049  1
  N  N26  1  0.293299  0.112282  0.334049  1
  N  N27  1  0.793299  0.887718  0.165951  1
  N  N28  1  0.973500  0.838568  0.801145  1
  N  N29  1  0.473500  0.161432  0.698855  1
  N  N30  1  0.026500  0.161432  0.198855  1
  N  N31  1  0.526500  0.838568  0.301145  1
  N  N32  1  0.803796  0.491935  0.809357  1
  N  N33  1  0.303796  0.508065  0.690643  1
  N  N34  1  0.196204  0.508065  0.190643  1
  N  N35  1  0.696204  0.491935  0.309357  1
  N  N36  1  0.573066  0.250250  0.506397  1
  N  N37  1  0.073066  0.749750  0.993603  1
  N  N38  1  0.426934  0.749750  0.493603  1
  N  N39  1  0.926934  0.250250  0.006397  1
  O  O40  1  0.057081  0.785453  0.544868  1
  O  O41  1  0.557081  0.214547  0.955132  1
  O  O42  1  0.942919  0.214547  0.455132  1
  O  O43  1  0.442919  0.785453  0.044868  1
  O  O44  1  0.598320  0.720577  0.873301  1
  O  O45  1  0.098320  0.279423  0.626699  1
  O  O46  1  0.401680  0.279423  0.126699  1
  O  O47  1  0.901680  0.720577  0.373301  1
