# generated using pymatgen
data_Zr12Si12Os3Ru
_symmetry_space_group_name_H-M   'P 1'
_cell_length_a   3.96098200
_cell_length_b   10.35407666
_cell_length_c   11.77142935
_cell_angle_alpha   90.03432719
_cell_angle_beta   90.00000000
_cell_angle_gamma   90.00000000
_symmetry_Int_Tables_number   1
_chemical_formula_structural   Zr12Si12Os3Ru
_chemical_formula_sum   'Zr12 Si12 Os3 Ru1'
_cell_volume   482.77343780
_cell_formula_units_Z   1
loop_
 _symmetry_equiv_pos_site_id
 _symmetry_equiv_pos_as_xyz
  1  'x, y, z'
loop_
 _atom_site_type_symbol
 _atom_site_label
 _atom_site_symmetry_multiplicity
 _atom_site_fract_x
 _atom_site_fract_y
 _atom_site_fract_z
 _atom_site_occupancy
  Zr  Zr0  1  0.250000  0.875656  0.021323  1
  Zr  Zr1  1  0.250000  0.624323  0.520219  1
  Zr  Zr2  1  0.750000  0.124361  0.979499  1
  Zr  Zr3  1  0.750000  0.375806  0.479698  1
  Zr  Zr4  1  0.250000  0.923981  0.596962  1
  Zr  Zr5  1  0.250000  0.575857  0.098435  1
  Zr  Zr6  1  0.750000  0.076208  0.401492  1
  Zr  Zr7  1  0.750000  0.423655  0.901825  1
  Zr  Zr8  1  0.250000  0.657777  0.800379  1
  Zr  Zr9  1  0.250000  0.841398  0.300430  1
  Zr  Zr10  1  0.750000  0.341822  0.199639  1
  Zr  Zr11  1  0.750000  0.158354  0.699590  1
  Si  Si12  1  0.250000  0.013650  0.824710  1
  Si  Si13  1  0.250000  0.485469  0.324846  1
  Si  Si14  1  0.750000  0.985213  0.174850  1
  Si  Si15  1  0.750000  0.515029  0.675342  1
  Si  Si16  1  0.250000  0.249392  0.841756  1
  Si  Si17  1  0.250000  0.250207  0.341976  1
  Si  Si18  1  0.750000  0.749905  0.157960  1
  Si  Si19  1  0.750000  0.751154  0.658770  1
  Si  Si20  1  0.250000  0.194672  0.544482  1
  Si  Si21  1  0.250000  0.305589  0.044497  1
  Si  Si22  1  0.750000  0.805510  0.455685  1
  Si  Si23  1  0.750000  0.694370  0.955488  1
  Os  Os24  1  0.250000  0.387289  0.679087  1
  Os  Os25  1  0.250000  0.112936  0.178967  1
  Os  Os26  1  0.750000  0.612920  0.321179  1
  Ru  Ru27  1  0.750000  0.887497  0.820913  1
