# generated using pymatgen
data_Rb4CaBr6
_symmetry_space_group_name_H-M   'P 1'
_cell_length_a   9.51144023
_cell_length_b   9.51144020
_cell_length_c   9.51143996
_cell_angle_alpha   89.30488420
_cell_angle_beta   89.30488364
_cell_angle_gamma   89.30487888
_symmetry_Int_Tables_number   1
_chemical_formula_structural   Rb4CaBr6
_chemical_formula_sum   'Rb8 Ca2 Br12'
_cell_volume   860.28769472
_cell_formula_units_Z   2
loop_
 _symmetry_equiv_pos_site_id
 _symmetry_equiv_pos_as_xyz
  1  'x, y, z'
loop_
 _atom_site_type_symbol
 _atom_site_label
 _atom_site_symmetry_multiplicity
 _atom_site_fract_x
 _atom_site_fract_y
 _atom_site_fract_z
 _atom_site_occupancy
  Rb  Rb0  1  0.250000  0.250000  0.250000  1
  Rb  Rb1  1  0.750000  0.750000  0.750000  1
  Rb  Rb2  1  0.250000  0.625394  0.874606  1
  Rb  Rb3  1  0.874606  0.250000  0.625394  1
  Rb  Rb4  1  0.625394  0.874606  0.250000  1
  Rb  Rb5  1  0.750000  0.374606  0.125394  1
  Rb  Rb6  1  0.125394  0.750000  0.374606  1
  Rb  Rb7  1  0.374606  0.125394  0.750000  1
  Ca  Ca8  1  0.000000  0.000000  0.000000  1
  Ca  Ca9  1  0.500000  0.500000  0.500000  1
  Br  Br10  1  0.560621  0.207219  0.427481  1
  Br  Br11  1  0.427481  0.560621  0.207219  1
  Br  Br12  1  0.207219  0.427481  0.560621  1
  Br  Br13  1  0.939379  0.072519  0.292781  1
  Br  Br14  1  0.292781  0.939379  0.072519  1
  Br  Br15  1  0.072519  0.292781  0.939379  1
  Br  Br16  1  0.439379  0.792781  0.572519  1
  Br  Br17  1  0.572519  0.439379  0.792781  1
  Br  Br18  1  0.792781  0.572519  0.439379  1
  Br  Br19  1  0.060621  0.927481  0.707219  1
  Br  Br20  1  0.927481  0.707219  0.060621  1
  Br  Br21  1  0.707219  0.060621  0.927481  1
