# generated using pymatgen
data_Dy5Ge3P9Ir16Pd2Rh
_symmetry_space_group_name_H-M   'P 1'
_cell_length_a   12.85220500
_cell_length_b   12.85220386
_cell_length_c   3.97167400
_cell_angle_alpha   90.00000000
_cell_angle_beta   90.00000000
_cell_angle_gamma   120.00000035
_symmetry_Int_Tables_number   1
_chemical_formula_structural   Dy5Ge3P9Ir16Pd2Rh
_chemical_formula_sum   'Dy5 Ge3 P9 Ir16 Pd2 Rh1'
_cell_volume   568.14537275
_cell_formula_units_Z   1
loop_
 _symmetry_equiv_pos_site_id
 _symmetry_equiv_pos_as_xyz
  1  'x, y, z'
loop_
 _atom_site_type_symbol
 _atom_site_label
 _atom_site_symmetry_multiplicity
 _atom_site_fract_x
 _atom_site_fract_y
 _atom_site_fract_z
 _atom_site_occupancy
  Dy  Dy0  1  0.333603  0.667000  0.500000  1
  Dy  Dy1  1  0.666604  0.333000  0.500000  1
  Dy  Dy2  1  0.000855  0.816664  0.000000  1
  Dy  Dy3  1  0.184190  0.183336  0.000000  1
  Dy  Dy4  1  0.816489  0.000000  0.000000  1
  Ge  Ge5  1  0.000127  0.640386  0.500000  1
  Ge  Ge6  1  0.359741  0.359614  0.500000  1
  Ge  Ge7  1  0.639074  0.000000  0.500000  1
  P  P8  1  0.516466  0.689755  0.000000  1
  P  P9  1  0.312140  0.828839  0.000000  1
  P  P10  1  0.172764  0.483711  0.000000  1
  P  P11  1  0.483301  0.171161  0.000000  1
  P  P12  1  0.689053  0.516289  0.000000  1
  P  P13  1  0.826710  0.310245  0.000000  1
  P  P14  1  0.999774  0.179586  0.500000  1
  P  P15  1  0.820189  0.820414  0.500000  1
  P  P16  1  0.179500  0.000000  0.500000  1
  Ir  Ir17  1  0.505342  0.866247  0.000000  1
  Ir  Ir18  1  0.136726  0.641715  0.000000  1
  Ir  Ir19  1  0.359852  0.495285  0.000000  1
  Ir  Ir20  1  0.495012  0.358285  0.000000  1
  Ir  Ir21  1  0.864568  0.504715  0.000000  1
  Ir  Ir22  1  0.639096  0.133753  0.000000  1
  Ir  Ir23  1  0.999405  0.277170  0.000000  1
  Ir  Ir24  1  0.722235  0.722830  0.000000  1
  Ir  Ir25  1  0.282287  0.000000  0.000000  1
  Ir  Ir26  1  0.622639  0.798265  0.500000  1
  Ir  Ir27  1  0.202135  0.826311  0.500000  1
  Ir  Ir28  1  0.174477  0.376249  0.500000  1
  Ir  Ir29  1  0.375824  0.173689  0.500000  1
  Ir  Ir30  1  0.798227  0.623751  0.500000  1
  Ir  Ir31  1  0.824373  0.201735  0.500000  1
  Ir  Ir32  1  0.999482  0.000000  0.500000  1
  Pd  Pd33  1  0.999588  0.451313  0.500000  1
  Pd  Pd34  1  0.548275  0.548687  0.500000  1
  Rh  Rh35  1  0.449878  0.000000  0.500000  1
