# generated using pymatgen
data_LiLa16Cd(Co2Hg)2
_symmetry_space_group_name_H-M   'P 1'
_cell_length_a   9.97407126
_cell_length_b   9.94829577
_cell_length_c   9.97643900
_cell_angle_alpha   59.90637822
_cell_angle_beta   59.99215023
_cell_angle_gamma   60.26245161
_symmetry_Int_Tables_number   1
_chemical_formula_structural   LiLa16Cd(Co2Hg)2
_chemical_formula_sum   'Li1 La16 Cd1 Co4 Hg2'
_cell_volume   700.81023674
_cell_formula_units_Z   1
loop_
 _symmetry_equiv_pos_site_id
 _symmetry_equiv_pos_as_xyz
  1  'x, y, z'
loop_
 _atom_site_type_symbol
 _atom_site_label
 _atom_site_symmetry_multiplicity
 _atom_site_fract_x
 _atom_site_fract_y
 _atom_site_fract_z
 _atom_site_occupancy
  Li  Li0  1  0.205897  0.929918  0.932092  1
  La  La1  1  0.940688  0.940189  0.559561  1
  La  La2  1  0.559637  0.940363  0.560527  1
  La  La3  1  0.559637  0.940363  0.939473  1
  La  La4  1  0.695034  0.692353  0.306307  1
  La  La5  1  0.156100  0.154802  0.534085  1
  La  La6  1  0.313844  0.687532  0.686628  1
  La  La7  1  0.156100  0.154802  0.155013  1
  La  La8  1  0.540376  0.153615  0.153004  1
  La  La9  1  0.313844  0.687532  0.311997  1
  La  La10  1  0.313274  0.314184  0.686272  1
  La  La11  1  0.692743  0.308050  0.690877  1
  La  La12  1  0.941092  0.559754  0.558476  1
  La  La13  1  0.559058  0.559730  0.940606  1
  La  La14  1  0.153963  0.538024  0.154006  1
  La  La15  1  0.692743  0.308050  0.308331  1
  La  La16  1  0.941092  0.559754  0.940677  1
  Cd  Cd17  1  0.921579  0.237391  0.920514  1
  Co  Co18  1  0.922465  0.357985  0.359774  1
  Co  Co19  1  0.359197  0.360044  0.919058  1
  Co  Co20  1  0.359097  0.919233  0.360835  1
  Co  Co21  1  0.359197  0.360044  0.361701  1
  Hg  Hg22  1  0.921673  0.918144  0.915630  1
  Hg  Hg23  1  0.921673  0.918144  0.244552  1
