# generated using pymatgen
data_TbGdBe2SiO7
_symmetry_space_group_name_H-M   'P 1'
_cell_length_a   7.38504600
_cell_length_b   7.38485278
_cell_length_c   4.82270611
_cell_angle_alpha   90.13023683
_cell_angle_beta   90.00000000
_cell_angle_gamma   90.00000000
_symmetry_Int_Tables_number   1
_chemical_formula_structural   TbGdBe2SiO7
_chemical_formula_sum   'Tb2 Gd2 Be4 Si2 O14'
_cell_volume   263.01754629
_cell_formula_units_Z   2
loop_
 _symmetry_equiv_pos_site_id
 _symmetry_equiv_pos_as_xyz
  1  'x, y, z'
loop_
 _atom_site_type_symbol
 _atom_site_label
 _atom_site_symmetry_multiplicity
 _atom_site_fract_x
 _atom_site_fract_y
 _atom_site_fract_z
 _atom_site_occupancy
  Tb  Tb0  1  0.340600  0.840479  0.492488  1
  Tb  Tb1  1  0.840600  0.659521  0.507512  1
  Gd  Gd2  1  0.159124  0.341076  0.506230  1
  Gd  Gd3  1  0.659124  0.158924  0.493770  1
  Be  Be4  1  0.136168  0.637615  0.039122  1
  Be  Be5  1  0.636168  0.862385  0.960878  1
  Be  Be6  1  0.363480  0.135120  0.960814  1
  Be  Be7  1  0.863480  0.364880  0.039186  1
  Si  Si8  1  0.500485  0.500833  0.000061  1
  Si  Si9  1  0.000485  0.999167  0.999939  1
  O  O10  1  0.919599  0.163818  0.194289  1
  O  O11  1  0.837131  0.917592  0.803725  1
  O  O12  1  0.163528  0.078856  0.802416  1
  O  O13  1  0.080861  0.837444  0.199466  1
  O  O14  1  0.419599  0.336182  0.805711  1
  O  O15  1  0.580861  0.662556  0.800534  1
  O  O16  1  0.663528  0.421144  0.197584  1
  O  O17  1  0.337131  0.582408  0.196275  1
  O  O18  1  0.641062  0.856549  0.290470  1
  O  O19  1  0.141062  0.643451  0.709530  1
  O  O20  1  0.858610  0.361039  0.709251  1
  O  O21  1  0.358610  0.138961  0.290749  1
  O  O22  1  0.499353  0.998273  0.821040  1
  O  O23  1  0.999353  0.501727  0.178960  1
