# generated using pymatgen
data_HoLu2Ni7B2
_symmetry_space_group_name_H-M   'P 1'
_cell_length_a   5.01735500
_cell_length_b   5.01701883
_cell_length_c   14.28458800
_cell_angle_alpha   90.00000000
_cell_angle_beta   90.00000000
_cell_angle_gamma   120.00220996
_symmetry_Int_Tables_number   1
_chemical_formula_structural   HoLu2Ni7B2
_chemical_formula_sum   'Ho2 Lu4 Ni14 B4'
_cell_volume   311.39328305
_cell_formula_units_Z   2
loop_
 _symmetry_equiv_pos_site_id
 _symmetry_equiv_pos_as_xyz
  1  'x, y, z'
loop_
 _atom_site_type_symbol
 _atom_site_label
 _atom_site_symmetry_multiplicity
 _atom_site_fract_x
 _atom_site_fract_y
 _atom_site_fract_z
 _atom_site_occupancy
  Ho  Ho0  1  0.666672  0.333342  0.250000  1
  Ho  Ho1  1  0.333328  0.666657  0.750000  1
  Lu  Lu2  1  0.666669  0.333337  0.032307  1
  Lu  Lu3  1  0.666669  0.333337  0.467693  1
  Lu  Lu4  1  0.333331  0.666663  0.532307  1
  Lu  Lu5  1  0.333331  0.666663  0.967693  1
  Ni  Ni6  1  0.000000  0.000000  0.000000  1
  Ni  Ni7  1  0.165802  0.834211  0.147606  1
  Ni  Ni8  1  0.668408  0.834211  0.147606  1
  Ni  Ni9  1  0.165809  0.331619  0.147604  1
  Ni  Ni10  1  0.165809  0.331619  0.352396  1
  Ni  Ni11  1  0.165802  0.834211  0.352393  1
  Ni  Ni12  1  0.668408  0.834211  0.352393  1
  Ni  Ni13  1  0.000000  0.000000  0.500000  1
  Ni  Ni14  1  0.331592  0.165789  0.647606  1
  Ni  Ni15  1  0.834196  0.165789  0.647606  1
  Ni  Ni16  1  0.834191  0.668380  0.647604  1
  Ni  Ni17  1  0.331592  0.165789  0.852393  1
  Ni  Ni18  1  0.834196  0.165789  0.852393  1
  Ni  Ni19  1  0.834191  0.668380  0.852396  1
  B  B20  1  0.000000  0.000001  0.250000  1
  B  B21  1  0.333336  0.666671  0.250000  1
  B  B22  1  0.000000  0.999999  0.750000  1
  B  B23  1  0.666664  0.333329  0.750000  1
