# generated using pymatgen
data_Na2Co2(MoO4)3
_symmetry_space_group_name_H-M   'P 1'
_cell_length_a   7.08669001
_cell_length_b   8.89517814
_cell_length_c   10.46474697
_cell_angle_alpha   107.34829252
_cell_angle_beta   105.19678041
_cell_angle_gamma   103.72597355
_symmetry_Int_Tables_number   1
_chemical_formula_structural   Na2Co2(MoO4)3
_chemical_formula_sum   'Na4 Co4 Mo6 O24'
_cell_volume   570.90255780
_cell_formula_units_Z   2
loop_
 _symmetry_equiv_pos_site_id
 _symmetry_equiv_pos_as_xyz
  1  'x, y, z'
loop_
 _atom_site_type_symbol
 _atom_site_label
 _atom_site_symmetry_multiplicity
 _atom_site_fract_x
 _atom_site_fract_y
 _atom_site_fract_z
 _atom_site_occupancy
  Na  Na0  1  0.792602  0.800891  0.308973  1
  Na  Na1  1  0.209985  0.197383  0.695645  1
  Na  Na2  1  0.472630  0.995671  0.986801  1
  Na  Na3  1  0.975066  0.034000  0.067389  1
  Co  Co4  1  0.878375  0.459386  0.101093  1
  Co  Co5  1  0.124118  0.540056  0.897864  1
  Co  Co6  1  0.458544  0.299699  0.482670  1
  Co  Co7  1  0.541380  0.700369  0.519889  1
  Mo  Mo8  1  0.285736  0.835825  0.240122  1
  Mo  Mo9  1  0.714719  0.162468  0.761282  1
  Mo  Mo10  1  0.909265  0.249288  0.364125  1
  Mo  Mo11  1  0.098131  0.753193  0.636828  1
  Mo  Mo12  1  0.616671  0.593679  0.832566  1
  Mo  Mo13  1  0.382844  0.406351  0.167396  1
  O  O14  1  0.322631  0.052855  0.321818  1
  O  O15  1  0.667638  0.946132  0.672478  1
  O  O16  1  0.032439  0.719611  0.228338  1
  O  O17  1  0.966185  0.278700  0.771001  1
  O  O18  1  0.175655  0.473230  0.078970  1
  O  O19  1  0.828169  0.531651  0.922630  1
  O  O20  1  0.736305  0.302561  0.452999  1
  O  O21  1  0.254947  0.684932  0.538080  1
  O  O22  1  0.620897  0.499865  0.147274  1
  O  O23  1  0.379562  0.494117  0.851270  1
  O  O24  1  0.282133  0.793540  0.058941  1
  O  O25  1  0.725419  0.204022  0.945386  1
  O  O26  1  0.946837  0.363732  0.252268  1
  O  O27  1  0.064824  0.639230  0.749410  1
  O  O28  1  0.302667  0.186480  0.079183  1
  O  O29  1  0.680123  0.811585  0.920220  1
  O  O30  1  0.848645  0.737355  0.518465  1
  O  O31  1  0.156124  0.270079  0.488170  1
  O  O32  1  0.792025  0.034166  0.240275  1
  O  O33  1  0.240133  0.967929  0.753607  1
  O  O34  1  0.483054  0.778516  0.345054  1
  O  O35  1  0.521912  0.226604  0.659208  1
  O  O36  1  0.424376  0.448758  0.355275  1
  O  O37  1  0.578736  0.551493  0.644935  1
