# generated using pymatgen
data_Dy3Y2Nb2P12Ir17
_symmetry_space_group_name_H-M   'P 1'
_cell_length_a   12.59076400
_cell_length_b   12.79391283
_cell_length_c   4.00464400
_cell_angle_alpha   90.00000000
_cell_angle_beta   90.00000000
_cell_angle_gamma   119.47611716
_symmetry_Int_Tables_number   1
_chemical_formula_structural   Dy3Y2Nb2P12Ir17
_chemical_formula_sum   'Dy3 Y2 Nb2 P12 Ir17'
_cell_volume   561.58892280
_cell_formula_units_Z   1
loop_
 _symmetry_equiv_pos_site_id
 _symmetry_equiv_pos_as_xyz
  1  'x, y, z'
loop_
 _atom_site_type_symbol
 _atom_site_label
 _atom_site_symmetry_multiplicity
 _atom_site_fract_x
 _atom_site_fract_y
 _atom_site_fract_z
 _atom_site_occupancy
  Dy  Dy0  1  0.330333  0.661497  0.500000  1
  Dy  Dy1  1  0.668836  0.338503  0.500000  1
  Dy  Dy2  1  0.814973  0.000000  0.000000  1
  Y  Y3  1  0.999205  0.813329  0.000000  1
  Y  Y4  1  0.185877  0.186671  0.000000  1
  Nb  Nb5  1  0.997521  0.450867  0.500000  1
  Nb  Nb6  1  0.546654  0.549133  0.500000  1
  P  P7  1  0.002876  0.641881  0.500000  1
  P  P8  1  0.360995  0.358119  0.500000  1
  P  P9  1  0.645711  0.000000  0.500000  1
  P  P10  1  0.514468  0.683162  0.000000  1
  P  P11  1  0.308871  0.824037  0.000000  1
  P  P12  1  0.163437  0.480801  0.000000  1
  P  P13  1  0.484835  0.175963  0.000000  1
  P  P14  1  0.682635  0.519199  0.000000  1
  P  P15  1  0.831306  0.316838  0.000000  1
  P  P16  1  0.999974  0.175727  0.500000  1
  P  P17  1  0.824246  0.824273  0.500000  1
  P  P18  1  0.180853  0.000000  0.500000  1
  Ir  Ir19  1  0.505657  0.863986  0.000000  1
  Ir  Ir20  1  0.127878  0.641074  0.000000  1
  Ir  Ir21  1  0.354666  0.493438  0.000000  1
  Ir  Ir22  1  0.486805  0.358926  0.000000  1
  Ir  Ir23  1  0.861230  0.506562  0.000000  1
  Ir  Ir24  1  0.641672  0.136014  0.000000  1
  Ir  Ir25  1  0.464453  0.000000  0.500000  1
  Ir  Ir26  1  0.997308  0.282226  0.000000  1
  Ir  Ir27  1  0.715081  0.717774  0.000000  1
  Ir  Ir28  1  0.291671  0.000000  0.000000  1
  Ir  Ir29  1  0.624445  0.807169  0.500000  1
  Ir  Ir30  1  0.201683  0.823852  0.500000  1
  Ir  Ir31  1  0.177420  0.368564  0.500000  1
  Ir  Ir32  1  0.377831  0.176148  0.500000  1
  Ir  Ir33  1  0.808854  0.631436  0.500000  1
  Ir  Ir34  1  0.817276  0.192831  0.500000  1
  Ir  Ir35  1  0.002461  0.000000  0.500000  1
