# generated using pymatgen
data_Pr6BPCl6
_symmetry_space_group_name_H-M   'P 1'
_cell_length_a   10.02223559
_cell_length_b   10.02223626
_cell_length_c   9.91515000
_cell_angle_alpha   109.51250469
_cell_angle_beta   109.51249999
_cell_angle_gamma   109.82282181
_symmetry_Int_Tables_number   1
_chemical_formula_structural   Pr6BPCl6
_chemical_formula_sum   'Pr12 B2 P2 Cl12'
_cell_volume   762.52559392
_cell_formula_units_Z   2
loop_
 _symmetry_equiv_pos_site_id
 _symmetry_equiv_pos_as_xyz
  1  'x, y, z'
loop_
 _atom_site_type_symbol
 _atom_site_label
 _atom_site_symmetry_multiplicity
 _atom_site_fract_x
 _atom_site_fract_y
 _atom_site_fract_z
 _atom_site_occupancy
  Pr  Pr0  1  0.477391  0.495256  0.232373  1
  Pr  Pr1  1  0.762883  0.245017  0.267627  1
  Pr  Pr2  1  0.762094  0.017873  0.496971  1
  Pr  Pr3  1  0.234877  0.479101  0.496971  1
  Pr  Pr4  1  0.254983  0.737117  0.232373  1
  Pr  Pr5  1  0.020899  0.265123  0.003029  1
  Pr  Pr6  1  0.004744  0.022609  0.267627  1
  Pr  Pr7  1  0.482127  0.737906  0.003029  1
  Pr  Pr8  1  0.492853  0.242853  0.485705  1
  Pr  Pr9  1  0.014425  0.485575  0.750000  1
  Pr  Pr10  1  0.257147  0.007147  0.014295  1
  Pr  Pr11  1  0.235575  0.264425  0.750000  1
  B  B12  1  0.999182  0.249182  0.498364  1
  B  B13  1  0.250818  0.500818  0.001636  1
  P  P14  1  0.249562  0.250438  0.250000  1
  P  P15  1  0.500438  0.999562  0.250000  1
  Cl  Cl16  1  0.248409  0.754634  0.743597  1
  Cl  Cl17  1  0.511036  0.504810  0.756403  1
  Cl  Cl18  1  0.993088  0.745647  0.995615  1
  Cl  Cl19  1  0.745366  0.251591  0.756403  1
  Cl  Cl20  1  0.995190  0.988964  0.743597  1
  Cl  Cl21  1  0.250032  0.997474  0.504385  1
  Cl  Cl22  1  0.754353  0.506912  0.504385  1
  Cl  Cl23  1  0.502526  0.249968  0.995615  1
  Cl  Cl24  1  0.754621  0.745379  0.250000  1
  Cl  Cl25  1  0.746292  0.996292  0.992583  1
  Cl  Cl26  1  0.995379  0.504621  0.250000  1
  Cl  Cl27  1  0.503708  0.753708  0.507417  1
