# generated using pymatgen
data_B13Se
_symmetry_space_group_name_H-M   'P 1'
_cell_length_a   5.22293070
_cell_length_b   5.22293067
_cell_length_c   5.22292989
_cell_angle_alpha   68.99733862
_cell_angle_beta   68.99731930
_cell_angle_gamma   68.99733084
_symmetry_Int_Tables_number   1
_chemical_formula_structural   B13Se
_chemical_formula_sum   'B13 Se1'
_cell_volume   119.77386638
_cell_formula_units_Z   1
loop_
 _symmetry_equiv_pos_site_id
 _symmetry_equiv_pos_as_xyz
  1  'x, y, z'
loop_
 _atom_site_type_symbol
 _atom_site_label
 _atom_site_symmetry_multiplicity
 _atom_site_fract_x
 _atom_site_fract_y
 _atom_site_fract_z
 _atom_site_occupancy
  B  B0  1  0.196744  0.697801  0.196744  1
  B  B1  1  0.196744  0.196744  0.697801  1
  B  B2  1  0.697801  0.196744  0.196744  1
  B  B3  1  0.821674  0.280758  0.821674  1
  B  B4  1  0.821674  0.821674  0.280758  1
  B  B5  1  0.280758  0.821674  0.821674  1
  B  B6  1  0.013680  0.326498  0.013680  1
  B  B7  1  0.013680  0.013680  0.326498  1
  B  B8  1  0.326498  0.013680  0.013680  1
  B  B9  1  0.989046  0.677300  0.989046  1
  B  B10  1  0.989046  0.989046  0.677300  1
  B  B11  1  0.677300  0.989046  0.989046  1
  B  B12  1  0.394910  0.394910  0.394910  1
  Se  Se13  1  0.580445  0.580445  0.580445  1
