# generated using pymatgen
data_HoLu2ThCoAg
_symmetry_space_group_name_H-M   'P 1'
_cell_length_a   9.36344135
_cell_length_b   9.36762986
_cell_length_c   9.36763125
_cell_angle_alpha   59.97716972
_cell_angle_beta   60.00885725
_cell_angle_gamma   60.00886450
_symmetry_Int_Tables_number   1
_chemical_formula_structural   HoLu2ThCoAg
_chemical_formula_sum   'Ho4 Lu8 Th4 Co4 Ag4'
_cell_volume   580.98263111
_cell_formula_units_Z   4
loop_
 _symmetry_equiv_pos_site_id
 _symmetry_equiv_pos_as_xyz
  1  'x, y, z'
loop_
 _atom_site_type_symbol
 _atom_site_label
 _atom_site_symmetry_multiplicity
 _atom_site_fract_x
 _atom_site_fract_y
 _atom_site_fract_z
 _atom_site_occupancy
  Ho  Ho0  1  0.565532  0.934418  0.565556  1
  Ho  Ho1  1  0.934421  0.565571  0.934435  1
  Ho  Ho2  1  0.565532  0.565556  0.934418  1
  Ho  Ho3  1  0.934421  0.934435  0.565571  1
  Lu  Lu4  1  0.813967  0.186027  0.186027  1
  Lu  Lu5  1  0.185980  0.813983  0.813983  1
  Lu  Lu6  1  0.186221  0.813754  0.186284  1
  Lu  Lu7  1  0.813732  0.186284  0.813709  1
  Lu  Lu8  1  0.186221  0.186284  0.813754  1
  Lu  Lu9  1  0.813732  0.813709  0.186284  1
  Lu  Lu10  1  0.935805  0.564177  0.564177  1
  Lu  Lu11  1  0.564201  0.935753  0.935753  1
  Th  Th12  1  0.347852  0.348063  0.348063  1
  Th  Th13  1  0.348393  0.347911  0.955770  1
  Th  Th14  1  0.348393  0.955770  0.347911  1
  Th  Th15  1  0.955759  0.348330  0.348330  1
  Co  Co16  1  0.144373  0.142965  0.142965  1
  Co  Co17  1  0.142985  0.144377  0.569629  1
  Co  Co18  1  0.142985  0.569629  0.144377  1
  Co  Co19  1  0.569659  0.142969  0.142969  1
  Ag  Ag20  1  0.582886  0.581665  0.581665  1
  Ag  Ag21  1  0.581602  0.582966  0.253748  1
  Ag  Ag22  1  0.581602  0.253748  0.582966  1
  Ag  Ag23  1  0.253747  0.581654  0.581654  1
