# generated using pymatgen
data_YbFe2(Sb6Pt)2
_symmetry_space_group_name_H-M   'P 1'
_cell_length_a   8.10443482
_cell_length_b   8.14005699
_cell_length_c   8.10443443
_cell_angle_alpha   109.40293874
_cell_angle_beta   109.43394264
_cell_angle_gamma   109.39934561
_symmetry_Int_Tables_number   1
_chemical_formula_structural   YbFe2(Sb6Pt)2
_chemical_formula_sum   'Yb1 Fe2 Sb12 Pt2'
_cell_volume   412.47567835
_cell_formula_units_Z   1
loop_
 _symmetry_equiv_pos_site_id
 _symmetry_equiv_pos_as_xyz
  1  'x, y, z'
loop_
 _atom_site_type_symbol
 _atom_site_label
 _atom_site_symmetry_multiplicity
 _atom_site_fract_x
 _atom_site_fract_y
 _atom_site_fract_z
 _atom_site_occupancy
  Yb  Yb0  1  0.000000  0.000000  0.000000  1
  Fe  Fe1  1  0.500000  0.500000  0.500000  1
  Fe  Fe2  1  0.000000  0.500000  0.000000  1
  Sb  Sb3  1  0.832490  0.652988  0.506248  1
  Sb  Sb4  1  0.167510  0.347012  0.493752  1
  Sb  Sb5  1  0.146740  0.652988  0.820497  1
  Sb  Sb6  1  0.853260  0.347012  0.179503  1
  Sb  Sb7  1  0.672709  0.509879  0.837170  1
  Sb  Sb8  1  0.327291  0.490121  0.162830  1
  Sb  Sb9  1  0.655081  0.804860  0.149780  1
  Sb  Sb10  1  0.344919  0.195140  0.850220  1
  Sb  Sb11  1  0.507874  0.833038  0.653797  1
  Sb  Sb12  1  0.492126  0.166962  0.346203  1
  Sb  Sb13  1  0.179241  0.833038  0.325164  1
  Sb  Sb14  1  0.820759  0.166962  0.674836  1
  Pt  Pt15  1  0.500000  0.000000  0.000000  1
  Pt  Pt16  1  0.000000  0.000000  0.500000  1
