# generated using pymatgen
data_Zr3Si2Tc3As
_symmetry_space_group_name_H-M   'P 1'
_cell_length_a   7.00097100
_cell_length_b   7.00097011
_cell_length_c   3.47961600
_cell_angle_alpha   90.00000000
_cell_angle_beta   90.00000000
_cell_angle_gamma   119.99999947
_symmetry_Int_Tables_number   1
_chemical_formula_structural   Zr3Si2Tc3As
_chemical_formula_sum   'Zr3 Si2 Tc3 As1'
_cell_volume   147.69930625
_cell_formula_units_Z   1
loop_
 _symmetry_equiv_pos_site_id
 _symmetry_equiv_pos_as_xyz
  1  'x, y, z'
loop_
 _atom_site_type_symbol
 _atom_site_label
 _atom_site_symmetry_multiplicity
 _atom_site_fract_x
 _atom_site_fract_y
 _atom_site_fract_z
 _atom_site_occupancy
  Zr  Zr0  1  0.405414  0.005990  0.500000  1
  Zr  Zr1  1  0.994010  0.399424  0.500000  1
  Zr  Zr2  1  0.600576  0.594586  0.500000  1
  Si  Si3  1  0.666667  0.333333  0.000000  1
  Si  Si4  1  0.000000  0.000000  0.500000  1
  Tc  Tc5  1  0.752040  0.004164  0.000000  1
  Tc  Tc6  1  0.995836  0.747876  0.000000  1
  Tc  Tc7  1  0.252124  0.247960  0.000000  1
  As  As8  1  0.333333  0.666667  0.000000  1
