# generated using pymatgen
data_Ta3Zn3Ir5Ru
_symmetry_space_group_name_H-M   'P 1'
_cell_length_a   4.19413201
_cell_length_b   6.89715500
_cell_length_c   12.60244803
_cell_angle_alpha   90.00000000
_cell_angle_beta   89.99227419
_cell_angle_gamma   90.00000000
_symmetry_Int_Tables_number   1
_chemical_formula_structural   Ta3Zn3Ir5Ru
_chemical_formula_sum   'Ta6 Zn6 Ir10 Ru2'
_cell_volume   364.55830209
_cell_formula_units_Z   2
loop_
 _symmetry_equiv_pos_site_id
 _symmetry_equiv_pos_as_xyz
  1  'x, y, z'
loop_
 _atom_site_type_symbol
 _atom_site_label
 _atom_site_symmetry_multiplicity
 _atom_site_fract_x
 _atom_site_fract_y
 _atom_site_fract_z
 _atom_site_occupancy
  Ta  Ta0  1  0.000022  0.500000  0.995951  1
  Ta  Ta1  1  0.499838  0.000000  0.165419  1
  Ta  Ta2  1  0.999820  0.500000  0.333331  1
  Ta  Ta3  1  0.500009  0.000000  0.501242  1
  Ta  Ta4  1  0.000165  0.500000  0.670724  1
  Ta  Ta5  1  0.500149  0.000000  0.833333  1
  Zn  Zn6  1  0.000017  0.000000  0.997620  1
  Zn  Zn7  1  0.499810  0.500000  0.166176  1
  Zn  Zn8  1  0.999812  0.000000  0.333335  1
  Zn  Zn9  1  0.500004  0.500000  0.500486  1
  Zn  Zn10  1  0.000186  0.000000  0.669055  1
  Zn  Zn11  1  0.500165  0.500000  0.833330  1
  Ir  Ir12  1  0.500009  0.249834  0.001372  1
  Ir  Ir13  1  0.500009  0.750165  0.001372  1
  Ir  Ir14  1  0.999872  0.249591  0.167542  1
  Ir  Ir15  1  0.999872  0.750408  0.167542  1
  Ir  Ir16  1  0.499862  0.250555  0.333331  1
  Ir  Ir17  1  0.499862  0.749446  0.333331  1
  Ir  Ir18  1  0.000008  0.249601  0.499124  1
  Ir  Ir19  1  0.000008  0.750400  0.499124  1
  Ir  Ir20  1  0.500140  0.249842  0.665311  1
  Ir  Ir21  1  0.500140  0.750159  0.665311  1
  Ru  Ru22  1  0.000107  0.250857  0.833321  1
  Ru  Ru23  1  0.000107  0.749142  0.833321  1
