# generated using pymatgen
data_PaS27
_symmetry_space_group_name_H-M   'P 1'
_cell_length_a   15.48652524
_cell_length_b   15.48652517
_cell_length_c   15.48652489
_cell_angle_alpha   119.26125702
_cell_angle_beta   119.26125386
_cell_angle_gamma   119.26126131
_symmetry_Int_Tables_number   1
_chemical_formula_structural   PaS27
_chemical_formula_sum   'Pa1 S27'
_cell_volume   827.87058913
_cell_formula_units_Z   1
loop_
 _symmetry_equiv_pos_site_id
 _symmetry_equiv_pos_as_xyz
  1  'x, y, z'
loop_
 _atom_site_type_symbol
 _atom_site_label
 _atom_site_symmetry_multiplicity
 _atom_site_fract_x
 _atom_site_fract_y
 _atom_site_fract_z
 _atom_site_occupancy
  Pa  Pa0  1  0.534318  0.534318  0.534318  1
  S  S1  1  0.787731  0.543894  0.543894  1
  S  S2  1  0.543894  0.543894  0.787731  1
  S  S3  1  0.543894  0.787731  0.543894  1
  S  S4  1  0.229294  0.356758  0.583562  1
  S  S5  1  0.393912  0.956911  0.393912  1
  S  S6  1  0.393912  0.393912  0.956911  1
  S  S7  1  0.956911  0.393912  0.393912  1
  S  S8  1  0.129352  0.703092  0.255339  1
  S  S9  1  0.255339  0.129352  0.703092  1
  S  S10  1  0.703092  0.255339  0.129352  1
  S  S11  1  0.703092  0.129352  0.255339  1
  S  S12  1  0.255339  0.703092  0.129352  1
  S  S13  1  0.129352  0.255339  0.703092  1
  S  S14  1  0.404367  0.893579  0.577507  1
  S  S15  1  0.577507  0.404367  0.893579  1
  S  S16  1  0.893579  0.577507  0.404367  1
  S  S17  1  0.893579  0.404367  0.577507  1
  S  S18  1  0.577507  0.893579  0.404367  1
  S  S19  1  0.404367  0.577507  0.893579  1
  S  S20  1  0.229294  0.583562  0.356758  1
  S  S21  1  0.356758  0.229294  0.583562  1
  S  S22  1  0.583562  0.356758  0.229294  1
  S  S23  1  0.583562  0.229294  0.356758  1
  S  S24  1  0.356758  0.583562  0.229294  1
  S  S25  1  0.956501  0.074262  0.074262  1
  S  S26  1  0.074262  0.074262  0.956501  1
  S  S27  1  0.074262  0.956501  0.074262  1
