# generated using pymatgen
data_Y3AlIn2Ga2Cu
_symmetry_space_group_name_H-M   'P 1'
_cell_length_a   7.07151100
_cell_length_b   7.24306933
_cell_length_c   4.33726700
_cell_angle_alpha   90.00000000
_cell_angle_beta   90.00000000
_cell_angle_gamma   119.21951840
_symmetry_Int_Tables_number   1
_chemical_formula_structural   Y3AlIn2Ga2Cu
_chemical_formula_sum   'Y3 Al1 In2 Ga2 Cu1'
_cell_volume   193.88480806
_cell_formula_units_Z   1
loop_
 _symmetry_equiv_pos_site_id
 _symmetry_equiv_pos_as_xyz
  1  'x, y, z'
loop_
 _atom_site_type_symbol
 _atom_site_label
 _atom_site_symmetry_multiplicity
 _atom_site_fract_x
 _atom_site_fract_y
 _atom_site_fract_z
 _atom_site_occupancy
  Y  Y0  1  0.001124  0.408171  0.500000  1
  Y  Y1  1  0.592953  0.591829  0.500000  1
  Y  Y2  1  0.417669  0.000000  0.500000  1
  Al  Al3  1  0.760311  0.000000  0.000000  1
  In  In4  1  0.992859  0.751277  0.000000  1
  In  In5  1  0.241582  0.248723  0.000000  1
  Ga  Ga6  1  0.348121  0.680906  0.000000  1
  Ga  Ga7  1  0.667215  0.319094  0.000000  1
  Cu  Cu8  1  0.978167  0.000000  0.500000  1
