# generated using pymatgen
data_Li4Ca3ThPd4
_symmetry_space_group_name_H-M   'P 1'
_cell_length_a   4.09885000
_cell_length_b   7.31314811
_cell_length_c   8.66096500
_cell_angle_alpha   90.47669548
_cell_angle_beta   90.00000000
_cell_angle_gamma   90.00000000
_symmetry_Int_Tables_number   1
_chemical_formula_structural   Li4Ca3ThPd4
_chemical_formula_sum   'Li4 Ca3 Th1 Pd4'
_cell_volume   259.60774610
_cell_formula_units_Z   1
loop_
 _symmetry_equiv_pos_site_id
 _symmetry_equiv_pos_as_xyz
  1  'x, y, z'
loop_
 _atom_site_type_symbol
 _atom_site_label
 _atom_site_symmetry_multiplicity
 _atom_site_fract_x
 _atom_site_fract_y
 _atom_site_fract_z
 _atom_site_occupancy
  Li  Li0  1  0.250000  0.123448  0.059860  1
  Li  Li1  1  0.250000  0.634695  0.439219  1
  Li  Li2  1  0.750000  0.861345  0.947395  1
  Li  Li3  1  0.750000  0.384673  0.558402  1
  Ca  Ca4  1  0.250000  0.540491  0.819420  1
  Ca  Ca5  1  0.750000  0.957485  0.313811  1
  Ca  Ca6  1  0.750000  0.455931  0.180065  1
  Th  Th7  1  0.250000  0.045886  0.675950  1
  Pd  Pd8  1  0.250000  0.251279  0.394907  1
  Pd  Pd9  1  0.250000  0.750491  0.121578  1
  Pd  Pd10  1  0.750000  0.767855  0.627076  1
  Pd  Pd11  1  0.750000  0.226423  0.862314  1
