# generated using pymatgen
data_Sc3Ta(Ni4P3)2
_symmetry_space_group_name_H-M   'P 1'
_cell_length_a   3.65878300
_cell_length_b   10.56114700
_cell_length_c   12.20645900
_cell_angle_alpha   90.00000000
_cell_angle_beta   90.00000000
_cell_angle_gamma   90.00000000
_symmetry_Int_Tables_number   1
_chemical_formula_structural   Sc3Ta(Ni4P3)2
_chemical_formula_sum   'Sc6 Ta2 Ni16 P12'
_cell_volume   471.66911213
_cell_formula_units_Z   2
loop_
 _symmetry_equiv_pos_site_id
 _symmetry_equiv_pos_as_xyz
  1  'x, y, z'
loop_
 _atom_site_type_symbol
 _atom_site_label
 _atom_site_symmetry_multiplicity
 _atom_site_fract_x
 _atom_site_fract_y
 _atom_site_fract_z
 _atom_site_occupancy
  Sc  Sc0  1  0.751674  0.000000  0.471637  1
  Sc  Sc1  1  0.251674  0.500000  0.528363  1
  Sc  Sc2  1  0.251949  0.678301  0.791724  1
  Sc  Sc3  1  0.251949  0.321699  0.791724  1
  Sc  Sc4  1  0.751949  0.821699  0.208276  1
  Sc  Sc5  1  0.751949  0.178301  0.208276  1
  Ta  Ta6  1  0.252051  0.000000  0.842224  1
  Ta  Ta7  1  0.752051  0.500000  0.157776  1
  Ni  Ni8  1  0.752008  0.000000  0.016391  1
  Ni  Ni9  1  0.252008  0.500000  0.983609  1
  Ni  Ni10  1  0.251649  0.198805  0.568173  1
  Ni  Ni11  1  0.251649  0.801195  0.568173  1
  Ni  Ni12  1  0.751649  0.301195  0.431827  1
  Ni  Ni13  1  0.751649  0.698805  0.431827  1
  Ni  Ni14  1  0.251595  0.625224  0.294672  1
  Ni  Ni15  1  0.251595  0.374776  0.294672  1
  Ni  Ni16  1  0.751595  0.874776  0.705328  1
  Ni  Ni17  1  0.751595  0.125224  0.705328  1
  Ni  Ni18  1  0.252046  0.164922  0.014211  1
  Ni  Ni19  1  0.252046  0.835078  0.014211  1
  Ni  Ni20  1  0.752046  0.335078  0.985789  1
  Ni  Ni21  1  0.752046  0.664922  0.985789  1
  Ni  Ni22  1  0.251594  0.000000  0.300297  1
  Ni  Ni23  1  0.751594  0.500000  0.699703  1
  P  P24  1  0.251624  0.182313  0.383978  1
  P  P25  1  0.251624  0.817687  0.383978  1
  P  P26  1  0.751624  0.317687  0.616022  1
  P  P27  1  0.751624  0.682313  0.616022  1
  P  P28  1  0.252208  0.000000  0.125897  1
  P  P29  1  0.752208  0.500000  0.874103  1
  P  P30  1  0.251951  0.661521  0.111223  1
  P  P31  1  0.251951  0.338479  0.111223  1
  P  P32  1  0.751951  0.838479  0.888777  1
  P  P33  1  0.751951  0.161521  0.888777  1
  P  P34  1  0.251637  0.000000  0.639407  1
  P  P35  1  0.751637  0.500000  0.360593  1
