# generated using pymatgen
data_Ta2NiSe3S2
_symmetry_space_group_name_H-M   'P 1'
_cell_length_a   7.15201052
_cell_length_b   7.15201126
_cell_length_c   15.51212200
_cell_angle_alpha   90.00000000
_cell_angle_beta   90.00000000
_cell_angle_gamma   152.20725431
_symmetry_Int_Tables_number   1
_chemical_formula_structural   Ta2NiSe3S2
_chemical_formula_sum   'Ta4 Ni2 Se6 S4'
_cell_volume   369.97241090
_cell_formula_units_Z   2
loop_
 _symmetry_equiv_pos_site_id
 _symmetry_equiv_pos_as_xyz
  1  'x, y, z'
loop_
 _atom_site_type_symbol
 _atom_site_label
 _atom_site_symmetry_multiplicity
 _atom_site_fract_x
 _atom_site_fract_y
 _atom_site_fract_z
 _atom_site_occupancy
  Ta  Ta0  1  0.219651  0.780349  0.111051  1
  Ta  Ta1  1  0.219651  0.780349  0.388949  1
  Ta  Ta2  1  0.775649  0.224351  0.891263  1
  Ta  Ta3  1  0.775649  0.224351  0.608737  1
  Ni  Ni4  1  0.698389  0.301611  0.250000  1
  Ni  Ni5  1  0.299365  0.700635  0.750000  1
  Se  Se6  1  0.411344  0.588656  0.862597  1
  Se  Se7  1  0.411344  0.588656  0.637403  1
  Se  Se8  1  0.147550  0.852450  0.950124  1
  Se  Se9  1  0.147550  0.852450  0.549876  1
  Se  Se10  1  0.848711  0.151289  0.050661  1
  Se  Se11  1  0.848711  0.151289  0.449339  1
  S  S12  1  0.598779  0.401221  0.137621  1
  S  S13  1  0.598779  0.401221  0.362379  1
  S  S14  1  0.304238  0.695762  0.250000  1
  S  S15  1  0.694643  0.305357  0.750000  1
