# generated using pymatgen
data_Rb8Na4TbDy3Sb8
_symmetry_space_group_name_H-M   'P 1'
_cell_length_a   11.36485505
_cell_length_b   11.36485475
_cell_length_c   7.50102418
_cell_angle_alpha   90.01882826
_cell_angle_beta   89.98116891
_cell_angle_gamma   98.31515405
_symmetry_Int_Tables_number   1
_chemical_formula_structural   Rb8Na4TbDy3Sb8
_chemical_formula_sum   'Rb8 Na4 Tb1 Dy3 Sb8'
_cell_volume   958.64687165
_cell_formula_units_Z   1
loop_
 _symmetry_equiv_pos_site_id
 _symmetry_equiv_pos_as_xyz
  1  'x, y, z'
loop_
 _atom_site_type_symbol
 _atom_site_label
 _atom_site_symmetry_multiplicity
 _atom_site_fract_x
 _atom_site_fract_y
 _atom_site_fract_z
 _atom_site_occupancy
  Rb  Rb0  1  0.070649  0.429408  0.250059  1
  Rb  Rb1  1  0.429408  0.070649  0.749941  1
  Rb  Rb2  1  0.929366  0.570646  0.749980  1
  Rb  Rb3  1  0.570646  0.929366  0.250020  1
  Rb  Rb4  1  0.676459  0.323514  0.215510  1
  Rb  Rb5  1  0.823470  0.176472  0.715442  1
  Rb  Rb6  1  0.323514  0.676459  0.784490  1
  Rb  Rb7  1  0.176472  0.823470  0.284558  1
  Na  Na8  1  0.382264  0.382264  0.000000  1
  Na  Na9  1  0.117797  0.117797  0.500000  1
  Na  Na10  1  0.617794  0.617794  0.000000  1
  Na  Na11  1  0.882193  0.882193  0.500000  1
  Tb  Tb12  1  0.131325  0.131325  0.000000  1
  Dy  Dy13  1  0.368924  0.368924  0.500000  1
  Dy  Dy14  1  0.868737  0.868737  0.000000  1
  Dy  Dy15  1  0.631026  0.631026  0.500000  1
  Sb  Sb16  1  0.846885  0.653142  0.249974  1
  Sb  Sb17  1  0.653142  0.846885  0.750026  1
  Sb  Sb18  1  0.153205  0.347529  0.749166  1
  Sb  Sb19  1  0.347529  0.153205  0.250834  1
  Sb  Sb20  1  0.898995  0.100166  0.212417  1
  Sb  Sb21  1  0.600318  0.399715  0.711827  1
  Sb  Sb22  1  0.100166  0.898995  0.787583  1
  Sb  Sb23  1  0.399715  0.600318  0.288173  1
