# generated using pymatgen
data_Tb7Dy(TmIr2)2
_symmetry_space_group_name_H-M   'P 1'
_cell_length_a   6.49681133
_cell_length_b   7.20975515
_cell_length_c   8.54717428
_cell_angle_alpha   96.50567560
_cell_angle_beta   112.36205823
_cell_angle_gamma   90.01803309
_symmetry_Int_Tables_number   1
_chemical_formula_structural   Tb7Dy(TmIr2)2
_chemical_formula_sum   'Tb7 Dy1 Tm2 Ir4'
_cell_volume   367.45080604
_cell_formula_units_Z   1
loop_
 _symmetry_equiv_pos_site_id
 _symmetry_equiv_pos_as_xyz
  1  'x, y, z'
loop_
 _atom_site_type_symbol
 _atom_site_label
 _atom_site_symmetry_multiplicity
 _atom_site_fract_x
 _atom_site_fract_y
 _atom_site_fract_z
 _atom_site_occupancy
  Tb  Tb0  1  0.970888  0.918817  0.181625  1
  Tb  Tb1  1  0.789310  0.581155  0.818286  1
  Tb  Tb2  1  0.028994  0.081312  0.818352  1
  Tb  Tb3  1  0.210810  0.418671  0.181719  1
  Tb  Tb4  1  0.652956  0.816598  0.439812  1
  Tb  Tb5  1  0.213003  0.683276  0.560135  1
  Tb  Tb6  1  0.347065  0.183491  0.560145  1
  Dy  Dy7  1  0.786824  0.316667  0.439600  1
  Tm  Tm8  1  0.429605  0.750056  0.000014  1
  Tm  Tm9  1  0.570509  0.249994  0.000164  1
  Ir  Ir10  1  0.821167  0.572150  0.217039  1
  Ir  Ir11  1  0.604295  0.927678  0.783178  1
  Ir  Ir12  1  0.178554  0.427612  0.782891  1
  Ir  Ir13  1  0.396023  0.072523  0.217042  1
