# generated using pymatgen
data_NdSm(TaSe2)6
_symmetry_space_group_name_H-M   'P 1'
_cell_length_a   6.09304100
_cell_length_b   6.09304186
_cell_length_c   14.66453700
_cell_angle_alpha   90.00000000
_cell_angle_beta   90.00000000
_cell_angle_gamma   120.00000074
_symmetry_Int_Tables_number   1
_chemical_formula_structural   NdSm(TaSe2)6
_chemical_formula_sum   'Nd1 Sm1 Ta6 Se12'
_cell_volume   471.48431182
_cell_formula_units_Z   1
loop_
 _symmetry_equiv_pos_site_id
 _symmetry_equiv_pos_as_xyz
  1  'x, y, z'
loop_
 _atom_site_type_symbol
 _atom_site_label
 _atom_site_symmetry_multiplicity
 _atom_site_fract_x
 _atom_site_fract_y
 _atom_site_fract_z
 _atom_site_occupancy
  Nd  Nd0  1  0.666667  0.333333  0.750000  1
  Sm  Sm1  1  0.333333  0.666667  0.250000  1
  Ta  Ta2  1  0.333333  0.666667  0.004832  1
  Ta  Ta3  1  0.000000  0.000000  0.002877  1
  Ta  Ta4  1  0.666667  0.333333  0.000371  1
  Ta  Ta5  1  0.333333  0.666667  0.495168  1
  Ta  Ta6  1  0.000000  0.000000  0.497123  1
  Ta  Ta7  1  0.666667  0.333333  0.499629  1
  Se  Se8  1  0.675170  0.664862  0.383945  1
  Se  Se9  1  0.665701  0.675266  0.610574  1
  Se  Se10  1  0.009565  0.675266  0.889426  1
  Se  Se11  1  0.665701  0.990435  0.889426  1
  Se  Se12  1  0.675170  0.010308  0.116055  1
  Se  Se13  1  0.335138  0.010308  0.383945  1
  Se  Se14  1  0.009565  0.334299  0.610574  1
  Se  Se15  1  0.324734  0.990435  0.610574  1
  Se  Se16  1  0.989692  0.664862  0.116055  1
  Se  Se17  1  0.324734  0.334299  0.889426  1
  Se  Se18  1  0.989692  0.324830  0.383945  1
  Se  Se19  1  0.335138  0.324830  0.116055  1
