# generated using pymatgen
data_CaHo11(Si3Ir)4
_symmetry_space_group_name_H-M   'P 1'
_cell_length_a   4.23161600
_cell_length_b   10.61573884
_cell_length_c   12.25733053
_cell_angle_alpha   90.10300561
_cell_angle_beta   90.00000000
_cell_angle_gamma   90.00000000
_symmetry_Int_Tables_number   1
_chemical_formula_structural   CaHo11(Si3Ir)4
_chemical_formula_sum   'Ca1 Ho11 Si12 Ir4'
_cell_volume   550.61960647
_cell_formula_units_Z   1
loop_
 _symmetry_equiv_pos_site_id
 _symmetry_equiv_pos_as_xyz
  1  'x, y, z'
loop_
 _atom_site_type_symbol
 _atom_site_label
 _atom_site_symmetry_multiplicity
 _atom_site_fract_x
 _atom_site_fract_y
 _atom_site_fract_z
 _atom_site_occupancy
  Ca  Ca0  1  0.750000  0.159905  0.698037  1
  Ho  Ho1  1  0.250000  0.880278  0.021389  1
  Ho  Ho2  1  0.250000  0.619418  0.520125  1
  Ho  Ho3  1  0.750000  0.119100  0.977413  1
  Ho  Ho4  1  0.750000  0.379046  0.480111  1
  Ho  Ho5  1  0.250000  0.918581  0.604099  1
  Ho  Ho6  1  0.250000  0.581085  0.103849  1
  Ho  Ho7  1  0.750000  0.081440  0.395266  1
  Ho  Ho8  1  0.750000  0.418881  0.896020  1
  Ho  Ho9  1  0.250000  0.659632  0.801200  1
  Ho  Ho10  1  0.250000  0.841148  0.301367  1
  Ho  Ho11  1  0.750000  0.339976  0.198820  1
  Si  Si12  1  0.250000  0.008546  0.821632  1
  Si  Si13  1  0.250000  0.489305  0.320321  1
  Si  Si14  1  0.750000  0.990460  0.178528  1
  Si  Si15  1  0.750000  0.510992  0.679426  1
  Si  Si16  1  0.250000  0.247364  0.841463  1
  Si  Si17  1  0.250000  0.253884  0.340692  1
  Si  Si18  1  0.750000  0.753767  0.159506  1
  Si  Si19  1  0.750000  0.747751  0.659276  1
  Si  Si20  1  0.250000  0.200407  0.540717  1
  Si  Si21  1  0.250000  0.299325  0.043693  1
  Si  Si22  1  0.750000  0.799168  0.457125  1
  Si  Si23  1  0.750000  0.700189  0.957224  1
  Ir  Ir24  1  0.250000  0.392752  0.680717  1
  Ir  Ir25  1  0.250000  0.110747  0.180519  1
  Ir  Ir26  1  0.750000  0.610638  0.319613  1
  Ir  Ir27  1  0.750000  0.886213  0.821853  1
