# generated using pymatgen
data_Ca4Tb3Er(BO4)4
_symmetry_space_group_name_H-M   'P 1'
_cell_length_a   3.62303900
_cell_length_b   9.70017854
_cell_length_c   10.52477184
_cell_angle_alpha   89.91648150
_cell_angle_beta   90.00000000
_cell_angle_gamma   90.00000000
_symmetry_Int_Tables_number   1
_chemical_formula_structural   Ca4Tb3Er(BO4)4
_chemical_formula_sum   'Ca4 Tb3 Er1 B4 O16'
_cell_volume   369.88350566
_cell_formula_units_Z   1
loop_
 _symmetry_equiv_pos_site_id
 _symmetry_equiv_pos_as_xyz
  1  'x, y, z'
loop_
 _atom_site_type_symbol
 _atom_site_label
 _atom_site_symmetry_multiplicity
 _atom_site_fract_x
 _atom_site_fract_y
 _atom_site_fract_z
 _atom_site_occupancy
  Ca  Ca0  1  0.250000  0.670911  0.083298  1
  Ca  Ca1  1  0.750000  0.329333  0.915610  1
  Ca  Ca2  1  0.750000  0.172430  0.417440  1
  Ca  Ca3  1  0.250000  0.827916  0.583733  1
  Tb  Tb4  1  0.250000  0.088422  0.112835  1
  Tb  Tb5  1  0.750000  0.912080  0.886908  1
  Tb  Tb6  1  0.750000  0.587425  0.388860  1
  Er  Er7  1  0.250000  0.412255  0.612554  1
  B  B8  1  0.250000  0.368336  0.199687  1
  B  B9  1  0.750000  0.631270  0.799392  1
  B  B10  1  0.750000  0.867438  0.300746  1
  B  B11  1  0.250000  0.133227  0.698249  1
  O  O12  1  0.250000  0.500387  0.250065  1
  O  O13  1  0.750000  0.499446  0.748566  1
  O  O14  1  0.750000  0.000107  0.251320  1
  O  O15  1  0.250000  0.001188  0.749236  1
  O  O16  1  0.250000  0.251220  0.277236  1
  O  O17  1  0.750000  0.749207  0.722608  1
  O  O18  1  0.750000  0.750515  0.223244  1
  O  O19  1  0.250000  0.251340  0.774453  1
  O  O20  1  0.250000  0.349213  0.067675  1
  O  O21  1  0.750000  0.649671  0.931517  1
  O  O22  1  0.750000  0.847176  0.432762  1
  O  O23  1  0.250000  0.151619  0.566349  1
  O  O24  1  0.250000  0.611746  0.508430  1
  O  O25  1  0.750000  0.385863  0.497815  1
  O  O26  1  0.750000  0.114242  0.993302  1
  O  O27  1  0.250000  0.886018  0.006110  1
