# generated using pymatgen
data_TiMn2(AlOs2)3
_symmetry_space_group_name_H-M   'P 1'
_cell_length_a   4.25762700
_cell_length_b   6.06259600
_cell_length_c   12.77871700
_cell_angle_alpha   90.00017025
_cell_angle_beta   89.99768139
_cell_angle_gamma   90.00034506
_symmetry_Int_Tables_number   1
_chemical_formula_structural   TiMn2(AlOs2)3
_chemical_formula_sum   'Ti2 Mn4 Al6 Os12'
_cell_volume   329.84772424
_cell_formula_units_Z   2
loop_
 _symmetry_equiv_pos_site_id
 _symmetry_equiv_pos_as_xyz
  1  'x, y, z'
loop_
 _atom_site_type_symbol
 _atom_site_label
 _atom_site_symmetry_multiplicity
 _atom_site_fract_x
 _atom_site_fract_y
 _atom_site_fract_z
 _atom_site_occupancy
  Ti  Ti0  1  0.999985  0.999992  0.998744  1
  Ti  Ti1  1  0.499939  0.499999  0.167895  1
  Mn  Mn2  1  0.000107  0.000133  0.334554  1
  Mn  Mn3  1  0.499991  0.499911  0.500340  1
  Mn  Mn4  1  0.000041  0.000032  0.666399  1
  Mn  Mn5  1  0.500051  0.499981  0.832141  1
  Al  Al6  1  0.999983  0.499995  0.001000  1
  Al  Al7  1  0.499943  0.999987  0.165650  1
  Al  Al8  1  0.999942  0.500007  0.333936  1
  Al  Al9  1  0.499990  0.999996  0.501576  1
  Al  Al10  1  0.000051  0.499999  0.665097  1
  Al  Al11  1  0.500042  0.999990  0.832735  1
  Os  Os12  1  0.499987  0.254882  0.996364  1
  Os  Os13  1  0.499988  0.745100  0.996364  1
  Os  Os14  1  0.999942  0.245121  0.170299  1
  Os  Os15  1  0.999941  0.754878  0.170304  1
  Os  Os16  1  0.499963  0.245244  0.337658  1
  Os  Os17  1  0.499963  0.754770  0.337658  1
  Os  Os18  1  0.999988  0.250933  0.500794  1
  Os  Os19  1  0.999987  0.749075  0.500790  1
  Os  Os20  1  0.500045  0.249132  0.665852  1
  Os  Os21  1  0.500045  0.750862  0.665852  1
  Os  Os22  1  0.000046  0.254722  0.828999  1
  Os  Os23  1  0.000045  0.745264  0.828999  1
