# generated using pymatgen
data_Ho3Lu9Os4
_symmetry_space_group_name_H-M   'P 1'
_cell_length_a   7.34024030
_cell_length_b   8.83158000
_cell_length_c   6.19918908
_cell_angle_alpha   90.00000000
_cell_angle_beta   89.89944612
_cell_angle_gamma   90.00000000
_symmetry_Int_Tables_number   1
_chemical_formula_structural   Ho3Lu9Os4
_chemical_formula_sum   'Ho3 Lu9 Os4'
_cell_volume   401.86751314
_cell_formula_units_Z   1
loop_
 _symmetry_equiv_pos_site_id
 _symmetry_equiv_pos_as_xyz
  1  'x, y, z'
loop_
 _atom_site_type_symbol
 _atom_site_label
 _atom_site_symmetry_multiplicity
 _atom_site_fract_x
 _atom_site_fract_y
 _atom_site_fract_z
 _atom_site_occupancy
  Ho  Ho0  1  0.539220  0.250000  0.872574  1
  Ho  Ho1  1  0.039431  0.250000  0.627663  1
  Ho  Ho2  1  0.460604  0.750000  0.127792  1
  Lu  Lu3  1  0.675448  0.061923  0.335283  1
  Lu  Lu4  1  0.173620  0.438312  0.165570  1
  Lu  Lu5  1  0.324794  0.562831  0.664335  1
  Lu  Lu6  1  0.825685  0.936932  0.833828  1
  Lu  Lu7  1  0.324794  0.937169  0.664335  1
  Lu  Lu8  1  0.825685  0.563068  0.833828  1
  Lu  Lu9  1  0.675448  0.438077  0.335283  1
  Lu  Lu10  1  0.173620  0.061688  0.165570  1
  Lu  Lu11  1  0.960400  0.750000  0.372125  1
  Os  Os12  1  0.883229  0.250000  0.042831  1
  Os  Os13  1  0.383022  0.250000  0.456950  1
  Os  Os14  1  0.116104  0.750000  0.960759  1
  Os  Os15  1  0.618894  0.750000  0.541276  1
