# generated using pymatgen
data_Pr17Y3Si15Cl
_symmetry_space_group_name_H-M   'P 1'
_cell_length_a   7.93655893
_cell_length_b   7.84905492
_cell_length_c   15.21475356
_cell_angle_alpha   89.54214710
_cell_angle_beta   89.09241421
_cell_angle_gamma   90.90190601
_symmetry_Int_Tables_number   1
_chemical_formula_structural   Pr17Y3Si15Cl
_chemical_formula_sum   'Pr17 Y3 Si15 Cl1'
_cell_volume   947.52676525
_cell_formula_units_Z   1
loop_
 _symmetry_equiv_pos_site_id
 _symmetry_equiv_pos_as_xyz
  1  'x, y, z'
loop_
 _atom_site_type_symbol
 _atom_site_label
 _atom_site_symmetry_multiplicity
 _atom_site_fract_x
 _atom_site_fract_y
 _atom_site_fract_z
 _atom_site_occupancy
  Pr  Pr0  1  0.687737  0.688041  0.498191  1
  Pr  Pr1  1  0.380418  0.003169  0.442830  1
  Pr  Pr2  1  0.498552  0.860392  0.702113  1
  Pr  Pr3  1  0.510543  0.123596  0.197055  1
  Pr  Pr4  1  0.872936  0.483241  0.299299  1
  Pr  Pr5  1  0.124551  0.519053  0.801682  1
  Pr  Pr6  1  0.636633  0.986107  0.952865  1
  Pr  Pr7  1  0.996236  0.381233  0.545492  1
  Pr  Pr8  1  0.994298  0.624863  0.052084  1
  Pr  Pr9  1  0.143374  0.990553  0.873029  1
  Pr  Pr10  1  0.520051  0.631378  0.124483  1
  Pr  Pr11  1  0.472979  0.361037  0.632528  1
  Pr  Pr12  1  0.638061  0.521851  0.876727  1
  Pr  Pr13  1  0.366246  0.475162  0.375456  1
  Pr  Pr14  1  0.871145  0.019705  0.377624  1
  Pr  Pr15  1  0.983616  0.126134  0.122611  1
  Pr  Pr16  1  0.019891  0.874329  0.621264  1
  Y  Y17  1  0.313888  0.311320  0.998486  1
  Y  Y18  1  0.186585  0.807949  0.249439  1
  Y  Y19  1  0.796633  0.189825  0.753720  1
  Si  Si20  1  0.333127  0.696281  0.949485  1
  Si  Si21  1  0.660859  0.303406  0.454294  1
  Si  Si22  1  0.700559  0.333734  0.049940  1
  Si  Si23  1  0.303303  0.665152  0.551152  1
  Si  Si24  1  0.808147  0.829546  0.203613  1
  Si  Si25  1  0.169191  0.189331  0.294715  1
  Si  Si26  1  0.843314  0.809875  0.796903  1
  Si  Si27  1  0.288797  0.924602  0.060547  1
  Si  Si28  1  0.572262  0.784444  0.307681  1
  Si  Si29  1  0.456046  0.206638  0.824685  1
  Si  Si30  1  0.790685  0.574683  0.688651  1
  Si  Si31  1  0.212303  0.425341  0.187670  1
  Si  Si32  1  0.706315  0.076003  0.564486  1
  Si  Si33  1  0.931767  0.290413  0.937717  1
  Si  Si34  1  0.078237  0.712366  0.437803  1
  Cl  Cl35  1  0.130714  0.199249  0.693685  1
