# generated using pymatgen
data_Tb3Tm2Ni19
_symmetry_space_group_name_H-M   'P 1'
_cell_length_a   4.91528047
_cell_length_b   4.91528084
_cell_length_c   16.36181763
_cell_angle_alpha   81.36113538
_cell_angle_beta   81.36113530
_cell_angle_gamma   59.99999405
_symmetry_Int_Tables_number   1
_chemical_formula_structural   Tb3Tm2Ni19
_chemical_formula_sum   'Tb3 Tm2 Ni19'
_cell_volume   337.15235814
_cell_formula_units_Z   1
loop_
 _symmetry_equiv_pos_site_id
 _symmetry_equiv_pos_as_xyz
  1  'x, y, z'
loop_
 _atom_site_type_symbol
 _atom_site_label
 _atom_site_symmetry_multiplicity
 _atom_site_fract_x
 _atom_site_fract_y
 _atom_site_fract_z
 _atom_site_occupancy
  Tb  Tb0  1  0.000000  0.000000  0.000000  1
  Tb  Tb1  1  0.921475  0.921475  0.235575  1
  Tb  Tb2  1  0.078525  0.078525  0.764425  1
  Tm  Tm3  1  0.847994  0.847994  0.456020  1
  Tm  Tm4  1  0.152006  0.152006  0.543980  1
  Ni  Ni5  1  0.500000  0.500000  0.500000  1
  Ni  Ni6  1  0.749611  0.749612  0.751165  1
  Ni  Ni7  1  0.250388  0.250388  0.248836  1
  Ni  Ni8  1  0.666735  0.666735  0.999796  1
  Ni  Ni9  1  0.333265  0.333265  0.000204  1
  Ni  Ni10  1  0.583875  0.583875  0.248375  1
  Ni  Ni11  1  0.416125  0.416125  0.751625  1
  Ni  Ni12  1  0.375258  0.375258  0.372442  1
  Ni  Ni13  1  0.877043  0.375258  0.372442  1
  Ni  Ni14  1  0.375258  0.877043  0.372442  1
  Ni  Ni15  1  0.624742  0.624742  0.627558  1
  Ni  Ni16  1  0.122957  0.624742  0.627558  1
  Ni  Ni17  1  0.624742  0.122957  0.627558  1
  Ni  Ni18  1  0.458981  0.458981  0.123036  1
  Ni  Ni19  1  0.959001  0.458981  0.123036  1
  Ni  Ni20  1  0.458981  0.959001  0.123036  1
  Ni  Ni21  1  0.541019  0.541019  0.876964  1
  Ni  Ni22  1  0.040999  0.541019  0.876964  1
  Ni  Ni23  1  0.541019  0.040999  0.876964  1
