# generated using pymatgen
data_YbRh2PbO7
_symmetry_space_group_name_H-M   'P 1'
_cell_length_a   7.28473926
_cell_length_b   7.22843694
_cell_length_c   7.22843815
_cell_angle_alpha   59.55258882
_cell_angle_beta   59.74202190
_cell_angle_gamma   59.74201649
_symmetry_Int_Tables_number   1
_chemical_formula_structural   YbRh2PbO7
_chemical_formula_sum   'Yb2 Rh4 Pb2 O14'
_cell_volume   267.18051784
_cell_formula_units_Z   2
loop_
 _symmetry_equiv_pos_site_id
 _symmetry_equiv_pos_as_xyz
  1  'x, y, z'
loop_
 _atom_site_type_symbol
 _atom_site_label
 _atom_site_symmetry_multiplicity
 _atom_site_fract_x
 _atom_site_fract_y
 _atom_site_fract_z
 _atom_site_occupancy
  Yb  Yb0  1  0.625000  0.125000  0.125000  1
  Yb  Yb1  1  0.125000  0.125000  0.125000  1
  Rh  Rh2  1  0.125000  0.625000  0.625000  1
  Rh  Rh3  1  0.625000  0.125000  0.625000  1
  Rh  Rh4  1  0.625000  0.625000  0.125000  1
  Rh  Rh5  1  0.625000  0.625000  0.625000  1
  Pb  Pb6  1  0.125000  0.625000  0.125000  1
  Pb  Pb7  1  0.125000  0.125000  0.625000  1
  O  O8  1  0.713735  0.696961  0.295270  1
  O  O9  1  0.294033  0.295270  0.696961  1
  O  O10  1  0.713735  0.295270  0.696961  1
  O  O11  1  0.294033  0.696961  0.295270  1
  O  O12  1  0.291642  0.708358  0.708358  1
  O  O13  1  0.707274  0.292726  0.292726  1
  O  O14  1  0.536265  0.553039  0.954730  1
  O  O15  1  0.955967  0.954730  0.553039  1
  O  O16  1  0.536265  0.954730  0.553039  1
  O  O17  1  0.955967  0.553039  0.954730  1
  O  O18  1  0.958358  0.541642  0.541642  1
  O  O19  1  0.542726  0.957274  0.957274  1
  O  O20  1  0.246875  0.253125  0.253125  1
  O  O21  1  0.003125  0.996875  0.996875  1
