# generated using pymatgen
data_TbLuGa2NiIr
_symmetry_space_group_name_H-M   'P 1'
_cell_length_a   4.24978200
_cell_length_b   6.73329100
_cell_length_c   7.67895300
_cell_angle_alpha   90.00000000
_cell_angle_beta   90.00000000
_cell_angle_gamma   90.00000000
_symmetry_Int_Tables_number   1
_chemical_formula_structural   TbLuGa2NiIr
_chemical_formula_sum   'Tb2 Lu2 Ga4 Ni2 Ir2'
_cell_volume   219.73338517
_cell_formula_units_Z   2
loop_
 _symmetry_equiv_pos_site_id
 _symmetry_equiv_pos_as_xyz
  1  'x, y, z'
loop_
 _atom_site_type_symbol
 _atom_site_label
 _atom_site_symmetry_multiplicity
 _atom_site_fract_x
 _atom_site_fract_y
 _atom_site_fract_z
 _atom_site_occupancy
  Tb  Tb0  1  0.250000  0.023868  0.815824  1
  Tb  Tb1  1  0.250000  0.523868  0.684176  1
  Lu  Lu2  1  0.750000  0.977186  0.188754  1
  Lu  Lu3  1  0.750000  0.477186  0.311246  1
  Ga  Ga4  1  0.250000  0.157322  0.440839  1
  Ga  Ga5  1  0.250000  0.657322  0.059161  1
  Ga  Ga6  1  0.750000  0.847278  0.571868  1
  Ga  Ga7  1  0.750000  0.347278  0.928132  1
  Ni  Ni8  1  0.750000  0.224889  0.614635  1
  Ni  Ni9  1  0.750000  0.724889  0.885365  1
  Ir  Ir10  1  0.250000  0.769457  0.381534  1
  Ir  Ir11  1  0.250000  0.269457  0.118466  1
