# generated using pymatgen
data_CaY(Si7Ir3)2
_symmetry_space_group_name_H-M   'P 1'
_cell_length_a   8.04009907
_cell_length_b   8.04009953
_cell_length_c   8.04009822
_cell_angle_alpha   56.74734532
_cell_angle_beta   56.74734439
_cell_angle_gamma   56.74734223
_symmetry_Int_Tables_number   1
_chemical_formula_structural   CaY(Si7Ir3)2
_chemical_formula_sum   'Ca1 Y1 Si14 Ir6'
_cell_volume   339.91311690
_cell_formula_units_Z   1
loop_
 _symmetry_equiv_pos_site_id
 _symmetry_equiv_pos_as_xyz
  1  'x, y, z'
loop_
 _atom_site_type_symbol
 _atom_site_label
 _atom_site_symmetry_multiplicity
 _atom_site_fract_x
 _atom_site_fract_y
 _atom_site_fract_z
 _atom_site_occupancy
  Ca  Ca0  1  0.500000  0.500000  0.500000  1
  Y  Y1  1  0.000000  0.000000  0.000000  1
  Si  Si2  1  0.066052  0.849593  0.672204  1
  Si  Si3  1  0.672204  0.066052  0.849593  1
  Si  Si4  1  0.849593  0.672204  0.066052  1
  Si  Si5  1  0.173359  0.351198  0.564996  1
  Si  Si6  1  0.564996  0.173359  0.351198  1
  Si  Si7  1  0.351198  0.564996  0.173359  1
  Si  Si8  1  0.933948  0.150407  0.327796  1
  Si  Si9  1  0.327796  0.933948  0.150407  1
  Si  Si10  1  0.150407  0.327796  0.933948  1
  Si  Si11  1  0.826641  0.648802  0.435004  1
  Si  Si12  1  0.435004  0.826641  0.648802  1
  Si  Si13  1  0.648802  0.435004  0.826641  1
  Si  Si14  1  0.750120  0.750120  0.750120  1
  Si  Si15  1  0.249880  0.249880  0.249880  1
  Ir  Ir16  1  0.068567  0.751645  0.427968  1
  Ir  Ir17  1  0.427968  0.068567  0.751645  1
  Ir  Ir18  1  0.751645  0.427968  0.068567  1
  Ir  Ir19  1  0.931433  0.248355  0.572032  1
  Ir  Ir20  1  0.572032  0.931433  0.248355  1
  Ir  Ir21  1  0.248355  0.572032  0.931433  1
