# generated using pymatgen
data_Tb9Dy8Lu3Pb16
_symmetry_space_group_name_H-M   'P 1'
_cell_length_a   8.18596804
_cell_length_b   8.27304712
_cell_length_c   15.64703607
_cell_angle_alpha   89.99910938
_cell_angle_beta   90.01099741
_cell_angle_gamma   89.93045467
_symmetry_Int_Tables_number   1
_chemical_formula_structural   Tb9Dy8Lu3Pb16
_chemical_formula_sum   'Tb9 Dy8 Lu3 Pb16'
_cell_volume   1059.66184791
_cell_formula_units_Z   1
loop_
 _symmetry_equiv_pos_site_id
 _symmetry_equiv_pos_as_xyz
  1  'x, y, z'
loop_
 _atom_site_type_symbol
 _atom_site_label
 _atom_site_symmetry_multiplicity
 _atom_site_fract_x
 _atom_site_fract_y
 _atom_site_fract_z
 _atom_site_occupancy
  Tb  Tb0  1  0.876334  0.658365  0.879360  1
  Tb  Tb1  1  0.534393  0.323412  0.900421  1
  Tb  Tb2  1  0.034395  0.176568  0.599881  1
  Tb  Tb3  1  0.466091  0.676272  0.400588  1
  Tb  Tb4  1  0.965521  0.823039  0.099626  1
  Tb  Tb5  1  0.466095  0.676206  0.099508  1
  Tb  Tb6  1  0.965593  0.822893  0.400609  1
  Tb  Tb7  1  0.534318  0.323493  0.599585  1
  Tb  Tb8  1  0.034509  0.176452  0.899995  1
  Dy  Dy9  1  0.376391  0.841763  0.878761  1
  Dy  Dy10  1  0.876297  0.658206  0.620744  1
  Dy  Dy11  1  0.624023  0.158894  0.379506  1
  Dy  Dy12  1  0.122980  0.341936  0.120519  1
  Dy  Dy13  1  0.623882  0.158836  0.120703  1
  Dy  Dy14  1  0.122946  0.341823  0.379468  1
  Dy  Dy15  1  0.376547  0.841813  0.621143  1
  Dy  Dy16  1  0.291631  0.004229  0.250041  1
  Lu  Lu17  1  0.208374  0.504436  0.749902  1
  Lu  Lu18  1  0.708289  0.995313  0.749882  1
  Lu  Lu19  1  0.791196  0.495241  0.250131  1
  Pb  Pb20  1  0.281792  0.033645  0.042907  1
  Pb  Pb21  1  0.781878  0.466825  0.456302  1
  Pb  Pb22  1  0.718018  0.966896  0.543836  1
  Pb  Pb23  1  0.218721  0.533143  0.956077  1
  Pb  Pb24  1  0.717870  0.967391  0.956079  1
  Pb  Pb25  1  0.218110  0.533389  0.543847  1
  Pb  Pb26  1  0.281854  0.033795  0.457208  1
  Pb  Pb27  1  0.781792  0.466558  0.044013  1
  Pb  Pb28  1  0.571247  0.625871  0.749776  1
  Pb  Pb29  1  0.071151  0.873382  0.749778  1
  Pb  Pb30  1  0.428965  0.375035  0.250033  1
  Pb  Pb31  1  0.927090  0.126754  0.250029  1
  Pb  Pb32  1  0.346890  0.154798  0.750018  1
  Pb  Pb33  1  0.846120  0.345491  0.749703  1
  Pb  Pb34  1  0.654735  0.845904  0.250052  1
  Pb  Pb35  1  0.153966  0.651933  0.249971  1
