# generated using pymatgen
data_YHo2Pa(VB4)4
_symmetry_space_group_name_H-M   'P 1'
_cell_length_a   3.47740600
_cell_length_b   5.98862975
_cell_length_c   11.59121401
_cell_angle_alpha   90.10046833
_cell_angle_beta   90.00000000
_cell_angle_gamma   90.00000000
_symmetry_Int_Tables_number   1
_chemical_formula_structural   YHo2Pa(VB4)4
_chemical_formula_sum   'Y1 Ho2 Pa1 V4 B16'
_cell_volume   241.38546692
_cell_formula_units_Z   1
loop_
 _symmetry_equiv_pos_site_id
 _symmetry_equiv_pos_as_xyz
  1  'x, y, z'
loop_
 _atom_site_type_symbol
 _atom_site_label
 _atom_site_symmetry_multiplicity
 _atom_site_fract_x
 _atom_site_fract_y
 _atom_site_fract_z
 _atom_site_occupancy
  Y  Y0  1  0.500000  0.874517  0.347991  1
  Ho  Ho1  1  0.500000  0.623162  0.850736  1
  Ho  Ho2  1  0.500000  0.375473  0.150539  1
  Pa  Pa3  1  0.500000  0.125863  0.651285  1
  V  V4  1  0.500000  0.126036  0.915825  1
  V  V5  1  0.500000  0.872689  0.082225  1
  V  V6  1  0.500000  0.627718  0.583921  1
  V  V7  1  0.500000  0.372235  0.418300  1
  B  B8  1  0.000000  0.475080  0.691744  1
  B  B9  1  0.000000  0.522457  0.306874  1
  B  B10  1  0.000000  0.976455  0.808639  1
  B  B11  1  0.000000  0.024022  0.192194  1
  B  B12  1  0.000000  0.284999  0.814844  1
  B  B13  1  0.000000  0.713642  0.185483  1
  B  B14  1  0.000000  0.785020  0.685212  1
  B  B15  1  0.000000  0.216213  0.313449  1
  B  B16  1  0.000000  0.365006  0.967767  1
  B  B17  1  0.000000  0.635156  0.032573  1
  B  B18  1  0.000000  0.864791  0.532856  1
  B  B19  1  0.000000  0.137114  0.467453  1
  B  B20  1  0.000000  0.387794  0.546790  1
  B  B21  1  0.000000  0.614296  0.452531  1
  B  B22  1  0.000000  0.885397  0.953411  1
  B  B23  1  0.000000  0.114868  0.047357  1
