# generated using pymatgen
data_Sm2Mn6P7Ir6
_symmetry_space_group_name_H-M   'P 1'
_cell_length_a   9.43614300
_cell_length_b   9.43614364
_cell_length_c   3.88324500
_cell_angle_alpha   90.00000000
_cell_angle_beta   90.00000000
_cell_angle_gamma   120.00000734
_symmetry_Int_Tables_number   1
_chemical_formula_structural   Sm2Mn6P7Ir6
_chemical_formula_sum   'Sm2 Mn6 P7 Ir6'
_cell_volume   299.44319518
_cell_formula_units_Z   1
loop_
 _symmetry_equiv_pos_site_id
 _symmetry_equiv_pos_as_xyz
  1  'x, y, z'
loop_
 _atom_site_type_symbol
 _atom_site_label
 _atom_site_symmetry_multiplicity
 _atom_site_fract_x
 _atom_site_fract_y
 _atom_site_fract_z
 _atom_site_occupancy
  Sm  Sm0  1  0.666667  0.333333  0.000000  1
  Sm  Sm1  1  0.333333  0.666667  0.500000  1
  Mn  Mn2  1  0.158974  0.268969  0.500000  1
  Mn  Mn3  1  0.731031  0.890005  0.500000  1
  Mn  Mn4  1  0.109995  0.841026  0.500000  1
  Mn  Mn5  1  0.213545  0.095197  0.000000  1
  Mn  Mn6  1  0.904803  0.118347  0.000000  1
  Mn  Mn7  1  0.881653  0.786455  0.000000  1
  P  P8  1  0.116444  0.395574  0.000000  1
  P  P9  1  0.604426  0.720869  0.000000  1
  P  P10  1  0.279131  0.883556  0.000000  1
  P  P11  1  0.000000  0.000000  0.500000  1
  P  P12  1  0.409396  0.299204  0.500000  1
  P  P13  1  0.700796  0.110192  0.500000  1
  P  P14  1  0.889808  0.590604  0.500000  1
  Ir  Ir15  1  0.423375  0.061329  0.500000  1
  Ir  Ir16  1  0.938671  0.362047  0.500000  1
  Ir  Ir17  1  0.637953  0.576625  0.500000  1
  Ir  Ir18  1  0.385653  0.438644  0.000000  1
  Ir  Ir19  1  0.561356  0.947010  0.000000  1
  Ir  Ir20  1  0.052990  0.614347  0.000000  1
