# generated using pymatgen
data_Sm3Dy(SiAu2)8
_symmetry_space_group_name_H-M   'P 1'
_cell_length_a   4.41058400
_cell_length_b   4.41015400
_cell_length_c   27.30397000
_cell_angle_alpha   90.00000000
_cell_angle_beta   90.00000000
_cell_angle_gamma   90.00000000
_symmetry_Int_Tables_number   1
_chemical_formula_structural   Sm3Dy(SiAu2)8
_chemical_formula_sum   'Sm3 Dy1 Si8 Au16'
_cell_volume   531.09920437
_cell_formula_units_Z   1
loop_
 _symmetry_equiv_pos_site_id
 _symmetry_equiv_pos_as_xyz
  1  'x, y, z'
loop_
 _atom_site_type_symbol
 _atom_site_label
 _atom_site_symmetry_multiplicity
 _atom_site_fract_x
 _atom_site_fract_y
 _atom_site_fract_z
 _atom_site_occupancy
  Sm  Sm0  1  0.500000  0.000000  0.250621  1
  Sm  Sm1  1  0.500000  0.500000  0.999972  1
  Sm  Sm2  1  0.500000  0.500000  0.500022  1
  Dy  Dy3  1  0.000000  0.500000  0.749379  1
  Si  Si4  1  0.000000  0.000000  0.956747  1
  Si  Si5  1  0.000000  0.000000  0.456998  1
  Si  Si6  1  0.500000  0.000000  0.792392  1
  Si  Si7  1  0.500000  0.000000  0.706412  1
  Si  Si8  1  0.000000  0.500000  0.207343  1
  Si  Si9  1  0.000000  0.500000  0.293876  1
  Si  Si10  1  0.000000  0.000000  0.043178  1
  Si  Si11  1  0.000000  0.000000  0.543068  1
  Au  Au12  1  0.500000  0.000000  0.086423  1
  Au  Au13  1  0.500000  0.500000  0.663771  1
  Au  Au14  1  0.500000  0.500000  0.835042  1
  Au  Au15  1  0.000000  0.500000  0.086488  1
  Au  Au16  1  0.500000  0.000000  0.913467  1
  Au  Au17  1  0.000000  0.000000  0.664160  1
  Au  Au18  1  0.000000  0.500000  0.414120  1
  Au  Au19  1  0.500000  0.500000  0.337044  1
  Au  Au20  1  0.500000  0.000000  0.414073  1
  Au  Au21  1  0.000000  0.000000  0.336742  1
  Au  Au22  1  0.000000  0.000000  0.164259  1
  Au  Au23  1  0.500000  0.000000  0.585944  1
  Au  Au24  1  0.000000  0.000000  0.834821  1
  Au  Au25  1  0.500000  0.500000  0.164137  1
  Au  Au26  1  0.000000  0.500000  0.586057  1
  Au  Au27  1  0.000000  0.500000  0.913443  1
