# generated using pymatgen
data_Tb13Ho3Tl3InRh4
_symmetry_space_group_name_H-M   'P 1'
_cell_length_a   9.69182328
_cell_length_b   9.67416082
_cell_length_c   9.67073700
_cell_angle_alpha   60.03752693
_cell_angle_beta   59.91940058
_cell_angle_gamma   59.82458045
_symmetry_Int_Tables_number   1
_chemical_formula_structural   Tb13Ho3Tl3InRh4
_chemical_formula_sum   'Tb13 Ho3 Tl3 In1 Rh4'
_cell_volume   640.09184423
_cell_formula_units_Z   1
loop_
 _symmetry_equiv_pos_site_id
 _symmetry_equiv_pos_as_xyz
  1  'x, y, z'
loop_
 _atom_site_type_symbol
 _atom_site_label
 _atom_site_symmetry_multiplicity
 _atom_site_fract_x
 _atom_site_fract_y
 _atom_site_fract_z
 _atom_site_occupancy
  Tb  Tb0  1  0.648859  0.053619  0.646850  1
  Tb  Tb1  1  0.059470  0.062034  0.439053  1
  Tb  Tb2  1  0.438462  0.436329  0.061312  1
  Tb  Tb3  1  0.651804  0.650479  0.651352  1
  Tb  Tb4  1  0.814052  0.186797  0.186802  1
  Tb  Tb5  1  0.187201  0.813600  0.813048  1
  Tb  Tb6  1  0.051583  0.648190  0.649117  1
  Tb  Tb7  1  0.440591  0.059227  0.058518  1
  Tb  Tb8  1  0.438362  0.060714  0.438172  1
  Tb  Tb9  1  0.060346  0.437103  0.062474  1
  Tb  Tb10  1  0.649781  0.647092  0.051665  1
  Tb  Tb11  1  0.187695  0.812821  0.187060  1
  Tb  Tb12  1  0.059780  0.436818  0.438643  1
  Ho  Ho13  1  0.812371  0.811551  0.188340  1
  Ho  Ho14  1  0.813328  0.187678  0.812069  1
  Ho  Ho15  1  0.187928  0.187452  0.812052  1
  Tl  Tl16  1  0.415224  0.414475  0.413599  1
  Tl  Tl17  1  0.416028  0.416343  0.755399  1
  Tl  Tl18  1  0.415726  0.756122  0.415650  1
  In  In19  1  0.749122  0.418491  0.418001  1
  Rh  Rh20  1  0.860224  0.426611  0.856756  1
  Rh  Rh21  1  0.855138  0.858597  0.858619  1
  Rh  Rh22  1  0.857780  0.857133  0.427995  1
  Rh  Rh23  1  0.429147  0.860727  0.857456  1
