# generated using pymatgen
data_Sm7YTcOsBr8
_symmetry_space_group_name_H-M   'P 1'
_cell_length_a   9.19382760
_cell_length_b   9.22245849
_cell_length_c   6.65798915
_cell_angle_alpha   89.72067360
_cell_angle_beta   89.37622289
_cell_angle_gamma   89.24881102
_symmetry_Int_Tables_number   1
_chemical_formula_structural   Sm7YTcOsBr8
_chemical_formula_sum   'Sm7 Y1 Tc1 Os1 Br8'
_cell_volume   564.44056581
_cell_formula_units_Z   1
loop_
 _symmetry_equiv_pos_site_id
 _symmetry_equiv_pos_as_xyz
  1  'x, y, z'
loop_
 _atom_site_type_symbol
 _atom_site_label
 _atom_site_symmetry_multiplicity
 _atom_site_fract_x
 _atom_site_fract_y
 _atom_site_fract_z
 _atom_site_occupancy
  Sm  Sm0  1  0.749664  0.097895  0.992517  1
  Sm  Sm1  1  0.098750  0.753315  0.490242  1
  Sm  Sm2  1  0.096535  0.247507  0.995757  1
  Sm  Sm3  1  0.250279  0.097631  0.494990  1
  Sm  Sm4  1  0.901603  0.751928  0.006459  1
  Sm  Sm5  1  0.901475  0.246265  0.510915  1
  Sm  Sm6  1  0.249199  0.901294  0.009789  1
  Y  Y7  1  0.753882  0.903231  0.508511  1
  Tc  Tc8  1  0.996081  0.002931  0.251153  1
  Os  Os9  1  0.003718  0.996463  0.750660  1
  Br  Br10  1  0.585545  0.177287  0.578886  1
  Br  Br11  1  0.809742  0.594254  0.422519  1
  Br  Br12  1  0.410715  0.186664  0.080752  1
  Br  Br13  1  0.184813  0.410397  0.581566  1
  Br  Br14  1  0.590108  0.813999  0.907017  1
  Br  Br15  1  0.419574  0.819079  0.417633  1
  Br  Br16  1  0.182286  0.585433  0.078555  1
  Br  Br17  1  0.816027  0.414427  0.922079  1
