# generated using pymatgen
data_ErHf(Mn2P)4
_symmetry_space_group_name_H-M   'P 1'
_cell_length_a   6.90463155
_cell_length_b   6.90463155
_cell_length_c   3.67470500
_cell_angle_alpha   90.00000000
_cell_angle_beta   90.00000000
_cell_angle_gamma   89.56585551
_symmetry_Int_Tables_number   1
_chemical_formula_structural   ErHf(Mn2P)4
_chemical_formula_sum   'Er1 Hf1 Mn8 P4'
_cell_volume   175.18262510
_cell_formula_units_Z   1
loop_
 _symmetry_equiv_pos_site_id
 _symmetry_equiv_pos_as_xyz
  1  'x, y, z'
loop_
 _atom_site_type_symbol
 _atom_site_label
 _atom_site_symmetry_multiplicity
 _atom_site_fract_x
 _atom_site_fract_y
 _atom_site_fract_z
 _atom_site_occupancy
  Er  Er0  1  0.500000  0.500000  0.000000  1
  Hf  Hf1  1  0.000000  0.000000  0.500000  1
  Mn  Mn2  1  0.081433  0.342841  0.000000  1
  Mn  Mn3  1  0.848140  0.412697  0.500000  1
  Mn  Mn4  1  0.151860  0.587303  0.500000  1
  Mn  Mn5  1  0.918567  0.657159  0.000000  1
  Mn  Mn6  1  0.412697  0.848140  0.500000  1
  Mn  Mn7  1  0.587303  0.151860  0.500000  1
  Mn  Mn8  1  0.342841  0.081433  0.000000  1
  Mn  Mn9  1  0.657159  0.918567  0.000000  1
  P  P10  1  0.787960  0.212040  0.000000  1
  P  P11  1  0.718011  0.718011  0.500000  1
  P  P12  1  0.281989  0.281989  0.500000  1
  P  P13  1  0.212040  0.787960  0.000000  1
