# generated using pymatgen
data_Ac4Sm5LuSn8
_symmetry_space_group_name_H-M   'P 1'
_cell_length_a   8.39055900
_cell_length_b   8.60180200
_cell_length_c   16.28677400
_cell_angle_alpha   90.00000000
_cell_angle_beta   90.00000000
_cell_angle_gamma   90.00000000
_symmetry_Int_Tables_number   1
_chemical_formula_structural   Ac4Sm5LuSn8
_chemical_formula_sum   'Ac8 Sm10 Lu2 Sn16'
_cell_volume   1175.48044079
_cell_formula_units_Z   2
loop_
 _symmetry_equiv_pos_site_id
 _symmetry_equiv_pos_as_xyz
  1  'x, y, z'
loop_
 _atom_site_type_symbol
 _atom_site_label
 _atom_site_symmetry_multiplicity
 _atom_site_fract_x
 _atom_site_fract_y
 _atom_site_fract_z
 _atom_site_occupancy
  Ac  Ac0  1  0.508163  0.321988  0.903567  1
  Ac  Ac1  1  0.008163  0.178012  0.596433  1
  Ac  Ac2  1  0.492202  0.677720  0.403038  1
  Ac  Ac3  1  0.992202  0.822280  0.096962  1
  Ac  Ac4  1  0.492202  0.677720  0.096962  1
  Ac  Ac5  1  0.992202  0.822280  0.403038  1
  Ac  Ac6  1  0.508163  0.321988  0.596433  1
  Ac  Ac7  1  0.008163  0.178012  0.903567  1
  Sm  Sm8  1  0.349211  0.835338  0.876607  1
  Sm  Sm9  1  0.849211  0.664662  0.623393  1
  Sm  Sm10  1  0.650805  0.164489  0.375511  1
  Sm  Sm11  1  0.150805  0.335511  0.124489  1
  Sm  Sm12  1  0.650805  0.164489  0.124489  1
  Sm  Sm13  1  0.150805  0.335511  0.375511  1
  Sm  Sm14  1  0.349211  0.835338  0.623393  1
  Sm  Sm15  1  0.849211  0.664662  0.876607  1
  Sm  Sm16  1  0.181943  0.501634  0.750000  1
  Sm  Sm17  1  0.681943  0.998366  0.750000  1
  Lu  Lu18  1  0.816752  0.498050  0.250000  1
  Lu  Lu19  1  0.316752  0.001950  0.250000  1
  Sn  Sn20  1  0.313709  0.041174  0.044390  1
  Sn  Sn21  1  0.813709  0.458826  0.455610  1
  Sn  Sn22  1  0.686312  0.958293  0.542082  1
  Sn  Sn23  1  0.186312  0.541707  0.957918  1
  Sn  Sn24  1  0.686312  0.958293  0.957918  1
  Sn  Sn25  1  0.186312  0.541707  0.542082  1
  Sn  Sn26  1  0.313709  0.041174  0.455610  1
  Sn  Sn27  1  0.813709  0.458826  0.044390  1
  Sn  Sn28  1  0.547739  0.625059  0.750000  1
  Sn  Sn29  1  0.047739  0.874941  0.750000  1
  Sn  Sn30  1  0.455076  0.375489  0.250000  1
  Sn  Sn31  1  0.955076  0.124511  0.250000  1
  Sn  Sn32  1  0.312574  0.141065  0.750000  1
  Sn  Sn33  1  0.812574  0.358935  0.750000  1
  Sn  Sn34  1  0.685114  0.855719  0.250000  1
  Sn  Sn35  1  0.185114  0.644281  0.250000  1
