# generated using pymatgen
data_YTm6Th3Sn8
_symmetry_space_group_name_H-M   'P 1'
_cell_length_a   8.07740800
_cell_length_b   8.14925576
_cell_length_c   15.39882900
_cell_angle_alpha   90.28208383
_cell_angle_beta   90.00000000
_cell_angle_gamma   90.00000000
_symmetry_Int_Tables_number   1
_chemical_formula_structural   YTm6Th3Sn8
_chemical_formula_sum   'Y2 Tm12 Th6 Sn16'
_cell_volume   1013.61353557
_cell_formula_units_Z   2
loop_
 _symmetry_equiv_pos_site_id
 _symmetry_equiv_pos_as_xyz
  1  'x, y, z'
loop_
 _atom_site_type_symbol
 _atom_site_label
 _atom_site_symmetry_multiplicity
 _atom_site_fract_x
 _atom_site_fract_y
 _atom_site_fract_z
 _atom_site_occupancy
  Y  Y0  1  0.524018  0.324022  0.900229  1
  Y  Y1  1  0.024018  0.175978  0.599771  1
  Tm  Tm2  1  0.355704  0.836568  0.875073  1
  Tm  Tm3  1  0.855704  0.663432  0.624927  1
  Tm  Tm4  1  0.639032  0.164166  0.376407  1
  Tm  Tm5  1  0.139032  0.335834  0.123593  1
  Tm  Tm6  1  0.642601  0.163257  0.123574  1
  Tm  Tm7  1  0.142601  0.336743  0.376426  1
  Tm  Tm8  1  0.359878  0.838844  0.625654  1
  Tm  Tm9  1  0.859878  0.661156  0.874346  1
  Tm  Tm10  1  0.188748  0.500758  0.749698  1
  Tm  Tm11  1  0.688748  0.999242  0.750302  1
  Tm  Tm12  1  0.811626  0.500134  0.249798  1
  Tm  Tm13  1  0.311626  0.999866  0.250202  1
  Th  Th14  1  0.481807  0.678277  0.404879  1
  Th  Th15  1  0.981807  0.821723  0.095121  1
  Th  Th16  1  0.482596  0.677321  0.095442  1
  Th  Th17  1  0.982596  0.822679  0.404558  1
  Th  Th18  1  0.514358  0.322331  0.594829  1
  Th  Th19  1  0.014358  0.177669  0.905171  1
  Sn  Sn20  1  0.302558  0.038928  0.042267  1
  Sn  Sn21  1  0.802558  0.461072  0.457733  1
  Sn  Sn22  1  0.703365  0.965259  0.543072  1
  Sn  Sn23  1  0.203365  0.534741  0.956928  1
  Sn  Sn24  1  0.694082  0.957784  0.957711  1
  Sn  Sn25  1  0.194082  0.542216  0.542289  1
  Sn  Sn26  1  0.299406  0.041643  0.459922  1
  Sn  Sn27  1  0.799406  0.458357  0.040078  1
  Sn  Sn28  1  0.553772  0.621707  0.749726  1
  Sn  Sn29  1  0.053772  0.878293  0.750274  1
  Sn  Sn30  1  0.445067  0.376066  0.249510  1
  Sn  Sn31  1  0.945067  0.123934  0.250490  1
  Sn  Sn32  1  0.325806  0.147723  0.752468  1
  Sn  Sn33  1  0.825806  0.352277  0.747532  1
  Sn  Sn34  1  0.675577  0.856726  0.250118  1
  Sn  Sn35  1  0.175577  0.643274  0.249882  1
