# generated using pymatgen
data_Eu5ThSe8
_symmetry_space_group_name_H-M   'P 1'
_cell_length_a   7.81665694
_cell_length_b   7.81665808
_cell_length_c   7.81665745
_cell_angle_alpha   109.36360415
_cell_angle_beta   109.52505497
_cell_angle_gamma   109.52505478
_symmetry_Int_Tables_number   1
_chemical_formula_structural   Eu5ThSe8
_chemical_formula_sum   'Eu5 Th1 Se8'
_cell_volume   367.65477930
_cell_formula_units_Z   1
loop_
 _symmetry_equiv_pos_site_id
 _symmetry_equiv_pos_as_xyz
  1  'x, y, z'
loop_
 _atom_site_type_symbol
 _atom_site_label
 _atom_site_symmetry_multiplicity
 _atom_site_fract_x
 _atom_site_fract_y
 _atom_site_fract_z
 _atom_site_occupancy
  Eu  Eu0  1  0.625175  0.377043  0.255786  1
  Eu  Eu1  1  0.250000  0.625000  0.375000  1
  Eu  Eu2  1  0.378742  0.248131  0.622956  1
  Eu  Eu3  1  0.874825  0.130611  0.751870  1
  Eu  Eu4  1  0.121257  0.744214  0.869389  1
  Th  Th5  1  0.750000  0.875000  0.125000  1
  Se  Se6  1  0.855596  0.509377  0.004433  1
  Se  Se7  1  0.362900  0.503746  0.999432  1
  Se  Se8  1  0.137100  0.136532  0.140846  1
  Se  Se9  1  0.504945  0.995567  0.351163  1
  Se  Se10  1  0.995686  0.859153  0.496253  1
  Se  Se11  1  0.995055  0.346219  0.490622  1
  Se  Se12  1  0.644404  0.648838  0.653782  1
  Se  Se13  1  0.504313  0.000568  0.863467  1
