# generated using pymatgen
data_Rb4Mo2H11
_symmetry_space_group_name_H-M   'P 1'
_cell_length_a   6.60134896
_cell_length_b   9.03298865
_cell_length_c   10.82073709
_cell_angle_alpha   70.93592279
_cell_angle_beta   89.37201743
_cell_angle_gamma   88.30480618
_symmetry_Int_Tables_number   1
_chemical_formula_structural   Rb4Mo2H11
_chemical_formula_sum   'Rb8 Mo4 H22'
_cell_volume   609.58321596
_cell_formula_units_Z   2
loop_
 _symmetry_equiv_pos_site_id
 _symmetry_equiv_pos_as_xyz
  1  'x, y, z'
loop_
 _atom_site_type_symbol
 _atom_site_label
 _atom_site_symmetry_multiplicity
 _atom_site_fract_x
 _atom_site_fract_y
 _atom_site_fract_z
 _atom_site_occupancy
  Rb  Rb0  1  0.736877  0.357555  0.504830  1
  Rb  Rb1  1  0.263072  0.642434  0.495189  1
  Rb  Rb2  1  0.770654  0.472243  0.112785  1
  Rb  Rb3  1  0.229308  0.527811  0.887231  1
  Rb  Rb4  1  0.762766  0.966023  0.389944  1
  Rb  Rb5  1  0.237204  0.034000  0.610062  1
  Rb  Rb6  1  0.710394  0.155459  0.921684  1
  Rb  Rb7  1  0.289566  0.844583  0.078342  1
  Mo  Mo8  1  0.723194  0.848382  0.779271  1
  Mo  Mo9  1  0.276898  0.151649  0.220723  1
  Mo  Mo10  1  0.741936  0.610851  0.712821  1
  Mo  Mo11  1  0.258053  0.389157  0.287172  1
  H  H12  1  0.550826  0.783999  0.662617  1
  H  H13  1  0.449184  0.215965  0.337370  1
  H  H14  1  0.533844  0.475155  0.718729  1
  H  H15  1  0.466084  0.524851  0.281307  1
  H  H16  1  0.704968  0.029775  0.643818  1
  H  H17  1  0.295037  0.970206  0.356163  1
  H  H18  1  0.622268  0.646108  0.859498  1
  H  H19  1  0.377737  0.353828  0.140452  1
  H  H20  1  0.939227  0.762923  0.700811  1
  H  H21  1  0.060867  0.236948  0.299175  1
  H  H22  1  0.735938  0.649502  0.538457  1
  H  H23  1  0.264052  0.350473  0.461534  1
  H  H24  1  0.934974  0.957401  0.797612  1
  H  H25  1  0.065059  0.042691  0.202399  1
  H  H26  1  0.778730  0.804221  0.948136  1
  H  H27  1  0.221261  0.195799  0.051872  1
  H  H28  1  0.824450  0.454111  0.850046  1
  H  H29  1  0.175521  0.545908  0.149959  1
  H  H30  1  0.964680  0.517928  0.674229  1
  H  H31  1  0.035271  0.482052  0.325812  1
  H  H32  1  0.485432  0.916697  0.834086  1
  H  H33  1  0.514676  0.083311  0.165868  1
