# generated using pymatgen
data_CaCe2(RhPb)3
_symmetry_space_group_name_H-M   'P 1'
_cell_length_a   7.82812692
_cell_length_b   7.82812718
_cell_length_c   3.96512700
_cell_angle_alpha   90.00000000
_cell_angle_beta   90.00000000
_cell_angle_gamma   121.37789698
_symmetry_Int_Tables_number   1
_chemical_formula_structural   CaCe2(RhPb)3
_chemical_formula_sum   'Ca1 Ce2 Rh3 Pb3'
_cell_volume   207.44569528
_cell_formula_units_Z   1
loop_
 _symmetry_equiv_pos_site_id
 _symmetry_equiv_pos_as_xyz
  1  'x, y, z'
loop_
 _atom_site_type_symbol
 _atom_site_label
 _atom_site_symmetry_multiplicity
 _atom_site_fract_x
 _atom_site_fract_y
 _atom_site_fract_z
 _atom_site_occupancy
  Ca  Ca0  1  0.403082  0.403082  0.500000  1
  Ce  Ce1  1  0.589456  0.998851  0.500000  1
  Ce  Ce2  1  0.998851  0.589456  0.500000  1
  Rh  Rh3  1  0.986842  0.986842  0.500000  1
  Rh  Rh4  1  0.692187  0.330168  0.000000  1
  Rh  Rh5  1  0.330168  0.692187  0.000000  1
  Pb  Pb6  1  0.727095  0.727095  0.000000  1
  Pb  Pb7  1  0.260704  0.011614  0.000000  1
  Pb  Pb8  1  0.011614  0.260704  0.000000  1
