# generated using pymatgen
data_Ba6Sn8BiH
_symmetry_space_group_name_H-M   'P 1'
_cell_length_a   9.22794187
_cell_length_b   9.22794206
_cell_length_c   9.21919464
_cell_angle_alpha   120.03139557
_cell_angle_beta   120.03139775
_cell_angle_gamma   90.00000602
_symmetry_Int_Tables_number   1
_chemical_formula_structural   Ba6Sn8BiH
_chemical_formula_sum   'Ba6 Sn8 Bi1 H1'
_cell_volume   554.59372631
_cell_formula_units_Z   1
loop_
 _symmetry_equiv_pos_site_id
 _symmetry_equiv_pos_as_xyz
  1  'x, y, z'
loop_
 _atom_site_type_symbol
 _atom_site_label
 _atom_site_symmetry_multiplicity
 _atom_site_fract_x
 _atom_site_fract_y
 _atom_site_fract_z
 _atom_site_occupancy
  Ba  Ba0  1  0.268993  0.268993  0.537986  1
  Ba  Ba1  1  0.731007  0.731007  0.462014  1
  Ba  Ba2  1  0.659488  0.170701  0.000000  1
  Ba  Ba3  1  0.340512  0.829299  0.000000  1
  Ba  Ba4  1  0.829299  0.659488  0.000000  1
  Ba  Ba5  1  0.170701  0.340512  0.000000  1
  Sn  Sn6  1  0.332322  0.834596  0.384725  1
  Sn  Sn7  1  0.667678  0.165404  0.615275  1
  Sn  Sn8  1  0.052404  0.550130  0.384725  1
  Sn  Sn9  1  0.550130  0.332322  0.384725  1
  Sn  Sn10  1  0.165404  0.947596  0.615275  1
  Sn  Sn11  1  0.947596  0.449870  0.615275  1
  Sn  Sn12  1  0.449870  0.667678  0.615275  1
  Sn  Sn13  1  0.834596  0.052404  0.384725  1
  Bi  Bi14  1  0.000000  0.000000  0.000000  1
  H  H15  1  0.500000  0.500000  0.000000  1
