# generated using pymatgen
data_K2Rb6ZrAs4
_symmetry_space_group_name_H-M   'P 1'
_cell_length_a   11.35823161
_cell_length_b   11.35823147
_cell_length_c   11.35823100
_cell_angle_alpha   59.99999846
_cell_angle_beta   59.99999885
_cell_angle_gamma   59.99999884
_symmetry_Int_Tables_number   1
_chemical_formula_structural   K2Rb6ZrAs4
_chemical_formula_sum   'K4 Rb12 Zr2 As8'
_cell_volume   1036.13685516
_cell_formula_units_Z   2
loop_
 _symmetry_equiv_pos_site_id
 _symmetry_equiv_pos_as_xyz
  1  'x, y, z'
loop_
 _atom_site_type_symbol
 _atom_site_label
 _atom_site_symmetry_multiplicity
 _atom_site_fract_x
 _atom_site_fract_y
 _atom_site_fract_z
 _atom_site_occupancy
  K  K0  1  0.625000  0.625000  0.125000  1
  K  K1  1  0.625000  0.125000  0.625000  1
  K  K2  1  0.125000  0.625000  0.625000  1
  K  K3  1  0.625000  0.625000  0.625000  1
  Rb  Rb4  1  0.029513  0.470487  0.470487  1
  Rb  Rb5  1  0.779513  0.220487  0.220487  1
  Rb  Rb6  1  0.470487  0.029513  0.470487  1
  Rb  Rb7  1  0.470487  0.470487  0.029513  1
  Rb  Rb8  1  0.029513  0.029513  0.470487  1
  Rb  Rb9  1  0.029513  0.470487  0.029513  1
  Rb  Rb10  1  0.470487  0.029513  0.029513  1
  Rb  Rb11  1  0.779513  0.220487  0.779513  1
  Rb  Rb12  1  0.220487  0.779513  0.220487  1
  Rb  Rb13  1  0.220487  0.220487  0.779513  1
  Rb  Rb14  1  0.779513  0.779513  0.220487  1
  Rb  Rb15  1  0.220487  0.779513  0.779513  1
  Zr  Zr16  1  0.750000  0.750000  0.750000  1
  Zr  Zr17  1  0.500000  0.500000  0.500000  1
  As  As18  1  0.846778  0.846778  0.459668  1
  As  As19  1  0.846778  0.459668  0.846778  1
  As  As20  1  0.403222  0.403222  0.790332  1
  As  As21  1  0.403222  0.790332  0.403222  1
  As  As22  1  0.790332  0.403222  0.403222  1
  As  As23  1  0.846778  0.846778  0.846778  1
  As  As24  1  0.459668  0.846778  0.846778  1
  As  As25  1  0.403222  0.403222  0.403222  1
