# generated using pymatgen
data_Ba6In2WO12
_symmetry_space_group_name_H-M   'P 1'
_cell_length_a   9.31201798
_cell_length_b   9.31201849
_cell_length_c   7.40546600
_cell_angle_alpha   67.92793037
_cell_angle_beta   67.92792911
_cell_angle_gamma   36.87997476
_symmetry_Int_Tables_number   1
_chemical_formula_structural   Ba6In2WO12
_chemical_formula_sum   'Ba6 In2 W1 O12'
_cell_volume   353.86018776
_cell_formula_units_Z   1
loop_
 _symmetry_equiv_pos_site_id
 _symmetry_equiv_pos_as_xyz
  1  'x, y, z'
loop_
 _atom_site_type_symbol
 _atom_site_label
 _atom_site_symmetry_multiplicity
 _atom_site_fract_x
 _atom_site_fract_y
 _atom_site_fract_z
 _atom_site_occupancy
  Ba  Ba0  1  0.874226  0.874226  0.713212  1
  Ba  Ba1  1  0.220935  0.220935  0.709476  1
  Ba  Ba2  1  0.549196  0.549196  0.701481  1
  Ba  Ba3  1  0.450804  0.450804  0.298519  1
  Ba  Ba4  1  0.779065  0.779065  0.290524  1
  Ba  Ba5  1  0.125774  0.125774  0.286788  1
  In  In6  1  0.665283  0.665283  0.998786  1
  In  In7  1  0.334717  0.334717  0.001214  1
  W  W8  1  0.000000  0.000000  0.000000  1
  O  O9  1  0.951257  0.951257  0.292028  1
  O  O10  1  0.284254  0.284254  0.324890  1
  O  O11  1  0.607497  0.607497  0.323679  1
  O  O12  1  0.392503  0.392503  0.676321  1
  O  O13  1  0.715746  0.715746  0.675110  1
  O  O14  1  0.048743  0.048743  0.707972  1
  O  O15  1  0.500000  0.000000  0.000000  1
  O  O16  1  0.843809  0.310043  0.001580  1
  O  O17  1  0.156191  0.689957  0.998420  1
  O  O18  1  0.000000  0.500000  0.000000  1
  O  O19  1  0.310043  0.843809  0.001580  1
  O  O20  1  0.689957  0.156191  0.998420  1
