# generated using pymatgen
data_Ho2Si5RuPt2
_symmetry_space_group_name_H-M   'P 1'
_cell_length_a   8.14142632
_cell_length_b   8.14142632
_cell_length_c   8.14142447
_cell_angle_alpha   137.58685662
_cell_angle_beta   104.25056171
_cell_angle_gamma   90.89021768
_symmetry_Int_Tables_number   1
_chemical_formula_structural   Ho2Si5RuPt2
_chemical_formula_sum   'Ho4 Si10 Ru2 Pt4'
_cell_volume   336.32278506
_cell_formula_units_Z   2
loop_
 _symmetry_equiv_pos_site_id
 _symmetry_equiv_pos_as_xyz
  1  'x, y, z'
loop_
 _atom_site_type_symbol
 _atom_site_label
 _atom_site_symmetry_multiplicity
 _atom_site_fract_x
 _atom_site_fract_y
 _atom_site_fract_z
 _atom_site_occupancy
  Ho  Ho0  1  0.862255  0.629399  0.232855  1
  Ho  Ho1  1  0.137745  0.370601  0.767145  1
  Ho  Ho2  1  0.396544  0.129399  0.267145  1
  Ho  Ho3  1  0.603456  0.870601  0.732855  1
  Si  Si4  1  0.500000  0.750000  0.250000  1
  Si  Si5  1  0.500000  0.250000  0.750000  1
  Si  Si6  1  0.222368  0.972368  0.750000  1
  Si  Si7  1  0.777632  0.527632  0.750000  1
  Si  Si8  1  0.777632  0.027632  0.250000  1
  Si  Si9  1  0.222368  0.472368  0.250000  1
  Si  Si10  1  0.048294  0.896901  0.151392  1
  Si  Si11  1  0.951706  0.103099  0.848608  1
  Si  Si12  1  0.745509  0.396901  0.348608  1
  Si  Si13  1  0.254491  0.603099  0.651392  1
  Ru  Ru14  1  0.000000  0.750000  0.750000  1
  Ru  Ru15  1  0.000000  0.250000  0.250000  1
  Pt  Pt16  1  0.246855  0.860550  0.386307  1
  Pt  Pt17  1  0.753145  0.139450  0.613693  1
  Pt  Pt18  1  0.474244  0.360550  0.113693  1
  Pt  Pt19  1  0.525756  0.639450  0.886307  1
