# generated using pymatgen
data_PrPa2Cu3Sn4
_symmetry_space_group_name_H-M   'P 1'
_cell_length_a   8.34247775
_cell_length_b   8.34389419
_cell_length_c   8.34641427
_cell_angle_alpha   109.54855131
_cell_angle_beta   109.45594987
_cell_angle_gamma   109.42973974
_symmetry_Int_Tables_number   1
_chemical_formula_structural   PrPa2Cu3Sn4
_chemical_formula_sum   'Pr2 Pa4 Cu6 Sn8'
_cell_volume   447.12726894
_cell_formula_units_Z   2
loop_
 _symmetry_equiv_pos_site_id
 _symmetry_equiv_pos_as_xyz
  1  'x, y, z'
loop_
 _atom_site_type_symbol
 _atom_site_label
 _atom_site_symmetry_multiplicity
 _atom_site_fract_x
 _atom_site_fract_y
 _atom_site_fract_z
 _atom_site_occupancy
  Pr  Pr0  1  0.878034  0.751719  0.126089  1
  Pr  Pr1  1  0.122074  0.373742  0.248133  1
  Pa  Pa2  1  0.626057  0.252183  0.374198  1
  Pa  Pa3  1  0.750214  0.873273  0.626851  1
  Pa  Pa4  1  0.373961  0.126247  0.748202  1
  Pa  Pa5  1  0.249740  0.623019  0.876608  1
  Cu  Cu6  1  0.738844  0.366952  0.121107  1
  Cu  Cu7  1  0.623014  0.879942  0.252919  1
  Cu  Cu8  1  0.261179  0.128173  0.382327  1
  Cu  Cu9  1  0.376901  0.756801  0.629747  1
  Cu  Cu10  1  0.873341  0.620118  0.743403  1
  Cu  Cu11  1  0.126648  0.246733  0.869944  1
  Sn  Sn12  1  0.171151  0.999230  0.998187  1
  Sn  Sn13  1  0.662787  0.998162  0.997725  1
  Sn  Sn14  1  0.500709  0.500896  0.168563  1
  Sn  Sn15  1  0.337208  0.835451  0.334943  1
  Sn  Sn16  1  0.001460  0.670189  0.503818  1
  Sn  Sn17  1  0.998666  0.168851  0.502427  1
  Sn  Sn18  1  0.499217  0.500136  0.667841  1
  Sn  Sn19  1  0.828797  0.328185  0.826970  1
