# generated using pymatgen
data_Er3Ni8Ir
_symmetry_space_group_name_H-M   'P 1'
_cell_length_a   8.74668886
_cell_length_b   8.74668924
_cell_length_c   8.74668959
_cell_angle_alpha   32.73040185
_cell_angle_beta   32.73039942
_cell_angle_gamma   32.73039944
_symmetry_Int_Tables_number   1
_chemical_formula_structural   Er3Ni8Ir
_chemical_formula_sum   'Er3 Ni8 Ir1'
_cell_volume   174.01294153
_cell_formula_units_Z   1
loop_
 _symmetry_equiv_pos_site_id
 _symmetry_equiv_pos_as_xyz
  1  'x, y, z'
loop_
 _atom_site_type_symbol
 _atom_site_label
 _atom_site_symmetry_multiplicity
 _atom_site_fract_x
 _atom_site_fract_y
 _atom_site_fract_z
 _atom_site_occupancy
  Er  Er0  1  0.000000  0.000000  0.000000  1
  Er  Er1  1  0.861787  0.861787  0.861787  1
  Er  Er2  1  0.138213  0.138213  0.138213  1
  Ni  Ni3  1  0.666666  0.666666  0.666666  1
  Ni  Ni4  1  0.333334  0.333334  0.333334  1
  Ni  Ni5  1  0.418586  0.922112  0.418586  1
  Ni  Ni6  1  0.418586  0.418586  0.922112  1
  Ni  Ni7  1  0.922112  0.418586  0.418586  1
  Ni  Ni8  1  0.581414  0.077888  0.581414  1
  Ni  Ni9  1  0.581414  0.581414  0.077888  1
  Ni  Ni10  1  0.077888  0.581414  0.581414  1
  Ir  Ir11  1  0.500000  0.500000  0.500000  1
