# generated using pymatgen
data_HoSi4(IrRh2)2
_symmetry_space_group_name_H-M   'P 1'
_cell_length_a   6.98990300
_cell_length_b   7.02933939
_cell_length_c   3.81264200
_cell_angle_alpha   90.00000000
_cell_angle_beta   90.00000000
_cell_angle_gamma   119.81459183
_symmetry_Int_Tables_number   1
_chemical_formula_structural   HoSi4(IrRh2)2
_chemical_formula_sum   'Ho1 Si4 Ir2 Rh4'
_cell_volume   162.53641750
_cell_formula_units_Z   1
loop_
 _symmetry_equiv_pos_site_id
 _symmetry_equiv_pos_as_xyz
  1  'x, y, z'
loop_
 _atom_site_type_symbol
 _atom_site_label
 _atom_site_symmetry_multiplicity
 _atom_site_fract_x
 _atom_site_fract_y
 _atom_site_fract_z
 _atom_site_occupancy
  Ho  Ho0  1  0.000511  0.001021  0.000000  1
  Si  Si1  1  0.332782  0.665564  0.000000  1
  Si  Si2  1  0.397056  0.197468  0.499999  1
  Si  Si3  1  0.800413  0.197468  0.499999  1
  Si  Si4  1  0.801519  0.603038  0.499999  1
  Ir  Ir5  1  0.533039  0.066078  0.000000  1
  Ir  Ir6  1  0.197147  0.394294  0.499999  1
  Rh  Rh7  1  0.934134  0.469269  0.000000  1
  Rh  Rh8  1  0.535134  0.469269  0.000000  1
  Rh  Rh9  1  0.197681  0.801597  0.499999  1
  Rh  Rh10  1  0.603917  0.801597  0.499999  1
