# generated using pymatgen
data_AgB(SO4)2
_symmetry_space_group_name_H-M   'P 1'
_cell_length_a   7.78107300
_cell_length_b   5.64470768
_cell_length_c   7.91026613
_cell_angle_alpha   72.31156371
_cell_angle_beta   90.00000000
_cell_angle_gamma   90.00000000
_symmetry_Int_Tables_number   1
_chemical_formula_structural   AgB(SO4)2
_chemical_formula_sum   'Ag2 B2 S4 O16'
_cell_volume   331.00809124
_cell_formula_units_Z   2
loop_
 _symmetry_equiv_pos_site_id
 _symmetry_equiv_pos_as_xyz
  1  'x, y, z'
loop_
 _atom_site_type_symbol
 _atom_site_label
 _atom_site_symmetry_multiplicity
 _atom_site_fract_x
 _atom_site_fract_y
 _atom_site_fract_z
 _atom_site_occupancy
  Ag  Ag0  1  0.560615  0.500000  0.750000  1
  Ag  Ag1  1  0.439385  0.500000  0.250000  1
  B  B2  1  0.960558  0.000000  0.250000  1
  B  B3  1  0.039442  0.000000  0.750000  1
  S  S4  1  0.220474  0.871722  0.496888  1
  S  S5  1  0.220474  0.128278  0.003112  1
  S  S6  1  0.779526  0.128278  0.503112  1
  S  S7  1  0.779526  0.871722  0.996888  1
  O  O8  1  0.283632  0.122031  0.422578  1
  O  O9  1  0.283632  0.877969  0.077422  1
  O  O10  1  0.716368  0.877969  0.577422  1
  O  O11  1  0.716368  0.122031  0.922578  1
  O  O12  1  0.061522  0.825311  0.392113  1
  O  O13  1  0.061522  0.174689  0.107887  1
  O  O14  1  0.938478  0.174689  0.607887  1
  O  O15  1  0.938478  0.825311  0.892113  1
  O  O16  1  0.149405  0.828623  0.686508  1
  O  O17  1  0.149405  0.171377  0.813492  1
  O  O18  1  0.850595  0.171377  0.313492  1
  O  O19  1  0.850595  0.828623  0.186508  1
  O  O20  1  0.338293  0.667995  0.510596  1
  O  O21  1  0.338293  0.332005  0.989404  1
  O  O22  1  0.661707  0.332005  0.489404  1
  O  O23  1  0.661707  0.667995  0.010596  1
