# generated using pymatgen
data_Pm2(TeO4)3
_symmetry_space_group_name_H-M   'P 1'
_cell_length_a   7.01138237
_cell_length_b   7.01138154
_cell_length_c   11.68822709
_cell_angle_alpha   78.49744741
_cell_angle_beta   78.49745128
_cell_angle_gamma   110.56270971
_symmetry_Int_Tables_number   1
_chemical_formula_structural   Pm2(TeO4)3
_chemical_formula_sum   'Pm4 Te6 O24'
_cell_volume   503.92713347
_cell_formula_units_Z   2
loop_
 _symmetry_equiv_pos_site_id
 _symmetry_equiv_pos_as_xyz
  1  'x, y, z'
loop_
 _atom_site_type_symbol
 _atom_site_label
 _atom_site_symmetry_multiplicity
 _atom_site_fract_x
 _atom_site_fract_y
 _atom_site_fract_z
 _atom_site_occupancy
  Pm  Pm0  1  0.187158  0.432746  0.598467  1
  Pm  Pm1  1  0.812842  0.567254  0.401533  1
  Pm  Pm2  1  0.567254  0.812842  0.901533  1
  Pm  Pm3  1  0.432746  0.187158  0.098467  1
  Te  Te4  1  0.005428  0.299377  0.953422  1
  Te  Te5  1  0.994572  0.700623  0.046578  1
  Te  Te6  1  0.700623  0.994572  0.546578  1
  Te  Te7  1  0.299377  0.005428  0.453422  1
  Te  Te8  1  0.618230  0.381770  0.750000  1
  Te  Te9  1  0.381770  0.618230  0.250000  1
  O  O10  1  0.549823  0.473084  0.608404  1
  O  O11  1  0.450177  0.526916  0.391596  1
  O  O12  1  0.526916  0.450177  0.891596  1
  O  O13  1  0.473084  0.549823  0.108404  1
  O  O14  1  0.501105  0.091389  0.780170  1
  O  O15  1  0.498895  0.908611  0.219830  1
  O  O16  1  0.908611  0.498895  0.719830  1
  O  O17  1  0.091389  0.501105  0.280170  1
  O  O18  1  0.724077  0.137511  0.954726  1
  O  O19  1  0.275923  0.862489  0.045274  1
  O  O20  1  0.862489  0.275923  0.545274  1
  O  O21  1  0.137511  0.724077  0.454726  1
  O  O22  1  0.393652  0.826028  0.578034  1
  O  O23  1  0.606348  0.173972  0.421966  1
  O  O24  1  0.173972  0.606348  0.921966  1
  O  O25  1  0.826028  0.393652  0.078034  1
  O  O26  1  0.157891  0.300466  0.802916  1
  O  O27  1  0.842109  0.699534  0.197084  1
  O  O28  1  0.699534  0.842109  0.697084  1
  O  O29  1  0.300466  0.157891  0.302916  1
  O  O30  1  0.899324  0.832910  0.933666  1
  O  O31  1  0.100676  0.167090  0.066334  1
  O  O32  1  0.167090  0.100676  0.566334  1
  O  O33  1  0.832910  0.899324  0.433666  1
