# generated using pymatgen
data_Sm3Si6(Pd3Pt)5
_symmetry_space_group_name_H-M   'P 1'
_cell_length_a   8.76206833
_cell_length_b   8.77396119
_cell_length_c   8.78763800
_cell_angle_alpha   59.94842205
_cell_angle_beta   59.90341890
_cell_angle_gamma   59.93114777
_symmetry_Int_Tables_number   1
_chemical_formula_structural   Sm3Si6(Pd3Pt)5
_chemical_formula_sum   'Sm3 Si6 Pd15 Pt5'
_cell_volume   476.92071817
_cell_formula_units_Z   1
loop_
 _symmetry_equiv_pos_site_id
 _symmetry_equiv_pos_as_xyz
  1  'x, y, z'
loop_
 _atom_site_type_symbol
 _atom_site_label
 _atom_site_symmetry_multiplicity
 _atom_site_fract_x
 _atom_site_fract_y
 _atom_site_fract_z
 _atom_site_occupancy
  Sm  Sm0  1  0.250451  0.250348  0.249601  1
  Sm  Sm1  1  0.749341  0.750002  0.750329  1
  Sm  Sm2  1  0.000065  0.000006  0.999965  1
  Si  Si3  1  0.731103  0.268318  0.267071  1
  Si  Si4  1  0.269539  0.731133  0.731891  1
  Si  Si5  1  0.269539  0.731133  0.267438  1
  Si  Si6  1  0.731103  0.268318  0.733508  1
  Si  Si7  1  0.268410  0.267436  0.732077  1
  Si  Si8  1  0.730827  0.732315  0.268429  1
  Pd  Pd9  1  0.618796  0.151723  0.614741  1
  Pd  Pd10  1  0.849067  0.381205  0.384863  1
  Pd  Pd11  1  0.150008  0.617053  0.616470  1
  Pd  Pd12  1  0.345697  0.000536  0.999364  1
  Pd  Pd13  1  0.654035  0.000595  0.000025  1
  Pd  Pd14  1  0.999644  0.346586  0.654511  1
  Pd  Pd15  1  0.999697  0.654835  0.345639  1
  Pd  Pd16  1  0.999644  0.346586  0.999260  1
  Pd  Pd17  1  0.654035  0.000595  0.345345  1
  Pd  Pd18  1  0.999697  0.654835  0.999829  1
  Pd  Pd19  1  0.345697  0.000536  0.654403  1
  Pd  Pd20  1  0.999644  0.000795  0.345622  1
  Pd  Pd21  1  0.999644  0.000795  0.653940  1
  Pd  Pd22  1  0.654703  0.346375  0.999461  1
  Pd  Pd23  1  0.345558  0.655384  0.999529  1
  Pt  Pt24  1  0.383656  0.384296  0.387770  1
  Pt  Pt25  1  0.617599  0.613919  0.613292  1
  Pt  Pt26  1  0.383656  0.384296  0.844277  1
  Pt  Pt27  1  0.381546  0.846131  0.386161  1
  Pt  Pt28  1  0.617599  0.613919  0.155191  1
