# generated using pymatgen
data_Nb4CrFeCo6
_symmetry_space_group_name_H-M   'P 1'
_cell_length_a   4.82597300
_cell_length_b   4.82597393
_cell_length_c   7.68177800
_cell_angle_alpha   90.00000000
_cell_angle_beta   90.00000000
_cell_angle_gamma   120.00000049
_symmetry_Int_Tables_number   1
_chemical_formula_structural   Nb4CrFeCo6
_chemical_formula_sum   'Nb4 Cr1 Fe1 Co6'
_cell_volume   154.93953238
_cell_formula_units_Z   1
loop_
 _symmetry_equiv_pos_site_id
 _symmetry_equiv_pos_as_xyz
  1  'x, y, z'
loop_
 _atom_site_type_symbol
 _atom_site_label
 _atom_site_symmetry_multiplicity
 _atom_site_fract_x
 _atom_site_fract_y
 _atom_site_fract_z
 _atom_site_occupancy
  Nb  Nb0  1  0.333333  0.666667  0.439357  1
  Nb  Nb1  1  0.666667  0.333333  0.560643  1
  Nb  Nb2  1  0.666667  0.333333  0.933241  1
  Nb  Nb3  1  0.333333  0.666667  0.066759  1
  Cr  Cr4  1  0.000000  0.000000  0.500000  1
  Fe  Fe5  1  0.000000  0.000000  0.000000  1
  Co  Co6  1  0.830532  0.169468  0.250275  1
  Co  Co7  1  0.830532  0.661063  0.250275  1
  Co  Co8  1  0.338937  0.169468  0.250275  1
  Co  Co9  1  0.169468  0.830532  0.749725  1
  Co  Co10  1  0.169468  0.338937  0.749725  1
  Co  Co11  1  0.661063  0.830532  0.749725  1
