# generated using pymatgen
data_Yb2TiRh3
_symmetry_space_group_name_H-M   'P 1'
_cell_length_a   5.70154045
_cell_length_b   5.05251987
_cell_length_c   5.70154100
_cell_angle_alpha   55.65134426
_cell_angle_beta   60.00000261
_cell_angle_gamma   55.65134323
_symmetry_Int_Tables_number   1
_chemical_formula_structural   Yb2TiRh3
_chemical_formula_sum   'Yb2 Ti1 Rh3'
_cell_volume   107.90885798
_cell_formula_units_Z   1
loop_
 _symmetry_equiv_pos_site_id
 _symmetry_equiv_pos_as_xyz
  1  'x, y, z'
loop_
 _atom_site_type_symbol
 _atom_site_label
 _atom_site_symmetry_multiplicity
 _atom_site_fract_x
 _atom_site_fract_y
 _atom_site_fract_z
 _atom_site_occupancy
  Yb  Yb0  1  0.752269  0.743192  0.752269  1
  Yb  Yb1  1  0.497731  0.506808  0.497731  1
  Ti  Ti2  1  0.125000  0.625000  0.125000  1
  Rh  Rh3  1  0.125000  0.125000  0.625000  1
  Rh  Rh4  1  0.625000  0.125000  0.125000  1
  Rh  Rh5  1  0.125000  0.125000  0.125000  1
