# generated using pymatgen
data_Li8Np3SnBr24
_symmetry_space_group_name_H-M   'P 1'
_cell_length_a   6.93444600
_cell_length_b   6.93444566
_cell_length_c   27.39395200
_cell_angle_alpha   90.00000000
_cell_angle_beta   90.00000000
_cell_angle_gamma   120.00000164
_symmetry_Int_Tables_number   1
_chemical_formula_structural   Li8Np3SnBr24
_chemical_formula_sum   'Li8 Np3 Sn1 Br24'
_cell_volume   1140.79821915
_cell_formula_units_Z   1
loop_
 _symmetry_equiv_pos_site_id
 _symmetry_equiv_pos_as_xyz
  1  'x, y, z'
loop_
 _atom_site_type_symbol
 _atom_site_label
 _atom_site_symmetry_multiplicity
 _atom_site_fract_x
 _atom_site_fract_y
 _atom_site_fract_z
 _atom_site_occupancy
  Li  Li0  1  0.000000  0.000000  0.250113  1
  Li  Li1  1  0.000000  0.000000  0.749887  1
  Li  Li2  1  0.333333  0.666667  0.000570  1
  Li  Li3  1  0.333333  0.666667  0.499375  1
  Li  Li4  1  0.333333  0.666667  0.250126  1
  Li  Li5  1  0.666667  0.333333  0.749874  1
  Li  Li6  1  0.666667  0.333333  0.999430  1
  Li  Li7  1  0.666667  0.333333  0.500625  1
  Np  Np8  1  0.000000  0.000000  0.500000  1
  Np  Np9  1  0.333333  0.666667  0.749849  1
  Np  Np10  1  0.666667  0.333333  0.250151  1
  Sn  Sn11  1  0.000000  0.000000  0.000000  1
  Br  Br12  1  0.334221  0.000737  0.306605  1
  Br  Br13  1  0.333637  0.999280  0.806369  1
  Br  Br14  1  0.999775  0.317151  0.054655  1
  Br  Br15  1  0.999951  0.332396  0.556488  1
  Br  Br16  1  0.999263  0.333485  0.306605  1
  Br  Br17  1  0.000720  0.334356  0.806369  1
  Br  Br18  1  0.334356  0.333637  0.193631  1
  Br  Br19  1  0.333485  0.334221  0.693395  1
  Br  Br20  1  0.332396  0.332446  0.443512  1
  Br  Br21  1  0.317151  0.317376  0.945345  1
  Br  Br22  1  0.667554  0.999951  0.443512  1
  Br  Br23  1  0.317376  0.000225  0.054655  1
  Br  Br24  1  0.332446  0.000049  0.556488  1
  Br  Br25  1  0.682849  0.682624  0.054655  1
  Br  Br26  1  0.667604  0.667554  0.556488  1
  Br  Br27  1  0.666515  0.665779  0.306605  1
  Br  Br28  1  0.665644  0.666363  0.806369  1
  Br  Br29  1  0.999280  0.665644  0.193631  1
  Br  Br30  1  0.000737  0.666515  0.693395  1
  Br  Br31  1  0.000049  0.667604  0.443512  1
  Br  Br32  1  0.000225  0.682849  0.945345  1
  Br  Br33  1  0.682624  0.999775  0.945345  1
  Br  Br34  1  0.666363  0.000720  0.193631  1
  Br  Br35  1  0.665779  0.999263  0.693395  1
