# generated using pymatgen
data_Er9Lu(In2Ir)4
_symmetry_space_group_name_H-M   'P 1'
_cell_length_a   3.65133400
_cell_length_b   8.03727776
_cell_length_c   18.33348800
_cell_angle_alpha   90.37348522
_cell_angle_beta   90.00000000
_cell_angle_gamma   90.00000000
_symmetry_Int_Tables_number   1
_chemical_formula_structural   Er9Lu(In2Ir)4
_chemical_formula_sum   'Er9 Lu1 In8 Ir4'
_cell_volume   538.01750980
_cell_formula_units_Z   1
loop_
 _symmetry_equiv_pos_site_id
 _symmetry_equiv_pos_as_xyz
  1  'x, y, z'
loop_
 _atom_site_type_symbol
 _atom_site_label
 _atom_site_symmetry_multiplicity
 _atom_site_fract_x
 _atom_site_fract_y
 _atom_site_fract_z
 _atom_site_occupancy
  Er  Er0  1  0.500000  0.756363  0.222651  1
  Er  Er1  1  0.500000  0.257040  0.277381  1
  Er  Er2  1  0.500000  0.745112  0.723155  1
  Er  Er3  1  0.500000  0.115414  0.590680  1
  Er  Er4  1  0.500000  0.887977  0.409717  1
  Er  Er5  1  0.500000  0.384960  0.090252  1
  Er  Er6  1  0.500000  0.610849  0.908511  1
  Er  Er7  1  0.500000  0.997642  0.000153  1
  Er  Er8  1  0.500000  0.501853  0.499998  1
  Lu  Lu9  1  0.500000  0.242518  0.776816  1
  In  In10  1  0.000000  0.070732  0.149007  1
  In  In11  1  0.000000  0.930058  0.851319  1
  In  In12  1  0.000000  0.429217  0.648575  1
  In  In13  1  0.000000  0.572713  0.351196  1
  In  In14  1  0.000000  0.209007  0.432863  1
  In  In15  1  0.000000  0.794144  0.567882  1
  In  In16  1  0.000000  0.289771  0.932526  1
  In  In17  1  0.000000  0.705739  0.066974  1
  Ir  Ir18  1  0.000000  0.021829  0.696946  1
  Ir  Ir19  1  0.000000  0.982963  0.304073  1
  Ir  Ir20  1  0.000000  0.481815  0.196091  1
  Ir  Ir21  1  0.000000  0.512285  0.803234  1
