# generated using pymatgen
data_Hf4Ta4ZnP3
_symmetry_space_group_name_H-M   'P 1'
_cell_length_a   3.53467900
_cell_length_b   6.94147562
_cell_length_c   8.42379816
_cell_angle_alpha   89.27681306
_cell_angle_beta   90.00000000
_cell_angle_gamma   90.00000000
_symmetry_Int_Tables_number   1
_chemical_formula_structural   Hf4Ta4ZnP3
_chemical_formula_sum   'Hf4 Ta4 Zn1 P3'
_cell_volume   206.66890510
_cell_formula_units_Z   1
loop_
 _symmetry_equiv_pos_site_id
 _symmetry_equiv_pos_as_xyz
  1  'x, y, z'
loop_
 _atom_site_type_symbol
 _atom_site_label
 _atom_site_symmetry_multiplicity
 _atom_site_fract_x
 _atom_site_fract_y
 _atom_site_fract_z
 _atom_site_occupancy
  Hf  Hf0  1  0.250000  0.037995  0.669428  1
  Hf  Hf1  1  0.250000  0.531562  0.829014  1
  Hf  Hf2  1  0.750000  0.468753  0.159205  1
  Hf  Hf3  1  0.750000  0.957615  0.332824  1
  Ta  Ta4  1  0.750000  0.855651  0.940376  1
  Ta  Ta5  1  0.250000  0.642048  0.443613  1
  Ta  Ta6  1  0.750000  0.369675  0.568551  1
  Ta  Ta7  1  0.250000  0.134405  0.053820  1
  Zn  Zn8  1  0.250000  0.258617  0.355218  1
  P  P9  1  0.250000  0.763519  0.148877  1
  P  P10  1  0.750000  0.745018  0.643373  1
  P  P11  1  0.750000  0.235143  0.855702  1
