# generated using pymatgen
data_Eu6HoPuSb6
_symmetry_space_group_name_H-M   'P 1'
_cell_length_a   8.26684335
_cell_length_b   8.26331212
_cell_length_c   8.35101900
_cell_angle_alpha   109.55216548
_cell_angle_beta   109.56061074
_cell_angle_gamma   109.05525897
_symmetry_Int_Tables_number   1
_chemical_formula_structural   Eu6HoPuSb6
_chemical_formula_sum   'Eu6 Ho1 Pu1 Sb6'
_cell_volume   440.46631005
_cell_formula_units_Z   1
loop_
 _symmetry_equiv_pos_site_id
 _symmetry_equiv_pos_as_xyz
  1  'x, y, z'
loop_
 _atom_site_type_symbol
 _atom_site_label
 _atom_site_symmetry_multiplicity
 _atom_site_fract_x
 _atom_site_fract_y
 _atom_site_fract_z
 _atom_site_occupancy
  Eu  Eu0  1  0.500989  0.999789  0.356210  1
  Eu  Eu1  1  0.503858  0.000490  0.858230  1
  Eu  Eu2  1  0.642961  0.642991  0.646384  1
  Eu  Eu3  1  0.998692  0.357319  0.499059  1
  Eu  Eu4  1  0.144644  0.145612  0.145295  1
  Eu  Eu5  1  0.854907  0.495270  0.994964  1
  Ho  Ho6  1  0.000009  0.857385  0.498609  1
  Pu  Pu7  1  0.350863  0.500408  0.999184  1
  Sb  Sb8  1  0.126687  0.751211  0.870613  1
  Sb  Sb9  1  0.883781  0.120201  0.745080  1
  Sb  Sb10  1  0.628337  0.388834  0.251313  1
  Sb  Sb11  1  0.366290  0.243159  0.628857  1
  Sb  Sb12  1  0.751622  0.868516  0.132249  1
  Sb  Sb13  1  0.246358  0.628813  0.373954  1
