# generated using pymatgen
data_Tm2Al8GaIr3
_symmetry_space_group_name_H-M   'P 1'
_cell_length_a   7.51704201
_cell_length_b   7.51704580
_cell_length_c   9.46154600
_cell_angle_alpha   90.00000000
_cell_angle_beta   90.00000000
_cell_angle_gamma   119.31381024
_symmetry_Int_Tables_number   1
_chemical_formula_structural   Tm2Al8GaIr3
_chemical_formula_sum   'Tm4 Al16 Ga2 Ir6'
_cell_volume   466.17448877
_cell_formula_units_Z   2
loop_
 _symmetry_equiv_pos_site_id
 _symmetry_equiv_pos_as_xyz
  1  'x, y, z'
loop_
 _atom_site_type_symbol
 _atom_site_label
 _atom_site_symmetry_multiplicity
 _atom_site_fract_x
 _atom_site_fract_y
 _atom_site_fract_z
 _atom_site_occupancy
  Tm  Tm0  1  0.994917  0.677038  0.250000  1
  Tm  Tm1  1  0.005083  0.322962  0.750000  1
  Tm  Tm2  1  0.677038  0.994917  0.250000  1
  Tm  Tm3  1  0.322962  0.005083  0.750000  1
  Al  Al4  1  0.001462  0.336555  0.074478  1
  Al  Al5  1  0.998538  0.663445  0.925522  1
  Al  Al6  1  0.998538  0.663445  0.574478  1
  Al  Al7  1  0.336555  0.001462  0.425522  1
  Al  Al8  1  0.001462  0.336555  0.425522  1
  Al  Al9  1  0.663445  0.998538  0.574478  1
  Al  Al10  1  0.663445  0.998538  0.925522  1
  Al  Al11  1  0.336555  0.001462  0.074478  1
  Al  Al12  1  0.333673  0.333673  0.555058  1
  Al  Al13  1  0.666327  0.666327  0.444942  1
  Al  Al14  1  0.666327  0.666327  0.055058  1
  Al  Al15  1  0.333673  0.333673  0.944942  1
  Al  Al16  1  0.338962  0.552022  0.250000  1
  Al  Al17  1  0.661038  0.447978  0.750000  1
  Al  Al18  1  0.552022  0.338962  0.250000  1
  Al  Al19  1  0.447978  0.661038  0.750000  1
  Ga  Ga20  1  0.136677  0.136677  0.250000  1
  Ga  Ga21  1  0.863323  0.863323  0.750000  1
  Ir  Ir22  1  0.672116  0.327884  0.000000  1
  Ir  Ir23  1  0.327884  0.672116  0.000000  1
  Ir  Ir24  1  0.327884  0.672116  0.500000  1
  Ir  Ir25  1  0.672116  0.327884  0.500000  1
  Ir  Ir26  1  0.000000  0.000000  0.000000  1
  Ir  Ir27  1  0.000000  0.000000  0.500000  1
