# generated using pymatgen
data_La5TbYbOsBr12
_symmetry_space_group_name_H-M   'P 1'
_cell_length_a   9.72869233
_cell_length_b   9.66995019
_cell_length_c   9.63515409
_cell_angle_alpha   107.67288621
_cell_angle_beta   107.69346079
_cell_angle_gamma   106.11442030
_symmetry_Int_Tables_number   1
_chemical_formula_structural   La5TbYbOsBr12
_chemical_formula_sum   'La5 Tb1 Yb1 Os1 Br12'
_cell_volume   751.42008962
_cell_formula_units_Z   1
loop_
 _symmetry_equiv_pos_site_id
 _symmetry_equiv_pos_as_xyz
  1  'x, y, z'
loop_
 _atom_site_type_symbol
 _atom_site_label
 _atom_site_symmetry_multiplicity
 _atom_site_fract_x
 _atom_site_fract_y
 _atom_site_fract_z
 _atom_site_occupancy
  La  La0  1  0.021461  0.310408  0.109939  1
  La  La1  1  0.114753  0.028109  0.314887  1
  La  La2  1  0.891397  0.973685  0.688143  1
  La  La3  1  0.976924  0.690094  0.890651  1
  La  La4  1  0.672965  0.887342  0.973489  1
  Tb  Tb5  1  0.313270  0.109735  0.027843  1
  Yb  Yb6  1  0.501036  0.498715  0.496845  1
  Os  Os7  1  0.999625  0.000428  0.001740  1
  Br  Br8  1  0.671185  0.214555  0.066634  1
  Br  Br9  1  0.376647  0.447346  0.163809  1
  Br  Br10  1  0.071174  0.681712  0.217608  1
  Br  Br11  1  0.789581  0.934016  0.320712  1
  Br  Br12  1  0.464361  0.171326  0.369787  1
  Br  Br13  1  0.179652  0.384588  0.467543  1
  Br  Br14  1  0.823752  0.616569  0.533267  1
  Br  Br15  1  0.536035  0.825118  0.615697  1
  Br  Br16  1  0.222759  0.070898  0.696222  1
  Br  Br17  1  0.930290  0.318738  0.783227  1
  Br  Br18  1  0.622355  0.539139  0.825804  1
  Br  Br19  1  0.320783  0.797485  0.936157  1
