# generated using pymatgen
data_KRb3GeS4
_symmetry_space_group_name_H-M   'P 1'
_cell_length_a   8.17501500
_cell_length_b   9.75765400
_cell_length_c   14.49482900
_cell_angle_alpha   90.00000000
_cell_angle_beta   90.00000000
_cell_angle_gamma   90.00000000
_symmetry_Int_Tables_number   1
_chemical_formula_structural   KRb3GeS4
_chemical_formula_sum   'K4 Rb12 Ge4 S16'
_cell_volume   1156.23754798
_cell_formula_units_Z   4
loop_
 _symmetry_equiv_pos_site_id
 _symmetry_equiv_pos_as_xyz
  1  'x, y, z'
loop_
 _atom_site_type_symbol
 _atom_site_label
 _atom_site_symmetry_multiplicity
 _atom_site_fract_x
 _atom_site_fract_y
 _atom_site_fract_z
 _atom_site_occupancy
  K  K0  1  0.159500  0.951832  0.726322  1
  K  K1  1  0.659500  0.048168  0.773678  1
  K  K2  1  0.840500  0.451832  0.273678  1
  K  K3  1  0.340500  0.548168  0.226322  1
  Rb  Rb4  1  0.000478  0.997581  0.997708  1
  Rb  Rb5  1  0.500478  0.002419  0.502292  1
  Rb  Rb6  1  0.999522  0.497581  0.002292  1
  Rb  Rb7  1  0.499522  0.502419  0.497708  1
  Rb  Rb8  1  0.994735  0.753073  0.424423  1
  Rb  Rb9  1  0.494735  0.246927  0.075577  1
  Rb  Rb10  1  0.005265  0.253073  0.575577  1
  Rb  Rb11  1  0.505265  0.746927  0.924423  1
  Rb  Rb12  1  0.831267  0.055369  0.278231  1
  Rb  Rb13  1  0.331267  0.944631  0.221769  1
  Rb  Rb14  1  0.168733  0.555369  0.721769  1
  Rb  Rb15  1  0.668733  0.444631  0.778231  1
  Ge  Ge16  1  0.763787  0.754224  0.667082  1
  Ge  Ge17  1  0.236213  0.254224  0.332918  1
  Ge  Ge18  1  0.736213  0.745776  0.167082  1
  Ge  Ge19  1  0.263787  0.245776  0.832918  1
  S  S20  1  0.987112  0.243473  0.824023  1
  S  S21  1  0.512888  0.256527  0.324023  1
  S  S22  1  0.487112  0.756527  0.675977  1
  S  S23  1  0.012888  0.743473  0.175977  1
  S  S24  1  0.645968  0.558232  0.095133  1
  S  S25  1  0.145968  0.441768  0.404867  1
  S  S26  1  0.354032  0.058232  0.904867  1
  S  S27  1  0.854032  0.941768  0.595133  1
  S  S28  1  0.347174  0.432703  0.907944  1
  S  S29  1  0.847174  0.567297  0.592056  1
  S  S30  1  0.652826  0.932703  0.092056  1
  S  S31  1  0.152826  0.067297  0.407944  1
  S  S32  1  0.632780  0.744201  0.312709  1
  S  S33  1  0.132780  0.255799  0.187291  1
  S  S34  1  0.367220  0.244201  0.687291  1
  S  S35  1  0.867220  0.755799  0.812709  1
