# generated using pymatgen
data_Ac2Al7Rh
_symmetry_space_group_name_H-M   'P 1'
_cell_length_a   6.32587678
_cell_length_b   6.32590939
_cell_length_c   11.83104500
_cell_angle_alpha   74.49373774
_cell_angle_beta   74.49381558
_cell_angle_gamma   90.00000314
_symmetry_Int_Tables_number   1
_chemical_formula_structural   Ac2Al7Rh
_chemical_formula_sum   'Ac4 Al14 Rh2'
_cell_volume   438.29977324
_cell_formula_units_Z   2
loop_
 _symmetry_equiv_pos_site_id
 _symmetry_equiv_pos_as_xyz
  1  'x, y, z'
loop_
 _atom_site_type_symbol
 _atom_site_label
 _atom_site_symmetry_multiplicity
 _atom_site_fract_x
 _atom_site_fract_y
 _atom_site_fract_z
 _atom_site_occupancy
  Ac  Ac0  1  0.995770  0.995642  0.008461  1
  Ac  Ac1  1  0.498419  0.498986  0.003161  1
  Ac  Ac2  1  0.748593  0.248568  0.502815  1
  Ac  Ac3  1  0.245816  0.745827  0.508369  1
  Al  Al4  1  0.200992  0.201022  0.598017  1
  Al  Al5  1  0.813481  0.813361  0.373037  1
  Al  Al6  1  0.604471  0.131186  0.253694  1
  Al  Al7  1  0.141678  0.615101  0.253709  1
  Al  Al8  1  0.604612  0.615101  0.253709  1
  Al  Al9  1  0.141834  0.131186  0.253694  1
  Al  Al10  1  0.865251  0.354394  0.753739  1
  Al  Al11  1  0.381272  0.891672  0.753690  1
  Al  Al12  1  0.865039  0.891672  0.753690  1
  Al  Al13  1  0.381010  0.354394  0.753739  1
  Al  Al14  1  0.691683  0.691841  0.616633  1
  Al  Al15  1  0.063488  0.563378  0.873024  1
  Al  Al16  1  0.450951  0.951019  0.098097  1
  Al  Al17  1  0.941678  0.441818  0.116642  1
  Rh  Rh18  1  0.314530  0.314498  0.370940  1
  Rh  Rh19  1  0.564264  0.064164  0.871474  1
