# generated using pymatgen
data_Ho16Er4Si15As
_symmetry_space_group_name_H-M   'P 1'
_cell_length_a   7.45960916
_cell_length_b   7.61655590
_cell_length_c   14.54125793
_cell_angle_alpha   89.89066806
_cell_angle_beta   86.34171002
_cell_angle_gamma   90.06170151
_symmetry_Int_Tables_number   1
_chemical_formula_structural   Ho16Er4Si15As
_chemical_formula_sum   'Ho16 Er4 Si15 As1'
_cell_volume   824.49823528
_cell_formula_units_Z   1
loop_
 _symmetry_equiv_pos_site_id
 _symmetry_equiv_pos_as_xyz
  1  'x, y, z'
loop_
 _atom_site_type_symbol
 _atom_site_label
 _atom_site_symmetry_multiplicity
 _atom_site_fract_x
 _atom_site_fract_y
 _atom_site_fract_z
 _atom_site_occupancy
  Ho  Ho0  1  0.998573  0.822247  0.099348  1
  Ho  Ho1  1  0.470400  0.685130  0.398110  1
  Ho  Ho2  1  0.498262  0.318146  0.900985  1
  Ho  Ho3  1  0.029877  0.185739  0.602040  1
  Ho  Ho4  1  0.004871  0.179648  0.901485  1
  Ho  Ho5  1  0.529210  0.314563  0.601549  1
  Ho  Ho6  1  0.495466  0.683721  0.099651  1
  Ho  Ho7  1  0.969733  0.813273  0.398103  1
  Ho  Ho8  1  0.650411  0.835374  0.878587  1
  Ho  Ho9  1  0.178948  0.676347  0.622287  1
  Ho  Ho10  1  0.850109  0.333019  0.119398  1
  Ho  Ho11  1  0.321109  0.176034  0.377983  1
  Ho  Ho12  1  0.349038  0.166582  0.121462  1
  Ho  Ho13  1  0.821915  0.322946  0.377990  1
  Ho  Ho14  1  0.152121  0.667071  0.880692  1
  Ho  Ho15  1  0.678876  0.823820  0.622375  1
  Er  Er16  1  0.664265  0.993480  0.245690  1
  Er  Er17  1  0.163569  0.505537  0.244996  1
  Er  Er18  1  0.836543  0.494327  0.751882  1
  Er  Er19  1  0.335183  0.006355  0.753873  1
  Si  Si20  1  0.780101  0.628859  0.250910  1
  Si  Si21  1  0.279404  0.869753  0.251854  1
  Si  Si22  1  0.719391  0.131334  0.748677  1
  Si  Si23  1  0.218934  0.370478  0.749234  1
  Si  Si24  1  0.036594  0.107915  0.252453  1
  Si  Si25  1  0.538138  0.391735  0.251958  1
  Si  Si26  1  0.462777  0.607802  0.748915  1
  Si  Si27  1  0.963098  0.891526  0.748343  1
  Si  Si28  1  0.357347  0.972331  0.543056  1
  Si  Si29  1  0.697182  0.035454  0.041831  1
  Si  Si30  1  0.144042  0.471652  0.457690  1
  Si  Si31  1  0.204772  0.464421  0.042767  1
  Si  Si32  1  0.643297  0.026790  0.456928  1
  Si  Si33  1  0.304196  0.964619  0.957729  1
  Si  Si34  1  0.856553  0.527441  0.542626  1
  As  As35  1  0.795698  0.534530  0.956542  1
