# generated using pymatgen
data_Ac(Ni2B)6
_symmetry_space_group_name_H-M   'P 1'
_cell_length_a   6.08076861
_cell_length_b   6.08076753
_cell_length_c   6.08076958
_cell_angle_alpha   104.32353420
_cell_angle_beta   104.32353266
_cell_angle_gamma   104.32352497
_symmetry_Int_Tables_number   1
_chemical_formula_structural   Ac(Ni2B)6
_chemical_formula_sum   'Ac1 Ni12 B6'
_cell_volume   199.34915227
_cell_formula_units_Z   1
loop_
 _symmetry_equiv_pos_site_id
 _symmetry_equiv_pos_as_xyz
  1  'x, y, z'
loop_
 _atom_site_type_symbol
 _atom_site_label
 _atom_site_symmetry_multiplicity
 _atom_site_fract_x
 _atom_site_fract_y
 _atom_site_fract_z
 _atom_site_occupancy
  Ac  Ac0  1  0.000000  0.000000  0.000000  1
  Ni  Ni1  1  0.500000  0.868143  0.131857  1
  Ni  Ni2  1  0.462666  0.462666  0.188842  1
  Ni  Ni3  1  0.188842  0.462666  0.462666  1
  Ni  Ni4  1  0.537334  0.811158  0.537334  1
  Ni  Ni5  1  0.811158  0.537334  0.537334  1
  Ni  Ni6  1  0.537334  0.537334  0.811158  1
  Ni  Ni7  1  0.131857  0.500000  0.868143  1
  Ni  Ni8  1  0.868143  0.131857  0.500000  1
  Ni  Ni9  1  0.500000  0.131857  0.868143  1
  Ni  Ni10  1  0.868143  0.500000  0.131857  1
  Ni  Ni11  1  0.131857  0.868143  0.500000  1
  Ni  Ni12  1  0.462666  0.188842  0.462666  1
  B  B13  1  0.769151  0.769151  0.345539  1
  B  B14  1  0.345539  0.769151  0.769151  1
  B  B15  1  0.769151  0.345539  0.769151  1
  B  B16  1  0.654461  0.230849  0.230849  1
  B  B17  1  0.230849  0.230849  0.654461  1
  B  B18  1  0.230849  0.654461  0.230849  1
