# generated using pymatgen
data_Tm8Hf2Ir5Rh
_symmetry_space_group_name_H-M   'P 1'
_cell_length_a   10.71148100
_cell_length_b   10.71148100
_cell_length_c   6.19827700
_cell_angle_alpha   90.00000000
_cell_angle_beta   90.00000000
_cell_angle_gamma   90.00000000
_symmetry_Int_Tables_number   1
_chemical_formula_structural   Tm8Hf2Ir5Rh
_chemical_formula_sum   'Tm16 Hf4 Ir10 Rh2'
_cell_volume   711.16442650
_cell_formula_units_Z   2
loop_
 _symmetry_equiv_pos_site_id
 _symmetry_equiv_pos_as_xyz
  1  'x, y, z'
loop_
 _atom_site_type_symbol
 _atom_site_label
 _atom_site_symmetry_multiplicity
 _atom_site_fract_x
 _atom_site_fract_y
 _atom_site_fract_z
 _atom_site_occupancy
  Tm  Tm0  1  0.289157  0.086136  0.373973  1
  Tm  Tm1  1  0.289157  0.913864  0.873973  1
  Tm  Tm2  1  0.710843  0.086136  0.873973  1
  Tm  Tm3  1  0.710843  0.913864  0.373973  1
  Tm  Tm4  1  0.586136  0.789157  0.873973  1
  Tm  Tm5  1  0.586136  0.210843  0.373973  1
  Tm  Tm6  1  0.413864  0.789157  0.373973  1
  Tm  Tm7  1  0.413864  0.210843  0.873973  1
  Tm  Tm8  1  0.210080  0.413820  0.625950  1
  Tm  Tm9  1  0.210080  0.586180  0.125950  1
  Tm  Tm10  1  0.789920  0.413820  0.125950  1
  Tm  Tm11  1  0.789920  0.586180  0.625950  1
  Tm  Tm12  1  0.913820  0.710080  0.125950  1
  Tm  Tm13  1  0.913820  0.289920  0.625950  1
  Tm  Tm14  1  0.086180  0.710080  0.625950  1
  Tm  Tm15  1  0.086180  0.289920  0.125950  1
  Hf  Hf16  1  0.000000  0.000000  0.500025  1
  Hf  Hf17  1  0.000000  0.000000  0.000025  1
  Hf  Hf18  1  0.500000  0.500000  0.000025  1
  Hf  Hf19  1  0.500000  0.500000  0.500025  1
  Ir  Ir20  1  0.854189  0.144610  0.249793  1
  Ir  Ir21  1  0.854189  0.855390  0.749793  1
  Ir  Ir22  1  0.145811  0.144610  0.749793  1
  Ir  Ir23  1  0.145811  0.855390  0.249793  1
  Ir  Ir24  1  0.644610  0.354189  0.749793  1
  Ir  Ir25  1  0.644610  0.645811  0.249793  1
  Ir  Ir26  1  0.355390  0.354189  0.249793  1
  Ir  Ir27  1  0.355390  0.645811  0.749793  1
  Ir  Ir28  1  0.000000  0.500000  0.879106  1
  Ir  Ir29  1  0.000000  0.500000  0.379106  1
  Rh  Rh30  1  0.500000  0.000000  0.121977  1
  Rh  Rh31  1  0.500000  0.000000  0.621977  1
