# generated using pymatgen
data_TbHo2Ga5Co
_symmetry_space_group_name_H-M   'P 1'
_cell_length_a   6.88522900
_cell_length_b   6.90974636
_cell_length_c   4.22190300
_cell_angle_alpha   90.00000000
_cell_angle_beta   90.00000000
_cell_angle_gamma   119.88269000
_symmetry_Int_Tables_number   1
_chemical_formula_structural   TbHo2Ga5Co
_chemical_formula_sum   'Tb1 Ho2 Ga5 Co1'
_cell_volume   174.15323320
_cell_formula_units_Z   1
loop_
 _symmetry_equiv_pos_site_id
 _symmetry_equiv_pos_as_xyz
  1  'x, y, z'
loop_
 _atom_site_type_symbol
 _atom_site_label
 _atom_site_symmetry_multiplicity
 _atom_site_fract_x
 _atom_site_fract_y
 _atom_site_fract_z
 _atom_site_occupancy
  Tb  Tb0  1  0.598376  0.000000  0.500000  1
  Ho  Ho1  1  0.398726  0.399274  0.500000  1
  Ho  Ho2  1  0.999452  0.600726  0.500000  1
  Ga  Ga3  1  0.231585  0.000000  0.000000  1
  Ga  Ga4  1  0.999632  0.230667  0.000000  1
  Ga  Ga5  1  0.667733  0.335801  0.000000  1
  Ga  Ga6  1  0.331930  0.664199  0.000000  1
  Ga  Ga7  1  0.768965  0.769333  0.000000  1
  Co  Co8  1  0.003601  0.000000  0.500000  1
