# generated using pymatgen
data_NaMnSb12OsRu2
_symmetry_space_group_name_H-M   'P 1'
_cell_length_a   8.16936044
_cell_length_b   8.15855816
_cell_length_c   8.17241068
_cell_angle_alpha   109.41126074
_cell_angle_beta   109.49377081
_cell_angle_gamma   109.42334559
_symmetry_Int_Tables_number   1
_chemical_formula_structural   NaMnSb12OsRu2
_chemical_formula_sum   'Na1 Mn1 Sb12 Os1 Ru2'
_cell_volume   419.74529192
_cell_formula_units_Z   1
loop_
 _symmetry_equiv_pos_site_id
 _symmetry_equiv_pos_as_xyz
  1  'x, y, z'
loop_
 _atom_site_type_symbol
 _atom_site_label
 _atom_site_symmetry_multiplicity
 _atom_site_fract_x
 _atom_site_fract_y
 _atom_site_fract_z
 _atom_site_occupancy
  Na  Na0  1  0.000000  0.000000  0.000000  1
  Mn  Mn1  1  0.000000  0.500000  0.000000  1
  Sb  Sb2  1  0.661381  0.842254  0.504402  1
  Sb  Sb3  1  0.338619  0.157746  0.495598  1
  Sb  Sb4  1  0.841874  0.180864  0.337434  1
  Sb  Sb5  1  0.813746  0.660749  0.157570  1
  Sb  Sb6  1  0.841577  0.503366  0.656155  1
  Sb  Sb7  1  0.186254  0.339251  0.842430  1
  Sb  Sb8  1  0.158126  0.819136  0.662566  1
  Sb  Sb9  1  0.504078  0.661837  0.841937  1
  Sb  Sb10  1  0.495922  0.338163  0.158063  1
  Sb  Sb11  1  0.158423  0.496634  0.343845  1
  Sb  Sb12  1  0.343924  0.847081  0.185656  1
  Sb  Sb13  1  0.656076  0.152919  0.814344  1
  Os  Os14  1  0.000000  0.000000  0.500000  1
  Ru  Ru15  1  0.500000  0.500000  0.500000  1
  Ru  Ru16  1  0.500000  0.000000  0.000000  1
