# generated using pymatgen
data_Tb8Er2IrPt5
_symmetry_space_group_name_H-M   'P 1'
_cell_length_a   11.06073600
_cell_length_b   11.06073600
_cell_length_c   6.42663700
_cell_angle_alpha   90.00000000
_cell_angle_beta   90.00000000
_cell_angle_gamma   90.00000000
_symmetry_Int_Tables_number   1
_chemical_formula_structural   Tb8Er2IrPt5
_chemical_formula_sum   'Tb16 Er4 Ir2 Pt10'
_cell_volume   786.23400492
_cell_formula_units_Z   2
loop_
 _symmetry_equiv_pos_site_id
 _symmetry_equiv_pos_as_xyz
  1  'x, y, z'
loop_
 _atom_site_type_symbol
 _atom_site_label
 _atom_site_symmetry_multiplicity
 _atom_site_fract_x
 _atom_site_fract_y
 _atom_site_fract_z
 _atom_site_occupancy
  Tb  Tb0  1  0.291614  0.088006  0.376624  1
  Tb  Tb1  1  0.291614  0.911994  0.876624  1
  Tb  Tb2  1  0.708386  0.088006  0.876624  1
  Tb  Tb3  1  0.708386  0.911994  0.376624  1
  Tb  Tb4  1  0.588006  0.791614  0.876624  1
  Tb  Tb5  1  0.588006  0.208386  0.376624  1
  Tb  Tb6  1  0.411994  0.791614  0.376624  1
  Tb  Tb7  1  0.411994  0.208386  0.876624  1
  Tb  Tb8  1  0.206157  0.412766  0.623808  1
  Tb  Tb9  1  0.206157  0.587234  0.123808  1
  Tb  Tb10  1  0.793843  0.412766  0.123808  1
  Tb  Tb11  1  0.793843  0.587234  0.623808  1
  Tb  Tb12  1  0.912766  0.706157  0.123808  1
  Tb  Tb13  1  0.912766  0.293843  0.623808  1
  Tb  Tb14  1  0.087234  0.706157  0.623808  1
  Tb  Tb15  1  0.087234  0.293843  0.123808  1
  Er  Er16  1  0.000000  0.000000  0.500458  1
  Er  Er17  1  0.000000  0.000000  0.000458  1
  Er  Er18  1  0.500000  0.500000  0.000458  1
  Er  Er19  1  0.500000  0.500000  0.500458  1
  Ir  Ir20  1  0.000000  0.500000  0.880011  1
  Ir  Ir21  1  0.000000  0.500000  0.380011  1
  Pt  Pt22  1  0.846547  0.152322  0.249943  1
  Pt  Pt23  1  0.846547  0.847678  0.749943  1
  Pt  Pt24  1  0.153453  0.152322  0.749943  1
  Pt  Pt25  1  0.153453  0.847678  0.249943  1
  Pt  Pt26  1  0.652322  0.346547  0.749943  1
  Pt  Pt27  1  0.652322  0.653453  0.249943  1
  Pt  Pt28  1  0.347678  0.346547  0.249943  1
  Pt  Pt29  1  0.347678  0.653453  0.749943  1
  Pt  Pt30  1  0.500000  0.000000  0.117567  1
  Pt  Pt31  1  0.500000  0.000000  0.617567  1
