# generated using pymatgen
data_Ce4Mg2AlInIr4
_symmetry_space_group_name_H-M   'P 1'
_cell_length_a   7.06066391
_cell_length_b   4.25358800
_cell_length_c   8.45796897
_cell_angle_alpha   90.00000000
_cell_angle_beta   89.46332931
_cell_angle_gamma   90.00000000
_symmetry_Int_Tables_number   1
_chemical_formula_structural   Ce4Mg2AlInIr4
_chemical_formula_sum   'Ce4 Mg2 Al1 In1 Ir4'
_cell_volume   254.00835244
_cell_formula_units_Z   1
loop_
 _symmetry_equiv_pos_site_id
 _symmetry_equiv_pos_as_xyz
  1  'x, y, z'
loop_
 _atom_site_type_symbol
 _atom_site_label
 _atom_site_symmetry_multiplicity
 _atom_site_fract_x
 _atom_site_fract_y
 _atom_site_fract_z
 _atom_site_occupancy
  Ce  Ce0  1  0.956513  0.250000  0.178785  1
  Ce  Ce1  1  0.464817  0.250000  0.313362  1
  Ce  Ce2  1  0.039123  0.750000  0.823052  1
  Ce  Ce3  1  0.535321  0.750000  0.683740  1
  Mg  Mg4  1  0.368736  0.250000  0.943132  1
  Mg  Mg5  1  0.133960  0.750000  0.440012  1
  Al  Al6  1  0.634059  0.750000  0.056367  1
  In  In7  1  0.861567  0.250000  0.560568  1
  Ir  Ir8  1  0.752521  0.250000  0.890957  1
  Ir  Ir9  1  0.258817  0.250000  0.629735  1
  Ir  Ir10  1  0.255245  0.750000  0.124559  1
  Ir  Ir11  1  0.739321  0.750000  0.355730  1
