# generated using pymatgen
data_Lu2Tc5(PRh)7
_symmetry_space_group_name_H-M   'P 1'
_cell_length_a   3.92445900
_cell_length_b   9.43854961
_cell_length_c   9.46124259
_cell_angle_alpha   119.59152397
_cell_angle_beta   89.99974531
_cell_angle_gamma   90.00144377
_symmetry_Int_Tables_number   1
_chemical_formula_structural   Lu2Tc5(PRh)7
_chemical_formula_sum   'Lu2 Tc5 P7 Rh7'
_cell_volume   304.74513590
_cell_formula_units_Z   1
loop_
 _symmetry_equiv_pos_site_id
 _symmetry_equiv_pos_as_xyz
  1  'x, y, z'
loop_
 _atom_site_type_symbol
 _atom_site_label
 _atom_site_symmetry_multiplicity
 _atom_site_fract_x
 _atom_site_fract_y
 _atom_site_fract_z
 _atom_site_occupancy
  Lu  Lu0  1  0.262018  0.669433  0.333576  1
  Lu  Lu1  1  0.762129  0.333344  0.666589  1
  Tc  Tc2  1  0.761853  0.093403  0.870087  1
  Tc  Tc3  1  0.761828  0.128529  0.220221  1
  Tc  Tc4  1  0.761803  0.780040  0.907083  1
  Tc  Tc5  1  0.261827  0.885250  0.160831  1
  Tc  Tc6  1  0.261887  0.839779  0.724937  1
  P  P7  1  0.261435  0.996281  0.997529  1
  P  P8  1  0.761976  0.879704  0.597752  1
  P  P9  1  0.761889  0.403852  0.286242  1
  P  P10  1  0.761798  0.718602  0.122632  1
  P  P11  1  0.262173  0.116922  0.411344  1
  P  P12  1  0.262049  0.586830  0.704222  1
  P  P13  1  0.261969  0.294415  0.880374  1
  Rh  Rh14  1  0.261840  0.273540  0.112748  1
  Rh  Rh15  1  0.761966  0.607991  0.554584  1
  Rh  Rh16  1  0.761833  0.445431  0.057297  1
  Rh  Rh17  1  0.761943  0.945187  0.392403  1
  Rh  Rh18  1  0.261986  0.369001  0.437691  1
  Rh  Rh19  1  0.261837  0.560606  0.930376  1
  Rh  Rh20  1  0.261961  0.071858  0.631485  1
