# generated using pymatgen
data_La14RuRh4Au
_symmetry_space_group_name_H-M   'P 1'
_cell_length_a   10.28982741
_cell_length_b   10.26473529
_cell_length_c   6.61683464
_cell_angle_alpha   90.30234681
_cell_angle_beta   89.85416208
_cell_angle_gamma   120.31801427
_symmetry_Int_Tables_number   1
_chemical_formula_structural   La14RuRh4Au
_chemical_formula_sum   'La14 Ru1 Rh4 Au1'
_cell_volume   603.29546647
_cell_formula_units_Z   1
loop_
 _symmetry_equiv_pos_site_id
 _symmetry_equiv_pos_as_xyz
  1  'x, y, z'
loop_
 _atom_site_type_symbol
 _atom_site_label
 _atom_site_symmetry_multiplicity
 _atom_site_fract_x
 _atom_site_fract_y
 _atom_site_fract_z
 _atom_site_occupancy
  La  La0  1  0.666352  0.330987  0.558433  1
  La  La1  1  0.338989  0.676388  0.065456  1
  La  La2  1  0.874321  0.755813  0.786620  1
  La  La3  1  0.256627  0.116395  0.784960  1
  La  La4  1  0.854599  0.111626  0.787836  1
  La  La5  1  0.125349  0.250071  0.302631  1
  La  La6  1  0.751927  0.876308  0.281488  1
  La  La7  1  0.126419  0.876728  0.285950  1
  La  La8  1  0.458423  0.914101  0.591412  1
  La  La9  1  0.068219  0.544840  0.591781  1
  La  La10  1  0.478599  0.549363  0.594892  1
  La  La11  1  0.539671  0.076180  0.101004  1
  La  La12  1  0.921254  0.462054  0.092665  1
  La  La13  1  0.543246  0.465541  0.093309  1
  Ru  Ru14  1  0.624496  0.807602  0.829533  1
  Rh  Rh15  1  0.183582  0.809081  0.830652  1
  Rh  Rh16  1  0.811864  0.623152  0.334693  1
  Rh  Rh17  1  0.373935  0.189712  0.332002  1
  Rh  Rh18  1  0.816106  0.191497  0.331814  1
  Au  Au19  1  0.186021  0.372560  0.837918  1
