# generated using pymatgen
data_Y14Ho3Er3Pb16
_symmetry_space_group_name_H-M   'P 1'
_cell_length_a   8.20885900
_cell_length_b   8.28203536
_cell_length_c   15.65240901
_cell_angle_alpha   90.00296982
_cell_angle_beta   90.00051819
_cell_angle_gamma   90.01509317
_symmetry_Int_Tables_number   1
_chemical_formula_structural   Y14Ho3Er3Pb16
_chemical_formula_sum   'Y14 Ho3 Er3 Pb16'
_cell_volume   1064.14558816
_cell_formula_units_Z   1
loop_
 _symmetry_equiv_pos_site_id
 _symmetry_equiv_pos_as_xyz
  1  'x, y, z'
loop_
 _atom_site_type_symbol
 _atom_site_label
 _atom_site_symmetry_multiplicity
 _atom_site_fract_x
 _atom_site_fract_y
 _atom_site_fract_z
 _atom_site_occupancy
  Y  Y0  1  0.622761  0.158888  0.379126  1
  Y  Y1  1  0.122751  0.341060  0.120974  1
  Y  Y2  1  0.622773  0.158906  0.120915  1
  Y  Y3  1  0.122757  0.341044  0.378979  1
  Y  Y4  1  0.377362  0.841149  0.620784  1
  Y  Y5  1  0.876977  0.659114  0.879230  1
  Y  Y6  1  0.535323  0.323734  0.899880  1
  Y  Y7  1  0.035044  0.175929  0.600120  1
  Y  Y8  1  0.464804  0.676145  0.399751  1
  Y  Y9  1  0.964785  0.823850  0.100180  1
  Y  Y10  1  0.464835  0.676196  0.100148  1
  Y  Y11  1  0.964821  0.823813  0.399916  1
  Y  Y12  1  0.535337  0.323787  0.600127  1
  Y  Y13  1  0.035053  0.175874  0.899870  1
  Ho  Ho14  1  0.377406  0.841107  0.879200  1
  Ho  Ho15  1  0.877006  0.659178  0.620783  1
  Ho  Ho16  1  0.208964  0.503816  0.749982  1
  Er  Er17  1  0.709052  0.996033  0.750024  1
  Er  Er18  1  0.790988  0.496223  0.249994  1
  Er  Er19  1  0.290810  0.003753  0.250029  1
  Pb  Pb20  1  0.281115  0.032502  0.042965  1
  Pb  Pb21  1  0.781188  0.467543  0.457031  1
  Pb  Pb22  1  0.719108  0.967026  0.543132  1
  Pb  Pb23  1  0.219179  0.533197  0.957175  1
  Pb  Pb24  1  0.718646  0.967296  0.956890  1
  Pb  Pb25  1  0.218724  0.532940  0.542801  1
  Pb  Pb26  1  0.280990  0.032692  0.456861  1
  Pb  Pb27  1  0.781065  0.467355  0.043143  1
  Pb  Pb28  1  0.572494  0.626606  0.750051  1
  Pb  Pb29  1  0.071822  0.874168  0.749940  1
  Pb  Pb30  1  0.428127  0.373828  0.250002  1
  Pb  Pb31  1  0.928013  0.126089  0.249991  1
  Pb  Pb32  1  0.347465  0.152337  0.750091  1
  Pb  Pb33  1  0.846673  0.346707  0.749917  1
  Pb  Pb34  1  0.652909  0.846749  0.249995  1
  Pb  Pb35  1  0.152869  0.653363  0.250000  1
