# generated using pymatgen
data_Y20Mg3Ru2Au3
_symmetry_space_group_name_H-M   'P 1'
_cell_length_a   9.69901600
_cell_length_b   9.69901492
_cell_length_c   9.73419000
_cell_angle_alpha   90.00000000
_cell_angle_beta   90.00000000
_cell_angle_gamma   120.00000369
_symmetry_Int_Tables_number   1
_chemical_formula_structural   Y20Mg3Ru2Au3
_chemical_formula_sum   'Y20 Mg3 Ru2 Au3'
_cell_volume   793.02291657
_cell_formula_units_Z   1
loop_
 _symmetry_equiv_pos_site_id
 _symmetry_equiv_pos_as_xyz
  1  'x, y, z'
loop_
 _atom_site_type_symbol
 _atom_site_label
 _atom_site_symmetry_multiplicity
 _atom_site_fract_x
 _atom_site_fract_y
 _atom_site_fract_z
 _atom_site_occupancy
  Y  Y0  1  0.000000  0.000000  0.445445  1
  Y  Y1  1  0.000000  0.000000  0.054555  1
  Y  Y2  1  0.210126  0.789874  0.439434  1
  Y  Y3  1  0.210126  0.420254  0.439434  1
  Y  Y4  1  0.579746  0.789874  0.439434  1
  Y  Y5  1  0.790406  0.209594  0.556121  1
  Y  Y6  1  0.790406  0.580811  0.556121  1
  Y  Y7  1  0.419189  0.209594  0.556121  1
  Y  Y8  1  0.790406  0.209594  0.943879  1
  Y  Y9  1  0.790406  0.580811  0.943879  1
  Y  Y10  1  0.419189  0.209594  0.943879  1
  Y  Y11  1  0.210126  0.789874  0.060566  1
  Y  Y12  1  0.210126  0.420254  0.060566  1
  Y  Y13  1  0.579746  0.789874  0.060566  1
  Y  Y14  1  0.539527  0.460473  0.250000  1
  Y  Y15  1  0.539527  0.079053  0.250000  1
  Y  Y16  1  0.920947  0.460473  0.250000  1
  Y  Y17  1  0.458442  0.541558  0.750000  1
  Y  Y18  1  0.458442  0.916885  0.750000  1
  Y  Y19  1  0.083115  0.541558  0.750000  1
  Mg  Mg20  1  0.106479  0.893521  0.750000  1
  Mg  Mg21  1  0.106479  0.212958  0.750000  1
  Mg  Mg22  1  0.787042  0.893521  0.750000  1
  Ru  Ru23  1  0.333333  0.666667  0.250000  1
  Ru  Ru24  1  0.666667  0.333333  0.750000  1
  Au  Au25  1  0.865961  0.134039  0.250000  1
  Au  Au26  1  0.865961  0.731921  0.250000  1
  Au  Au27  1  0.268079  0.134039  0.250000  1
