# generated using pymatgen
data_Ca3La(CdPt)4
_symmetry_space_group_name_H-M   'P 1'
_cell_length_a   4.26880100
_cell_length_b   7.39241992
_cell_length_c   8.84686508
_cell_angle_alpha   89.85500654
_cell_angle_beta   90.00000000
_cell_angle_gamma   90.00000000
_symmetry_Int_Tables_number   1
_chemical_formula_structural   Ca3La(CdPt)4
_chemical_formula_sum   'Ca3 La1 Cd4 Pt4'
_cell_volume   279.17758858
_cell_formula_units_Z   1
loop_
 _symmetry_equiv_pos_site_id
 _symmetry_equiv_pos_as_xyz
  1  'x, y, z'
loop_
 _atom_site_type_symbol
 _atom_site_label
 _atom_site_symmetry_multiplicity
 _atom_site_fract_x
 _atom_site_fract_y
 _atom_site_fract_z
 _atom_site_occupancy
  Ca  Ca0  1  0.250000  0.537220  0.173739  1
  Ca  Ca1  1  0.750000  0.961074  0.684190  1
  Ca  Ca2  1  0.750000  0.462885  0.821507  1
  La  La3  1  0.250000  0.036632  0.322245  1
  Cd  Cd4  1  0.250000  0.143474  0.933774  1
  Cd  Cd5  1  0.250000  0.642348  0.566968  1
  Cd  Cd6  1  0.750000  0.851117  0.058307  1
  Cd  Cd7  1  0.750000  0.366031  0.438796  1
  Pt  Pt8  1  0.250000  0.252915  0.625730  1
  Pt  Pt9  1  0.250000  0.753385  0.869863  1
  Pt  Pt10  1  0.750000  0.752073  0.370433  1
  Pt  Pt11  1  0.750000  0.240846  0.134447  1
