# generated using pymatgen
data_HoZn7Ga3Cu2
_symmetry_space_group_name_H-M   'P 1'
_cell_length_a   6.73799362
_cell_length_b   6.72901345
_cell_length_c   6.72901300
_cell_angle_alpha   98.76856311
_cell_angle_beta   98.35977885
_cell_angle_gamma   134.51033188
_symmetry_Int_Tables_number   1
_chemical_formula_structural   HoZn7Ga3Cu2
_chemical_formula_sum   'Ho1 Zn7 Ga3 Cu2'
_cell_volume   200.78185836
_cell_formula_units_Z   1
loop_
 _symmetry_equiv_pos_site_id
 _symmetry_equiv_pos_as_xyz
  1  'x, y, z'
loop_
 _atom_site_type_symbol
 _atom_site_label
 _atom_site_symmetry_multiplicity
 _atom_site_fract_x
 _atom_site_fract_y
 _atom_site_fract_z
 _atom_site_occupancy
  Ho  Ho0  1  0.998592  0.999250  0.999342  1
  Zn  Zn1  1  0.003541  0.999604  0.496173  1
  Zn  Zn2  1  0.003541  0.507369  0.003937  1
  Zn  Zn3  1  0.366504  0.016383  0.350121  1
  Zn  Zn4  1  0.499575  0.279755  0.779662  1
  Zn  Zn5  1  0.499575  0.719913  0.219819  1
  Zn  Zn6  1  0.693645  0.487908  0.205737  1
  Zn  Zn7  1  0.298521  0.505125  0.793396  1
  Ga  Ga8  1  0.998397  0.350533  0.351308  1
  Ga  Ga9  1  0.998397  0.647089  0.647863  1
  Ga  Ga10  1  0.637278  0.985340  0.651939  1
  Cu  Cu11  1  0.501216  0.500972  0.500457  1
  Cu  Cu12  1  0.501216  0.000759  0.000246  1
