# generated using pymatgen
data_Th8Sc12Si15P
_symmetry_space_group_name_H-M   'P 1'
_cell_length_a   7.23234137
_cell_length_b   7.49732183
_cell_length_c   14.16324000
_cell_angle_alpha   90.00000000
_cell_angle_beta   90.00000000
_cell_angle_gamma   90.32423508
_symmetry_Int_Tables_number   1
_chemical_formula_structural   Th8Sc12Si15P
_chemical_formula_sum   'Th8 Sc12 Si15 P1'
_cell_volume   767.96376912
_cell_formula_units_Z   1
loop_
 _symmetry_equiv_pos_site_id
 _symmetry_equiv_pos_as_xyz
  1  'x, y, z'
loop_
 _atom_site_type_symbol
 _atom_site_label
 _atom_site_symmetry_multiplicity
 _atom_site_fract_x
 _atom_site_fract_y
 _atom_site_fract_z
 _atom_site_occupancy
  Th  Th0  1  0.007110  0.172946  0.403937  1
  Th  Th1  1  0.507221  0.327826  0.404334  1
  Th  Th2  1  0.493784  0.672476  0.902440  1
  Th  Th3  1  0.493784  0.672476  0.597560  1
  Th  Th4  1  0.996874  0.830080  0.599663  1
  Th  Th5  1  0.996874  0.830080  0.900337  1
  Th  Th6  1  0.507221  0.327826  0.095666  1
  Th  Th7  1  0.007110  0.172946  0.096063  1
  Sc  Sc8  1  0.328459  0.170064  0.627196  1
  Sc  Sc9  1  0.667917  0.825524  0.375263  1
  Sc  Sc10  1  0.657366  0.996833  0.750000  1
  Sc  Sc11  1  0.168611  0.674345  0.375595  1
  Sc  Sc12  1  0.829141  0.327133  0.875962  1
  Sc  Sc13  1  0.829141  0.327133  0.624038  1
  Sc  Sc14  1  0.840396  0.497617  0.250000  1
  Sc  Sc15  1  0.339875  0.002792  0.250000  1
  Sc  Sc16  1  0.328459  0.170064  0.872804  1
  Sc  Sc17  1  0.168611  0.674345  0.124405  1
  Sc  Sc18  1  0.667917  0.825524  0.124737  1
  Sc  Sc19  1  0.159927  0.503331  0.750000  1
  Si  Si20  1  0.466853  0.622430  0.250000  1
  Si  Si21  1  0.022055  0.134200  0.750000  1
  Si  Si22  1  0.531123  0.375663  0.750000  1
  Si  Si23  1  0.159941  0.463861  0.541015  1
  Si  Si24  1  0.967296  0.877294  0.250000  1
  Si  Si25  1  0.709855  0.124324  0.250000  1
  Si  Si26  1  0.841732  0.538050  0.039526  1
  Si  Si27  1  0.341868  0.963809  0.039065  1
  Si  Si28  1  0.159941  0.463861  0.958985  1
  Si  Si29  1  0.658085  0.034565  0.541054  1
  Si  Si30  1  0.341868  0.963809  0.460935  1
  Si  Si31  1  0.841732  0.538050  0.460474  1
  Si  Si32  1  0.792540  0.623363  0.750000  1
  Si  Si33  1  0.210584  0.375756  0.250000  1
  Si  Si34  1  0.658085  0.034565  0.958946  1
  P  P35  1  0.300646  0.865043  0.750000  1
