# generated using pymatgen
data_La3ThCdFe
_symmetry_space_group_name_H-M   'P 1'
_cell_length_a   9.89344414
_cell_length_b   9.89344457
_cell_length_c   9.89344500
_cell_angle_alpha   60.00000192
_cell_angle_beta   60.00000048
_cell_angle_gamma   60.00000369
_symmetry_Int_Tables_number   1
_chemical_formula_structural   La3ThCdFe
_chemical_formula_sum   'La12 Th4 Cd4 Fe4'
_cell_volume   684.74299344
_cell_formula_units_Z   4
loop_
 _symmetry_equiv_pos_site_id
 _symmetry_equiv_pos_as_xyz
  1  'x, y, z'
loop_
 _atom_site_type_symbol
 _atom_site_label
 _atom_site_symmetry_multiplicity
 _atom_site_fract_x
 _atom_site_fract_y
 _atom_site_fract_z
 _atom_site_occupancy
  La  La0  1  0.058575  0.441425  0.441425  1
  La  La1  1  0.441425  0.058575  0.058575  1
  La  La2  1  0.441425  0.058575  0.441425  1
  La  La3  1  0.058575  0.441425  0.058575  1
  La  La4  1  0.441425  0.441425  0.058575  1
  La  La5  1  0.058575  0.058575  0.441425  1
  La  La6  1  0.193035  0.806965  0.806965  1
  La  La7  1  0.806965  0.193035  0.193035  1
  La  La8  1  0.806965  0.193035  0.806965  1
  La  La9  1  0.193035  0.806965  0.193035  1
  La  La10  1  0.806965  0.806965  0.193035  1
  La  La11  1  0.193035  0.193035  0.806965  1
  Th  Th12  1  0.592051  0.592051  0.592051  1
  Th  Th13  1  0.592051  0.592051  0.223847  1
  Th  Th14  1  0.592051  0.223847  0.592051  1
  Th  Th15  1  0.223847  0.592051  0.592051  1
  Cd  Cd16  1  0.828423  0.828423  0.828423  1
  Cd  Cd17  1  0.828423  0.828423  0.514730  1
  Cd  Cd18  1  0.828423  0.514730  0.828423  1
  Cd  Cd19  1  0.514730  0.828423  0.828423  1
  Fe  Fe20  1  0.395055  0.395055  0.395055  1
  Fe  Fe21  1  0.395055  0.395055  0.814836  1
  Fe  Fe22  1  0.395055  0.814836  0.395055  1
  Fe  Fe23  1  0.814836  0.395055  0.395055  1
