# generated using pymatgen
data_NdEu2(BPt2)3
_symmetry_space_group_name_H-M   'P 1'
_cell_length_a   5.58461034
_cell_length_b   5.58461139
_cell_length_c   7.80182100
_cell_angle_alpha   90.00000000
_cell_angle_beta   90.00000000
_cell_angle_gamma   120.37090079
_symmetry_Int_Tables_number   1
_chemical_formula_structural   NdEu2(BPt2)3
_chemical_formula_sum   'Nd1 Eu2 B3 Pt6'
_cell_volume   209.93127004
_cell_formula_units_Z   1
loop_
 _symmetry_equiv_pos_site_id
 _symmetry_equiv_pos_as_xyz
  1  'x, y, z'
loop_
 _atom_site_type_symbol
 _atom_site_label
 _atom_site_symmetry_multiplicity
 _atom_site_fract_x
 _atom_site_fract_y
 _atom_site_fract_z
 _atom_site_occupancy
  Nd  Nd0  1  0.500000  0.500000  0.333333  1
  Eu  Eu1  1  0.000000  0.500000  0.669686  1
  Eu  Eu2  1  0.500000  0.000000  0.996981  1
  B  B3  1  0.500000  0.500000  0.833333  1
  B  B4  1  0.000000  0.500000  0.163924  1
  B  B5  1  0.500000  0.000000  0.502743  1
  Pt  Pt6  1  0.151353  0.297657  0.001321  1
  Pt  Pt7  1  0.848421  0.151579  0.333333  1
  Pt  Pt8  1  0.848647  0.702343  0.001321  1
  Pt  Pt9  1  0.702343  0.848647  0.665346  1
  Pt  Pt10  1  0.297657  0.151353  0.665346  1
  Pt  Pt11  1  0.151579  0.848421  0.333333  1
