# generated using pymatgen
data_Y7HoAlPd24
_symmetry_space_group_name_H-M   'P 1'
_cell_length_a   8.36658799
_cell_length_b   8.36658803
_cell_length_c   8.36658896
_cell_angle_alpha   90.01114083
_cell_angle_beta   89.98885771
_cell_angle_gamma   89.98885142
_symmetry_Int_Tables_number   1
_chemical_formula_structural   Y7HoAlPd24
_chemical_formula_sum   'Y7 Ho1 Al1 Pd24'
_cell_volume   585.65947833
_cell_formula_units_Z   1
loop_
 _symmetry_equiv_pos_site_id
 _symmetry_equiv_pos_as_xyz
  1  'x, y, z'
loop_
 _atom_site_type_symbol
 _atom_site_label
 _atom_site_symmetry_multiplicity
 _atom_site_fract_x
 _atom_site_fract_y
 _atom_site_fract_z
 _atom_site_occupancy
  Y  Y0  1  0.251087  0.251507  0.251507  1
  Y  Y1  1  0.748561  0.748417  0.748417  1
  Y  Y2  1  0.748493  0.748913  0.251507  1
  Y  Y3  1  0.748493  0.251507  0.748913  1
  Y  Y4  1  0.251583  0.251439  0.748417  1
  Y  Y5  1  0.251583  0.748417  0.251439  1
  Y  Y6  1  0.251502  0.748498  0.748498  1
  Ho  Ho7  1  0.748015  0.251985  0.251985  1
  Al  Al8  1  0.000359  0.999641  0.999641  1
  Pd  Pd9  1  0.259640  0.499728  0.999959  1
  Pd  Pd10  1  0.740395  0.499232  0.001363  1
  Pd  Pd11  1  0.998637  0.259605  0.499232  1
  Pd  Pd12  1  0.500768  0.259605  0.001363  1
  Pd  Pd13  1  0.000041  0.740360  0.499728  1
  Pd  Pd14  1  0.500272  0.740360  0.999959  1
  Pd  Pd15  1  0.500768  0.001363  0.259605  1
  Pd  Pd16  1  0.259640  0.999959  0.499728  1
  Pd  Pd17  1  0.500272  0.999959  0.740360  1
  Pd  Pd18  1  0.740395  0.001363  0.499232  1
  Pd  Pd19  1  0.998637  0.499232  0.259605  1
  Pd  Pd20  1  0.000041  0.499728  0.740360  1
  Pd  Pd21  1  0.252532  0.499830  0.499830  1
  Pd  Pd22  1  0.747234  0.499289  0.499289  1
  Pd  Pd23  1  0.500711  0.252766  0.499289  1
  Pd  Pd24  1  0.500170  0.747468  0.499830  1
  Pd  Pd25  1  0.500711  0.499289  0.252766  1
  Pd  Pd26  1  0.500170  0.499830  0.747468  1
  Pd  Pd27  1  0.289531  0.999986  0.999986  1
  Pd  Pd28  1  0.711236  0.000753  0.000753  1
  Pd  Pd29  1  0.999247  0.288764  0.000753  1
  Pd  Pd30  1  0.000014  0.710469  0.999986  1
  Pd  Pd31  1  0.999247  0.000753  0.288764  1
  Pd  Pd32  1  0.000014  0.999986  0.710469  1
