# generated using pymatgen
data_Dy2Ti2Nb2Sn5
_symmetry_space_group_name_H-M   'P 1'
_cell_length_a   10.92128241
_cell_length_b   10.92128247
_cell_length_c   10.92128200
_cell_angle_alpha   149.11953604
_cell_angle_beta   131.74117741
_cell_angle_gamma   58.39859443
_symmetry_Int_Tables_number   1
_chemical_formula_structural   Dy2Ti2Nb2Sn5
_chemical_formula_sum   'Dy4 Ti4 Nb4 Sn10'
_cell_volume   495.02949379
_cell_formula_units_Z   2
loop_
 _symmetry_equiv_pos_site_id
 _symmetry_equiv_pos_as_xyz
  1  'x, y, z'
loop_
 _atom_site_type_symbol
 _atom_site_label
 _atom_site_symmetry_multiplicity
 _atom_site_fract_x
 _atom_site_fract_y
 _atom_site_fract_z
 _atom_site_occupancy
  Dy  Dy0  1  0.258736  0.144639  0.114098  1
  Dy  Dy1  1  0.741264  0.855361  0.885902  1
  Dy  Dy2  1  0.030542  0.644639  0.385902  1
  Dy  Dy3  1  0.969458  0.355361  0.614098  1
  Ti  Ti4  1  0.675271  0.435999  0.239272  1
  Ti  Ti5  1  0.324729  0.564001  0.760728  1
  Ti  Ti6  1  0.196727  0.935999  0.260728  1
  Ti  Ti7  1  0.803273  0.064001  0.739272  1
  Nb  Nb8  1  0.310868  0.560868  0.250000  1
  Nb  Nb9  1  0.689132  0.439132  0.750000  1
  Nb  Nb10  1  0.689132  0.939132  0.250000  1
  Nb  Nb11  1  0.310868  0.060868  0.750000  1
  Sn  Sn12  1  0.585097  0.289686  0.295411  1
  Sn  Sn13  1  0.414903  0.710314  0.704589  1
  Sn  Sn14  1  0.994275  0.789686  0.204589  1
  Sn  Sn15  1  0.005725  0.210314  0.795411  1
  Sn  Sn16  1  0.000000  0.250000  0.250000  1
  Sn  Sn17  1  0.000000  0.750000  0.750000  1
  Sn  Sn18  1  0.468043  0.065280  0.402763  1
  Sn  Sn19  1  0.531957  0.934720  0.597237  1
  Sn  Sn20  1  0.662517  0.565280  0.097237  1
  Sn  Sn21  1  0.337483  0.434720  0.902763  1
