# generated using pymatgen
data_ErVCo3P3Rh
_symmetry_space_group_name_H-M   'P 1'
_cell_length_a   3.68681100
_cell_length_b   10.50089000
_cell_length_c   12.00750800
_cell_angle_alpha   90.00000000
_cell_angle_beta   90.00000000
_cell_angle_gamma   90.00000000
_symmetry_Int_Tables_number   1
_chemical_formula_structural   ErVCo3P3Rh
_chemical_formula_sum   'Er4 V4 Co12 P12 Rh4'
_cell_volume   464.86823184
_cell_formula_units_Z   4
loop_
 _symmetry_equiv_pos_site_id
 _symmetry_equiv_pos_as_xyz
  1  'x, y, z'
loop_
 _atom_site_type_symbol
 _atom_site_label
 _atom_site_symmetry_multiplicity
 _atom_site_fract_x
 _atom_site_fract_y
 _atom_site_fract_z
 _atom_site_occupancy
  Er  Er0  1  0.250000  0.582612  0.708863  1
  Er  Er1  1  0.250000  0.917388  0.208863  1
  Er  Er2  1  0.750000  0.417388  0.291137  1
  Er  Er3  1  0.750000  0.082612  0.791137  1
  V  V4  1  0.250000  0.702601  0.987145  1
  V  V5  1  0.250000  0.797399  0.487145  1
  V  V6  1  0.750000  0.297399  0.012855  1
  V  V7  1  0.750000  0.202601  0.512855  1
  Co  Co8  1  0.250000  0.223538  0.180246  1
  Co  Co9  1  0.250000  0.276462  0.680246  1
  Co  Co10  1  0.750000  0.776462  0.819754  1
  Co  Co11  1  0.750000  0.723538  0.319754  1
  Co  Co12  1  0.250000  0.885738  0.695637  1
  Co  Co13  1  0.250000  0.614262  0.195637  1
  Co  Co14  1  0.750000  0.114262  0.304363  1
  Co  Co15  1  0.750000  0.385738  0.804363  1
  Co  Co16  1  0.250000  0.466243  0.934623  1
  Co  Co17  1  0.250000  0.033757  0.434623  1
  Co  Co18  1  0.750000  0.533757  0.065377  1
  Co  Co19  1  0.750000  0.966243  0.565377  1
  P  P20  1  0.250000  0.419056  0.113856  1
  P  P21  1  0.250000  0.080944  0.613856  1
  P  P22  1  0.750000  0.580944  0.886144  1
  P  P23  1  0.750000  0.919056  0.386144  1
  P  P24  1  0.250000  0.273717  0.864390  1
  P  P25  1  0.250000  0.226283  0.364390  1
  P  P26  1  0.750000  0.726283  0.135610  1
  P  P27  1  0.750000  0.773717  0.635610  1
  P  P28  1  0.250000  0.604847  0.381705  1
  P  P29  1  0.250000  0.895153  0.881705  1
  P  P30  1  0.750000  0.395153  0.618295  1
  P  P31  1  0.750000  0.104847  0.118295  1
  Rh  Rh32  1  0.250000  0.401826  0.485256  1
  Rh  Rh33  1  0.250000  0.098174  0.985256  1
  Rh  Rh34  1  0.750000  0.598174  0.514744  1
  Rh  Rh35  1  0.750000  0.901826  0.014744  1
