# generated using pymatgen
data_Tb4TmSc(Si3Ru)8
_symmetry_space_group_name_H-M   'P 1'
_cell_length_a   10.09207214
_cell_length_b   10.09207328
_cell_length_c   8.13314713
_cell_angle_alpha   90.00538780
_cell_angle_beta   90.00539103
_cell_angle_gamma   132.48620633
_symmetry_Int_Tables_number   1
_chemical_formula_structural   Tb4TmSc(Si3Ru)8
_chemical_formula_sum   'Tb4 Tm1 Sc1 Si24 Ru8'
_cell_volume   610.86610169
_cell_formula_units_Z   1
loop_
 _symmetry_equiv_pos_site_id
 _symmetry_equiv_pos_as_xyz
  1  'x, y, z'
loop_
 _atom_site_type_symbol
 _atom_site_label
 _atom_site_symmetry_multiplicity
 _atom_site_fract_x
 _atom_site_fract_y
 _atom_site_fract_z
 _atom_site_occupancy
  Tb  Tb0  1  0.502348  0.002290  0.749925  1
  Tb  Tb1  1  0.997710  0.497652  0.250075  1
  Tb  Tb2  1  0.497652  0.997710  0.250075  1
  Tb  Tb3  1  0.002290  0.502348  0.749925  1
  Tm  Tm4  1  0.500000  0.500000  0.500000  1
  Sc  Sc5  1  0.000000  0.000000  0.000000  1
  Si  Si6  1  0.794569  0.205431  0.500000  1
  Si  Si7  1  0.294636  0.705364  0.000000  1
  Si  Si8  1  0.205431  0.794569  0.500000  1
  Si  Si9  1  0.705364  0.294636  0.000000  1
  Si  Si10  1  0.329783  0.329783  0.833978  1
  Si  Si11  1  0.670217  0.670217  0.166022  1
  Si  Si12  1  0.166536  0.166536  0.330542  1
  Si  Si13  1  0.833464  0.833464  0.669458  1
  Si  Si14  1  0.120289  0.887986  0.729869  1
  Si  Si15  1  0.112014  0.879711  0.270131  1
  Si  Si16  1  0.611858  0.378002  0.228201  1
  Si  Si17  1  0.621998  0.388142  0.771799  1
  Si  Si18  1  0.879711  0.112014  0.270131  1
  Si  Si19  1  0.887986  0.120289  0.729869  1
  Si  Si20  1  0.388142  0.621998  0.771799  1
  Si  Si21  1  0.378002  0.611858  0.228201  1
  Si  Si22  1  0.344812  0.111442  0.504726  1
  Si  Si23  1  0.888558  0.655188  0.495274  1
  Si  Si24  1  0.385315  0.153867  0.004641  1
  Si  Si25  1  0.846133  0.614685  0.995359  1
  Si  Si26  1  0.655188  0.888558  0.495274  1
  Si  Si27  1  0.111442  0.344812  0.504726  1
  Si  Si28  1  0.614685  0.846133  0.995359  1
  Si  Si29  1  0.153867  0.385315  0.004641  1
  Ru  Ru30  1  0.668050  0.331950  0.500000  1
  Ru  Ru31  1  0.167942  0.832058  0.000000  1
  Ru  Ru32  1  0.331950  0.668050  0.500000  1
  Ru  Ru33  1  0.832058  0.167942  0.000000  1
  Ru  Ru34  1  0.127098  0.127098  0.625957  1
  Ru  Ru35  1  0.872902  0.872902  0.374043  1
  Ru  Ru36  1  0.374640  0.374640  0.128254  1
  Ru  Ru37  1  0.625360  0.625360  0.871746  1
