# generated using pymatgen
data_CeNp7(B6Ru)4
_symmetry_space_group_name_H-M   'P 1'
_cell_length_a   3.57813600
_cell_length_b   9.35234434
_cell_length_c   11.37976241
_cell_angle_alpha   90.03089811
_cell_angle_beta   90.00000000
_cell_angle_gamma   90.00000000
_symmetry_Int_Tables_number   1
_chemical_formula_structural   CeNp7(B6Ru)4
_chemical_formula_sum   'Ce1 Np7 B24 Ru4'
_cell_volume   380.81185848
_cell_formula_units_Z   1
loop_
 _symmetry_equiv_pos_site_id
 _symmetry_equiv_pos_as_xyz
  1  'x, y, z'
loop_
 _atom_site_type_symbol
 _atom_site_label
 _atom_site_symmetry_multiplicity
 _atom_site_fract_x
 _atom_site_fract_y
 _atom_site_fract_z
 _atom_site_occupancy
  Ce  Ce0  1  0.000000  0.338490  0.407247  1
  Np  Np1  1  0.000000  0.661225  0.594466  1
  Np  Np2  1  0.000000  0.838363  0.093236  1
  Np  Np3  1  0.000000  0.161413  0.906506  1
  Np  Np4  1  0.000000  0.958015  0.401750  1
  Np  Np5  1  0.000000  0.038601  0.598880  1
  Np  Np6  1  0.000000  0.460133  0.097872  1
  Np  Np7  1  0.000000  0.540530  0.900997  1
  B  B8  1  0.500000  0.553790  0.433219  1
  B  B9  1  0.500000  0.451402  0.569585  1
  B  B10  1  0.500000  0.051994  0.067463  1
  B  B11  1  0.500000  0.947811  0.931746  1
  B  B12  1  0.500000  0.742863  0.424337  1
  B  B13  1  0.500000  0.255498  0.578186  1
  B  B14  1  0.500000  0.242796  0.075722  1
  B  B15  1  0.500000  0.756498  0.923326  1
  B  B16  1  0.500000  0.806924  0.274225  1
  B  B17  1  0.500000  0.193175  0.726147  1
  B  B18  1  0.500000  0.305985  0.224069  1
  B  B19  1  0.500000  0.692253  0.773754  1
  B  B20  1  0.500000  0.648043  0.188700  1
  B  B21  1  0.500000  0.353237  0.811258  1
  B  B22  1  0.500000  0.145592  0.310831  1
  B  B23  1  0.500000  0.851729  0.688335  1
  B  B24  1  0.500000  0.988876  0.220131  1
  B  B25  1  0.500000  0.011090  0.779085  1
  B  B26  1  0.500000  0.490548  0.278554  1
  B  B27  1  0.500000  0.513359  0.720945  1
  B  B28  1  0.500000  0.645121  0.039812  1
  B  B29  1  0.500000  0.355485  0.959199  1
  B  B30  1  0.500000  0.142899  0.460586  1
  B  B31  1  0.500000  0.852715  0.541039  1
  Ru  Ru32  1  0.000000  0.647782  0.320444  1
  Ru  Ru33  1  0.000000  0.356810  0.679911  1
  Ru  Ru34  1  0.000000  0.148048  0.180582  1
  Ru  Ru35  1  0.000000  0.850903  0.817856  1
