# generated using pymatgen
data_KBa3Yb2(ReN4)2
_symmetry_space_group_name_H-M   'P 1'
_cell_length_a   10.79117791
_cell_length_b   10.44009153
_cell_length_c   8.06611325
_cell_angle_alpha   69.99836575
_cell_angle_beta   65.38274806
_cell_angle_gamma   44.61888105
_symmetry_Int_Tables_number   1
_chemical_formula_structural   KBa3Yb2(ReN4)2
_chemical_formula_sum   'K2 Ba6 Yb4 Re4 N16'
_cell_volume   578.79338923
_cell_formula_units_Z   2
loop_
 _symmetry_equiv_pos_site_id
 _symmetry_equiv_pos_as_xyz
  1  'x, y, z'
loop_
 _atom_site_type_symbol
 _atom_site_label
 _atom_site_symmetry_multiplicity
 _atom_site_fract_x
 _atom_site_fract_y
 _atom_site_fract_z
 _atom_site_occupancy
  K  K0  1  0.573158  0.926842  0.926842  1
  K  K1  1  0.926842  0.573158  0.573158  1
  Ba  Ba2  1  0.322693  0.677307  0.677307  1
  Ba  Ba3  1  0.111644  0.111644  0.888356  1
  Ba  Ba4  1  0.138219  0.138219  0.361781  1
  Ba  Ba5  1  0.361781  0.361781  0.138219  1
  Ba  Ba6  1  0.677307  0.322693  0.322693  1
  Ba  Ba7  1  0.888356  0.888356  0.111644  1
  Yb  Yb8  1  0.337190  0.337190  0.662810  1
  Yb  Yb9  1  0.908135  0.908135  0.591865  1
  Yb  Yb10  1  0.662810  0.662810  0.337190  1
  Yb  Yb11  1  0.591865  0.591865  0.908135  1
  Re  Re12  1  0.495415  0.004585  0.495415  1
  Re  Re13  1  0.004585  0.495415  0.004585  1
  Re  Re14  1  0.754763  0.245237  0.754763  1
  Re  Re15  1  0.245237  0.754763  0.245237  1
  N  N16  1  0.019238  0.651663  0.821124  1
  N  N17  1  0.703519  0.284886  0.993000  1
  N  N18  1  0.651663  0.019238  0.507976  1
  N  N19  1  0.507976  0.821124  0.651663  1
  N  N20  1  0.244458  0.588554  0.424995  1
  N  N21  1  0.741994  0.424995  0.588554  1
  N  N22  1  0.993000  0.018595  0.703519  1
  N  N23  1  0.552013  0.964146  0.259320  1
  N  N24  1  0.424995  0.741994  0.244458  1
  N  N25  1  0.964146  0.552013  0.224521  1
  N  N26  1  0.284886  0.703519  0.018595  1
  N  N27  1  0.821124  0.507976  0.019238  1
  N  N28  1  0.224521  0.259320  0.964146  1
  N  N29  1  0.588554  0.244458  0.741994  1
  N  N30  1  0.259320  0.224521  0.552013  1
  N  N31  1  0.018595  0.993000  0.284886  1
