# generated using pymatgen
data_CaYAl6Si4Au
_symmetry_space_group_name_H-M   'P 1'
_cell_length_a   4.20562976
_cell_length_b   4.19087696
_cell_length_c   17.37337383
_cell_angle_alpha   90.00691602
_cell_angle_beta   96.65990787
_cell_angle_gamma   119.89644462
_symmetry_Int_Tables_number   1
_chemical_formula_structural   CaYAl6Si4Au
_chemical_formula_sum   'Ca1 Y1 Al6 Si4 Au1'
_cell_volume   263.07373880
_cell_formula_units_Z   1
loop_
 _symmetry_equiv_pos_site_id
 _symmetry_equiv_pos_as_xyz
  1  'x, y, z'
loop_
 _atom_site_type_symbol
 _atom_site_label
 _atom_site_symmetry_multiplicity
 _atom_site_fract_x
 _atom_site_fract_y
 _atom_site_fract_z
 _atom_site_occupancy
  Ca  Ca0  1  0.869093  0.434542  0.302680  1
  Y  Y1  1  0.131787  0.565882  0.698598  1
  Al  Al2  1  0.365097  0.682508  0.046941  1
  Al  Al3  1  0.101561  0.050810  0.150563  1
  Al  Al4  1  0.634881  0.817404  0.449746  1
  Al  Al5  1  0.372373  0.186201  0.558968  1
  Al  Al6  1  0.893437  0.946708  0.843543  1
  Al  Al7  1  0.630841  0.315476  0.948404  1
  Si  Si8  1  0.466560  0.733265  0.196343  1
  Si  Si9  1  0.275762  0.137929  0.411839  1
  Si  Si10  1  0.733029  0.866464  0.599896  1
  Si  Si11  1  0.528891  0.264463  0.796872  1
  Au  Au12  1  0.996686  0.998345  0.995609  1
