# generated using pymatgen
data_Ba3InSb3
_symmetry_space_group_name_H-M   'P 1'
_cell_length_a   4.97536700
_cell_length_b   14.86369200
_cell_length_c   15.47092900
_cell_angle_alpha   90.00000000
_cell_angle_beta   90.00000000
_cell_angle_gamma   90.00000000
_symmetry_Int_Tables_number   1
_chemical_formula_structural   Ba3InSb3
_chemical_formula_sum   'Ba12 In4 Sb12'
_cell_volume   1144.11113349
_cell_formula_units_Z   4
loop_
 _symmetry_equiv_pos_site_id
 _symmetry_equiv_pos_as_xyz
  1  'x, y, z'
loop_
 _atom_site_type_symbol
 _atom_site_label
 _atom_site_symmetry_multiplicity
 _atom_site_fract_x
 _atom_site_fract_y
 _atom_site_fract_z
 _atom_site_occupancy
  Ba  Ba0  1  0.250000  0.422212  0.110199  1
  Ba  Ba1  1  0.250000  0.134987  0.003069  1
  Ba  Ba2  1  0.250000  0.219208  0.295306  1
  Ba  Ba3  1  0.750000  0.280792  0.795306  1
  Ba  Ba4  1  0.750000  0.365013  0.503069  1
  Ba  Ba5  1  0.250000  0.922212  0.389801  1
  Ba  Ba6  1  0.750000  0.780792  0.704694  1
  Ba  Ba7  1  0.750000  0.865013  0.996931  1
  Ba  Ba8  1  0.250000  0.719208  0.204694  1
  Ba  Ba9  1  0.750000  0.077788  0.610199  1
  Ba  Ba10  1  0.750000  0.577788  0.889801  1
  Ba  Ba11  1  0.250000  0.634987  0.496931  1
  In  In12  1  0.750000  0.556027  0.297551  1
  In  In13  1  0.750000  0.056027  0.202449  1
  In  In14  1  0.250000  0.443973  0.702449  1
  In  In15  1  0.250000  0.943973  0.797551  1
  Sb  Sb16  1  0.750000  0.238803  0.126611  1
  Sb  Sb17  1  0.750000  0.738803  0.373389  1
  Sb  Sb18  1  0.750000  0.589364  0.112486  1
  Sb  Sb19  1  0.250000  0.261197  0.626611  1
  Sb  Sb20  1  0.250000  0.761197  0.873389  1
  Sb  Sb21  1  0.750000  0.089364  0.387514  1
  Sb  Sb22  1  0.250000  0.910636  0.612486  1
  Sb  Sb23  1  0.250000  0.410636  0.887514  1
  Sb  Sb24  1  0.750000  0.045689  0.849977  1
  Sb  Sb25  1  0.250000  0.454311  0.349977  1
  Sb  Sb26  1  0.250000  0.954311  0.150023  1
  Sb  Sb27  1  0.750000  0.545689  0.650023  1
