# generated using pymatgen
data_Lu8In3Au
_symmetry_space_group_name_H-M   'P 1'
_cell_length_a   10.39588800
_cell_length_b   10.39588791
_cell_length_c   6.74030600
_cell_angle_alpha   90.00000000
_cell_angle_beta   90.00000000
_cell_angle_gamma   120.00000028
_symmetry_Int_Tables_number   1
_chemical_formula_structural   Lu8In3Au
_chemical_formula_sum   'Lu16 In6 Au2'
_cell_volume   630.86062812
_cell_formula_units_Z   2
loop_
 _symmetry_equiv_pos_site_id
 _symmetry_equiv_pos_as_xyz
  1  'x, y, z'
loop_
 _atom_site_type_symbol
 _atom_site_label
 _atom_site_symmetry_multiplicity
 _atom_site_fract_x
 _atom_site_fract_y
 _atom_site_fract_z
 _atom_site_occupancy
  Lu  Lu0  1  0.522477  0.044953  0.527499  1
  Lu  Lu1  1  0.955047  0.477523  0.527499  1
  Lu  Lu2  1  0.522477  0.477523  0.527499  1
  Lu  Lu3  1  0.477523  0.955047  0.027499  1
  Lu  Lu4  1  0.044953  0.522477  0.027499  1
  Lu  Lu5  1  0.477523  0.522477  0.027499  1
  Lu  Lu6  1  0.173362  0.346724  0.741367  1
  Lu  Lu7  1  0.653276  0.826638  0.741367  1
  Lu  Lu8  1  0.173362  0.826638  0.741367  1
  Lu  Lu9  1  0.826638  0.653276  0.241367  1
  Lu  Lu10  1  0.346724  0.173362  0.241367  1
  Lu  Lu11  1  0.826638  0.173362  0.241367  1
  Lu  Lu12  1  0.666667  0.333333  0.884770  1
  Lu  Lu13  1  0.333333  0.666667  0.384770  1
  Lu  Lu14  1  0.000000  0.000000  0.505020  1
  Lu  Lu15  1  0.000000  0.000000  0.005020  1
  In  In16  1  0.835990  0.671981  0.761052  1
  In  In17  1  0.328019  0.164010  0.761052  1
  In  In18  1  0.835990  0.164010  0.761052  1
  In  In19  1  0.164010  0.328019  0.261052  1
  In  In20  1  0.671981  0.835990  0.261052  1
  In  In21  1  0.164010  0.835990  0.261052  1
  Au  Au22  1  0.666667  0.333333  0.298297  1
  Au  Au23  1  0.333333  0.666667  0.798297  1
