# generated using pymatgen
data_NaMnNi4P3
_symmetry_space_group_name_H-M   'P 1'
_cell_length_a   3.63595100
_cell_length_b   10.38599200
_cell_length_c   11.87917300
_cell_angle_alpha   90.00000000
_cell_angle_beta   90.00000000
_cell_angle_gamma   90.00000000
_symmetry_Int_Tables_number   1
_chemical_formula_structural   NaMnNi4P3
_chemical_formula_sum   'Na4 Mn4 Ni16 P12'
_cell_volume   448.59271105
_cell_formula_units_Z   4
loop_
 _symmetry_equiv_pos_site_id
 _symmetry_equiv_pos_as_xyz
  1  'x, y, z'
loop_
 _atom_site_type_symbol
 _atom_site_label
 _atom_site_symmetry_multiplicity
 _atom_site_fract_x
 _atom_site_fract_y
 _atom_site_fract_z
 _atom_site_occupancy
  Na  Na0  1  0.250000  0.581930  0.704719  1
  Na  Na1  1  0.250000  0.918070  0.204719  1
  Na  Na2  1  0.750000  0.418070  0.295281  1
  Na  Na3  1  0.750000  0.081930  0.795281  1
  Mn  Mn4  1  0.250000  0.710428  0.988486  1
  Mn  Mn5  1  0.250000  0.789572  0.488486  1
  Mn  Mn6  1  0.750000  0.289572  0.011514  1
  Mn  Mn7  1  0.750000  0.210428  0.511514  1
  Ni  Ni8  1  0.250000  0.408049  0.487168  1
  Ni  Ni9  1  0.250000  0.091951  0.987168  1
  Ni  Ni10  1  0.750000  0.591951  0.512832  1
  Ni  Ni11  1  0.750000  0.908049  0.012832  1
  Ni  Ni12  1  0.250000  0.219368  0.176715  1
  Ni  Ni13  1  0.250000  0.280632  0.676715  1
  Ni  Ni14  1  0.750000  0.780632  0.823285  1
  Ni  Ni15  1  0.750000  0.719368  0.323285  1
  Ni  Ni16  1  0.250000  0.882388  0.701117  1
  Ni  Ni17  1  0.250000  0.617612  0.201117  1
  Ni  Ni18  1  0.750000  0.117612  0.298883  1
  Ni  Ni19  1  0.750000  0.382388  0.798883  1
  Ni  Ni20  1  0.250000  0.466918  0.930440  1
  Ni  Ni21  1  0.250000  0.033082  0.430440  1
  Ni  Ni22  1  0.750000  0.533082  0.069560  1
  Ni  Ni23  1  0.750000  0.966918  0.569560  1
  P  P24  1  0.250000  0.416351  0.113275  1
  P  P25  1  0.250000  0.083649  0.613275  1
  P  P26  1  0.750000  0.583649  0.886725  1
  P  P27  1  0.750000  0.916351  0.386725  1
  P  P28  1  0.250000  0.266380  0.869274  1
  P  P29  1  0.250000  0.233620  0.369274  1
  P  P30  1  0.750000  0.733620  0.130726  1
  P  P31  1  0.750000  0.766380  0.630726  1
  P  P32  1  0.250000  0.599612  0.391641  1
  P  P33  1  0.250000  0.900388  0.891641  1
  P  P34  1  0.750000  0.400388  0.608359  1
  P  P35  1  0.750000  0.099612  0.108359  1
