# generated using pymatgen
data_Tb5Y(Ir7Rh2)2
_symmetry_space_group_name_H-M   'P 1'
_cell_length_a   5.31967300
_cell_length_b   5.31967155
_cell_length_c   17.48295600
_cell_angle_alpha   90.00000000
_cell_angle_beta   90.00000000
_cell_angle_gamma   120.00003675
_symmetry_Int_Tables_number   1
_chemical_formula_structural   Tb5Y(Ir7Rh2)2
_chemical_formula_sum   'Tb5 Y1 Ir14 Rh4'
_cell_volume   428.46474352
_cell_formula_units_Z   1
loop_
 _symmetry_equiv_pos_site_id
 _symmetry_equiv_pos_as_xyz
  1  'x, y, z'
loop_
 _atom_site_type_symbol
 _atom_site_label
 _atom_site_symmetry_multiplicity
 _atom_site_fract_x
 _atom_site_fract_y
 _atom_site_fract_z
 _atom_site_occupancy
  Tb  Tb0  1  0.333332  0.666666  0.958707  1
  Tb  Tb1  1  0.666667  0.333333  0.041196  1
  Tb  Tb2  1  0.666667  0.333333  0.458804  1
  Tb  Tb3  1  0.333332  0.666666  0.541293  1
  Tb  Tb4  1  0.333336  0.666670  0.750000  1
  Y  Y5  1  0.666658  0.333329  0.250000  1
  Ir  Ir6  1  0.167503  0.832493  0.374238  1
  Ir  Ir7  1  0.167504  0.335008  0.374238  1
  Ir  Ir8  1  0.664993  0.832492  0.374238  1
  Ir  Ir9  1  0.832510  0.167489  0.626024  1
  Ir  Ir10  1  0.832511  0.665022  0.626026  1
  Ir  Ir11  1  0.334983  0.167494  0.626024  1
  Ir  Ir12  1  0.832510  0.167489  0.873976  1
  Ir  Ir13  1  0.832511  0.665022  0.873974  1
  Ir  Ir14  1  0.334983  0.167494  0.873976  1
  Ir  Ir15  1  0.167503  0.832493  0.125762  1
  Ir  Ir16  1  0.167504  0.335008  0.125762  1
  Ir  Ir17  1  0.664993  0.832492  0.125762  1
  Ir  Ir18  1  0.999999  0.999999  0.500114  1
  Ir  Ir19  1  0.999999  0.999999  0.999886  1
  Rh  Rh20  1  0.333337  0.666672  0.250000  1
  Rh  Rh21  1  0.666673  0.333338  0.750000  1
  Rh  Rh22  1  0.999993  0.999994  0.250000  1
  Rh  Rh23  1  0.999998  0.000003  0.750000  1
