# generated using pymatgen
data_Tm3Fe8CuP6
_symmetry_space_group_name_H-M   'P 1'
_cell_length_a   3.70274000
_cell_length_b   10.45896200
_cell_length_c   12.18330600
_cell_angle_alpha   90.00000000
_cell_angle_beta   90.00000000
_cell_angle_gamma   90.00000000
_symmetry_Int_Tables_number   1
_chemical_formula_structural   Tm3Fe8CuP6
_chemical_formula_sum   'Tm6 Fe16 Cu2 P12'
_cell_volume   471.82066138
_cell_formula_units_Z   2
loop_
 _symmetry_equiv_pos_site_id
 _symmetry_equiv_pos_as_xyz
  1  'x, y, z'
loop_
 _atom_site_type_symbol
 _atom_site_label
 _atom_site_symmetry_multiplicity
 _atom_site_fract_x
 _atom_site_fract_y
 _atom_site_fract_z
 _atom_site_occupancy
  Tm  Tm0  1  0.000000  0.500000  0.520778  1
  Tm  Tm1  1  0.500000  0.000000  0.479222  1
  Tm  Tm2  1  0.500000  0.815603  0.204977  1
  Tm  Tm3  1  0.500000  0.184397  0.204977  1
  Tm  Tm4  1  0.000000  0.684397  0.795023  1
  Tm  Tm5  1  0.000000  0.315603  0.795023  1
  Fe  Fe6  1  0.500000  0.500000  0.154463  1
  Fe  Fe7  1  0.000000  0.000000  0.845537  1
  Fe  Fe8  1  0.000000  0.500000  0.990105  1
  Fe  Fe9  1  0.500000  0.000000  0.009895  1
  Fe  Fe10  1  0.500000  0.327486  0.996880  1
  Fe  Fe11  1  0.500000  0.672514  0.996880  1
  Fe  Fe12  1  0.000000  0.172514  0.003120  1
  Fe  Fe13  1  0.000000  0.827486  0.003120  1
  Fe  Fe14  1  0.500000  0.301647  0.430423  1
  Fe  Fe15  1  0.500000  0.698353  0.430423  1
  Fe  Fe16  1  0.000000  0.198353  0.569577  1
  Fe  Fe17  1  0.000000  0.801647  0.569577  1
  Fe  Fe18  1  0.500000  0.881733  0.709708  1
  Fe  Fe19  1  0.500000  0.118267  0.709708  1
  Fe  Fe20  1  0.000000  0.618267  0.290292  1
  Fe  Fe21  1  0.000000  0.381733  0.290292  1
  Cu  Cu22  1  0.500000  0.500000  0.701628  1
  Cu  Cu23  1  0.000000  0.000000  0.298372  1
  P  P24  1  0.500000  0.500000  0.888859  1
  P  P25  1  0.000000  0.000000  0.111141  1
  P  P26  1  0.500000  0.500000  0.343376  1
  P  P27  1  0.000000  0.000000  0.656624  1
  P  P28  1  0.500000  0.302863  0.612937  1
  P  P29  1  0.500000  0.697137  0.612937  1
  P  P30  1  0.000000  0.197137  0.387063  1
  P  P31  1  0.000000  0.802863  0.387063  1
  P  P32  1  0.500000  0.850376  0.888098  1
  P  P33  1  0.500000  0.149624  0.888098  1
  P  P34  1  0.000000  0.649624  0.111902  1
  P  P35  1  0.000000  0.350376  0.111902  1
