# generated using pymatgen
data_Ho5Er2Sc9(In3Co)2
_symmetry_space_group_name_H-M   'P 1'
_cell_length_a   9.91398230
_cell_length_b   9.91370524
_cell_length_c   6.85760151
_cell_angle_alpha   89.93603600
_cell_angle_beta   90.06441576
_cell_angle_gamma   120.09967069
_symmetry_Int_Tables_number   1
_chemical_formula_structural   Ho5Er2Sc9(In3Co)2
_chemical_formula_sum   'Ho5 Er2 Sc9 In6 Co2'
_cell_volume   583.10879955
_cell_formula_units_Z   1
loop_
 _symmetry_equiv_pos_site_id
 _symmetry_equiv_pos_as_xyz
  1  'x, y, z'
loop_
 _atom_site_type_symbol
 _atom_site_label
 _atom_site_symmetry_multiplicity
 _atom_site_fract_x
 _atom_site_fract_y
 _atom_site_fract_z
 _atom_site_occupancy
  Ho  Ho0  1  0.532649  0.065454  0.788728  1
  Ho  Ho1  1  0.934537  0.467349  0.788763  1
  Ho  Ho2  1  0.531907  0.468090  0.789021  1
  Ho  Ho3  1  0.467208  0.933924  0.288922  1
  Ho  Ho4  1  0.066076  0.532811  0.288896  1
  Er  Er5  1  0.999913  0.000016  0.780667  1
  Er  Er6  1  0.999942  0.000081  0.281015  1
  Sc  Sc7  1  0.465138  0.534866  0.289119  1
  Sc  Sc8  1  0.817789  0.639912  0.496170  1
  Sc  Sc9  1  0.360106  0.182218  0.496152  1
  Sc  Sc10  1  0.820646  0.179384  0.497440  1
  Sc  Sc11  1  0.182770  0.360997  0.001280  1
  Sc  Sc12  1  0.638985  0.817234  0.001289  1
  Sc  Sc13  1  0.179656  0.820354  0.998073  1
  Sc  Sc14  1  0.665523  0.334466  0.189596  1
  Sc  Sc15  1  0.334102  0.665882  0.688005  1
  In  In16  1  0.836990  0.674269  0.044178  1
  In  In17  1  0.325728  0.163011  0.044153  1
  In  In18  1  0.837239  0.162759  0.043570  1
  In  In19  1  0.165599  0.327780  0.541319  1
  In  In20  1  0.672223  0.834418  0.541386  1
  In  In21  1  0.162678  0.837330  0.544126  1
  Co  Co22  1  0.667031  0.332976  0.555547  1
  Co  Co23  1  0.335565  0.664421  0.058490  1
