# generated using pymatgen
data_Cs3KCaCl6
_symmetry_space_group_name_H-M   'P 1'
_cell_length_a   9.30277841
_cell_length_b   9.30277891
_cell_length_c   9.30277844
_cell_angle_alpha   91.54814777
_cell_angle_beta   91.54814972
_cell_angle_gamma   91.54815015
_symmetry_Int_Tables_number   1
_chemical_formula_structural   Cs3KCaCl6
_chemical_formula_sum   'Cs6 K2 Ca2 Cl12'
_cell_volume   804.18033526
_cell_formula_units_Z   2
loop_
 _symmetry_equiv_pos_site_id
 _symmetry_equiv_pos_as_xyz
  1  'x, y, z'
loop_
 _atom_site_type_symbol
 _atom_site_label
 _atom_site_symmetry_multiplicity
 _atom_site_fract_x
 _atom_site_fract_y
 _atom_site_fract_z
 _atom_site_occupancy
  Cs  Cs0  1  0.376308  0.123692  0.750000  1
  Cs  Cs1  1  0.123692  0.750000  0.376308  1
  Cs  Cs2  1  0.750000  0.376308  0.123692  1
  Cs  Cs3  1  0.623692  0.876308  0.250000  1
  Cs  Cs4  1  0.250000  0.623692  0.876308  1
  Cs  Cs5  1  0.876308  0.250000  0.623692  1
  K  K6  1  0.250000  0.250000  0.250000  1
  K  K7  1  0.750000  0.750000  0.750000  1
  Ca  Ca8  1  0.000000  0.000000  0.000000  1
  Ca  Ca9  1  0.500000  0.500000  0.500000  1
  Cl  Cl10  1  0.954040  0.079293  0.282606  1
  Cl  Cl11  1  0.079293  0.282606  0.954040  1
  Cl  Cl12  1  0.282606  0.954040  0.079293  1
  Cl  Cl13  1  0.579293  0.454040  0.782606  1
  Cl  Cl14  1  0.782606  0.579293  0.454040  1
  Cl  Cl15  1  0.454040  0.782606  0.579293  1
  Cl  Cl16  1  0.217394  0.420707  0.545960  1
  Cl  Cl17  1  0.420707  0.545960  0.217394  1
  Cl  Cl18  1  0.545960  0.217394  0.420707  1
  Cl  Cl19  1  0.920707  0.717394  0.045960  1
  Cl  Cl20  1  0.045960  0.920707  0.717394  1
  Cl  Cl21  1  0.717394  0.045960  0.920707  1
