# generated using pymatgen
data_Tb6ScMn(Co4P3)4
_symmetry_space_group_name_H-M   'P 1'
_cell_length_a   3.69585300
_cell_length_b   10.56444200
_cell_length_c   12.25452200
_cell_angle_alpha   90.00000000
_cell_angle_beta   90.00000000
_cell_angle_gamma   90.00000000
_symmetry_Int_Tables_number   1
_chemical_formula_structural   Tb6ScMn(Co4P3)4
_chemical_formula_sum   'Tb6 Sc1 Mn1 Co16 P12'
_cell_volume   478.47321187
_cell_formula_units_Z   1
loop_
 _symmetry_equiv_pos_site_id
 _symmetry_equiv_pos_as_xyz
  1  'x, y, z'
loop_
 _atom_site_type_symbol
 _atom_site_label
 _atom_site_symmetry_multiplicity
 _atom_site_fract_x
 _atom_site_fract_y
 _atom_site_fract_z
 _atom_site_occupancy
  Tb  Tb0  1  0.000000  0.500000  0.527595  1
  Tb  Tb1  1  0.500000  0.000000  0.477190  1
  Tb  Tb2  1  0.500000  0.821130  0.206402  1
  Tb  Tb3  1  0.500000  0.178870  0.206402  1
  Tb  Tb4  1  0.000000  0.682224  0.795639  1
  Tb  Tb5  1  0.000000  0.317776  0.795639  1
  Sc  Sc6  1  0.500000  0.500000  0.152652  1
  Mn  Mn7  1  0.000000  0.000000  0.837979  1
  Co  Co8  1  0.500000  0.500000  0.703560  1
  Co  Co9  1  0.000000  0.000000  0.296551  1
  Co  Co10  1  0.000000  0.500000  0.984499  1
  Co  Co11  1  0.500000  0.000000  0.012053  1
  Co  Co12  1  0.500000  0.326660  0.989913  1
  Co  Co13  1  0.500000  0.673340  0.989913  1
  Co  Co14  1  0.000000  0.162131  0.001790  1
  Co  Co15  1  0.000000  0.837869  0.001790  1
  Co  Co16  1  0.500000  0.294363  0.434566  1
  Co  Co17  1  0.500000  0.705637  0.434566  1
  Co  Co18  1  0.000000  0.202164  0.571156  1
  Co  Co19  1  0.000000  0.797836  0.571156  1
  Co  Co20  1  0.500000  0.880986  0.707963  1
  Co  Co21  1  0.500000  0.119014  0.707963  1
  Co  Co22  1  0.000000  0.622399  0.296880  1
  Co  Co23  1  0.000000  0.377601  0.296880  1
  P  P24  1  0.500000  0.500000  0.883508  1
  P  P25  1  0.000000  0.000000  0.116091  1
  P  P26  1  0.500000  0.500000  0.357289  1
  P  P27  1  0.000000  0.000000  0.654299  1
  P  P28  1  0.500000  0.309304  0.617585  1
  P  P29  1  0.500000  0.690696  0.617585  1
  P  P30  1  0.000000  0.189213  0.386182  1
  P  P31  1  0.000000  0.810787  0.386182  1
  P  P32  1  0.500000  0.851181  0.888829  1
  P  P33  1  0.500000  0.148819  0.888829  1
  P  P34  1  0.000000  0.662793  0.101461  1
  P  P35  1  0.000000  0.337207  0.101461  1
