# generated using pymatgen
data_Zr6Zn15Pd8Se
_symmetry_space_group_name_H-M   'P 1'
_cell_length_a   8.80984512
_cell_length_b   8.80984390
_cell_length_c   8.80984400
_cell_angle_alpha   59.99999964
_cell_angle_beta   60.00000420
_cell_angle_gamma   59.99999391
_symmetry_Int_Tables_number   1
_chemical_formula_structural   Zr6Zn15Pd8Se
_chemical_formula_sum   'Zr6 Zn15 Pd8 Se1'
_cell_volume   483.49245361
_cell_formula_units_Z   1
loop_
 _symmetry_equiv_pos_site_id
 _symmetry_equiv_pos_as_xyz
  1  'x, y, z'
loop_
 _atom_site_type_symbol
 _atom_site_label
 _atom_site_symmetry_multiplicity
 _atom_site_fract_x
 _atom_site_fract_y
 _atom_site_fract_z
 _atom_site_occupancy
  Zr  Zr0  1  0.718464  0.281536  0.281536  1
  Zr  Zr1  1  0.281536  0.718464  0.718464  1
  Zr  Zr2  1  0.281536  0.718464  0.281536  1
  Zr  Zr3  1  0.718464  0.281536  0.718464  1
  Zr  Zr4  1  0.281536  0.281536  0.718464  1
  Zr  Zr5  1  0.718464  0.718464  0.281536  1
  Zn  Zn6  1  0.500000  0.000000  0.000000  1
  Zn  Zn7  1  0.000000  0.500000  0.500000  1
  Zn  Zn8  1  0.000000  0.500000  0.000000  1
  Zn  Zn9  1  0.500000  0.000000  0.500000  1
  Zn  Zn10  1  0.000000  0.000000  0.500000  1
  Zn  Zn11  1  0.500000  0.500000  0.000000  1
  Zn  Zn12  1  0.332502  0.332502  0.332502  1
  Zn  Zn13  1  0.667498  0.667498  0.667498  1
  Zn  Zn14  1  0.332502  0.332502  0.002493  1
  Zn  Zn15  1  0.332502  0.002493  0.332502  1
  Zn  Zn16  1  0.667498  0.667498  0.997507  1
  Zn  Zn17  1  0.667498  0.997507  0.667498  1
  Zn  Zn18  1  0.002493  0.332502  0.332502  1
  Zn  Zn19  1  0.997507  0.667498  0.667498  1
  Zn  Zn20  1  0.000000  0.000000  0.000000  1
  Pd  Pd21  1  0.120614  0.120614  0.120614  1
  Pd  Pd22  1  0.879386  0.879386  0.879386  1
  Pd  Pd23  1  0.120614  0.120614  0.638158  1
  Pd  Pd24  1  0.120614  0.638158  0.120614  1
  Pd  Pd25  1  0.879386  0.879386  0.361842  1
  Pd  Pd26  1  0.879386  0.361842  0.879386  1
  Pd  Pd27  1  0.638158  0.120614  0.120614  1
  Pd  Pd28  1  0.361842  0.879386  0.879386  1
  Se  Se29  1  0.500000  0.500000  0.500000  1
