# generated using pymatgen
data_Y4Al18CuPtRh4
_symmetry_space_group_name_H-M   'P 1'
_cell_length_a   7.58728524
_cell_length_b   7.58728660
_cell_length_c   9.44139561
_cell_angle_alpha   90.09841399
_cell_angle_beta   90.09841431
_cell_angle_gamma   119.67221556
_symmetry_Int_Tables_number   1
_chemical_formula_structural   Y4Al18CuPtRh4
_chemical_formula_sum   'Y4 Al18 Cu1 Pt1 Rh4'
_cell_volume   472.23937824
_cell_formula_units_Z   1
loop_
 _symmetry_equiv_pos_site_id
 _symmetry_equiv_pos_as_xyz
  1  'x, y, z'
loop_
 _atom_site_type_symbol
 _atom_site_label
 _atom_site_symmetry_multiplicity
 _atom_site_fract_x
 _atom_site_fract_y
 _atom_site_fract_z
 _atom_site_occupancy
  Y  Y0  1  0.994654  0.672099  0.249008  1
  Y  Y1  1  0.005346  0.327901  0.750992  1
  Y  Y2  1  0.672099  0.994654  0.249008  1
  Y  Y3  1  0.327901  0.005346  0.750992  1
  Al  Al4  1  0.130975  0.130975  0.248461  1
  Al  Al5  1  0.869025  0.869025  0.751539  1
  Al  Al6  1  0.000469  0.338117  0.075579  1
  Al  Al7  1  0.999531  0.661883  0.924421  1
  Al  Al8  1  0.000573  0.662262  0.574321  1
  Al  Al9  1  0.337738  0.999427  0.425679  1
  Al  Al10  1  0.999427  0.337738  0.425679  1
  Al  Al11  1  0.662262  0.000573  0.574321  1
  Al  Al12  1  0.661883  0.999531  0.924421  1
  Al  Al13  1  0.338117  0.000469  0.075579  1
  Al  Al14  1  0.336577  0.336577  0.552126  1
  Al  Al15  1  0.663423  0.663423  0.447874  1
  Al  Al16  1  0.664219  0.664219  0.052775  1
  Al  Al17  1  0.335781  0.335781  0.947225  1
  Al  Al18  1  0.338669  0.549478  0.250314  1
  Al  Al19  1  0.661331  0.450522  0.749686  1
  Al  Al20  1  0.549478  0.338669  0.250314  1
  Al  Al21  1  0.450522  0.661331  0.749686  1
  Cu  Cu22  1  0.000000  0.000000  0.000000  1
  Pt  Pt23  1  0.000000  0.000000  0.500000  1
  Rh  Rh24  1  0.671651  0.328349  0.000000  1
  Rh  Rh25  1  0.328349  0.671651  0.000000  1
  Rh  Rh26  1  0.328352  0.671648  0.500000  1
  Rh  Rh27  1  0.671648  0.328352  0.500000  1
