# generated using pymatgen
data_SmTa8TiS16
_symmetry_space_group_name_H-M   'P 1'
_cell_length_a   6.71661300
_cell_length_b   6.71661196
_cell_length_c   13.06642900
_cell_angle_alpha   90.00000000
_cell_angle_beta   90.00000000
_cell_angle_gamma   120.00001003
_symmetry_Int_Tables_number   1
_chemical_formula_structural   SmTa8TiS16
_chemical_formula_sum   'Sm1 Ta8 Ti1 S16'
_cell_volume   510.49099447
_cell_formula_units_Z   1
loop_
 _symmetry_equiv_pos_site_id
 _symmetry_equiv_pos_as_xyz
  1  'x, y, z'
loop_
 _atom_site_type_symbol
 _atom_site_label
 _atom_site_symmetry_multiplicity
 _atom_site_fract_x
 _atom_site_fract_y
 _atom_site_fract_z
 _atom_site_occupancy
  Sm  Sm0  1  0.000000  0.000000  0.500000  1
  Ta  Ta1  1  0.000000  0.000000  0.235008  1
  Ta  Ta2  1  0.000000  0.000000  0.764992  1
  Ta  Ta3  1  0.505250  0.494750  0.232754  1
  Ta  Ta4  1  0.505250  0.010501  0.232754  1
  Ta  Ta5  1  0.989499  0.494750  0.232754  1
  Ta  Ta6  1  0.494750  0.505250  0.767246  1
  Ta  Ta7  1  0.494750  0.989499  0.767246  1
  Ta  Ta8  1  0.010501  0.505250  0.767246  1
  Ti  Ti9  1  0.000000  0.000000  0.000000  1
  S  S10  1  0.333333  0.666667  0.888432  1
  S  S11  1  0.666667  0.333333  0.111568  1
  S  S12  1  0.666667  0.333333  0.355938  1
  S  S13  1  0.333333  0.666667  0.644062  1
  S  S14  1  0.170540  0.829460  0.352619  1
  S  S15  1  0.170540  0.341079  0.352619  1
  S  S16  1  0.658921  0.829460  0.352619  1
  S  S17  1  0.829460  0.170540  0.647381  1
  S  S18  1  0.829460  0.658921  0.647381  1
  S  S19  1  0.341079  0.170540  0.647381  1
  S  S20  1  0.833198  0.166802  0.885741  1
  S  S21  1  0.833198  0.666398  0.885741  1
  S  S22  1  0.333602  0.166802  0.885741  1
  S  S23  1  0.166802  0.833198  0.114259  1
  S  S24  1  0.166802  0.333602  0.114259  1
  S  S25  1  0.666398  0.833198  0.114259  1
