# generated using pymatgen
data_Tm3In3CuAgAu
_symmetry_space_group_name_H-M   'P 1'
_cell_length_a   7.75036300
_cell_length_b   7.75036390
_cell_length_c   3.83879200
_cell_angle_alpha   90.00000000
_cell_angle_beta   90.00000000
_cell_angle_gamma   120.00000042
_symmetry_Int_Tables_number   1
_chemical_formula_structural   Tm3In3CuAgAu
_chemical_formula_sum   'Tm3 In3 Cu1 Ag1 Au1'
_cell_volume   199.69599233
_cell_formula_units_Z   1
loop_
 _symmetry_equiv_pos_site_id
 _symmetry_equiv_pos_as_xyz
  1  'x, y, z'
loop_
 _atom_site_type_symbol
 _atom_site_label
 _atom_site_symmetry_multiplicity
 _atom_site_fract_x
 _atom_site_fract_y
 _atom_site_fract_z
 _atom_site_occupancy
  Tm  Tm0  1  0.398431  0.405667  0.500000  1
  Tm  Tm1  1  0.594333  0.992764  0.500000  1
  Tm  Tm2  1  0.007236  0.601569  0.500000  1
  In  In3  1  0.752799  0.747540  0.000000  1
  In  In4  1  0.252460  0.005260  0.000000  1
  In  In5  1  0.994740  0.247201  0.000000  1
  Cu  Cu6  1  0.000000  0.000000  0.500000  1
  Ag  Ag7  1  0.666667  0.333333  0.000000  1
  Au  Au8  1  0.333333  0.666667  0.000000  1
