# generated using pymatgen
data_Th4MgSi4Pb
_symmetry_space_group_name_H-M   'P 1'
_cell_length_a   7.52492000
_cell_length_b   7.52492000
_cell_length_c   4.28767800
_cell_angle_alpha   90.00000000
_cell_angle_beta   90.00000000
_cell_angle_gamma   90.00000000
_symmetry_Int_Tables_number   1
_chemical_formula_structural   Th4MgSi4Pb
_chemical_formula_sum   'Th4 Mg1 Si4 Pb1'
_cell_volume   242.78728421
_cell_formula_units_Z   1
loop_
 _symmetry_equiv_pos_site_id
 _symmetry_equiv_pos_as_xyz
  1  'x, y, z'
loop_
 _atom_site_type_symbol
 _atom_site_label
 _atom_site_symmetry_multiplicity
 _atom_site_fract_x
 _atom_site_fract_y
 _atom_site_fract_z
 _atom_site_occupancy
  Th  Th0  1  0.674506  0.188751  0.500000  1
  Th  Th1  1  0.325494  0.811249  0.500000  1
  Th  Th2  1  0.188751  0.325494  0.500000  1
  Th  Th3  1  0.811249  0.674506  0.500000  1
  Mg  Mg4  1  0.000000  0.000000  0.000000  1
  Si  Si5  1  0.093223  0.630545  0.000000  1
  Si  Si6  1  0.906777  0.369455  0.000000  1
  Si  Si7  1  0.630545  0.906777  0.000000  1
  Si  Si8  1  0.369455  0.093223  0.000000  1
  Pb  Pb9  1  0.500000  0.500000  0.000000  1
