# generated using pymatgen
data_Li2Nd6Y7Th3(CdIr2)2
_symmetry_space_group_name_H-M   'P 1'
_cell_length_a   9.84872072
_cell_length_b   9.84392611
_cell_length_c   9.84392600
_cell_angle_alpha   60.00000035
_cell_angle_beta   60.01610311
_cell_angle_gamma   60.01610651
_symmetry_Int_Tables_number   1
_chemical_formula_structural   Li2Nd6Y7Th3(CdIr2)2
_chemical_formula_sum   'Li2 Nd6 Y7 Th3 Cd2 Ir4'
_cell_volume   675.00530433
_cell_formula_units_Z   1
loop_
 _symmetry_equiv_pos_site_id
 _symmetry_equiv_pos_as_xyz
  1  'x, y, z'
loop_
 _atom_site_type_symbol
 _atom_site_label
 _atom_site_symmetry_multiplicity
 _atom_site_fract_x
 _atom_site_fract_y
 _atom_site_fract_z
 _atom_site_occupancy
  Li  Li0  1  0.573795  0.572386  0.576426  1
  Li  Li1  1  0.573795  0.572386  0.277394  1
  Nd  Nd2  1  0.938905  0.561266  0.560790  1
  Nd  Nd3  1  0.561516  0.938117  0.937402  1
  Nd  Nd4  1  0.561516  0.938117  0.562965  1
  Nd  Nd5  1  0.938905  0.561266  0.939038  1
  Nd  Nd6  1  0.562657  0.563926  0.936709  1
  Nd  Nd7  1  0.937940  0.939230  0.561415  1
  Y  Y8  1  0.955955  0.347497  0.348274  1
  Y  Y9  1  0.815032  0.185203  0.186522  1
  Y  Y10  1  0.185074  0.815059  0.814800  1
  Y  Y11  1  0.185074  0.815059  0.185067  1
  Y  Y12  1  0.815032  0.185203  0.813243  1
  Y  Y13  1  0.187218  0.185562  0.813610  1
  Y  Y14  1  0.817841  0.817330  0.182414  1
  Th  Th15  1  0.347327  0.349040  0.348799  1
  Th  Th16  1  0.347327  0.349040  0.954835  1
  Th  Th17  1  0.345399  0.958930  0.347836  1
  Cd  Cd18  1  0.583616  0.262913  0.576736  1
  Cd  Cd19  1  0.260065  0.582315  0.578809  1
  Ir  Ir20  1  0.146435  0.142390  0.141147  1
  Ir  Ir21  1  0.146435  0.142390  0.570028  1
  Ir  Ir22  1  0.145721  0.570498  0.141890  1
  Ir  Ir23  1  0.567419  0.144879  0.143851  1
