# generated using pymatgen
data_Sc6PSe2
_symmetry_space_group_name_H-M   'P 1'
_cell_length_a   3.68211300
_cell_length_b   12.53306500
_cell_length_c   15.62092700
_cell_angle_alpha   90.00000000
_cell_angle_beta   90.00000000
_cell_angle_gamma   90.00000000
_symmetry_Int_Tables_number   1
_chemical_formula_structural   Sc6PSe2
_chemical_formula_sum   'Sc24 P4 Se8'
_cell_volume   720.87706301
_cell_formula_units_Z   4
loop_
 _symmetry_equiv_pos_site_id
 _symmetry_equiv_pos_as_xyz
  1  'x, y, z'
loop_
 _atom_site_type_symbol
 _atom_site_label
 _atom_site_symmetry_multiplicity
 _atom_site_fract_x
 _atom_site_fract_y
 _atom_site_fract_z
 _atom_site_occupancy
  Sc  Sc0  1  0.000000  0.335829  0.485947  1
  Sc  Sc1  1  0.000000  0.664171  0.514053  1
  Sc  Sc2  1  0.500000  0.164171  0.985947  1
  Sc  Sc3  1  0.500000  0.835829  0.014053  1
  Sc  Sc4  1  0.000000  0.087003  0.576329  1
  Sc  Sc5  1  0.000000  0.912997  0.423671  1
  Sc  Sc6  1  0.500000  0.412997  0.076329  1
  Sc  Sc7  1  0.500000  0.587003  0.923671  1
  Sc  Sc8  1  0.000000  0.694444  0.296337  1
  Sc  Sc9  1  0.000000  0.305556  0.703663  1
  Sc  Sc10  1  0.500000  0.805556  0.796337  1
  Sc  Sc11  1  0.500000  0.194444  0.203663  1
  Sc  Sc12  1  0.000000  0.027291  0.102547  1
  Sc  Sc13  1  0.000000  0.972709  0.897453  1
  Sc  Sc14  1  0.500000  0.472709  0.602547  1
  Sc  Sc15  1  0.500000  0.527291  0.397454  1
  Sc  Sc16  1  0.000000  0.618716  0.082071  1
  Sc  Sc17  1  0.000000  0.381284  0.917929  1
  Sc  Sc18  1  0.500000  0.881284  0.582071  1
  Sc  Sc19  1  0.500000  0.118716  0.417929  1
  Sc  Sc20  1  0.000000  0.405978  0.240937  1
  Sc  Sc21  1  0.000000  0.594022  0.759063  1
  Sc  Sc22  1  0.500000  0.094022  0.740937  1
  Sc  Sc23  1  0.500000  0.905978  0.259063  1
  P  P24  1  0.000000  0.257284  0.092818  1
  P  P25  1  0.000000  0.742716  0.907182  1
  P  P26  1  0.500000  0.242716  0.592818  1
  P  P27  1  0.500000  0.757284  0.407182  1
  Se  Se28  1  0.000000  0.816863  0.151718  1
  Se  Se29  1  0.000000  0.183137  0.848282  1
  Se  Se30  1  0.500000  0.683137  0.651718  1
  Se  Se31  1  0.500000  0.316863  0.348282  1
  Se  Se32  1  0.000000  0.063603  0.288065  1
  Se  Se33  1  0.000000  0.936397  0.711935  1
  Se  Se34  1  0.500000  0.436397  0.788065  1
  Se  Se35  1  0.500000  0.563603  0.211935  1
