# generated using pymatgen
data_La4Dy2MgCuSb14
_symmetry_space_group_name_H-M   'P 1'
_cell_length_a   12.55292674
_cell_length_b   12.55292709
_cell_length_c   4.27290939
_cell_angle_alpha   80.25021965
_cell_angle_beta   80.25022732
_cell_angle_gamma   102.12376245
_symmetry_Int_Tables_number   1
_chemical_formula_structural   La4Dy2MgCuSb14
_chemical_formula_sum   'La4 Dy2 Mg1 Cu1 Sb14'
_cell_volume   633.94281241
_cell_formula_units_Z   1
loop_
 _symmetry_equiv_pos_site_id
 _symmetry_equiv_pos_as_xyz
  1  'x, y, z'
loop_
 _atom_site_type_symbol
 _atom_site_label
 _atom_site_symmetry_multiplicity
 _atom_site_fract_x
 _atom_site_fract_y
 _atom_site_fract_z
 _atom_site_occupancy
  La  La0  1  0.273175  0.006348  0.793586  1
  La  La1  1  0.725692  0.998002  0.071435  1
  La  La2  1  0.998002  0.725692  0.071435  1
  La  La3  1  0.006348  0.273175  0.793586  1
  Dy  Dy4  1  0.326410  0.679336  0.930653  1
  Dy  Dy5  1  0.679336  0.326410  0.930653  1
  Mg  Mg6  1  0.376315  0.376315  0.056919  1
  Cu  Cu7  1  0.268751  0.268751  0.662821  1
  Sb  Sb8  1  0.566914  0.566914  0.866014  1
  Sb  Sb9  1  0.478143  0.259151  0.564463  1
  Sb  Sb10  1  0.545962  0.742271  0.288609  1
  Sb  Sb11  1  0.742271  0.545962  0.288609  1
  Sb  Sb12  1  0.259151  0.478143  0.564463  1
  Sb  Sb13  1  0.510166  0.910741  0.723253  1
  Sb  Sb14  1  0.490842  0.084720  0.144684  1
  Sb  Sb15  1  0.084720  0.490842  0.144684  1
  Sb  Sb16  1  0.910741  0.510166  0.723253  1
  Sb  Sb17  1  0.163732  0.163732  0.269024  1
  Sb  Sb18  1  0.855720  0.855720  0.576957  1
  Sb  Sb19  1  0.206528  0.797239  0.431389  1
  Sb  Sb20  1  0.797239  0.206528  0.431389  1
  Sb  Sb21  1  0.994442  0.994442  0.939418  1
