# generated using pymatgen
data_Cs2Ge(PSe3)2
_symmetry_space_group_name_H-M   'P 1'
_cell_length_a   13.21140500
_cell_length_b   6.77719420
_cell_length_c   10.30604451
_cell_angle_alpha   53.66384221
_cell_angle_beta   90.00000000
_cell_angle_gamma   90.00000000
_symmetry_Int_Tables_number   1
_chemical_formula_structural   Cs2Ge(PSe3)2
_chemical_formula_sum   'Cs4 Ge2 P4 Se12'
_cell_volume   743.33723567
_cell_formula_units_Z   2
loop_
 _symmetry_equiv_pos_site_id
 _symmetry_equiv_pos_as_xyz
  1  'x, y, z'
loop_
 _atom_site_type_symbol
 _atom_site_label
 _atom_site_symmetry_multiplicity
 _atom_site_fract_x
 _atom_site_fract_y
 _atom_site_fract_z
 _atom_site_occupancy
  Cs  Cs0  1  0.171063  0.273387  0.983874  1
  Cs  Cs1  1  0.671063  0.726613  0.516126  1
  Cs  Cs2  1  0.828937  0.726613  0.016126  1
  Cs  Cs3  1  0.328937  0.273387  0.483874  1
  Ge  Ge4  1  0.000000  0.000000  0.500000  1
  Ge  Ge5  1  0.500000  0.000000  0.000000  1
  P  P6  1  0.037641  0.654174  0.384012  1
  P  P7  1  0.537641  0.345826  0.115988  1
  P  P8  1  0.962359  0.345826  0.615988  1
  P  P9  1  0.462359  0.654174  0.884012  1
  Se  Se10  1  0.167243  0.765699  0.462192  1
  Se  Se11  1  0.667243  0.234301  0.037808  1
  Se  Se12  1  0.832757  0.234301  0.537808  1
  Se  Se13  1  0.332757  0.765699  0.962192  1
  Se  Se14  1  0.924032  0.950256  0.259034  1
  Se  Se15  1  0.424032  0.049744  0.240966  1
  Se  Se16  1  0.075968  0.049744  0.740966  1
  Se  Se17  1  0.575968  0.950256  0.759034  1
  Se  Se18  1  0.420549  0.494577  0.758348  1
  Se  Se19  1  0.920549  0.505423  0.741652  1
  Se  Se20  1  0.579451  0.505423  0.241652  1
  Se  Se21  1  0.079451  0.494577  0.258348  1
