# generated using pymatgen
data_Li3Y4Co12P12Rh5
_symmetry_space_group_name_H-M   'P 1'
_cell_length_a   3.72015000
_cell_length_b   10.41063315
_cell_length_c   12.19526700
_cell_angle_alpha   89.86720123
_cell_angle_beta   90.00000000
_cell_angle_gamma   90.00000000
_symmetry_Int_Tables_number   1
_chemical_formula_structural   Li3Y4Co12P12Rh5
_chemical_formula_sum   'Li3 Y4 Co12 P12 Rh5'
_cell_volume   472.31065297
_cell_formula_units_Z   1
loop_
 _symmetry_equiv_pos_site_id
 _symmetry_equiv_pos_as_xyz
  1  'x, y, z'
loop_
 _atom_site_type_symbol
 _atom_site_label
 _atom_site_symmetry_multiplicity
 _atom_site_fract_x
 _atom_site_fract_y
 _atom_site_fract_z
 _atom_site_occupancy
  Li  Li0  1  0.250000  0.795199  0.491694  1
  Li  Li1  1  0.750000  0.204561  0.508742  1
  Li  Li2  1  0.750000  0.294987  0.008651  1
  Y  Y3  1  0.250000  0.920331  0.208503  1
  Y  Y4  1  0.750000  0.083282  0.790332  1
  Y  Y5  1  0.750000  0.418389  0.291083  1
  Y  Y6  1  0.250000  0.581842  0.709502  1
  Co  Co7  1  0.250000  0.279569  0.677144  1
  Co  Co8  1  0.750000  0.720998  0.320998  1
  Co  Co9  1  0.750000  0.778356  0.824181  1
  Co  Co10  1  0.250000  0.220777  0.178054  1
  Co  Co11  1  0.250000  0.617645  0.195268  1
  Co  Co12  1  0.750000  0.382518  0.803302  1
  Co  Co13  1  0.750000  0.118355  0.304863  1
  Co  Co14  1  0.250000  0.881187  0.698055  1
  Co  Co15  1  0.250000  0.031548  0.434501  1
  Co  Co16  1  0.750000  0.967587  0.567083  1
  Co  Co17  1  0.750000  0.534448  0.066336  1
  Co  Co18  1  0.250000  0.461757  0.934320  1
  P  P19  1  0.250000  0.077388  0.613654  1
  P  P20  1  0.750000  0.922770  0.386977  1
  P  P21  1  0.750000  0.575138  0.888498  1
  P  P22  1  0.250000  0.421135  0.113441  1
  P  P23  1  0.250000  0.223200  0.358935  1
  P  P24  1  0.750000  0.775656  0.641567  1
  P  P25  1  0.750000  0.724919  0.139749  1
  P  P26  1  0.250000  0.274397  0.858843  1
  P  P27  1  0.250000  0.897278  0.881496  1
  P  P28  1  0.750000  0.107848  0.119974  1
  P  P29  1  0.750000  0.393354  0.618716  1
  P  P30  1  0.250000  0.607531  0.380391  1
  Rh  Rh31  1  0.250000  0.705940  0.984116  1
  Rh  Rh32  1  0.250000  0.096890  0.981955  1
  Rh  Rh33  1  0.750000  0.902927  0.020081  1
  Rh  Rh34  1  0.750000  0.599503  0.517272  1
  Rh  Rh35  1  0.250000  0.400790  0.481723  1
