# generated using pymatgen
data_Lu3In3Ag2Pt
_symmetry_space_group_name_H-M   'P 1'
_cell_length_a   7.90944000
_cell_length_b   7.90944039
_cell_length_c   3.67481100
_cell_angle_alpha   90.00000000
_cell_angle_beta   90.00000000
_cell_angle_gamma   119.99999724
_symmetry_Int_Tables_number   1
_chemical_formula_structural   Lu3In3Ag2Pt
_chemical_formula_sum   'Lu3 In3 Ag2 Pt1'
_cell_volume   199.09352906
_cell_formula_units_Z   1
loop_
 _symmetry_equiv_pos_site_id
 _symmetry_equiv_pos_as_xyz
  1  'x, y, z'
loop_
 _atom_site_type_symbol
 _atom_site_label
 _atom_site_symmetry_multiplicity
 _atom_site_fract_x
 _atom_site_fract_y
 _atom_site_fract_z
 _atom_site_occupancy
  Lu  Lu0  1  0.023814  0.609335  0.500000  1
  Lu  Lu1  1  0.585520  0.976186  0.500000  1
  Lu  Lu2  1  0.390665  0.414480  0.500000  1
  In  In3  1  0.993174  0.266725  0.000000  1
  In  In4  1  0.273550  0.006826  0.000000  1
  In  In5  1  0.733275  0.726450  0.000000  1
  Ag  Ag6  1  0.000000  0.000000  0.500000  1
  Ag  Ag7  1  0.666667  0.333333  0.000000  1
  Pt  Pt8  1  0.333333  0.666667  0.000000  1
