# generated using pymatgen
data_Tb(Ga3Ni)3
_symmetry_space_group_name_H-M   'P 1'
_cell_length_a   10.12225172
_cell_length_b   10.12225169
_cell_length_c   10.12225034
_cell_angle_alpha   42.34028202
_cell_angle_beta   42.34028424
_cell_angle_gamma   42.34028272
_symmetry_Int_Tables_number   1
_chemical_formula_structural   Tb(Ga3Ni)3
_chemical_formula_sum   'Tb2 Ga18 Ni6'
_cell_volume   425.88034089
_cell_formula_units_Z   2
loop_
 _symmetry_equiv_pos_site_id
 _symmetry_equiv_pos_as_xyz
  1  'x, y, z'
loop_
 _atom_site_type_symbol
 _atom_site_label
 _atom_site_symmetry_multiplicity
 _atom_site_fract_x
 _atom_site_fract_y
 _atom_site_fract_z
 _atom_site_occupancy
  Tb  Tb0  1  0.166993  0.166993  0.166993  1
  Tb  Tb1  1  0.833007  0.833007  0.833007  1
  Ga  Ga2  1  0.050910  0.050910  0.050910  1
  Ga  Ga3  1  0.708087  0.500000  0.291913  1
  Ga  Ga4  1  0.666128  0.333872  0.000000  1
  Ga  Ga5  1  0.103700  0.433459  0.763207  1
  Ga  Ga6  1  0.433459  0.763207  0.103700  1
  Ga  Ga7  1  0.385866  0.385866  0.385866  1
  Ga  Ga8  1  0.333872  0.000000  0.666128  1
  Ga  Ga9  1  0.614134  0.614134  0.614134  1
  Ga  Ga10  1  0.236793  0.566541  0.896300  1
  Ga  Ga11  1  0.566541  0.896300  0.236793  1
  Ga  Ga12  1  0.500000  0.291913  0.708087  1
  Ga  Ga13  1  0.763207  0.103700  0.433459  1
  Ga  Ga14  1  0.949090  0.949090  0.949090  1
  Ga  Ga15  1  0.291913  0.708087  0.500000  1
  Ga  Ga16  1  0.000000  0.666128  0.333872  1
  Ga  Ga17  1  0.716912  0.716912  0.716912  1
  Ga  Ga18  1  0.283088  0.283088  0.283088  1
  Ga  Ga19  1  0.896300  0.236793  0.566541  1
  Ni  Ni20  1  0.241938  0.921689  0.582062  1
  Ni  Ni21  1  0.921689  0.582062  0.241938  1
  Ni  Ni22  1  0.758062  0.417938  0.078311  1
  Ni  Ni23  1  0.078311  0.758062  0.417938  1
  Ni  Ni24  1  0.417938  0.078311  0.758062  1
  Ni  Ni25  1  0.582062  0.241938  0.921689  1
