# generated using pymatgen
data_La4InPt4Au
_symmetry_space_group_name_H-M   'P 1'
_cell_length_a   7.92337800
_cell_length_b   7.92337800
_cell_length_c   3.92772200
_cell_angle_alpha   90.00000000
_cell_angle_beta   90.00000000
_cell_angle_gamma   90.00000000
_symmetry_Int_Tables_number   1
_chemical_formula_structural   La4InPt4Au
_chemical_formula_sum   'La4 In1 Pt4 Au1'
_cell_volume   246.58206874
_cell_formula_units_Z   1
loop_
 _symmetry_equiv_pos_site_id
 _symmetry_equiv_pos_as_xyz
  1  'x, y, z'
loop_
 _atom_site_type_symbol
 _atom_site_label
 _atom_site_symmetry_multiplicity
 _atom_site_fract_x
 _atom_site_fract_y
 _atom_site_fract_z
 _atom_site_occupancy
  La  La0  1  0.685545  0.159253  0.500000  1
  La  La1  1  0.314455  0.840747  0.500000  1
  La  La2  1  0.159253  0.314455  0.500000  1
  La  La3  1  0.840747  0.685545  0.500000  1
  In  In4  1  0.500000  0.500000  0.000000  1
  Pt  Pt5  1  0.143779  0.617165  0.000000  1
  Pt  Pt6  1  0.856221  0.382835  0.000000  1
  Pt  Pt7  1  0.617165  0.856221  0.000000  1
  Pt  Pt8  1  0.382835  0.143779  0.000000  1
  Au  Au9  1  0.000000  0.000000  0.000000  1
