# generated using pymatgen
data_Li4LaP2
_symmetry_space_group_name_H-M   'P 1'
_cell_length_a   8.15529070
_cell_length_b   8.15529075
_cell_length_c   8.15528961
_cell_angle_alpha   29.83052570
_cell_angle_beta   29.83052504
_cell_angle_gamma   29.83053155
_symmetry_Int_Tables_number   1
_chemical_formula_structural   Li4LaP2
_chemical_formula_sum   'Li4 La1 P2'
_cell_volume   118.85327194
_cell_formula_units_Z   1
loop_
 _symmetry_equiv_pos_site_id
 _symmetry_equiv_pos_as_xyz
  1  'x, y, z'
loop_
 _atom_site_type_symbol
 _atom_site_label
 _atom_site_symmetry_multiplicity
 _atom_site_fract_x
 _atom_site_fract_y
 _atom_site_fract_z
 _atom_site_occupancy
  Li  Li0  1  0.430349  0.430349  0.430349  1
  Li  Li1  1  0.139702  0.139702  0.139702  1
  Li  Li2  1  0.569651  0.569651  0.569651  1
  Li  Li3  1  0.860298  0.860298  0.860298  1
  La  La4  1  0.000000  0.000000  0.000000  1
  P  P5  1  0.750755  0.750755  0.750755  1
  P  P6  1  0.249245  0.249245  0.249245  1
