# generated using pymatgen
data_Sc8Re12Si15B
_symmetry_space_group_name_H-M   'P 1'
_cell_length_a   6.62972112
_cell_length_b   6.62698601
_cell_length_c   12.34237450
_cell_angle_alpha   89.89427768
_cell_angle_beta   90.49198445
_cell_angle_gamma   89.93123902
_symmetry_Int_Tables_number   1
_chemical_formula_structural   Sc8Re12Si15B
_chemical_formula_sum   'Sc8 Re12 Si15 B1'
_cell_volume   542.24176172
_cell_formula_units_Z   1
loop_
 _symmetry_equiv_pos_site_id
 _symmetry_equiv_pos_as_xyz
  1  'x, y, z'
loop_
 _atom_site_type_symbol
 _atom_site_label
 _atom_site_symmetry_multiplicity
 _atom_site_fract_x
 _atom_site_fract_y
 _atom_site_fract_z
 _atom_site_occupancy
  Sc  Sc0  1  0.004929  0.660100  0.030482  1
  Sc  Sc1  1  0.991232  0.349161  0.527498  1
  Sc  Sc2  1  0.328826  0.986016  0.467939  1
  Sc  Sc3  1  0.155286  0.493111  0.780606  1
  Sc  Sc4  1  0.855758  0.518434  0.290487  1
  Sc  Sc5  1  0.494071  0.157041  0.219015  1
  Sc  Sc6  1  0.499734  0.837971  0.718820  1
  Sc  Sc7  1  0.657854  0.005783  0.968882  1
  Re  Re8  1  0.674035  0.662097  0.498028  1
  Re  Re9  1  0.172724  0.831647  0.252027  1
  Re  Re10  1  0.332246  0.329973  0.999629  1
  Re  Re11  1  0.011714  0.824795  0.619837  1
  Re  Re12  1  0.980097  0.185038  0.135205  1
  Re  Re13  1  0.838924  0.999356  0.379383  1
  Re  Re14  1  0.316278  0.486384  0.382358  1
  Re  Re15  1  0.686780  0.522067  0.881436  1
  Re  Re16  1  0.474394  0.321110  0.615371  1
  Re  Re17  1  0.520719  0.684241  0.120089  1
  Re  Re18  1  0.187455  0.977312  0.863627  1
  Re  Re19  1  0.827795  0.169148  0.749479  1
  Si  Si20  1  0.624193  0.298276  0.428329  1
  Si  Si21  1  0.379810  0.693809  0.931064  1
  Si  Si22  1  0.190676  0.124397  0.677892  1
  Si  Si23  1  0.295341  0.625423  0.565112  1
  Si  Si24  1  0.696676  0.380150  0.070662  1
  Si  Si25  1  0.807486  0.878867  0.184498  1
  Si  Si26  1  0.125060  0.197804  0.320046  1
  Si  Si27  1  0.974155  0.274510  0.938006  1
  Si  Si28  1  0.706327  0.031995  0.565424  1
  Si  Si29  1  0.219952  0.473527  0.186383  1
  Si  Si30  1  0.778106  0.528108  0.685183  1
  Si  Si31  1  0.471959  0.222813  0.811254  1
  Si  Si32  1  0.534025  0.781188  0.315165  1
  Si  Si33  1  0.275833  0.972537  0.062677  1
  Si  Si34  1  0.878714  0.806652  0.814789  1
  B  B35  1  0.030833  0.709160  0.443316  1
