# generated using pymatgen
data_Ce2Pr(InPt)3
_symmetry_space_group_name_H-M   'P 1'
_cell_length_a   7.68352700
_cell_length_b   7.72448902
_cell_length_c   4.05737300
_cell_angle_alpha   90.00000000
_cell_angle_beta   90.00000000
_cell_angle_gamma   119.82473242
_symmetry_Int_Tables_number   1
_chemical_formula_structural   Ce2Pr(InPt)3
_chemical_formula_sum   'Ce2 Pr1 In3 Pt3'
_cell_volume   208.91530410
_cell_formula_units_Z   1
loop_
 _symmetry_equiv_pos_site_id
 _symmetry_equiv_pos_as_xyz
  1  'x, y, z'
loop_
 _atom_site_type_symbol
 _atom_site_label
 _atom_site_symmetry_multiplicity
 _atom_site_fract_x
 _atom_site_fract_y
 _atom_site_fract_z
 _atom_site_occupancy
  Ce  Ce0  1  0.589006  0.588332  0.500000  1
  Ce  Ce1  1  0.000675  0.411668  0.500000  1
  Pr  Pr2  1  0.409082  0.000000  0.500000  1
  In  In3  1  0.002260  0.749438  0.000000  1
  In  In4  1  0.744864  0.000000  0.000000  1
  In  In5  1  0.252822  0.250562  0.000000  1
  Pt  Pt6  1  0.994050  0.000000  0.500000  1
  Pt  Pt7  1  0.676165  0.345088  0.000000  1
  Pt  Pt8  1  0.331076  0.654912  0.000000  1
