# generated using pymatgen
data_Ca2La2As7Ir8
_symmetry_space_group_name_H-M   'P 1'
_cell_length_a   4.14062400
_cell_length_b   13.26639759
_cell_length_c   13.57312935
_cell_angle_alpha   82.07446324
_cell_angle_beta   90.00000000
_cell_angle_gamma   90.00000000
_symmetry_Int_Tables_number   1
_chemical_formula_structural   Ca2La2As7Ir8
_chemical_formula_sum   'Ca4 La4 As14 Ir16'
_cell_volume   738.46602193
_cell_formula_units_Z   2
loop_
 _symmetry_equiv_pos_site_id
 _symmetry_equiv_pos_as_xyz
  1  'x, y, z'
loop_
 _atom_site_type_symbol
 _atom_site_label
 _atom_site_symmetry_multiplicity
 _atom_site_fract_x
 _atom_site_fract_y
 _atom_site_fract_z
 _atom_site_occupancy
  Ca  Ca0  1  0.250000  0.515584  0.290999  1
  Ca  Ca1  1  0.750000  0.484416  0.709001  1
  Ca  Ca2  1  0.250000  0.212100  0.434371  1
  Ca  Ca3  1  0.750000  0.787900  0.565629  1
  La  La4  1  0.250000  0.101147  0.794581  1
  La  La5  1  0.750000  0.898853  0.205419  1
  La  La6  1  0.250000  0.288056  0.107327  1
  La  La7  1  0.750000  0.711944  0.892673  1
  As  As8  1  0.250000  0.059872  0.099458  1
  As  As9  1  0.750000  0.940128  0.900542  1
  As  As10  1  0.250000  0.312678  0.686650  1
  As  As11  1  0.750000  0.687322  0.313350  1
  As  As12  1  0.250000  0.608651  0.566645  1
  As  As13  1  0.750000  0.391349  0.433355  1
  As  As14  1  0.250000  0.848593  0.719155  1
  As  As15  1  0.750000  0.151407  0.280845  1
  As  As16  1  0.750000  0.255731  0.917083  1
  As  As17  1  0.250000  0.744269  0.082917  1
  As  As18  1  0.750000  0.096792  0.585315  1
  As  As19  1  0.250000  0.903208  0.414685  1
  As  As20  1  0.750000  0.472050  0.129808  1
  As  As21  1  0.250000  0.527950  0.870192  1
  Ir  Ir22  1  0.250000  0.986950  0.572695  1
  Ir  Ir23  1  0.750000  0.013050  0.427305  1
  Ir  Ir24  1  0.250000  0.665771  0.732007  1
  Ir  Ir25  1  0.750000  0.334229  0.267993  1
  Ir  Ir26  1  0.250000  0.554150  0.047770  1
  Ir  Ir27  1  0.750000  0.445850  0.952230  1
  Ir  Ir28  1  0.250000  0.052898  0.280234  1
  Ir  Ir29  1  0.750000  0.947102  0.719766  1
  Ir  Ir30  1  0.250000  0.426336  0.526255  1
  Ir  Ir31  1  0.750000  0.573664  0.473745  1
  Ir  Ir32  1  0.250000  0.919382  0.998847  1
  Ir  Ir33  1  0.750000  0.080618  0.001153  1
  Ir  Ir34  1  0.250000  0.721008  0.401798  1
  Ir  Ir35  1  0.750000  0.278992  0.598202  1
  Ir  Ir36  1  0.250000  0.343104  0.859797  1
  Ir  Ir37  1  0.750000  0.656896  0.140203  1
