# generated using pymatgen
data_Tb8Y2Tl7InPt4
_symmetry_space_group_name_H-M   'P 1'
_cell_length_a   3.64357200
_cell_length_b   8.28279556
_cell_length_c   18.52008397
_cell_angle_alpha   89.89372552
_cell_angle_beta   90.00000000
_cell_angle_gamma   90.00000000
_symmetry_Int_Tables_number   1
_chemical_formula_structural   Tb8Y2Tl7InPt4
_chemical_formula_sum   'Tb8 Y2 Tl7 In1 Pt4'
_cell_volume   558.91594859
_cell_formula_units_Z   1
loop_
 _symmetry_equiv_pos_site_id
 _symmetry_equiv_pos_as_xyz
  1  'x, y, z'
loop_
 _atom_site_type_symbol
 _atom_site_label
 _atom_site_symmetry_multiplicity
 _atom_site_fract_x
 _atom_site_fract_y
 _atom_site_fract_z
 _atom_site_occupancy
  Tb  Tb0  1  0.000000  0.114375  0.413628  1
  Tb  Tb1  1  0.000000  0.885116  0.585828  1
  Tb  Tb2  1  0.000000  0.385459  0.913066  1
  Tb  Tb3  1  0.000000  0.614436  0.086994  1
  Tb  Tb4  1  0.000000  0.243602  0.221015  1
  Tb  Tb5  1  0.000000  0.756781  0.779245  1
  Tb  Tb6  1  0.000000  0.256063  0.720345  1
  Tb  Tb7  1  0.000000  0.743386  0.279844  1
  Y  Y8  1  0.000000  0.999924  0.999982  1
  Y  Y9  1  0.000000  0.502179  0.499518  1
  Tl  Tl10  1  0.500000  0.424124  0.353418  1
  Tl  Tl11  1  0.500000  0.578134  0.647031  1
  Tl  Tl12  1  0.500000  0.077969  0.852810  1
  Tl  Tl13  1  0.500000  0.922238  0.147409  1
  Tl  Tl14  1  0.500000  0.291702  0.065459  1
  Tl  Tl15  1  0.500000  0.707932  0.934643  1
  Tl  Tl16  1  0.500000  0.207941  0.565152  1
  In  In17  1  0.500000  0.793374  0.433495  1
  Pt  Pt18  1  0.500000  0.022632  0.304424  1
  Pt  Pt19  1  0.500000  0.973591  0.696747  1
  Pt  Pt20  1  0.500000  0.473580  0.802872  1
  Pt  Pt21  1  0.500000  0.525460  0.197077  1
