# generated using pymatgen
data_LiPrY5Ga5Rh12
_symmetry_space_group_name_H-M   'P 1'
_cell_length_a   5.57699400
_cell_length_b   5.57699308
_cell_length_c   15.66955500
_cell_angle_alpha   90.00000000
_cell_angle_beta   90.00000000
_cell_angle_gamma   119.99999357
_symmetry_Int_Tables_number   1
_chemical_formula_structural   LiPrY5Ga5Rh12
_chemical_formula_sum   'Li1 Pr1 Y5 Ga5 Rh12'
_cell_volume   422.07303387
_cell_formula_units_Z   1
loop_
 _symmetry_equiv_pos_site_id
 _symmetry_equiv_pos_as_xyz
  1  'x, y, z'
loop_
 _atom_site_type_symbol
 _atom_site_label
 _atom_site_symmetry_multiplicity
 _atom_site_fract_x
 _atom_site_fract_y
 _atom_site_fract_z
 _atom_site_occupancy
  Li  Li0  1  0.333333  0.666667  0.750000  1
  Pr  Pr1  1  0.333333  0.666667  0.250000  1
  Y  Y2  1  0.666667  0.333333  0.958424  1
  Y  Y3  1  0.666667  0.333333  0.541576  1
  Y  Y4  1  0.333333  0.666667  0.038227  1
  Y  Y5  1  0.666667  0.333333  0.750000  1
  Y  Y6  1  0.333333  0.666667  0.461773  1
  Ga  Ga7  1  0.666667  0.333333  0.250000  1
  Ga  Ga8  1  0.000000  0.000000  0.503533  1
  Ga  Ga9  1  0.000000  0.000000  0.250000  1
  Ga  Ga10  1  0.000000  0.000000  0.750000  1
  Ga  Ga11  1  0.000000  0.000000  0.996467  1
  Rh  Rh12  1  0.171447  0.342894  0.873522  1
  Rh  Rh13  1  0.171447  0.342894  0.626478  1
  Rh  Rh14  1  0.657106  0.828553  0.873522  1
  Rh  Rh15  1  0.336462  0.168231  0.375721  1
  Rh  Rh16  1  0.831769  0.663538  0.375721  1
  Rh  Rh17  1  0.831769  0.168231  0.375721  1
  Rh  Rh18  1  0.831769  0.168231  0.124279  1
  Rh  Rh19  1  0.336462  0.168231  0.124279  1
  Rh  Rh20  1  0.657106  0.828553  0.626478  1
  Rh  Rh21  1  0.171447  0.828553  0.626478  1
  Rh  Rh22  1  0.831769  0.663538  0.124279  1
  Rh  Rh23  1  0.171447  0.828553  0.873522  1
