# generated using pymatgen
data_La2PrMg3CuSn2
_symmetry_space_group_name_H-M   'P 1'
_cell_length_a   7.76141700
_cell_length_b   7.74686836
_cell_length_c   4.63174200
_cell_angle_alpha   90.00000000
_cell_angle_beta   90.00000000
_cell_angle_gamma   120.06213902
_symmetry_Int_Tables_number   1
_chemical_formula_structural   La2PrMg3CuSn2
_chemical_formula_sum   'La2 Pr1 Mg3 Cu1 Sn2'
_cell_volume   241.02933901
_cell_formula_units_Z   1
loop_
 _symmetry_equiv_pos_site_id
 _symmetry_equiv_pos_as_xyz
  1  'x, y, z'
loop_
 _atom_site_type_symbol
 _atom_site_label
 _atom_site_symmetry_multiplicity
 _atom_site_fract_x
 _atom_site_fract_y
 _atom_site_fract_z
 _atom_site_occupancy
  La  La0  1  0.000182  0.596144  0.000000  1
  La  La1  1  0.404038  0.403856  0.000000  1
  Pr  Pr2  1  0.596770  0.000000  0.000000  1
  Mg  Mg3  1  0.233228  0.000000  0.500000  1
  Mg  Mg4  1  0.999217  0.232187  0.500000  1
  Mg  Mg5  1  0.767030  0.767813  0.500000  1
  Cu  Cu6  1  0.999437  0.000000  0.000000  1
  Sn  Sn7  1  0.334168  0.668240  0.500000  1
  Sn  Sn8  1  0.665930  0.331760  0.500000  1
