# generated using pymatgen
data_Tb2HoAl12CuRu3
_symmetry_space_group_name_H-M   'P 1'
_cell_length_a   8.83992935
_cell_length_b   8.83660645
_cell_length_c   9.48133100
_cell_angle_alpha   90.00000000
_cell_angle_beta   90.00000000
_cell_angle_gamma   119.55389635
_symmetry_Int_Tables_number   1
_chemical_formula_structural   Tb2HoAl12CuRu3
_chemical_formula_sum   'Tb4 Ho2 Al24 Cu2 Ru6'
_cell_volume   644.27162522
_cell_formula_units_Z   2
loop_
 _symmetry_equiv_pos_site_id
 _symmetry_equiv_pos_as_xyz
  1  'x, y, z'
loop_
 _atom_site_type_symbol
 _atom_site_label
 _atom_site_symmetry_multiplicity
 _atom_site_fract_x
 _atom_site_fract_y
 _atom_site_fract_z
 _atom_site_occupancy
  Tb  Tb0  1  0.810993  0.616095  0.250000  1
  Tb  Tb1  1  0.617187  0.811786  0.750000  1
  Tb  Tb2  1  0.193098  0.806777  0.750000  1
  Tb  Tb3  1  0.188293  0.382766  0.750000  1
  Ho  Ho4  1  0.384775  0.188777  0.250000  1
  Ho  Ho5  1  0.805603  0.194169  0.250000  1
  Al  Al6  1  0.440273  0.878930  0.250000  1
  Al  Al7  1  0.121632  0.559547  0.250000  1
  Al  Al8  1  0.438907  0.560195  0.250000  1
  Al  Al9  1  0.560405  0.122261  0.750000  1
  Al  Al10  1  0.877691  0.439611  0.750000  1
  Al  Al11  1  0.560995  0.439046  0.750000  1
  Al  Al12  1  0.163915  0.836631  0.422740  1
  Al  Al13  1  0.156874  0.323578  0.421607  1
  Al  Al14  1  0.676248  0.843243  0.421860  1
  Al  Al15  1  0.836244  0.163709  0.576370  1
  Al  Al16  1  0.842750  0.675872  0.577715  1
  Al  Al17  1  0.324050  0.157137  0.577386  1
  Al  Al18  1  0.836244  0.163709  0.923630  1
  Al  Al19  1  0.842750  0.675872  0.922285  1
  Al  Al20  1  0.324050  0.157137  0.922614  1
  Al  Al21  1  0.163915  0.836631  0.077260  1
  Al  Al22  1  0.156874  0.323578  0.078393  1
  Al  Al23  1  0.676248  0.843243  0.078140  1
  Al  Al24  1  0.332020  0.667915  0.519256  1
  Al  Al25  1  0.667779  0.331574  0.479613  1
  Al  Al26  1  0.667779  0.331574  0.020387  1
  Al  Al27  1  0.332020  0.667915  0.980744  1
  Al  Al28  1  0.002361  0.998643  0.250000  1
  Al  Al29  1  0.997960  0.001886  0.750000  1
  Cu  Cu30  1  0.500033  0.500251  0.500132  1
  Cu  Cu31  1  0.500033  0.500251  0.999868  1
  Ru  Ru32  1  0.000055  0.000093  0.499714  1
  Ru  Ru33  1  0.000055  0.000093  0.000286  1
  Ru  Ru34  1  0.500244  0.000313  0.499362  1
  Ru  Ru35  1  0.999702  0.499439  0.499515  1
  Ru  Ru36  1  0.500244  0.000313  0.000638  1
  Ru  Ru37  1  0.999702  0.499439  0.000485  1
