# generated using pymatgen
data_Mn4IOF14
_symmetry_space_group_name_H-M   'P 1'
_cell_length_a   5.68547145
_cell_length_b   6.96276420
_cell_length_c   9.08122942
_cell_angle_alpha   105.55441995
_cell_angle_beta   107.91486547
_cell_angle_gamma   89.13849808
_symmetry_Int_Tables_number   1
_chemical_formula_structural   Mn4IOF14
_chemical_formula_sum   'Mn4 I1 O1 F14'
_cell_volume   328.64370970
_cell_formula_units_Z   1
loop_
 _symmetry_equiv_pos_site_id
 _symmetry_equiv_pos_as_xyz
  1  'x, y, z'
loop_
 _atom_site_type_symbol
 _atom_site_label
 _atom_site_symmetry_multiplicity
 _atom_site_fract_x
 _atom_site_fract_y
 _atom_site_fract_z
 _atom_site_occupancy
  Mn  Mn0  1  0.419199  0.099755  0.315084  1
  Mn  Mn1  1  0.581384  0.875754  0.689888  1
  Mn  Mn2  1  0.822410  0.718379  0.101140  1
  Mn  Mn3  1  0.982528  0.499933  0.480387  1
  I  I4  1  0.181245  0.313919  0.914392  1
  O  O5  1  0.999470  0.497913  0.999751  1
  F  F6  1  0.889021  0.107519  0.803977  1
  F  F7  1  0.320160  0.207829  0.133503  1
  F  F8  1  0.180805  0.305818  0.404054  1
  F  F9  1  0.388946  0.089417  0.792353  1
  F  F10  1  0.794532  0.682089  0.583547  1
  F  F11  1  0.511064  0.002829  0.496749  1
  F  F12  1  0.145371  0.907164  0.211552  1
  F  F13  1  0.701872  0.300729  0.406183  1
  F  F14  1  0.268667  0.679719  0.589534  1
  F  F15  1  0.632876  0.908443  0.194406  1
  F  F16  1  0.724626  0.797250  0.908044  1
  F  F17  1  0.089740  0.387127  0.712942  1
  F  F18  1  0.887367  0.608303  0.278192  1
  F  F19  1  0.478720  0.510106  0.984320  1
