# generated using pymatgen
data_HfAl2Ru4W
_symmetry_space_group_name_H-M   'P 1'
_cell_length_a   4.38579200
_cell_length_b   6.19987100
_cell_length_c   13.15793100
_cell_angle_alpha   90.00000000
_cell_angle_beta   89.99932069
_cell_angle_gamma   90.00000000
_symmetry_Int_Tables_number   1
_chemical_formula_structural   HfAl2Ru4W
_chemical_formula_sum   'Hf3 Al6 Ru12 W3'
_cell_volume   357.78183646
_cell_formula_units_Z   3
loop_
 _symmetry_equiv_pos_site_id
 _symmetry_equiv_pos_as_xyz
  1  'x, y, z'
loop_
 _atom_site_type_symbol
 _atom_site_label
 _atom_site_symmetry_multiplicity
 _atom_site_fract_x
 _atom_site_fract_y
 _atom_site_fract_z
 _atom_site_occupancy
  Hf  Hf0  1  0.500003  0.500000  0.499525  1
  Hf  Hf1  1  0.000092  0.000000  0.666665  1
  Hf  Hf2  1  0.500074  0.500000  0.833810  1
  Al  Al3  1  0.000009  0.500000  0.000904  1
  Al  Al4  1  0.499876  0.000000  0.166670  1
  Al  Al5  1  0.999912  0.500000  0.332431  1
  Al  Al6  1  0.500011  0.000000  0.501275  1
  Al  Al7  1  0.000086  0.500000  0.666666  1
  Al  Al8  1  0.500068  0.000000  0.832059  1
  Ru  Ru9  1  0.499992  0.244941  0.007337  1
  Ru  Ru10  1  0.499992  0.755060  0.007337  1
  Ru  Ru11  1  0.999921  0.251278  0.166667  1
  Ru  Ru12  1  0.999921  0.748723  0.166667  1
  Ru  Ru13  1  0.499918  0.244942  0.325997  1
  Ru  Ru14  1  0.499918  0.755059  0.325997  1
  Ru  Ru15  1  0.000004  0.244852  0.492180  1
  Ru  Ru16  1  0.000004  0.755148  0.492180  1
  Ru  Ru17  1  0.500113  0.251266  0.666666  1
  Ru  Ru18  1  0.500113  0.748735  0.666666  1
  Ru  Ru19  1  0.000064  0.244850  0.841148  1
  Ru  Ru20  1  0.000064  0.755151  0.841148  1
  W  W21  1  0.000001  0.000000  0.998919  1
  W  W22  1  0.499919  0.500000  0.166668  1
  W  W23  1  0.999924  0.000000  0.334415  1
