# generated using pymatgen
data_Tb3Lu2ScCoTe2
_symmetry_space_group_name_H-M   'P 1'
_cell_length_a   8.15175892
_cell_length_b   8.23788440
_cell_length_c   3.93421100
_cell_angle_alpha   90.00000000
_cell_angle_beta   90.00000000
_cell_angle_gamma   120.35012190
_symmetry_Int_Tables_number   1
_chemical_formula_structural   Tb3Lu2ScCoTe2
_chemical_formula_sum   'Tb3 Lu2 Sc1 Co1 Te2'
_cell_volume   227.98813531
_cell_formula_units_Z   1
loop_
 _symmetry_equiv_pos_site_id
 _symmetry_equiv_pos_as_xyz
  1  'x, y, z'
loop_
 _atom_site_type_symbol
 _atom_site_label
 _atom_site_symmetry_multiplicity
 _atom_site_fract_x
 _atom_site_fract_y
 _atom_site_fract_z
 _atom_site_occupancy
  Tb  Tb0  1  0.000000  0.407022  0.500000  1
  Tb  Tb1  1  0.612724  0.610849  0.500000  1
  Tb  Tb2  1  0.387276  0.998125  0.500000  1
  Lu  Lu3  1  0.226292  0.231675  0.000000  1
  Lu  Lu4  1  0.773708  0.005382  0.000000  1
  Sc  Sc5  1  0.000000  0.769113  0.000000  1
  Co  Co6  1  0.000000  0.972567  0.500000  1
  Te  Te7  1  0.332654  0.668962  0.000000  1
  Te  Te8  1  0.667346  0.336307  0.000000  1
