# generated using pymatgen
data_VGaFeO4
_symmetry_space_group_name_H-M   'P 1'
_cell_length_a   5.91682044
_cell_length_b   6.01077336
_cell_length_c   8.42540200
_cell_angle_alpha   89.98322336
_cell_angle_beta   90.10234541
_cell_angle_gamma   89.96527569
_symmetry_Int_Tables_number   1
_chemical_formula_structural   VGaFeO4
_chemical_formula_sum   'V4 Ga4 Fe4 O16'
_cell_volume   299.64606788
_cell_formula_units_Z   4
loop_
 _symmetry_equiv_pos_site_id
 _symmetry_equiv_pos_as_xyz
  1  'x, y, z'
loop_
 _atom_site_type_symbol
 _atom_site_label
 _atom_site_symmetry_multiplicity
 _atom_site_fract_x
 _atom_site_fract_y
 _atom_site_fract_z
 _atom_site_occupancy
  V  V0  1  0.999997  0.750000  0.625006  1
  V  V1  1  0.499998  0.249997  0.124995  1
  V  V2  1  0.000003  0.249994  0.625002  1
  V  V3  1  0.500002  0.750006  0.125000  1
  Ga  Ga4  1  0.999590  0.000128  0.994215  1
  Ga  Ga5  1  0.499313  0.499835  0.493791  1
  Ga  Ga6  1  0.000409  0.499877  0.255788  1
  Ga  Ga7  1  0.500686  0.000163  0.756208  1
  Fe  Fe8  1  0.749981  0.499217  0.874723  1
  Fe  Fe9  1  0.249604  0.499703  0.875209  1
  Fe  Fe10  1  0.250019  0.000777  0.375276  1
  Fe  Fe11  1  0.750396  0.000305  0.374790  1
  O  O12  1  0.000494  0.752660  0.382774  1
  O  O13  1  0.500191  0.252704  0.882329  1
  O  O14  1  0.000089  0.247816  0.382899  1
  O  O15  1  0.500095  0.747393  0.883965  1
  O  O16  1  0.999911  0.252196  0.867103  1
  O  O17  1  0.499920  0.752597  0.366033  1
  O  O18  1  0.999505  0.747351  0.867224  1
  O  O19  1  0.499798  0.247289  0.367672  1
  O  O20  1  0.236279  0.997419  0.629303  1
  O  O21  1  0.734229  0.502266  0.129532  1
  O  O22  1  0.763207  0.002259  0.628708  1
  O  O23  1  0.260591  0.496375  0.127907  1
  O  O24  1  0.236796  0.497741  0.621292  1
  O  O25  1  0.739404  0.003631  0.122094  1
  O  O26  1  0.763720  0.502574  0.620693  1
  O  O27  1  0.265774  0.997732  0.120469  1
