# generated using pymatgen
data_Tb5RuWC7
_symmetry_space_group_name_H-M   'P 1'
_cell_length_a   8.35656422
_cell_length_b   8.35656294
_cell_length_c   3.50255700
_cell_angle_alpha   90.00000000
_cell_angle_beta   90.00000000
_cell_angle_gamma   122.68564841
_symmetry_Int_Tables_number   1
_chemical_formula_structural   Tb5RuWC7
_chemical_formula_sum   'Tb5 Ru1 W1 C7'
_cell_volume   205.85914208
_cell_formula_units_Z   1
loop_
 _symmetry_equiv_pos_site_id
 _symmetry_equiv_pos_as_xyz
  1  'x, y, z'
loop_
 _atom_site_type_symbol
 _atom_site_label
 _atom_site_symmetry_multiplicity
 _atom_site_fract_x
 _atom_site_fract_y
 _atom_site_fract_z
 _atom_site_occupancy
  Tb  Tb0  1  0.501883  0.498117  0.000000  1
  Tb  Tb1  1  0.071073  0.332835  0.500000  1
  Tb  Tb2  1  0.923253  0.663082  0.500000  1
  Tb  Tb3  1  0.667165  0.928927  0.500000  1
  Tb  Tb4  1  0.336918  0.076747  0.500000  1
  Ru  Ru5  1  0.710163  0.289837  0.000000  1
  W  W6  1  0.287557  0.712443  0.000000  1
  C  C7  1  0.632123  0.367877  0.500000  1
  C  C8  1  0.374884  0.625116  0.500000  1
  C  C9  1  0.998932  0.001068  0.000000  1
  C  C10  1  0.168502  0.169812  0.000000  1
  C  C11  1  0.830188  0.831498  0.000000  1
  C  C12  1  0.001105  0.503743  0.000000  1
  C  C13  1  0.496257  0.998895  0.000000  1
