# generated using pymatgen
data_Gd3Al9Re3Os4
_symmetry_space_group_name_H-M   'P 1'
_cell_length_a   8.87584200
_cell_length_b   8.87584317
_cell_length_c   9.57542700
_cell_angle_alpha   90.00000000
_cell_angle_beta   90.00000000
_cell_angle_gamma   119.99999565
_symmetry_Int_Tables_number   1
_chemical_formula_structural   Gd3Al9Re3Os4
_chemical_formula_sum   'Gd6 Al18 Re6 Os8'
_cell_volume   653.29296718
_cell_formula_units_Z   2
loop_
 _symmetry_equiv_pos_site_id
 _symmetry_equiv_pos_as_xyz
  1  'x, y, z'
loop_
 _atom_site_type_symbol
 _atom_site_label
 _atom_site_symmetry_multiplicity
 _atom_site_fract_x
 _atom_site_fract_y
 _atom_site_fract_z
 _atom_site_occupancy
  Gd  Gd0  1  0.196372  0.392744  0.250000  1
  Gd  Gd1  1  0.803628  0.607256  0.750000  1
  Gd  Gd2  1  0.607256  0.803628  0.250000  1
  Gd  Gd3  1  0.392744  0.196372  0.750000  1
  Gd  Gd4  1  0.196372  0.803628  0.250000  1
  Gd  Gd5  1  0.803628  0.196372  0.750000  1
  Al  Al6  1  0.333333  0.666667  0.008717  1
  Al  Al7  1  0.666667  0.333333  0.991283  1
  Al  Al8  1  0.666667  0.333333  0.508717  1
  Al  Al9  1  0.333333  0.666667  0.491283  1
  Al  Al10  1  0.165151  0.330301  0.576107  1
  Al  Al11  1  0.834849  0.669699  0.423893  1
  Al  Al12  1  0.669699  0.834849  0.576107  1
  Al  Al13  1  0.834849  0.669699  0.076107  1
  Al  Al14  1  0.330301  0.165151  0.423893  1
  Al  Al15  1  0.165151  0.330301  0.923893  1
  Al  Al16  1  0.165151  0.834849  0.576107  1
  Al  Al17  1  0.330301  0.165151  0.076107  1
  Al  Al18  1  0.834849  0.165151  0.423893  1
  Al  Al19  1  0.669699  0.834849  0.923893  1
  Al  Al20  1  0.834849  0.165151  0.076107  1
  Al  Al21  1  0.165151  0.834849  0.923893  1
  Al  Al22  1  0.000000  0.000000  0.250000  1
  Al  Al23  1  0.000000  0.000000  0.750000  1
  Re  Re24  1  0.571554  0.143108  0.250000  1
  Re  Re25  1  0.428446  0.856892  0.750000  1
  Re  Re26  1  0.856892  0.428446  0.250000  1
  Re  Re27  1  0.143108  0.571554  0.750000  1
  Re  Re28  1  0.571554  0.428446  0.250000  1
  Re  Re29  1  0.428446  0.571554  0.750000  1
  Os  Os30  1  0.500000  0.000000  0.000000  1
  Os  Os31  1  0.000000  0.500000  0.000000  1
  Os  Os32  1  0.500000  0.000000  0.500000  1
  Os  Os33  1  0.500000  0.500000  0.000000  1
  Os  Os34  1  0.000000  0.500000  0.500000  1
  Os  Os35  1  0.500000  0.500000  0.500000  1
  Os  Os36  1  0.000000  0.000000  0.000000  1
  Os  Os37  1  0.000000  0.000000  0.500000  1
