# generated using pymatgen
data_SnSb11Pd4
_symmetry_space_group_name_H-M   'P 1'
_cell_length_a   8.28201031
_cell_length_b   8.27617198
_cell_length_c   8.28201026
_cell_angle_alpha   109.29404759
_cell_angle_beta   109.60357864
_cell_angle_gamma   109.54468121
_symmetry_Int_Tables_number   1
_chemical_formula_structural   SnSb11Pd4
_chemical_formula_sum   'Sn1 Sb11 Pd4'
_cell_volume   436.84044403
_cell_formula_units_Z   1
loop_
 _symmetry_equiv_pos_site_id
 _symmetry_equiv_pos_as_xyz
  1  'x, y, z'
loop_
 _atom_site_type_symbol
 _atom_site_label
 _atom_site_symmetry_multiplicity
 _atom_site_fract_x
 _atom_site_fract_y
 _atom_site_fract_z
 _atom_site_occupancy
  Sn  Sn0  1  0.155972  0.814077  0.658104  1
  Sb  Sb1  1  0.849057  0.195496  0.346438  1
  Sb  Sb2  1  0.846667  0.501442  0.654774  1
  Sb  Sb3  1  0.155365  0.501620  0.346256  1
  Sb  Sb4  1  0.808806  0.654686  0.154839  1
  Sb  Sb5  1  0.190596  0.344314  0.845390  1
  Sb  Sb6  1  0.499848  0.654686  0.845880  1
  Sb  Sb7  1  0.498923  0.344314  0.153718  1
  Sb  Sb8  1  0.652863  0.152374  0.808444  1
  Sb  Sb9  1  0.343899  0.843385  0.188167  1
  Sb  Sb10  1  0.655219  0.843385  0.499488  1
  Sb  Sb11  1  0.343930  0.152374  0.499510  1
  Pd  Pd12  1  0.999005  0.001826  0.498816  1
  Pd  Pd13  1  0.503010  0.001826  0.002821  1
  Pd  Pd14  1  0.998135  0.497097  0.998393  1
  Pd  Pd15  1  0.498705  0.497097  0.498963  1
