# generated using pymatgen
data_Ag7Mo(SO4)6
_symmetry_space_group_name_H-M   'P 1'
_cell_length_a   8.71561146
_cell_length_b   8.71561236
_cell_length_c   8.71561165
_cell_angle_alpha   107.95980964
_cell_angle_beta   107.95981544
_cell_angle_gamma   107.95982094
_symmetry_Int_Tables_number   1
_chemical_formula_structural   Ag7Mo(SO4)6
_chemical_formula_sum   'Ag7 Mo1 S6 O24'
_cell_volume   536.27440976
_cell_formula_units_Z   1
loop_
 _symmetry_equiv_pos_site_id
 _symmetry_equiv_pos_as_xyz
  1  'x, y, z'
loop_
 _atom_site_type_symbol
 _atom_site_label
 _atom_site_symmetry_multiplicity
 _atom_site_fract_x
 _atom_site_fract_y
 _atom_site_fract_z
 _atom_site_occupancy
  Ag  Ag0  1  0.500000  0.500000  0.500000  1
  Ag  Ag1  1  0.832200  0.339049  0.676979  1
  Ag  Ag2  1  0.339049  0.676979  0.832200  1
  Ag  Ag3  1  0.676979  0.832200  0.339049  1
  Ag  Ag4  1  0.167800  0.660951  0.323021  1
  Ag  Ag5  1  0.660951  0.323021  0.167800  1
  Ag  Ag6  1  0.323021  0.167800  0.660951  1
  Mo  Mo7  1  0.000000  0.000000  0.000000  1
  S  S8  1  0.969300  0.750028  0.601672  1
  S  S9  1  0.750028  0.601672  0.969300  1
  S  S10  1  0.601672  0.969300  0.750028  1
  S  S11  1  0.030700  0.249972  0.398328  1
  S  S12  1  0.249972  0.398328  0.030700  1
  S  S13  1  0.398328  0.030700  0.249972  1
  O  O14  1  0.468078  0.909234  0.169507  1
  O  O15  1  0.909234  0.169507  0.468078  1
  O  O16  1  0.169507  0.468078  0.909234  1
  O  O17  1  0.531922  0.090766  0.830493  1
  O  O18  1  0.090766  0.830493  0.531922  1
  O  O19  1  0.830493  0.531922  0.090766  1
  O  O20  1  0.319831  0.976612  0.363549  1
  O  O21  1  0.976612  0.363549  0.319831  1
  O  O22  1  0.363549  0.319831  0.976612  1
  O  O23  1  0.680169  0.023388  0.636451  1
  O  O24  1  0.023388  0.636451  0.680169  1
  O  O25  1  0.636451  0.680169  0.023388  1
  O  O26  1  0.743357  0.973986  0.909926  1
  O  O27  1  0.973986  0.909926  0.743357  1
  O  O28  1  0.646646  0.459029  0.777300  1
  O  O29  1  0.777300  0.646646  0.459029  1
  O  O30  1  0.459029  0.777300  0.646646  1
  O  O31  1  0.353354  0.540971  0.222700  1
  O  O32  1  0.222700  0.353354  0.540971  1
  O  O33  1  0.540971  0.222700  0.353354  1
  O  O34  1  0.090074  0.256643  0.026014  1
  O  O35  1  0.026014  0.090074  0.256643  1
  O  O36  1  0.256643  0.026014  0.090074  1
  O  O37  1  0.909926  0.743357  0.973986  1
