# generated using pymatgen
data_DyHo7Cr2(OsC4)2
_symmetry_space_group_name_H-M   'P 1'
_cell_length_a   5.04635500
_cell_length_b   6.46335868
_cell_length_c   9.75492212
_cell_angle_alpha   90.16749569
_cell_angle_beta   90.00000000
_cell_angle_gamma   90.00000000
_symmetry_Int_Tables_number   1
_chemical_formula_structural   DyHo7Cr2(OsC4)2
_chemical_formula_sum   'Dy1 Ho7 Cr2 Os2 C8'
_cell_volume   318.16910574
_cell_formula_units_Z   1
loop_
 _symmetry_equiv_pos_site_id
 _symmetry_equiv_pos_as_xyz
  1  'x, y, z'
loop_
 _atom_site_type_symbol
 _atom_site_label
 _atom_site_symmetry_multiplicity
 _atom_site_fract_x
 _atom_site_fract_y
 _atom_site_fract_z
 _atom_site_occupancy
  Dy  Dy0  1  0.250000  0.027333  0.284166  1
  Ho  Ho1  1  0.250000  0.682651  0.558426  1
  Ho  Ho2  1  0.750000  0.317587  0.441747  1
  Ho  Ho3  1  0.750000  0.821391  0.054009  1
  Ho  Ho4  1  0.250000  0.178527  0.945837  1
  Ho  Ho5  1  0.250000  0.530780  0.215891  1
  Ho  Ho6  1  0.750000  0.469212  0.784024  1
  Ho  Ho7  1  0.750000  0.972389  0.716041  1
  Cr  Cr8  1  0.250000  0.724699  0.861967  1
  Cr  Cr9  1  0.750000  0.275241  0.137825  1
  Os  Os10  1  0.750000  0.775747  0.362717  1
  Os  Os11  1  0.250000  0.224147  0.637356  1
  C  C12  1  0.250000  0.463651  0.763746  1
  C  C13  1  0.750000  0.536270  0.236291  1
  C  C14  1  0.750000  0.046507  0.255484  1
  C  C15  1  0.250000  0.953486  0.744318  1
  C  C16  1  0.250000  0.813330  0.039937  1
  C  C17  1  0.750000  0.186404  0.959857  1
  C  C18  1  0.750000  0.678365  0.548704  1
  C  C19  1  0.250000  0.322284  0.451655  1
