# generated using pymatgen
data_Nd2PaNi2
_symmetry_space_group_name_H-M   'P 1'
_cell_length_a   6.13462136
_cell_length_b   6.13462138
_cell_length_c   6.13462005
_cell_angle_alpha   144.45149628
_cell_angle_beta   119.22791133
_cell_angle_gamma   72.42773063
_symmetry_Int_Tables_number   1
_chemical_formula_structural   Nd2PaNi2
_chemical_formula_sum   'Nd2 Pa1 Ni2'
_cell_volume   115.04771320
_cell_formula_units_Z   1
loop_
 _symmetry_equiv_pos_site_id
 _symmetry_equiv_pos_as_xyz
  1  'x, y, z'
loop_
 _atom_site_type_symbol
 _atom_site_label
 _atom_site_symmetry_multiplicity
 _atom_site_fract_x
 _atom_site_fract_y
 _atom_site_fract_z
 _atom_site_occupancy
  Nd  Nd0  1  0.300885  0.800885  0.500000  1
  Nd  Nd1  1  0.699115  0.199115  0.500000  1
  Pa  Pa2  1  0.000000  0.000000  0.000000  1
  Ni  Ni3  1  0.284418  0.500000  0.784418  1
  Ni  Ni4  1  0.715582  0.500000  0.215582  1
