# generated using pymatgen
data_La3SmSn4(BRh6)2
_symmetry_space_group_name_H-M   'P 1'
_cell_length_a   5.89593200
_cell_length_b   5.89593123
_cell_length_c   13.59235000
_cell_angle_alpha   90.00000000
_cell_angle_beta   90.00000000
_cell_angle_gamma   120.00000433
_symmetry_Int_Tables_number   1
_chemical_formula_structural   La3SmSn4(BRh6)2
_chemical_formula_sum   'La3 Sm1 Sn4 B2 Rh12'
_cell_volume   409.19473479
_cell_formula_units_Z   1
loop_
 _symmetry_equiv_pos_site_id
 _symmetry_equiv_pos_as_xyz
  1  'x, y, z'
loop_
 _atom_site_type_symbol
 _atom_site_label
 _atom_site_symmetry_multiplicity
 _atom_site_fract_x
 _atom_site_fract_y
 _atom_site_fract_z
 _atom_site_occupancy
  La  La0  1  0.666667  0.333333  0.899776  1
  La  La1  1  0.666667  0.333333  0.596806  1
  La  La2  1  0.333333  0.666667  0.102404  1
  Sm  Sm3  1  0.333333  0.666667  0.409352  1
  Sn  Sn4  1  0.000000  0.000000  0.750235  1
  Sn  Sn5  1  0.000000  0.000000  0.250131  1
  Sn  Sn6  1  0.333333  0.666667  0.749617  1
  Sn  Sn7  1  0.666667  0.333333  0.249915  1
  B  B8  1  0.000000  0.000000  0.498169  1
  B  B9  1  0.000000  0.000000  0.999715  1
  Rh  Rh10  1  0.336889  0.168445  0.406737  1
  Rh  Rh11  1  0.831555  0.168445  0.406737  1
  Rh  Rh12  1  0.831555  0.663111  0.406737  1
  Rh  Rh13  1  0.168568  0.337135  0.907880  1
  Rh  Rh14  1  0.664032  0.832015  0.591506  1
  Rh  Rh15  1  0.662865  0.831432  0.907880  1
  Rh  Rh16  1  0.336874  0.168437  0.091837  1
  Rh  Rh17  1  0.167985  0.335968  0.591506  1
  Rh  Rh18  1  0.167985  0.832015  0.591506  1
  Rh  Rh19  1  0.831563  0.168437  0.091837  1
  Rh  Rh20  1  0.831563  0.663126  0.091837  1
  Rh  Rh21  1  0.168568  0.831432  0.907880  1
