# generated using pymatgen
data_Ta8Co7Si14Rh
_symmetry_space_group_name_H-M   'P 1'
_cell_length_a   9.24255770
_cell_length_b   9.25149615
_cell_length_c   9.22826629
_cell_angle_alpha   94.26141160
_cell_angle_beta   94.20987256
_cell_angle_gamma   148.49367528
_symmetry_Int_Tables_number   1
_chemical_formula_structural   Ta8Co7Si14Rh
_chemical_formula_sum   'Ta8 Co7 Si14 Rh1'
_cell_volume   396.81765611
_cell_formula_units_Z   1
loop_
 _symmetry_equiv_pos_site_id
 _symmetry_equiv_pos_as_xyz
  1  'x, y, z'
loop_
 _atom_site_type_symbol
 _atom_site_label
 _atom_site_symmetry_multiplicity
 _atom_site_fract_x
 _atom_site_fract_y
 _atom_site_fract_z
 _atom_site_occupancy
  Ta  Ta0  1  0.133148  0.133148  0.266296  1
  Ta  Ta1  1  0.866887  0.866887  0.733774  1
  Ta  Ta2  1  0.868711  0.133071  0.001584  1
  Ta  Ta3  1  0.132873  0.868512  0.001584  1
  Ta  Ta4  1  0.499183  0.310885  0.810260  1
  Ta  Ta5  1  0.500758  0.689312  0.190987  1
  Ta  Ta6  1  0.690229  0.501675  0.190987  1
  Ta  Ta7  1  0.311077  0.499376  0.810260  1
  Co  Co8  1  0.103288  0.603288  0.206577  1
  Co  Co9  1  0.101456  0.899281  0.500396  1
  Co  Co10  1  0.398940  0.601115  0.500396  1
  Co  Co11  1  0.598217  0.398798  0.497048  1
  Co  Co12  1  0.898831  0.098250  0.497048  1
  Co  Co13  1  0.899075  0.399075  0.798149  1
  Co  Co14  1  0.599645  0.099645  0.199290  1
  Si  Si15  1  0.512394  0.108986  0.588069  1
  Si  Si16  1  0.501970  0.907217  0.406621  1
  Si  Si17  1  0.904651  0.499404  0.406621  1
  Si  Si18  1  0.075675  0.479083  0.588069  1
  Si  Si19  1  0.750875  0.751213  0.000429  1
  Si  Si20  1  0.249554  0.249215  0.000429  1
  Si  Si21  1  0.291618  0.291618  0.583235  1
  Si  Si22  1  0.708124  0.708124  0.416247  1
  Si  Si23  1  0.722131  0.308949  0.005040  1
  Si  Si24  1  0.282910  0.696091  0.005040  1
  Si  Si25  1  0.998410  0.295125  0.296550  1
  Si  Si26  1  0.986714  0.695713  0.702301  1
  Si  Si27  1  0.715587  0.006589  0.702301  1
  Si  Si28  1  0.298140  0.001425  0.296550  1
  Rh  Rh29  1  0.398930  0.898930  0.797860  1
