# generated using pymatgen
data_Pr2Cd4CoIr17
_symmetry_space_group_name_H-M   'P 1'
_cell_length_a   8.89505087
_cell_length_b   8.89505087
_cell_length_c   5.15159400
_cell_angle_alpha   90.00000000
_cell_angle_beta   90.00000000
_cell_angle_gamma   89.41510075
_symmetry_Int_Tables_number   1
_chemical_formula_structural   Pr2Cd4CoIr17
_chemical_formula_sum   'Pr2 Cd4 Co1 Ir17'
_cell_volume   407.58282144
_cell_formula_units_Z   1
loop_
 _symmetry_equiv_pos_site_id
 _symmetry_equiv_pos_as_xyz
  1  'x, y, z'
loop_
 _atom_site_type_symbol
 _atom_site_label
 _atom_site_symmetry_multiplicity
 _atom_site_fract_x
 _atom_site_fract_y
 _atom_site_fract_z
 _atom_site_occupancy
  Pr  Pr0  1  0.500000  0.500000  0.000000  1
  Pr  Pr1  1  0.000000  0.000000  0.000000  1
  Cd  Cd2  1  0.115888  0.615888  0.000000  1
  Cd  Cd3  1  0.884112  0.384112  0.000000  1
  Cd  Cd4  1  0.381403  0.118597  0.000000  1
  Cd  Cd5  1  0.618597  0.881403  0.000000  1
  Co  Co6  1  0.000000  0.500000  0.500000  1
  Ir  Ir7  1  0.318559  0.818559  0.758861  1
  Ir  Ir8  1  0.681441  0.181441  0.758861  1
  Ir  Ir9  1  0.177713  0.322287  0.757495  1
  Ir  Ir10  1  0.822287  0.677713  0.757495  1
  Ir  Ir11  1  0.681441  0.181441  0.241139  1
  Ir  Ir12  1  0.318559  0.818559  0.241139  1
  Ir  Ir13  1  0.822287  0.677713  0.242505  1
  Ir  Ir14  1  0.177713  0.322287  0.242505  1
  Ir  Ir15  1  0.557793  0.702001  0.500000  1
  Ir  Ir16  1  0.442207  0.297999  0.500000  1
  Ir  Ir17  1  0.940980  0.210802  0.500000  1
  Ir  Ir18  1  0.059020  0.789198  0.500000  1
  Ir  Ir19  1  0.710802  0.440980  0.500000  1
  Ir  Ir20  1  0.289198  0.559020  0.500000  1
  Ir  Ir21  1  0.202001  0.057793  0.500000  1
  Ir  Ir22  1  0.797999  0.942207  0.500000  1
  Ir  Ir23  1  0.500000  0.000000  0.500000  1
