# generated using pymatgen
data_Ca4ThZr3(Ni4As3)4
_symmetry_space_group_name_H-M   'P 1'
_cell_length_a   12.84786085
_cell_length_b   12.83977943
_cell_length_c   3.97642300
_cell_angle_alpha   90.00000000
_cell_angle_beta   90.00000000
_cell_angle_gamma   119.97919763
_symmetry_Int_Tables_number   1
_chemical_formula_structural   Ca4ThZr3(Ni4As3)4
_chemical_formula_sum   'Ca4 Th1 Zr3 Ni16 As12'
_cell_volume   568.20178559
_cell_formula_units_Z   1
loop_
 _symmetry_equiv_pos_site_id
 _symmetry_equiv_pos_as_xyz
  1  'x, y, z'
loop_
 _atom_site_type_symbol
 _atom_site_label
 _atom_site_symmetry_multiplicity
 _atom_site_fract_x
 _atom_site_fract_y
 _atom_site_fract_z
 _atom_site_occupancy
  Ca  Ca0  1  0.187563  0.188308  0.500000  1
  Ca  Ca1  1  0.812437  0.000745  0.500000  1
  Ca  Ca2  1  0.332636  0.666544  0.000000  1
  Ca  Ca3  1  0.667364  0.333906  0.000000  1
  Th  Th4  1  0.000000  0.814528  0.500000  1
  Zr  Zr5  1  0.568232  0.568289  0.000000  1
  Zr  Zr6  1  0.431768  0.000056  0.000000  1
  Zr  Zr7  1  0.000000  0.428679  0.000000  1
  Ni  Ni8  1  0.725606  0.722313  0.500000  1
  Ni  Ni9  1  0.274394  0.996707  0.500000  1
  Ni  Ni10  1  0.000000  0.275170  0.500000  1
  Ni  Ni11  1  0.186501  0.378291  0.000000  1
  Ni  Ni12  1  0.617372  0.807329  0.000000  1
  Ni  Ni13  1  0.190471  0.815850  0.000000  1
  Ni  Ni14  1  0.809529  0.625380  0.000000  1
  Ni  Ni15  1  0.813499  0.191791  0.000000  1
  Ni  Ni16  1  0.382628  0.189959  0.000000  1
  Ni  Ni17  1  0.365672  0.485682  0.500000  1
  Ni  Ni18  1  0.514428  0.879787  0.500000  1
  Ni  Ni19  1  0.118991  0.634114  0.500000  1
  Ni  Ni20  1  0.881009  0.515122  0.500000  1
  Ni  Ni21  1  0.634328  0.120009  0.500000  1
  Ni  Ni22  1  0.485572  0.365358  0.500000  1
  Ni  Ni23  1  0.000000  0.997266  0.000000  1
  As  As24  1  0.816123  0.822590  0.000000  1
  As  As25  1  0.183877  0.006467  0.000000  1
  As  As26  1  0.000000  0.177513  0.000000  1
  As  As27  1  0.173319  0.476172  0.500000  1
  As  As28  1  0.523093  0.695911  0.500000  1
  As  As29  1  0.303281  0.826016  0.500000  1
  As  As30  1  0.696719  0.522735  0.500000  1
  As  As31  1  0.826681  0.302853  0.500000  1
  As  As32  1  0.476907  0.172818  0.500000  1
  As  As33  1  0.359583  0.359650  0.000000  1
  As  As34  1  0.640417  0.000067  0.000000  1
  As  As35  1  0.000000  0.636027  0.000000  1
