# generated using pymatgen
data_DyY3Fe4(P3Rh4)4
_symmetry_space_group_name_H-M   'P 1'
_cell_length_a   3.86318600
_cell_length_b   10.76852206
_cell_length_c   12.44842006
_cell_angle_alpha   90.01170386
_cell_angle_beta   90.00000000
_cell_angle_gamma   90.00000000
_symmetry_Int_Tables_number   1
_chemical_formula_structural   DyY3Fe4(P3Rh4)4
_chemical_formula_sum   'Dy1 Y3 Fe4 P12 Rh16'
_cell_volume   517.86426805
_cell_formula_units_Z   1
loop_
 _symmetry_equiv_pos_site_id
 _symmetry_equiv_pos_as_xyz
  1  'x, y, z'
loop_
 _atom_site_type_symbol
 _atom_site_label
 _atom_site_symmetry_multiplicity
 _atom_site_fract_x
 _atom_site_fract_y
 _atom_site_fract_z
 _atom_site_occupancy
  Dy  Dy0  1  0.750000  0.082790  0.790485  1
  Y  Y1  1  0.250000  0.582742  0.709591  1
  Y  Y2  1  0.250000  0.917303  0.209494  1
  Y  Y3  1  0.750000  0.417247  0.290483  1
  Fe  Fe4  1  0.250000  0.462060  0.933117  1
  Fe  Fe5  1  0.250000  0.037889  0.433338  1
  Fe  Fe6  1  0.750000  0.537905  0.066665  1
  Fe  Fe7  1  0.750000  0.962132  0.566934  1
  P  P8  1  0.250000  0.430217  0.105386  1
  P  P9  1  0.250000  0.069753  0.605650  1
  P  P10  1  0.750000  0.569696  0.894502  1
  P  P11  1  0.750000  0.930267  0.394646  1
  P  P12  1  0.250000  0.271082  0.870165  1
  P  P13  1  0.250000  0.228817  0.370279  1
  P  P14  1  0.750000  0.728804  0.129660  1
  P  P15  1  0.750000  0.771261  0.629746  1
  P  P16  1  0.250000  0.601308  0.389060  1
  P  P17  1  0.250000  0.898881  0.888946  1
  P  P18  1  0.750000  0.398776  0.610932  1
  P  P19  1  0.750000  0.101229  0.110981  1
  Rh  Rh20  1  0.250000  0.716720  0.990687  1
  Rh  Rh21  1  0.250000  0.783346  0.490847  1
  Rh  Rh22  1  0.750000  0.283106  0.009107  1
  Rh  Rh23  1  0.750000  0.216578  0.509478  1
  Rh  Rh24  1  0.250000  0.408407  0.479650  1
  Rh  Rh25  1  0.250000  0.091530  0.979238  1
  Rh  Rh26  1  0.750000  0.591567  0.520400  1
  Rh  Rh27  1  0.750000  0.908549  0.020320  1
  Rh  Rh28  1  0.250000  0.230543  0.175092  1
  Rh  Rh29  1  0.250000  0.269116  0.675445  1
  Rh  Rh30  1  0.750000  0.769429  0.824776  1
  Rh  Rh31  1  0.750000  0.730697  0.324739  1
  Rh  Rh32  1  0.250000  0.882164  0.700671  1
  Rh  Rh33  1  0.250000  0.618089  0.200481  1
  Rh  Rh34  1  0.750000  0.118164  0.299542  1
  Rh  Rh35  1  0.750000  0.381839  0.799466  1
