# generated using pymatgen
data_Dy8Zr11Si16Ru
_symmetry_space_group_name_H-M   'P 1'
_cell_length_a   7.06285180
_cell_length_b   7.28062301
_cell_length_c   13.89085400
_cell_angle_alpha   90.00000000
_cell_angle_beta   90.00000000
_cell_angle_gamma   89.91794994
_symmetry_Int_Tables_number   1
_chemical_formula_structural   Dy8Zr11Si16Ru
_chemical_formula_sum   'Dy8 Zr11 Si16 Ru1'
_cell_volume   714.29422445
_cell_formula_units_Z   1
loop_
 _symmetry_equiv_pos_site_id
 _symmetry_equiv_pos_as_xyz
  1  'x, y, z'
loop_
 _atom_site_type_symbol
 _atom_site_label
 _atom_site_symmetry_multiplicity
 _atom_site_fract_x
 _atom_site_fract_y
 _atom_site_fract_z
 _atom_site_occupancy
  Dy  Dy0  1  0.013220  0.176702  0.095265  1
  Dy  Dy1  1  0.988159  0.822594  0.900926  1
  Dy  Dy2  1  0.486131  0.674558  0.901392  1
  Dy  Dy3  1  0.988159  0.822594  0.599074  1
  Dy  Dy4  1  0.514960  0.323556  0.096067  1
  Dy  Dy5  1  0.013220  0.176702  0.404735  1
  Dy  Dy6  1  0.514960  0.323556  0.403933  1
  Dy  Dy7  1  0.486131  0.674558  0.598608  1
  Zr  Zr8  1  0.844596  0.500949  0.250000  1
  Zr  Zr9  1  0.343284  0.998163  0.250000  1
  Zr  Zr10  1  0.655537  0.002272  0.750000  1
  Zr  Zr11  1  0.325917  0.177289  0.625718  1
  Zr  Zr12  1  0.671039  0.823126  0.375852  1
  Zr  Zr13  1  0.172077  0.676422  0.376797  1
  Zr  Zr14  1  0.671039  0.823126  0.124148  1
  Zr  Zr15  1  0.828886  0.326884  0.626753  1
  Zr  Zr16  1  0.325917  0.177289  0.874282  1
  Zr  Zr17  1  0.828886  0.326884  0.873247  1
  Zr  Zr18  1  0.172077  0.676422  0.123203  1
  Si  Si19  1  0.033955  0.116983  0.750000  1
  Si  Si20  1  0.967168  0.880129  0.250000  1
  Si  Si21  1  0.467989  0.616167  0.250000  1
  Si  Si22  1  0.521182  0.387549  0.750000  1
  Si  Si23  1  0.283105  0.867233  0.750000  1
  Si  Si24  1  0.719235  0.127108  0.250000  1
  Si  Si25  1  0.218232  0.371894  0.250000  1
  Si  Si26  1  0.792737  0.626150  0.750000  1
  Si  Si27  1  0.154725  0.468212  0.545206  1
  Si  Si28  1  0.843271  0.534052  0.461679  1
  Si  Si29  1  0.345045  0.969148  0.459877  1
  Si  Si30  1  0.843271  0.534052  0.038321  1
  Si  Si31  1  0.656833  0.033019  0.541878  1
  Si  Si32  1  0.154725  0.468212  0.954794  1
  Si  Si33  1  0.656833  0.033019  0.958122  1
  Si  Si34  1  0.345045  0.969148  0.040123  1
  Ru  Ru35  1  0.152456  0.494277  0.750000  1
