# generated using pymatgen
data_Na5CaNbP4
_symmetry_space_group_name_H-M   'P 1'
_cell_length_a   9.28476485
_cell_length_b   9.28476562
_cell_length_c   7.19964683
_cell_angle_alpha   90.58584527
_cell_angle_beta   90.58584252
_cell_angle_gamma   120.15587531
_symmetry_Int_Tables_number   1
_chemical_formula_structural   Na5CaNbP4
_chemical_formula_sum   'Na10 Ca2 Nb2 P8'
_cell_volume   536.54744403
_cell_formula_units_Z   2
loop_
 _symmetry_equiv_pos_site_id
 _symmetry_equiv_pos_as_xyz
  1  'x, y, z'
loop_
 _atom_site_type_symbol
 _atom_site_label
 _atom_site_symmetry_multiplicity
 _atom_site_fract_x
 _atom_site_fract_y
 _atom_site_fract_z
 _atom_site_occupancy
  Na  Na0  1  0.537613  0.470972  0.612062  1
  Na  Na1  1  0.936206  0.470340  0.612826  1
  Na  Na2  1  0.470972  0.537613  0.112062  1
  Na  Na3  1  0.470340  0.936206  0.112826  1
  Na  Na4  1  0.137696  0.853652  0.781464  1
  Na  Na5  1  0.712591  0.849111  0.796004  1
  Na  Na6  1  0.146835  0.289078  0.774571  1
  Na  Na7  1  0.853652  0.137696  0.281464  1
  Na  Na8  1  0.289078  0.146835  0.274571  1
  Na  Na9  1  0.849111  0.712591  0.296004  1
  Ca  Ca10  1  0.534035  0.062194  0.607667  1
  Ca  Ca11  1  0.062194  0.534035  0.107667  1
  Nb  Nb12  1  0.331568  0.663980  0.500716  1
  Nb  Nb13  1  0.663980  0.331568  0.000716  1
  P  P14  1  0.810131  0.194928  0.889765  1
  P  P15  1  0.385282  0.187778  0.878634  1
  P  P16  1  0.816692  0.617787  0.908820  1
  P  P17  1  0.194928  0.810131  0.389765  1
  P  P18  1  0.617787  0.816692  0.408820  1
  P  P19  1  0.187778  0.385282  0.378634  1
  P  P20  1  0.325050  0.666481  0.834571  1
  P  P21  1  0.666481  0.325050  0.334571  1
