# generated using pymatgen
data_KY3Tm7(C2I9)2
_symmetry_space_group_name_H-M   'P 1'
_cell_length_a   11.37600702
_cell_length_b   11.37368104
_cell_length_c   11.42080437
_cell_angle_alpha   113.41668384
_cell_angle_beta   86.74585517
_cell_angle_gamma   119.98615378
_symmetry_Int_Tables_number   1
_chemical_formula_structural   KY3Tm7(C2I9)2
_chemical_formula_sum   'K1 Y3 Tm7 C4 I18'
_cell_volume   1155.63486015
_cell_formula_units_Z   1
loop_
 _symmetry_equiv_pos_site_id
 _symmetry_equiv_pos_as_xyz
  1  'x, y, z'
loop_
 _atom_site_type_symbol
 _atom_site_label
 _atom_site_symmetry_multiplicity
 _atom_site_fract_x
 _atom_site_fract_y
 _atom_site_fract_z
 _atom_site_occupancy
  K  K0  1  0.500474  0.998492  0.499889  1
  Y  Y1  1  0.322028  0.275022  0.288913  1
  Y  Y2  1  0.722218  0.645281  0.984213  1
  Y  Y3  1  0.894353  0.055722  0.999566  1
  Tm  Tm4  1  0.682604  0.727261  0.715035  1
  Tm  Tm5  1  0.275910  0.351484  0.016335  1
  Tm  Tm6  1  0.093964  0.386074  0.289026  1
  Tm  Tm7  1  0.965064  0.037099  0.321905  1
  Tm  Tm8  1  0.906643  0.612847  0.709903  1
  Tm  Tm9  1  0.102094  0.945944  0.000962  1
  Tm  Tm10  1  0.035414  0.963056  0.677827  1
  C  C11  1  0.151948  0.218976  0.119470  1
  C  C12  1  0.848828  0.779445  0.879404  1
  C  C13  1  0.925716  0.857203  0.802929  1
  C  C14  1  0.075016  0.141480  0.195940  1
  I  I15  1  0.448436  0.530603  0.830613  1
  I  I16  1  0.381617  0.036738  0.154692  1
  I  I17  1  0.779259  0.857901  0.503883  1
  I  I18  1  0.840935  0.314494  0.156184  1
  I  I19  1  0.550197  0.470252  0.166372  1
  I  I20  1  0.219352  0.140539  0.498761  1
  I  I21  1  0.316115  0.097296  0.829374  1
  I  I22  1  0.682265  0.904026  0.175011  1
  I  I23  1  0.976139  0.756980  0.170158  1
  I  I24  1  0.935058  0.297297  0.498602  1
  I  I25  1  0.029641  0.247027  0.830202  1
  I  I26  1  0.066052  0.703762  0.501488  1
  I  I27  1  0.263611  0.622792  0.186655  1
  I  I28  1  0.736636  0.372143  0.808337  1
  I  I29  1  0.644058  0.438035  0.502349  1
  I  I30  1  0.158709  0.690350  0.846613  1
  I  I31  1  0.614976  0.957655  0.839986  1
  I  I32  1  0.354669  0.566726  0.499405  1
