# generated using pymatgen
data_Tb5Th3(MgOs)2
_symmetry_space_group_name_H-M   'P 1'
_cell_length_a   9.78947788
_cell_length_b   9.88538234
_cell_length_c   9.88538200
_cell_angle_alpha   59.35917522
_cell_angle_beta   60.32039765
_cell_angle_gamma   60.32040256
_symmetry_Int_Tables_number   1
_chemical_formula_structural   Tb5Th3(MgOs)2
_chemical_formula_sum   'Tb10 Th6 Mg4 Os4'
_cell_volume   676.31715502
_cell_formula_units_Z   2
loop_
 _symmetry_equiv_pos_site_id
 _symmetry_equiv_pos_as_xyz
  1  'x, y, z'
loop_
 _atom_site_type_symbol
 _atom_site_label
 _atom_site_symmetry_multiplicity
 _atom_site_fract_x
 _atom_site_fract_y
 _atom_site_fract_z
 _atom_site_occupancy
  Tb  Tb0  1  0.439426  0.060574  0.439426  1
  Tb  Tb1  1  0.060574  0.439426  0.060574  1
  Tb  Tb2  1  0.439426  0.439426  0.060574  1
  Tb  Tb3  1  0.060574  0.060574  0.439426  1
  Tb  Tb4  1  0.184327  0.815673  0.815673  1
  Tb  Tb5  1  0.815673  0.184327  0.184327  1
  Tb  Tb6  1  0.811903  0.188097  0.811903  1
  Tb  Tb7  1  0.188097  0.811903  0.188097  1
  Tb  Tb8  1  0.811903  0.811903  0.188097  1
  Tb  Tb9  1  0.188097  0.188097  0.811903  1
  Th  Th10  1  0.590815  0.598987  0.598987  1
  Th  Th11  1  0.598987  0.590815  0.211212  1
  Th  Th12  1  0.598987  0.211212  0.590815  1
  Th  Th13  1  0.211212  0.598987  0.598987  1
  Th  Th14  1  0.065738  0.434262  0.434262  1
  Th  Th15  1  0.434262  0.065738  0.065738  1
  Mg  Mg16  1  0.831807  0.829189  0.829189  1
  Mg  Mg17  1  0.829189  0.831807  0.509816  1
  Mg  Mg18  1  0.829189  0.509816  0.831807  1
  Mg  Mg19  1  0.509816  0.829189  0.829189  1
  Os  Os20  1  0.379573  0.397752  0.397752  1
  Os  Os21  1  0.397752  0.379573  0.824923  1
  Os  Os22  1  0.397752  0.824923  0.379573  1
  Os  Os23  1  0.824923  0.397752  0.397752  1
