# generated using pymatgen
data_YEr2Lu(CrB4)4
_symmetry_space_group_name_H-M   'P 1'
_cell_length_a   3.42249900
_cell_length_b   5.91146158
_cell_length_c   11.41534411
_cell_angle_alpha   89.96617961
_cell_angle_beta   90.00000000
_cell_angle_gamma   90.00000000
_symmetry_Int_Tables_number   1
_chemical_formula_structural   YEr2Lu(CrB4)4
_chemical_formula_sum   'Y1 Er2 Lu1 Cr4 B16'
_cell_volume   230.95487467
_cell_formula_units_Z   1
loop_
 _symmetry_equiv_pos_site_id
 _symmetry_equiv_pos_as_xyz
  1  'x, y, z'
loop_
 _atom_site_type_symbol
 _atom_site_label
 _atom_site_symmetry_multiplicity
 _atom_site_fract_x
 _atom_site_fract_y
 _atom_site_fract_z
 _atom_site_occupancy
  Y  Y0  1  0.000000  0.625150  0.349038  1
  Er  Er1  1  0.000000  0.374959  0.651273  1
  Er  Er2  1  0.000000  0.125321  0.149919  1
  Lu  Lu3  1  0.000000  0.874527  0.849710  1
  Cr  Cr4  1  0.000000  0.623027  0.078657  1
  Cr  Cr5  1  0.000000  0.376922  0.919775  1
  Cr  Cr6  1  0.000000  0.124869  0.419522  1
  Cr  Cr7  1  0.000000  0.875491  0.582101  1
  B  B8  1  0.500000  0.782153  0.183154  1
  B  B9  1  0.500000  0.216997  0.815844  1
  B  B10  1  0.500000  0.281437  0.315359  1
  B  B11  1  0.500000  0.717799  0.685584  1
  B  B12  1  0.500000  0.863836  0.031354  1
  B  B13  1  0.500000  0.135794  0.966769  1
  B  B14  1  0.500000  0.363260  0.468520  1
  B  B15  1  0.500000  0.636939  0.533318  1
  B  B16  1  0.500000  0.887420  0.453704  1
  B  B17  1  0.500000  0.113756  0.548038  1
  B  B18  1  0.500000  0.386387  0.046255  1
  B  B19  1  0.500000  0.614230  0.952046  1
  B  B20  1  0.500000  0.976193  0.307953  1
  B  B21  1  0.500000  0.023850  0.693263  1
  B  B22  1  0.500000  0.475331  0.191072  1
  B  B23  1  0.500000  0.524353  0.807771  1
