# generated using pymatgen
data_Dy8Sc12Ga15Bi
_symmetry_space_group_name_H-M   'P 1'
_cell_length_a   7.30634686
_cell_length_b   7.58188283
_cell_length_c   14.56311129
_cell_angle_alpha   90.10621601
_cell_angle_beta   89.63328783
_cell_angle_gamma   89.94244887
_symmetry_Int_Tables_number   1
_chemical_formula_structural   Dy8Sc12Ga15Bi
_chemical_formula_sum   'Dy8 Sc12 Ga15 Bi1'
_cell_volume   806.71783236
_cell_formula_units_Z   1
loop_
 _symmetry_equiv_pos_site_id
 _symmetry_equiv_pos_as_xyz
  1  'x, y, z'
loop_
 _atom_site_type_symbol
 _atom_site_label
 _atom_site_symmetry_multiplicity
 _atom_site_fract_x
 _atom_site_fract_y
 _atom_site_fract_z
 _atom_site_occupancy
  Dy  Dy0  1  0.011784  0.179146  0.094901  1
  Dy  Dy1  1  0.989353  0.822603  0.905968  1
  Dy  Dy2  1  0.489029  0.676618  0.906011  1
  Dy  Dy3  1  0.988864  0.829870  0.597224  1
  Dy  Dy4  1  0.511388  0.322473  0.094808  1
  Dy  Dy5  1  0.002175  0.171813  0.399715  1
  Dy  Dy6  1  0.513155  0.314631  0.399769  1
  Dy  Dy7  1  0.507165  0.687909  0.599851  1
  Sc  Sc8  1  0.165738  0.501931  0.756806  1
  Sc  Sc9  1  0.834042  0.497999  0.248877  1
  Sc  Sc10  1  0.333745  0.004245  0.249128  1
  Sc  Sc11  1  0.669064  0.998435  0.753102  1
  Sc  Sc12  1  0.343786  0.154766  0.630185  1
  Sc  Sc13  1  0.662635  0.831402  0.372890  1
  Sc  Sc14  1  0.161494  0.682308  0.369674  1
  Sc  Sc15  1  0.668500  0.825366  0.122619  1
  Sc  Sc16  1  0.822773  0.325569  0.626014  1
  Sc  Sc17  1  0.329759  0.173904  0.876978  1
  Sc  Sc18  1  0.831045  0.326093  0.877156  1
  Sc  Sc19  1  0.169533  0.673690  0.123573  1
  Ga  Ga20  1  0.034856  0.118740  0.749815  1
  Ga  Ga21  1  0.963629  0.884284  0.246312  1
  Ga  Ga22  1  0.465343  0.616413  0.249643  1
  Ga  Ga23  1  0.533496  0.383086  0.752268  1
  Ga  Ga24  1  0.287241  0.867596  0.752399  1
  Ga  Ga25  1  0.711947  0.126869  0.247277  1
  Ga  Ga26  1  0.211110  0.373345  0.250523  1
  Ga  Ga27  1  0.791180  0.627954  0.750789  1
  Ga  Ga28  1  0.820851  0.539955  0.457030  1
  Ga  Ga29  1  0.335630  0.964180  0.460290  1
  Ga  Ga30  1  0.840036  0.533934  0.040859  1
  Ga  Ga31  1  0.664390  0.038327  0.537712  1
  Ga  Ga32  1  0.159301  0.465280  0.960475  1
  Ga  Ga33  1  0.658976  0.035123  0.959534  1
  Ga  Ga34  1  0.340269  0.964867  0.040730  1
  Bi  Bi35  1  0.176716  0.459279  0.539096  1
