# generated using pymatgen
data_Dy5V2P12Ir14Rh3
_symmetry_space_group_name_H-M   'P 1'
_cell_length_a   12.59741606
_cell_length_b   12.73868134
_cell_length_c   3.96115000
_cell_angle_alpha   90.00000000
_cell_angle_beta   90.00000000
_cell_angle_gamma   119.63631897
_symmetry_Int_Tables_number   1
_chemical_formula_structural   Dy5V2P12Ir14Rh3
_chemical_formula_sum   'Dy5 V2 P12 Ir14 Rh3'
_cell_volume   552.50700110
_cell_formula_units_Z   1
loop_
 _symmetry_equiv_pos_site_id
 _symmetry_equiv_pos_as_xyz
  1  'x, y, z'
loop_
 _atom_site_type_symbol
 _atom_site_label
 _atom_site_symmetry_multiplicity
 _atom_site_fract_x
 _atom_site_fract_y
 _atom_site_fract_z
 _atom_site_occupancy
  Dy  Dy0  1  0.330597  0.661322  0.500000  1
  Dy  Dy1  1  0.668902  0.338425  0.500000  1
  Dy  Dy2  1  0.998267  0.809942  0.000000  1
  Dy  Dy3  1  0.188298  0.190269  0.000000  1
  Dy  Dy4  1  0.812263  0.999796  0.000000  1
  V  V5  1  0.998197  0.449051  0.500000  1
  V  V6  1  0.548107  0.549582  0.500000  1
  P  P7  1  0.000548  0.633636  0.500000  1
  P  P8  1  0.367101  0.366714  0.500000  1
  P  P9  1  0.641156  0.998950  0.500000  1
  P  P10  1  0.515314  0.681704  0.000000  1
  P  P11  1  0.309455  0.824815  0.000000  1
  P  P12  1  0.164088  0.481945  0.000000  1
  P  P13  1  0.484270  0.173823  0.000000  1
  P  P14  1  0.682316  0.518491  0.000000  1
  P  P15  1  0.834434  0.319304  0.000000  1
  P  P16  1  0.000821  0.177128  0.500000  1
  P  P17  1  0.823339  0.822758  0.500000  1
  P  P18  1  0.180037  0.999083  0.500000  1
  Ir  Ir19  1  0.356893  0.491219  0.000000  1
  Ir  Ir20  1  0.488085  0.360369  0.000000  1
  Ir  Ir21  1  0.865249  0.509027  0.000000  1
  Ir  Ir22  1  0.644246  0.138205  0.000000  1
  Ir  Ir23  1  0.998590  0.284111  0.000000  1
  Ir  Ir24  1  0.714287  0.715529  0.000000  1
  Ir  Ir25  1  0.285779  0.000209  0.000000  1
  Ir  Ir26  1  0.623145  0.803619  0.500000  1
  Ir  Ir27  1  0.200276  0.820934  0.500000  1
  Ir  Ir28  1  0.177692  0.372387  0.500000  1
  Ir  Ir29  1  0.377030  0.178888  0.500000  1
  Ir  Ir30  1  0.805783  0.628064  0.500000  1
  Ir  Ir31  1  0.819505  0.194571  0.500000  1
  Ir  Ir32  1  0.001744  0.999889  0.500000  1
  Rh  Rh33  1  0.506946  0.864287  0.000000  1
  Rh  Rh34  1  0.125588  0.638960  0.000000  1
  Rh  Rh35  1  0.461651  0.002996  0.500000  1
