# generated using pymatgen
data_TaTi3Nb2Al4(PdC)2
_symmetry_space_group_name_H-M   'P 1'
_cell_length_a   8.31167882
_cell_length_b   8.32485515
_cell_length_c   8.28946546
_cell_angle_alpha   60.03555143
_cell_angle_beta   60.19057602
_cell_angle_gamma   59.77098744
_symmetry_Int_Tables_number   1
_chemical_formula_structural   TaTi3Nb2Al4(PdC)2
_chemical_formula_sum   'Ta2 Ti6 Nb4 Al8 Pd4 C4'
_cell_volume   405.56045293
_cell_formula_units_Z   2
loop_
 _symmetry_equiv_pos_site_id
 _symmetry_equiv_pos_as_xyz
  1  'x, y, z'
loop_
 _atom_site_type_symbol
 _atom_site_label
 _atom_site_symmetry_multiplicity
 _atom_site_fract_x
 _atom_site_fract_y
 _atom_site_fract_z
 _atom_site_occupancy
  Ta  Ta0  1  0.682924  0.317076  0.682924  1
  Ta  Ta1  1  0.933226  0.566774  0.933226  1
  Ti  Ti2  1  0.683357  0.682928  0.317249  1
  Ti  Ti3  1  0.317249  0.316466  0.683357  1
  Ti  Ti4  1  0.567075  0.566421  0.933698  1
  Ti  Ti5  1  0.933671  0.566355  0.567214  1
  Ti  Ti6  1  0.567214  0.932760  0.933671  1
  Ti  Ti7  1  0.933698  0.932806  0.567075  1
  Nb  Nb8  1  0.565410  0.934590  0.565410  1
  Nb  Nb9  1  0.316835  0.683409  0.684037  1
  Nb  Nb10  1  0.684037  0.315718  0.316835  1
  Nb  Nb11  1  0.315812  0.684188  0.315812  1
  Al  Al12  1  0.914802  0.917161  0.914293  1
  Al  Al13  1  0.997818  0.335809  0.332607  1
  Al  Al14  1  0.335640  0.997275  0.333732  1
  Al  Al15  1  0.332607  0.333764  0.997818  1
  Al  Al16  1  0.914293  0.253745  0.914802  1
  Al  Al17  1  0.916599  0.914909  0.254067  1
  Al  Al18  1  0.254067  0.914428  0.916599  1
  Al  Al19  1  0.333732  0.333350  0.335640  1
  Pd  Pd20  1  0.125514  0.126036  0.123549  1
  Pd  Pd21  1  0.625458  0.125078  0.122531  1
  Pd  Pd22  1  0.123549  0.624901  0.125514  1
  Pd  Pd23  1  0.122531  0.126933  0.625458  1
  C  C24  1  0.630962  0.621927  0.624319  1
  C  C25  1  0.121795  0.622863  0.625807  1
  C  C26  1  0.624319  0.122791  0.630962  1
  C  C27  1  0.625807  0.629536  0.121795  1
