# generated using pymatgen
data_CeNdAgAs4Au
_symmetry_space_group_name_H-M   'P 1'
_cell_length_a   4.10640500
_cell_length_b   4.10278200
_cell_length_c   10.25604100
_cell_angle_alpha   90.00000000
_cell_angle_beta   90.00000000
_cell_angle_gamma   90.00000000
_symmetry_Int_Tables_number   1
_chemical_formula_structural   CeNdAgAs4Au
_chemical_formula_sum   'Ce1 Nd1 Ag1 As4 Au1'
_cell_volume   172.79054318
_cell_formula_units_Z   1
loop_
 _symmetry_equiv_pos_site_id
 _symmetry_equiv_pos_as_xyz
  1  'x, y, z'
loop_
 _atom_site_type_symbol
 _atom_site_label
 _atom_site_symmetry_multiplicity
 _atom_site_fract_x
 _atom_site_fract_y
 _atom_site_fract_z
 _atom_site_occupancy
  Ce  Ce0  1  0.000000  0.500000  0.228239  1
  Nd  Nd1  1  0.500000  0.000000  0.774190  1
  Ag  Ag2  1  0.500000  0.500000  0.498288  1
  As  As3  1  0.500000  0.000000  0.308699  1
  As  As4  1  0.000000  0.500000  0.679931  1
  As  As5  1  0.500000  0.500000  0.006227  1
  As  As6  1  0.000000  0.000000  0.006121  1
  Au  Au7  1  0.000000  0.000000  0.498307  1
