# generated using pymatgen
data_Tb6Cd23Sn
_symmetry_space_group_name_H-M   'P 1'
_cell_length_a   10.01899682
_cell_length_b   10.01899683
_cell_length_c   10.01899800
_cell_angle_alpha   60.00000274
_cell_angle_beta   60.00000270
_cell_angle_gamma   60.00000374
_symmetry_Int_Tables_number   1
_chemical_formula_structural   Tb6Cd23Sn
_chemical_formula_sum   'Tb6 Cd23 Sn1'
_cell_volume   711.14440901
_cell_formula_units_Z   1
loop_
 _symmetry_equiv_pos_site_id
 _symmetry_equiv_pos_as_xyz
  1  'x, y, z'
loop_
 _atom_site_type_symbol
 _atom_site_label
 _atom_site_symmetry_multiplicity
 _atom_site_fract_x
 _atom_site_fract_y
 _atom_site_fract_z
 _atom_site_occupancy
  Tb  Tb0  1  0.784545  0.784545  0.215455  1
  Tb  Tb1  1  0.215455  0.784545  0.215455  1
  Tb  Tb2  1  0.784545  0.215455  0.215455  1
  Tb  Tb3  1  0.215455  0.215455  0.784545  1
  Tb  Tb4  1  0.784545  0.215455  0.784545  1
  Tb  Tb5  1  0.215455  0.784545  0.784545  1
  Cd  Cd6  1  0.840273  0.840273  0.479184  1
  Cd  Cd7  1  0.840273  0.479184  0.840273  1
  Cd  Cd8  1  0.479184  0.840273  0.840273  1
  Cd  Cd9  1  0.840273  0.840273  0.840273  1
  Cd  Cd10  1  0.159727  0.159727  0.520816  1
  Cd  Cd11  1  0.159727  0.520816  0.159727  1
  Cd  Cd12  1  0.520816  0.159727  0.159727  1
  Cd  Cd13  1  0.159727  0.159727  0.159727  1
  Cd  Cd14  1  0.623398  0.623398  0.129809  1
  Cd  Cd15  1  0.623398  0.129809  0.623398  1
  Cd  Cd16  1  0.129809  0.623398  0.623398  1
  Cd  Cd17  1  0.623398  0.623398  0.623398  1
  Cd  Cd18  1  0.376602  0.376602  0.870191  1
  Cd  Cd19  1  0.376602  0.870191  0.376602  1
  Cd  Cd20  1  0.870191  0.376602  0.376602  1
  Cd  Cd21  1  0.376602  0.376602  0.376602  1
  Cd  Cd22  1  0.000000  0.000000  0.500000  1
  Cd  Cd23  1  0.500000  0.000000  0.500000  1
  Cd  Cd24  1  0.000000  0.500000  0.500000  1
  Cd  Cd25  1  0.500000  0.500000  0.000000  1
  Cd  Cd26  1  0.000000  0.500000  0.000000  1
  Cd  Cd27  1  0.500000  0.000000  0.000000  1
  Cd  Cd28  1  0.500000  0.500000  0.500000  1
  Sn  Sn29  1  0.000000  0.000000  0.000000  1
