# generated using pymatgen
data_LiZr6Zn17Ni5As
_symmetry_space_group_name_H-M   'P 1'
_cell_length_a   8.65324550
_cell_length_b   8.64990959
_cell_length_c   8.65324511
_cell_angle_alpha   60.01275271
_cell_angle_beta   59.62679627
_cell_angle_gamma   60.01274773
_symmetry_Int_Tables_number   1
_chemical_formula_structural   LiZr6Zn17Ni5As
_chemical_formula_sum   'Li1 Zr6 Zn17 Ni5 As1'
_cell_volume   456.77033677
_cell_formula_units_Z   1
loop_
 _symmetry_equiv_pos_site_id
 _symmetry_equiv_pos_as_xyz
  1  'x, y, z'
loop_
 _atom_site_type_symbol
 _atom_site_label
 _atom_site_symmetry_multiplicity
 _atom_site_fract_x
 _atom_site_fract_y
 _atom_site_fract_z
 _atom_site_occupancy
  Li  Li0  1  0.000000  0.000000  0.000000  1
  Zr  Zr1  1  0.714779  0.281861  0.285221  1
  Zr  Zr2  1  0.285221  0.718139  0.714779  1
  Zr  Zr3  1  0.285488  0.714512  0.285488  1
  Zr  Zr4  1  0.714512  0.285488  0.714512  1
  Zr  Zr5  1  0.285221  0.281861  0.714779  1
  Zr  Zr6  1  0.714779  0.718139  0.285221  1
  Zn  Zn7  1  0.127353  0.116925  0.127353  1
  Zn  Zn8  1  0.872647  0.883075  0.872647  1
  Zn  Zn9  1  0.124919  0.123998  0.627085  1
  Zn  Zn10  1  0.127353  0.628373  0.127353  1
  Zn  Zn11  1  0.875081  0.876002  0.372915  1
  Zn  Zn12  1  0.872647  0.371627  0.872647  1
  Zn  Zn13  1  0.627085  0.123998  0.124919  1
  Zn  Zn14  1  0.372915  0.876002  0.875081  1
  Zn  Zn15  1  0.000000  0.500000  0.000000  1
  Zn  Zn16  1  0.335681  0.335856  0.335681  1
  Zn  Zn17  1  0.664319  0.664144  0.664319  1
  Zn  Zn18  1  0.342723  0.332784  0.991711  1
  Zn  Zn19  1  0.335681  0.992785  0.335681  1
  Zn  Zn20  1  0.657277  0.667216  0.008289  1
  Zn  Zn21  1  0.664319  0.007215  0.664319  1
  Zn  Zn22  1  0.991711  0.332784  0.342723  1
  Zn  Zn23  1  0.008289  0.667216  0.657277  1
  Ni  Ni24  1  0.500000  0.000000  0.000000  1
  Ni  Ni25  1  0.000000  0.500000  0.500000  1
  Ni  Ni26  1  0.500000  0.000000  0.500000  1
  Ni  Ni27  1  0.000000  0.000000  0.500000  1
  Ni  Ni28  1  0.500000  0.500000  0.000000  1
  As  As29  1  0.500000  0.500000  0.500000  1
