# generated using pymatgen
data_LiHoNi9Mo3P7
_symmetry_space_group_name_H-M   'P 1'
_cell_length_a   9.16545000
_cell_length_b   9.16545003
_cell_length_c   3.66460200
_cell_angle_alpha   90.00000000
_cell_angle_beta   90.00000000
_cell_angle_gamma   120.00000709
_symmetry_Int_Tables_number   1
_chemical_formula_structural   LiHoNi9Mo3P7
_chemical_formula_sum   'Li1 Ho1 Ni9 Mo3 P7'
_cell_volume   266.60298136
_cell_formula_units_Z   1
loop_
 _symmetry_equiv_pos_site_id
 _symmetry_equiv_pos_as_xyz
  1  'x, y, z'
loop_
 _atom_site_type_symbol
 _atom_site_label
 _atom_site_symmetry_multiplicity
 _atom_site_fract_x
 _atom_site_fract_y
 _atom_site_fract_z
 _atom_site_occupancy
  Li  Li0  1  0.333333  0.666667  0.000000  1
  Ho  Ho1  1  0.666667  0.333333  0.500000  1
  Ni  Ni2  1  0.711515  0.873640  0.000000  1
  Ni  Ni3  1  0.162125  0.288485  0.000000  1
  Ni  Ni4  1  0.126360  0.837875  0.000000  1
  Ni  Ni5  1  0.628209  0.567122  0.000000  1
  Ni  Ni6  1  0.938914  0.371791  0.000000  1
  Ni  Ni7  1  0.432878  0.061086  0.000000  1
  Ni  Ni8  1  0.555246  0.942387  0.500000  1
  Ni  Ni9  1  0.387140  0.444754  0.500000  1
  Ni  Ni10  1  0.057613  0.612860  0.500000  1
  Mo  Mo11  1  0.878601  0.780284  0.500000  1
  Mo  Mo12  1  0.901682  0.121399  0.500000  1
  Mo  Mo13  1  0.219716  0.098318  0.500000  1
  P  P14  1  0.585962  0.709823  0.500000  1
  P  P15  1  0.123861  0.414038  0.500000  1
  P  P16  1  0.290177  0.876139  0.500000  1
  P  P17  1  0.000000  0.000000  0.000000  1
  P  P18  1  0.886492  0.587452  0.000000  1
  P  P19  1  0.700960  0.113508  0.000000  1
  P  P20  1  0.412548  0.299040  0.000000  1
