# generated using pymatgen
data_Y4GaB4Rh9
_symmetry_space_group_name_H-M   'P 1'
_cell_length_a   5.45094800
_cell_length_b   5.45094969
_cell_length_c   20.24283200
_cell_angle_alpha   90.00000000
_cell_angle_beta   90.00000000
_cell_angle_gamma   119.99667634
_symmetry_Int_Tables_number   1
_chemical_formula_structural   Y4GaB4Rh9
_chemical_formula_sum   'Y8 Ga2 B8 Rh18'
_cell_volume   520.90755874
_cell_formula_units_Z   2
loop_
 _symmetry_equiv_pos_site_id
 _symmetry_equiv_pos_as_xyz
  1  'x, y, z'
loop_
 _atom_site_type_symbol
 _atom_site_label
 _atom_site_symmetry_multiplicity
 _atom_site_fract_x
 _atom_site_fract_y
 _atom_site_fract_z
 _atom_site_occupancy
  Y  Y0  1  0.666671  0.333329  0.522731  1
  Y  Y1  1  0.333329  0.666671  0.477269  1
  Y  Y2  1  0.333329  0.666671  0.022731  1
  Y  Y3  1  0.666671  0.333329  0.977269  1
  Y  Y4  1  0.666742  0.333258  0.674291  1
  Y  Y5  1  0.333258  0.666742  0.325709  1
  Y  Y6  1  0.333258  0.666742  0.174291  1
  Y  Y7  1  0.666742  0.333258  0.825709  1
  Ga  Ga8  1  0.000000  0.000000  0.500000  1
  Ga  Ga9  1  0.000000  0.000000  0.000000  1
  B  B10  1  0.000065  0.999935  0.673730  1
  B  B11  1  0.999935  0.000065  0.326270  1
  B  B12  1  0.999935  0.000065  0.173730  1
  B  B13  1  0.000065  0.999935  0.826270  1
  B  B14  1  0.666609  0.333391  0.326541  1
  B  B15  1  0.333391  0.666609  0.673459  1
  B  B16  1  0.333391  0.666609  0.826541  1
  B  B17  1  0.666609  0.333391  0.173459  1
  Rh  Rh18  1  0.166730  0.333155  0.750000  1
  Rh  Rh19  1  0.166715  0.833285  0.750000  1
  Rh  Rh20  1  0.666845  0.833270  0.750000  1
  Rh  Rh21  1  0.833270  0.666845  0.250000  1
  Rh  Rh22  1  0.833285  0.166715  0.250000  1
  Rh  Rh23  1  0.333155  0.166730  0.250000  1
  Rh  Rh24  1  0.166791  0.333404  0.602946  1
  Rh  Rh25  1  0.166784  0.833216  0.602942  1
  Rh  Rh26  1  0.666596  0.833209  0.602946  1
  Rh  Rh27  1  0.833209  0.666596  0.397054  1
  Rh  Rh28  1  0.833216  0.166784  0.397058  1
  Rh  Rh29  1  0.333404  0.166791  0.397054  1
  Rh  Rh30  1  0.833209  0.666596  0.102946  1
  Rh  Rh31  1  0.833216  0.166784  0.102942  1
  Rh  Rh32  1  0.333404  0.166791  0.102946  1
  Rh  Rh33  1  0.166791  0.333404  0.897054  1
  Rh  Rh34  1  0.166784  0.833216  0.897058  1
  Rh  Rh35  1  0.666596  0.833209  0.897054  1
