# generated using pymatgen
data_CdHg(CO3)2
_symmetry_space_group_name_H-M   'P 1'
_cell_length_a   6.34074899
_cell_length_b   6.34074886
_cell_length_c   6.34074917
_cell_angle_alpha   47.13615781
_cell_angle_beta   47.13616051
_cell_angle_gamma   47.13615761
_symmetry_Int_Tables_number   1
_chemical_formula_structural   CdHg(CO3)2
_chemical_formula_sum   'Cd1 Hg1 C2 O6'
_cell_volume   125.23460144
_cell_formula_units_Z   1
loop_
 _symmetry_equiv_pos_site_id
 _symmetry_equiv_pos_as_xyz
  1  'x, y, z'
loop_
 _atom_site_type_symbol
 _atom_site_label
 _atom_site_symmetry_multiplicity
 _atom_site_fract_x
 _atom_site_fract_y
 _atom_site_fract_z
 _atom_site_occupancy
  Cd  Cd0  1  0.000000  0.000000  0.000000  1
  Hg  Hg1  1  0.500000  0.500000  0.500000  1
  C  C2  1  0.748290  0.748290  0.748290  1
  C  C3  1  0.251710  0.251710  0.251710  1
  O  O4  1  0.487223  0.757905  0.999464  1
  O  O5  1  0.757905  0.999464  0.487223  1
  O  O6  1  0.000536  0.512777  0.242095  1
  O  O7  1  0.512777  0.242095  0.000536  1
  O  O8  1  0.242095  0.000536  0.512777  1
  O  O9  1  0.999464  0.487223  0.757905  1
