# generated using pymatgen
data_Sc8Re11Si16Ru
_symmetry_space_group_name_H-M   'P 1'
_cell_length_a   6.62892668
_cell_length_b   6.62892668
_cell_length_c   12.46239165
_cell_angle_alpha   89.92280116
_cell_angle_beta   90.07719884
_cell_angle_gamma   90.20087892
_symmetry_Int_Tables_number   1
_chemical_formula_structural   Sc8Re11Si16Ru
_chemical_formula_sum   'Sc8 Re11 Si16 Ru1'
_cell_volume   547.62639446
_cell_formula_units_Z   1
loop_
 _symmetry_equiv_pos_site_id
 _symmetry_equiv_pos_as_xyz
  1  'x, y, z'
loop_
 _atom_site_type_symbol
 _atom_site_label
 _atom_site_symmetry_multiplicity
 _atom_site_fract_x
 _atom_site_fract_y
 _atom_site_fract_z
 _atom_site_occupancy
  Sc  Sc0  1  0.006957  0.657657  0.030558  1
  Sc  Sc1  1  0.993810  0.337477  0.531721  1
  Sc  Sc2  1  0.337477  0.993810  0.468279  1
  Sc  Sc3  1  0.157504  0.492036  0.781578  1
  Sc  Sc4  1  0.841951  0.505367  0.279124  1
  Sc  Sc5  1  0.492036  0.157504  0.218422  1
  Sc  Sc6  1  0.505367  0.841951  0.720876  1
  Sc  Sc7  1  0.657657  0.006957  0.969442  1
  Re  Re8  1  0.167496  0.831282  0.249746  1
  Re  Re9  1  0.331289  0.331289  0.000000  1
  Re  Re10  1  0.019354  0.816675  0.630445  1
  Re  Re11  1  0.979684  0.189052  0.134415  1
  Re  Re12  1  0.816675  0.019354  0.369555  1
  Re  Re13  1  0.316807  0.482175  0.383725  1
  Re  Re14  1  0.687095  0.516594  0.882184  1
  Re  Re15  1  0.482175  0.316807  0.616275  1
  Re  Re16  1  0.516594  0.687095  0.117816  1
  Re  Re17  1  0.189052  0.979684  0.865585  1
  Re  Re18  1  0.831282  0.167496  0.750254  1
  Si  Si19  1  0.025783  0.718204  0.437430  1
  Si  Si20  1  0.621210  0.304995  0.431189  1
  Si  Si21  1  0.380823  0.694689  0.930554  1
  Si  Si22  1  0.196216  0.121950  0.680005  1
  Si  Si23  1  0.304995  0.621210  0.568811  1
  Si  Si24  1  0.694689  0.380823  0.069446  1
  Si  Si25  1  0.805164  0.879796  0.180783  1
  Si  Si26  1  0.121950  0.196216  0.319995  1
  Si  Si27  1  0.974519  0.274468  0.938243  1
  Si  Si28  1  0.718204  0.025783  0.562570  1
  Si  Si29  1  0.222333  0.474199  0.188207  1
  Si  Si30  1  0.778495  0.526534  0.687213  1
  Si  Si31  1  0.474199  0.222333  0.811793  1
  Si  Si32  1  0.526534  0.778495  0.312787  1
  Si  Si33  1  0.274468  0.974519  0.061757  1
  Si  Si34  1  0.879796  0.805164  0.819217  1
  Ru  Ru35  1  0.670359  0.670359  0.500000  1
