# generated using pymatgen
data_Dy4Co7P12Ir10Rh3
_symmetry_space_group_name_H-M   'P 1'
_cell_length_a   3.87514700
_cell_length_b   10.61994584
_cell_length_c   12.29547691
_cell_angle_alpha   89.91049081
_cell_angle_beta   90.00000000
_cell_angle_gamma   90.00000000
_symmetry_Int_Tables_number   1
_chemical_formula_structural   Dy4Co7P12Ir10Rh3
_chemical_formula_sum   'Dy4 Co7 P12 Ir10 Rh3'
_cell_volume   506.00561035
_cell_formula_units_Z   1
loop_
 _symmetry_equiv_pos_site_id
 _symmetry_equiv_pos_as_xyz
  1  'x, y, z'
loop_
 _atom_site_type_symbol
 _atom_site_label
 _atom_site_symmetry_multiplicity
 _atom_site_fract_x
 _atom_site_fract_y
 _atom_site_fract_z
 _atom_site_occupancy
  Dy  Dy0  1  0.250000  0.581409  0.711660  1
  Dy  Dy1  1  0.250000  0.915809  0.210332  1
  Dy  Dy2  1  0.750000  0.416375  0.289167  1
  Dy  Dy3  1  0.750000  0.086846  0.791061  1
  Co  Co4  1  0.250000  0.615910  0.196602  1
  Co  Co5  1  0.750000  0.116607  0.303714  1
  Co  Co6  1  0.750000  0.381210  0.804324  1
  Co  Co7  1  0.250000  0.462860  0.934460  1
  Co  Co8  1  0.250000  0.037089  0.431476  1
  Co  Co9  1  0.750000  0.536215  0.067233  1
  Co  Co10  1  0.750000  0.963580  0.563658  1
  P  P11  1  0.250000  0.431789  0.110923  1
  P  P12  1  0.250000  0.076186  0.604520  1
  P  P13  1  0.750000  0.565150  0.890508  1
  P  P14  1  0.750000  0.930282  0.387769  1
  P  P15  1  0.250000  0.274742  0.870220  1
  P  P16  1  0.250000  0.226099  0.369600  1
  P  P17  1  0.750000  0.725705  0.129556  1
  P  P18  1  0.750000  0.770116  0.627973  1
  P  P19  1  0.250000  0.597994  0.376522  1
  P  P20  1  0.250000  0.901658  0.887084  1
  P  P21  1  0.750000  0.402120  0.623459  1
  P  P22  1  0.750000  0.100269  0.122784  1
  Ir  Ir23  1  0.750000  0.222298  0.510724  1
  Ir  Ir24  1  0.250000  0.409326  0.474022  1
  Ir  Ir25  1  0.250000  0.092970  0.977249  1
  Ir  Ir26  1  0.750000  0.588759  0.523473  1
  Ir  Ir27  1  0.750000  0.910696  0.024353  1
  Ir  Ir28  1  0.250000  0.226183  0.180345  1
  Ir  Ir29  1  0.250000  0.276038  0.678302  1
  Ir  Ir30  1  0.750000  0.768021  0.823365  1
  Ir  Ir31  1  0.750000  0.724850  0.319078  1
  Ir  Ir32  1  0.250000  0.885812  0.697981  1
  Rh  Rh33  1  0.250000  0.720267  0.991004  1
  Rh  Rh34  1  0.250000  0.778573  0.483163  1
  Rh  Rh35  1  0.750000  0.280187  0.012335  1
