# generated using pymatgen
data_Zr4RhAuO
_symmetry_space_group_name_H-M   'P 1'
_cell_length_a   8.92140357
_cell_length_b   8.92141674
_cell_length_c   8.92138600
_cell_angle_alpha   59.99998131
_cell_angle_beta   59.99992774
_cell_angle_gamma   60.00006240
_symmetry_Int_Tables_number   1
_chemical_formula_structural   Zr4RhAuO
_chemical_formula_sum   'Zr16 Rh4 Au4 O4'
_cell_volume   502.09309766
_cell_formula_units_Z   4
loop_
 _symmetry_equiv_pos_site_id
 _symmetry_equiv_pos_as_xyz
  1  'x, y, z'
loop_
 _atom_site_type_symbol
 _atom_site_label
 _atom_site_symmetry_multiplicity
 _atom_site_fract_x
 _atom_site_fract_y
 _atom_site_fract_z
 _atom_site_occupancy
  Zr  Zr0  1  0.093720  0.635419  0.635431  1
  Zr  Zr1  1  0.635424  0.093721  0.635427  1
  Zr  Zr2  1  0.635428  0.635420  0.093722  1
  Zr  Zr3  1  0.635428  0.635420  0.635431  1
  Zr  Zr4  1  0.816926  0.816925  0.183074  1
  Zr  Zr5  1  0.183069  0.183069  0.816932  1
  Zr  Zr6  1  0.816929  0.183069  0.816931  1
  Zr  Zr7  1  0.183072  0.816926  0.183074  1
  Zr  Zr8  1  0.183071  0.816926  0.816929  1
  Zr  Zr9  1  0.816929  0.183070  0.183072  1
  Zr  Zr10  1  0.432082  0.432081  0.067919  1
  Zr  Zr11  1  0.067912  0.067914  0.432087  1
  Zr  Zr12  1  0.432085  0.067916  0.432086  1
  Zr  Zr13  1  0.067917  0.432081  0.067918  1
  Zr  Zr14  1  0.067917  0.432081  0.432085  1
  Zr  Zr15  1  0.432084  0.067915  0.067915  1
  Rh  Rh16  1  0.451706  0.849468  0.849417  1
  Rh  Rh17  1  0.849453  0.451669  0.849438  1
  Rh  Rh18  1  0.849432  0.849472  0.451680  1
  Rh  Rh19  1  0.849415  0.849453  0.849412  1
  Au  Au20  1  0.761339  0.412886  0.412887  1
  Au  Au21  1  0.412887  0.761338  0.412888  1
  Au  Au22  1  0.412884  0.412884  0.761347  1
  Au  Au23  1  0.412886  0.412886  0.412887  1
  O  O24  1  0.623594  0.125466  0.125470  1
  O  O25  1  0.125468  0.623592  0.125470  1
  O  O26  1  0.125468  0.125466  0.623597  1
  O  O27  1  0.125469  0.125466  0.125470  1
