# generated using pymatgen
data_Tb12InCo2Ni2Au
_symmetry_space_group_name_H-M   'P 1'
_cell_length_a   8.40949439
_cell_length_b   8.40949493
_cell_length_c   8.40949550
_cell_angle_alpha   111.67865016
_cell_angle_beta   109.11657028
_cell_angle_gamma   107.64439519
_symmetry_Int_Tables_number   1
_chemical_formula_structural   Tb12InCo2Ni2Au
_chemical_formula_sum   'Tb12 In1 Co2 Ni2 Au1'
_cell_volume   457.22836429
_cell_formula_units_Z   1
loop_
 _symmetry_equiv_pos_site_id
 _symmetry_equiv_pos_as_xyz
  1  'x, y, z'
loop_
 _atom_site_type_symbol
 _atom_site_label
 _atom_site_symmetry_multiplicity
 _atom_site_fract_x
 _atom_site_fract_y
 _atom_site_fract_z
 _atom_site_occupancy
  Tb  Tb0  1  0.422011  0.220936  0.201074  1
  Tb  Tb1  1  0.577989  0.779064  0.798926  1
  Tb  Tb2  1  0.019861  0.220936  0.798926  1
  Tb  Tb3  1  0.980139  0.779064  0.201074  1
  Tb  Tb4  1  0.184105  0.292151  0.476255  1
  Tb  Tb5  1  0.815895  0.707849  0.523745  1
  Tb  Tb6  1  0.184105  0.707849  0.891953  1
  Tb  Tb7  1  0.815895  0.292151  0.108047  1
  Tb  Tb8  1  0.316650  0.622878  0.306228  1
  Tb  Tb9  1  0.683350  0.377122  0.693772  1
  Tb  Tb10  1  0.316650  0.010423  0.693772  1
  Tb  Tb11  1  0.683350  0.989577  0.306228  1
  In  In12  1  0.500000  0.500000  0.000000  1
  Co  Co13  1  0.113435  0.613435  0.500000  1
  Co  Co14  1  0.886565  0.386565  0.500000  1
  Ni  Ni15  1  0.368746  0.000000  0.368746  1
  Ni  Ni16  1  0.631254  0.000000  0.631254  1
  Au  Au17  1  0.000000  0.000000  0.000000  1
