# generated using pymatgen
data_YbTa8TiSe16
_symmetry_space_group_name_H-M   'P 1'
_cell_length_a   6.99557300
_cell_length_b   6.99557331
_cell_length_c   13.53204200
_cell_angle_alpha   90.00000000
_cell_angle_beta   90.00000000
_cell_angle_gamma   120.00000327
_symmetry_Int_Tables_number   1
_chemical_formula_structural   YbTa8TiSe16
_chemical_formula_sum   'Yb1 Ta8 Ti1 Se16'
_cell_volume   573.50942493
_cell_formula_units_Z   1
loop_
 _symmetry_equiv_pos_site_id
 _symmetry_equiv_pos_as_xyz
  1  'x, y, z'
loop_
 _atom_site_type_symbol
 _atom_site_label
 _atom_site_symmetry_multiplicity
 _atom_site_fract_x
 _atom_site_fract_y
 _atom_site_fract_z
 _atom_site_occupancy
  Yb  Yb0  1  0.000000  0.000000  0.500000  1
  Ta  Ta1  1  0.000000  0.000000  0.234051  1
  Ta  Ta2  1  0.000000  0.000000  0.765949  1
  Ta  Ta3  1  0.508659  0.017319  0.233392  1
  Ta  Ta4  1  0.982681  0.491341  0.233392  1
  Ta  Ta5  1  0.508659  0.491341  0.233392  1
  Ta  Ta6  1  0.491341  0.982681  0.766608  1
  Ta  Ta7  1  0.017319  0.508659  0.766608  1
  Ta  Ta8  1  0.491341  0.508659  0.766608  1
  Ti  Ti9  1  0.000000  0.000000  0.000000  1
  Se  Se10  1  0.333333  0.666667  0.894342  1
  Se  Se11  1  0.666667  0.333333  0.105658  1
  Se  Se12  1  0.666667  0.333333  0.362594  1
  Se  Se13  1  0.333333  0.666667  0.637406  1
  Se  Se14  1  0.170414  0.829586  0.355021  1
  Se  Se15  1  0.170414  0.340830  0.355021  1
  Se  Se16  1  0.659170  0.829586  0.355021  1
  Se  Se17  1  0.829586  0.170414  0.644979  1
  Se  Se18  1  0.829586  0.659170  0.644979  1
  Se  Se19  1  0.340830  0.170414  0.644979  1
  Se  Se20  1  0.830811  0.169189  0.887790  1
  Se  Se21  1  0.830811  0.661624  0.887790  1
  Se  Se22  1  0.338376  0.169189  0.887790  1
  Se  Se23  1  0.169189  0.830811  0.112210  1
  Se  Se24  1  0.169189  0.338376  0.112210  1
  Se  Se25  1  0.661624  0.830811  0.112210  1
