# generated using pymatgen
data_Tm8Sc9Re2Si16W
_symmetry_space_group_name_H-M   'P 1'
_cell_length_a   6.88333443
_cell_length_b   7.17730993
_cell_length_c   13.63587100
_cell_angle_alpha   90.00000000
_cell_angle_beta   90.00000000
_cell_angle_gamma   90.11816517
_symmetry_Int_Tables_number   1
_chemical_formula_structural   Tm8Sc9Re2Si16W
_chemical_formula_sum   'Tm8 Sc9 Re2 Si16 W1'
_cell_volume   673.66274613
_cell_formula_units_Z   1
loop_
 _symmetry_equiv_pos_site_id
 _symmetry_equiv_pos_as_xyz
  1  'x, y, z'
loop_
 _atom_site_type_symbol
 _atom_site_label
 _atom_site_symmetry_multiplicity
 _atom_site_fract_x
 _atom_site_fract_y
 _atom_site_fract_z
 _atom_site_occupancy
  Tm  Tm0  1  0.010023  0.177841  0.097411  1
  Tm  Tm1  1  0.990936  0.819636  0.905087  1
  Tm  Tm2  1  0.487208  0.674171  0.905965  1
  Tm  Tm3  1  0.990936  0.819636  0.594913  1
  Tm  Tm4  1  0.510594  0.325118  0.099155  1
  Tm  Tm5  1  0.010023  0.177841  0.402589  1
  Tm  Tm6  1  0.510594  0.325118  0.400845  1
  Tm  Tm7  1  0.487208  0.674171  0.594035  1
  Sc  Sc8  1  0.651806  0.994773  0.750000  1
  Sc  Sc9  1  0.322999  0.173264  0.623892  1
  Sc  Sc10  1  0.677067  0.826732  0.371807  1
  Sc  Sc11  1  0.173864  0.671406  0.373386  1
  Sc  Sc12  1  0.677067  0.826732  0.128193  1
  Sc  Sc13  1  0.825302  0.331787  0.625055  1
  Sc  Sc14  1  0.322999  0.173264  0.876108  1
  Sc  Sc15  1  0.825302  0.331787  0.874945  1
  Sc  Sc16  1  0.173864  0.671406  0.126614  1
  Re  Re17  1  0.147217  0.496537  0.750000  1
  Re  Re18  1  0.849217  0.500703  0.250000  1
  Si  Si19  1  0.026974  0.121643  0.750000  1
  Si  Si20  1  0.981844  0.893435  0.250000  1
  Si  Si21  1  0.479056  0.609174  0.250000  1
  Si  Si22  1  0.513249  0.396215  0.750000  1
  Si  Si23  1  0.279754  0.853311  0.750000  1
  Si  Si24  1  0.713975  0.136993  0.250000  1
  Si  Si25  1  0.212104  0.361921  0.250000  1
  Si  Si26  1  0.790459  0.633188  0.750000  1
  Si  Si27  1  0.157243  0.464869  0.544029  1
  Si  Si28  1  0.842522  0.532636  0.452248  1
  Si  Si29  1  0.346695  0.968727  0.451064  1
  Si  Si30  1  0.842522  0.532636  0.047752  1
  Si  Si31  1  0.658264  0.035873  0.536611  1
  Si  Si32  1  0.157243  0.464869  0.955971  1
  Si  Si33  1  0.658264  0.035873  0.963389  1
  Si  Si34  1  0.346695  0.968727  0.048936  1
  W  W35  1  0.348910  0.997990  0.250000  1
