# generated using pymatgen
data_YTmCo7(P2Ru)3
_symmetry_space_group_name_H-M   'P 1'
_cell_length_a   3.73135900
_cell_length_b   10.45477600
_cell_length_c   11.86812400
_cell_angle_alpha   90.00000000
_cell_angle_beta   90.00000000
_cell_angle_gamma   90.00000000
_symmetry_Int_Tables_number   1
_chemical_formula_structural   YTmCo7(P2Ru)3
_chemical_formula_sum   'Y2 Tm2 Co14 P12 Ru6'
_cell_volume   462.98171858
_cell_formula_units_Z   2
loop_
 _symmetry_equiv_pos_site_id
 _symmetry_equiv_pos_as_xyz
  1  'x, y, z'
loop_
 _atom_site_type_symbol
 _atom_site_label
 _atom_site_symmetry_multiplicity
 _atom_site_fract_x
 _atom_site_fract_y
 _atom_site_fract_z
 _atom_site_occupancy
  Y  Y0  1  0.250000  0.586346  0.705701  1
  Y  Y1  1  0.250000  0.913654  0.205701  1
  Tm  Tm2  1  0.750000  0.414657  0.292096  1
  Tm  Tm3  1  0.750000  0.085343  0.792096  1
  Co  Co4  1  0.750000  0.597208  0.512213  1
  Co  Co5  1  0.750000  0.902792  0.012213  1
  Co  Co6  1  0.250000  0.225791  0.179501  1
  Co  Co7  1  0.250000  0.274209  0.679501  1
  Co  Co8  1  0.750000  0.777303  0.822202  1
  Co  Co9  1  0.750000  0.722697  0.322202  1
  Co  Co10  1  0.250000  0.885310  0.700705  1
  Co  Co11  1  0.250000  0.614690  0.200705  1
  Co  Co12  1  0.750000  0.114672  0.298671  1
  Co  Co13  1  0.750000  0.385328  0.798671  1
  Co  Co14  1  0.250000  0.464317  0.931712  1
  Co  Co15  1  0.250000  0.035683  0.431712  1
  Co  Co16  1  0.750000  0.537096  0.068477  1
  Co  Co17  1  0.750000  0.962904  0.568477  1
  P  P18  1  0.250000  0.422469  0.112881  1
  P  P19  1  0.250000  0.077531  0.612881  1
  P  P20  1  0.750000  0.578695  0.887740  1
  P  P21  1  0.750000  0.921305  0.387740  1
  P  P22  1  0.250000  0.272080  0.866024  1
  P  P23  1  0.250000  0.227920  0.366024  1
  P  P24  1  0.750000  0.729550  0.132392  1
  P  P25  1  0.750000  0.770450  0.632392  1
  P  P26  1  0.250000  0.599877  0.386586  1
  P  P27  1  0.250000  0.900123  0.886586  1
  P  P28  1  0.750000  0.401964  0.612408  1
  P  P29  1  0.750000  0.098036  0.112408  1
  Ru  Ru30  1  0.250000  0.713988  0.989307  1
  Ru  Ru31  1  0.250000  0.786012  0.489307  1
  Ru  Ru32  1  0.750000  0.290289  0.013442  1
  Ru  Ru33  1  0.750000  0.209711  0.513442  1
  Ru  Ru34  1  0.250000  0.408536  0.487938  1
  Ru  Ru35  1  0.250000  0.091464  0.987938  1
