# generated using pymatgen
data_Nd3Y3(PtRh8)2
_symmetry_space_group_name_H-M   'P 1'
_cell_length_a   5.33314700
_cell_length_b   5.33314694
_cell_length_c   17.59816500
_cell_angle_alpha   90.00000000
_cell_angle_beta   90.00000000
_cell_angle_gamma   119.99999419
_symmetry_Int_Tables_number   1
_chemical_formula_structural   Nd3Y3(PtRh8)2
_chemical_formula_sum   'Nd3 Y3 Pt2 Rh16'
_cell_volume   433.47608900
_cell_formula_units_Z   1
loop_
 _symmetry_equiv_pos_site_id
 _symmetry_equiv_pos_as_xyz
  1  'x, y, z'
loop_
 _atom_site_type_symbol
 _atom_site_label
 _atom_site_symmetry_multiplicity
 _atom_site_fract_x
 _atom_site_fract_y
 _atom_site_fract_z
 _atom_site_occupancy
  Nd  Nd0  1  0.333333  0.666667  0.957484  1
  Nd  Nd1  1  0.333333  0.666667  0.749711  1
  Nd  Nd2  1  0.666667  0.333333  0.250082  1
  Y  Y3  1  0.666667  0.333333  0.043421  1
  Y  Y4  1  0.666667  0.333333  0.456965  1
  Y  Y5  1  0.333333  0.666667  0.542803  1
  Pt  Pt6  1  0.000000  0.000000  0.499962  1
  Pt  Pt7  1  0.000000  0.000000  0.000304  1
  Rh  Rh8  1  0.167643  0.832357  0.373759  1
  Rh  Rh9  1  0.167643  0.335287  0.373759  1
  Rh  Rh10  1  0.664713  0.832357  0.373759  1
  Rh  Rh11  1  0.832345  0.167655  0.626192  1
  Rh  Rh12  1  0.832345  0.664688  0.626192  1
  Rh  Rh13  1  0.335312  0.167655  0.626192  1
  Rh  Rh14  1  0.832493  0.167507  0.873152  1
  Rh  Rh15  1  0.832493  0.664985  0.873152  1
  Rh  Rh16  1  0.335015  0.167507  0.873152  1
  Rh  Rh17  1  0.167455  0.832545  0.126641  1
  Rh  Rh18  1  0.167455  0.334910  0.126641  1
  Rh  Rh19  1  0.665090  0.832545  0.126641  1
  Rh  Rh20  1  0.333333  0.666667  0.250159  1
  Rh  Rh21  1  0.666667  0.333333  0.749829  1
  Rh  Rh22  1  0.000000  0.000000  0.250306  1
  Rh  Rh23  1  0.000000  0.000000  0.749741  1
