# generated using pymatgen
data_Dy3Y7(InSb)3
_symmetry_space_group_name_H-M   'P 1'
_cell_length_a   6.53858103
_cell_length_b   8.99549578
_cell_length_c   8.99576500
_cell_angle_alpha   119.99874872
_cell_angle_beta   89.99580771
_cell_angle_gamma   90.00799666
_symmetry_Int_Tables_number   1
_chemical_formula_structural   Dy3Y7(InSb)3
_chemical_formula_sum   'Dy3 Y7 In3 Sb3'
_cell_volume   458.22926160
_cell_formula_units_Z   1
loop_
 _symmetry_equiv_pos_site_id
 _symmetry_equiv_pos_as_xyz
  1  'x, y, z'
loop_
 _atom_site_type_symbol
 _atom_site_label
 _atom_site_symmetry_multiplicity
 _atom_site_fract_x
 _atom_site_fract_y
 _atom_site_fract_z
 _atom_site_occupancy
  Dy  Dy0  1  0.501225  0.666589  0.333122  1
  Dy  Dy1  1  0.998631  0.666689  0.333453  1
  Dy  Dy2  1  0.998621  0.333240  0.666540  1
  Y  Y3  1  0.501150  0.333470  0.666868  1
  Y  Y4  1  0.750122  0.239827  0.999989  1
  Y  Y5  1  0.750111  0.760018  0.760062  1
  Y  Y6  1  0.750111  0.999997  0.239951  1
  Y  Y7  1  0.250099  0.760453  0.999999  1
  Y  Y8  1  0.250023  0.239587  0.239572  1
  Y  Y9  1  0.250022  0.999987  0.760404  1
  In  In10  1  0.750165  0.606618  0.000026  1
  In  In11  1  0.749953  0.393429  0.393391  1
  In  In12  1  0.749953  0.999993  0.606593  1
  Sb  Sb13  1  0.249740  0.393827  0.000022  1
  Sb  Sb14  1  0.250039  0.606234  0.606208  1
  Sb  Sb15  1  0.250039  0.000042  0.393800  1
