# generated using pymatgen
data_Hf12Cr3I16
_symmetry_space_group_name_H-M   'P 1'
_cell_length_a   8.99277626
_cell_length_b   11.90352076
_cell_length_c   12.60944934
_cell_angle_alpha   116.93273923
_cell_angle_beta   101.52247481
_cell_angle_gamma   100.25943671
_symmetry_Int_Tables_number   1
_chemical_formula_structural   Hf12Cr3I16
_chemical_formula_sum   'Hf12 Cr3 I16'
_cell_volume   1122.02173580
_cell_formula_units_Z   1
loop_
 _symmetry_equiv_pos_site_id
 _symmetry_equiv_pos_as_xyz
  1  'x, y, z'
loop_
 _atom_site_type_symbol
 _atom_site_label
 _atom_site_symmetry_multiplicity
 _atom_site_fract_x
 _atom_site_fract_y
 _atom_site_fract_z
 _atom_site_occupancy
  Hf  Hf0  1  0.091331  0.284619  0.366296  1
  Hf  Hf1  1  0.908669  0.715381  0.633704  1
  Hf  Hf2  1  0.784276  0.533987  0.341074  1
  Hf  Hf3  1  0.215724  0.466013  0.658926  1
  Hf  Hf4  1  0.267747  0.716437  0.631013  1
  Hf  Hf5  1  0.732253  0.283563  0.368987  1
  Hf  Hf6  1  0.150535  0.535232  0.338717  1
  Hf  Hf7  1  0.849465  0.464768  0.661283  1
  Hf  Hf8  1  0.412033  0.368157  0.291489  1
  Hf  Hf9  1  0.587967  0.631843  0.708511  1
  Hf  Hf10  1  0.460329  0.319063  0.517028  1
  Hf  Hf11  1  0.539671  0.680937  0.482972  1
  Cr  Cr12  1  0.000000  0.500000  0.500000  1
  Cr  Cr13  1  0.342092  0.500298  0.498987  1
  Cr  Cr14  1  0.657909  0.499702  0.501013  1
  I  I15  1  0.394987  0.737561  0.882308  1
  I  I16  1  0.605013  0.262439  0.117692  1
  I  I17  1  0.187190  0.961151  0.781001  1
  I  I18  1  0.812810  0.038849  0.218999  1
  I  I19  1  0.334475  0.091610  0.249989  1
  I  I20  1  0.665525  0.908390  0.750011  1
  I  I21  1  0.567888  0.434895  0.798001  1
  I  I22  1  0.432112  0.565105  0.201999  1
  I  I23  1  0.304185  0.829588  0.463413  1
  I  I24  1  0.695815  0.170412  0.536587  1
  I  I25  1  0.165414  0.172641  0.535769  1
  I  I26  1  0.834586  0.827359  0.464231  1
  I  I27  1  0.924497  0.576618  0.162268  1
  I  I28  1  0.075503  0.423382  0.837732  1
  I  I29  1  0.928018  0.738159  0.884016  1
  I  I30  1  0.071982  0.261841  0.115984  1
