# generated using pymatgen
data_Ta7Ti5B12(Os3Ru)3
_symmetry_space_group_name_H-M   'P 1'
_cell_length_a   3.10394500
_cell_length_b   9.00700300
_cell_length_c   15.57045800
_cell_angle_alpha   89.96241323
_cell_angle_beta   90.00000000
_cell_angle_gamma   90.00000000
_symmetry_Int_Tables_number   1
_chemical_formula_structural   Ta7Ti5B12(Os3Ru)3
_chemical_formula_sum   'Ta7 Ti5 B12 Os9 Ru3'
_cell_volume   435.30696760
_cell_formula_units_Z   1
loop_
 _symmetry_equiv_pos_site_id
 _symmetry_equiv_pos_as_xyz
  1  'x, y, z'
loop_
 _atom_site_type_symbol
 _atom_site_label
 _atom_site_symmetry_multiplicity
 _atom_site_fract_x
 _atom_site_fract_y
 _atom_site_fract_z
 _atom_site_occupancy
  Ta  Ta0  1  0.000000  0.482789  0.407294  1
  Ta  Ta1  1  0.000000  0.017257  0.905715  1
  Ta  Ta2  1  0.000000  0.982805  0.093798  1
  Ta  Ta3  1  0.000000  0.687478  0.204385  1
  Ta  Ta4  1  0.000000  0.314479  0.794454  1
  Ta  Ta5  1  0.000000  0.186777  0.296700  1
  Ta  Ta6  1  0.000000  0.813704  0.702878  1
  Ti  Ti7  1  0.000000  0.799100  0.495643  1
  Ti  Ti8  1  0.000000  0.199062  0.505874  1
  Ti  Ti9  1  0.000000  0.302794  0.005346  1
  Ti  Ti10  1  0.000000  0.697680  0.993923  1
  Ti  Ti11  1  0.000000  0.515059  0.593920  1
  B  B12  1  0.500000  0.604852  0.497449  1
  B  B13  1  0.500000  0.393135  0.506255  1
  B  B14  1  0.500000  0.109443  0.004439  1
  B  B15  1  0.500000  0.891256  0.995222  1
  B  B16  1  0.000000  0.606352  0.833292  1
  B  B17  1  0.000000  0.392970  0.164205  1
  B  B18  1  0.000000  0.111136  0.662652  1
  B  B19  1  0.000000  0.892522  0.337036  1
  B  B20  1  0.500000  0.710735  0.598149  1
  B  B21  1  0.500000  0.282811  0.403637  1
  B  B22  1  0.500000  0.218616  0.902708  1
  B  B23  1  0.500000  0.782191  0.096980  1
  Os  Os24  1  0.500000  0.719444  0.358547  1
  Os  Os25  1  0.500000  0.282444  0.641169  1
  Os  Os26  1  0.500000  0.219638  0.142607  1
  Os  Os27  1  0.500000  0.781269  0.857387  1
  Os  Os28  1  0.500000  0.520364  0.093807  1
  Os  Os29  1  0.500000  0.480444  0.906210  1
  Os  Os30  1  0.500000  0.020594  0.407128  1
  Os  Os31  1  0.500000  0.978461  0.593457  1
  Os  Os32  1  0.500000  0.565322  0.731154  1
  Ru  Ru33  1  0.500000  0.435413  0.266589  1
  Ru  Ru34  1  0.500000  0.065179  0.765551  1
  Ru  Ru35  1  0.500000  0.936422  0.234438  1
