# generated using pymatgen
data_Y2Ta3Co9As3P4
_symmetry_space_group_name_H-M   'P 1'
_cell_length_a   3.74153400
_cell_length_b   9.36878268
_cell_length_c   9.36878200
_cell_angle_alpha   119.99999148
_cell_angle_beta   90.00000000
_cell_angle_gamma   90.00000000
_symmetry_Int_Tables_number   1
_chemical_formula_structural   Y2Ta3Co9As3P4
_chemical_formula_sum   'Y2 Ta3 Co9 As3 P4'
_cell_volume   284.41117970
_cell_formula_units_Z   1
loop_
 _symmetry_equiv_pos_site_id
 _symmetry_equiv_pos_as_xyz
  1  'x, y, z'
loop_
 _atom_site_type_symbol
 _atom_site_label
 _atom_site_symmetry_multiplicity
 _atom_site_fract_x
 _atom_site_fract_y
 _atom_site_fract_z
 _atom_site_occupancy
  Y  Y0  1  0.000000  0.666667  0.333333  1
  Y  Y1  1  0.500000  0.333333  0.666667  1
  Ta  Ta2  1  0.500000  0.777078  0.894755  1
  Ta  Ta3  1  0.500000  0.117676  0.222922  1
  Ta  Ta4  1  0.500000  0.105245  0.882324  1
  Co  Co5  1  0.000000  0.564735  0.928934  1
  Co  Co6  1  0.000000  0.364198  0.435265  1
  Co  Co7  1  0.000000  0.071066  0.635802  1
  Co  Co8  1  0.000000  0.885816  0.160833  1
  Co  Co9  1  0.000000  0.275018  0.114184  1
  Co  Co10  1  0.000000  0.839167  0.724982  1
  Co  Co11  1  0.500000  0.958539  0.387786  1
  Co  Co12  1  0.500000  0.429246  0.041461  1
  Co  Co13  1  0.500000  0.612214  0.570754  1
  As  As14  1  0.500000  0.708113  0.123846  1
  As  As15  1  0.500000  0.415733  0.291887  1
  As  As16  1  0.500000  0.876154  0.584267  1
  P  P17  1  0.000000  0.000000  0.000000  1
  P  P18  1  0.000000  0.580739  0.691838  1
  P  P19  1  0.000000  0.111100  0.419261  1
  P  P20  1  0.000000  0.308162  0.888900  1
