# generated using pymatgen
data_Tb7SmSc11Si16Tc
_symmetry_space_group_name_H-M   'P 1'
_cell_length_a   7.03964690
_cell_length_b   7.36763691
_cell_length_c   13.92726447
_cell_angle_alpha   90.05118493
_cell_angle_beta   90.01184069
_cell_angle_gamma   90.15565953
_symmetry_Int_Tables_number   1
_chemical_formula_structural   Tb7SmSc11Si16Tc
_chemical_formula_sum   'Tb7 Sm1 Sc11 Si16 Tc1'
_cell_volume   722.34243388
_cell_formula_units_Z   1
loop_
 _symmetry_equiv_pos_site_id
 _symmetry_equiv_pos_as_xyz
  1  'x, y, z'
loop_
 _atom_site_type_symbol
 _atom_site_label
 _atom_site_symmetry_multiplicity
 _atom_site_fract_x
 _atom_site_fract_y
 _atom_site_fract_z
 _atom_site_occupancy
  Tb  Tb0  1  0.992817  0.818907  0.900116  1
  Tb  Tb1  1  0.487016  0.671991  0.901060  1
  Tb  Tb2  1  0.992745  0.818883  0.599697  1
  Tb  Tb3  1  0.511414  0.324489  0.095677  1
  Tb  Tb4  1  0.012005  0.176808  0.405862  1
  Tb  Tb5  1  0.511592  0.324288  0.404396  1
  Tb  Tb6  1  0.486980  0.671807  0.598751  1
  Sm  Sm7  1  0.011892  0.175833  0.093509  1
  Sc  Sc8  1  0.841079  0.497039  0.250210  1
  Sc  Sc9  1  0.341730  0.002864  0.250192  1
  Sc  Sc10  1  0.657899  0.996784  0.750037  1
  Sc  Sc11  1  0.326138  0.178800  0.627455  1
  Sc  Sc12  1  0.671751  0.824001  0.374803  1
  Sc  Sc13  1  0.171994  0.674663  0.376698  1
  Sc  Sc14  1  0.671759  0.823759  0.125341  1
  Sc  Sc15  1  0.829010  0.330885  0.628299  1
  Sc  Sc16  1  0.326446  0.178601  0.872430  1
  Sc  Sc17  1  0.828749  0.331229  0.871692  1
  Sc  Sc18  1  0.172045  0.674448  0.123437  1
  Si  Si19  1  0.030137  0.122315  0.749954  1
  Si  Si20  1  0.971288  0.883004  0.250395  1
  Si  Si21  1  0.468127  0.617637  0.250050  1
  Si  Si22  1  0.520544  0.391828  0.749957  1
  Si  Si23  1  0.285649  0.866211  0.749998  1
  Si  Si24  1  0.715271  0.127171  0.250634  1
  Si  Si25  1  0.214857  0.373974  0.250591  1
  Si  Si26  1  0.794721  0.627056  0.749952  1
  Si  Si27  1  0.155213  0.465424  0.547215  1
  Si  Si28  1  0.843476  0.535861  0.462872  1
  Si  Si29  1  0.346503  0.964767  0.463045  1
  Si  Si30  1  0.843068  0.537023  0.036865  1
  Si  Si31  1  0.656548  0.034482  0.540129  1
  Si  Si32  1  0.155401  0.466408  0.952397  1
  Si  Si33  1  0.655985  0.034255  0.959723  1
  Si  Si34  1  0.348055  0.963995  0.036619  1
  Tc  Tc35  1  0.150096  0.492508  0.749943  1
