# generated using pymatgen
data_Dy3YTi(Sn3Rh2)3
_symmetry_space_group_name_H-M   'P 1'
_cell_length_a   13.26243681
_cell_length_b   13.26243810
_cell_length_c   7.24764417
_cell_angle_alpha   91.24868663
_cell_angle_beta   88.75131329
_cell_angle_gamma   160.68536520
_symmetry_Int_Tables_number   1
_chemical_formula_structural   Dy3YTi(Sn3Rh2)3
_chemical_formula_sum   'Dy3 Y1 Ti1 Sn9 Rh6'
_cell_volume   421.54548319
_cell_formula_units_Z   1
loop_
 _symmetry_equiv_pos_site_id
 _symmetry_equiv_pos_as_xyz
  1  'x, y, z'
loop_
 _atom_site_type_symbol
 _atom_site_label
 _atom_site_symmetry_multiplicity
 _atom_site_fract_x
 _atom_site_fract_y
 _atom_site_fract_z
 _atom_site_occupancy
  Dy  Dy0  1  0.476368  0.523632  0.234754  1
  Dy  Dy1  1  0.172421  0.827579  0.264390  1
  Dy  Dy2  1  0.525999  0.474001  0.731844  1
  Y  Y3  1  0.826837  0.173163  0.754977  1
  Ti  Ti4  1  0.704309  0.295691  0.571345  1
  Sn  Sn5  1  0.598189  0.401811  0.103837  1
  Sn  Sn6  1  0.048197  0.951803  0.394596  1
  Sn  Sn7  1  0.952842  0.047158  0.896631  1
  Sn  Sn8  1  0.708955  0.291045  0.977416  1
  Sn  Sn9  1  0.283728  0.716272  0.480705  1
  Sn  Sn10  1  0.294755  0.705245  0.055586  1
  Sn  Sn11  1  0.877900  0.122100  0.235200  1
  Sn  Sn12  1  0.123708  0.876292  0.716255  1
  Sn  Sn13  1  0.401892  0.598108  0.610757  1
  Rh  Rh14  1  0.394995  0.605005  0.984805  1
  Rh  Rh15  1  0.770974  0.229026  0.275188  1
  Rh  Rh16  1  0.224061  0.775939  0.776254  1
  Rh  Rh17  1  0.052296  0.947704  0.009155  1
  Rh  Rh18  1  0.612595  0.387405  0.475929  1
  Rh  Rh19  1  0.948978  0.051022  0.514177  1
