# generated using pymatgen
data_Nb5TcF30
_symmetry_space_group_name_H-M   'P 1'
_cell_length_a   9.46086226
_cell_length_b   9.44653976
_cell_length_c   8.66328400
_cell_angle_alpha   90.00000000
_cell_angle_beta   90.00000000
_cell_angle_gamma   120.07640769
_symmetry_Int_Tables_number   1
_chemical_formula_structural   Nb5TcF30
_chemical_formula_sum   'Nb5 Tc1 F30'
_cell_volume   670.01074324
_cell_formula_units_Z   1
loop_
 _symmetry_equiv_pos_site_id
 _symmetry_equiv_pos_as_xyz
  1  'x, y, z'
loop_
 _atom_site_type_symbol
 _atom_site_label
 _atom_site_symmetry_multiplicity
 _atom_site_fract_x
 _atom_site_fract_y
 _atom_site_fract_z
 _atom_site_occupancy
  Nb  Nb0  1  0.907637  0.599441  0.750000  1
  Nb  Nb1  1  0.305508  0.905581  0.250000  1
  Nb  Nb2  1  0.598446  0.690791  0.250000  1
  Nb  Nb3  1  0.400968  0.308271  0.750000  1
  Nb  Nb4  1  0.690566  0.091516  0.750000  1
  Tc  Tc5  1  0.102493  0.409080  0.250000  1
  F  F6  1  0.880062  0.323874  0.250000  1
  F  F7  1  0.130028  0.671524  0.750000  1
  F  F8  1  0.458026  0.127759  0.250000  1
  F  F9  1  0.670253  0.540370  0.250000  1
  F  F10  1  0.326945  0.457165  0.750000  1
  F  F11  1  0.541578  0.868472  0.750000  1
  F  F12  1  0.137233  0.442862  0.461062  1
  F  F13  1  0.873785  0.567439  0.966107  1
  F  F14  1  0.306433  0.873914  0.466515  1
  F  F15  1  0.565137  0.690940  0.466063  1
  F  F16  1  0.432444  0.306999  0.966296  1
  F  F17  1  0.692574  0.125747  0.966041  1
  F  F18  1  0.070093  0.198516  0.250000  1
  F  F19  1  0.885090  0.085956  0.750000  1
  F  F20  1  0.200295  0.113589  0.750000  1
  F  F21  1  0.799520  0.883829  0.250000  1
  F  F22  1  0.115418  0.919257  0.250000  1
  F  F23  1  0.914487  0.800449  0.750000  1
  F  F24  1  0.352597  0.503376  0.250000  1
  F  F25  1  0.844201  0.354403  0.750000  1
  F  F26  1  0.510481  0.156179  0.750000  1
  F  F27  1  0.485696  0.839166  0.250000  1
  F  F28  1  0.148800  0.645914  0.250000  1
  F  F29  1  0.645597  0.489721  0.750000  1
  F  F30  1  0.137233  0.442862  0.038938  1
  F  F31  1  0.692574  0.125747  0.533959  1
  F  F32  1  0.432444  0.306999  0.533704  1
  F  F33  1  0.565137  0.690940  0.033937  1
  F  F34  1  0.306433  0.873914  0.033485  1
  F  F35  1  0.873785  0.567439  0.533893  1
