# generated using pymatgen
data_Hf20Si15As
_symmetry_space_group_name_H-M   'P 1'
_cell_length_a   7.08393483
_cell_length_b   7.07490747
_cell_length_c   12.86881660
_cell_angle_alpha   89.96640781
_cell_angle_beta   89.83105527
_cell_angle_gamma   89.93429026
_symmetry_Int_Tables_number   1
_chemical_formula_structural   Hf20Si15As
_chemical_formula_sum   'Hf20 Si15 As1'
_cell_volume   644.95837283
_cell_formula_units_Z   1
loop_
 _symmetry_equiv_pos_site_id
 _symmetry_equiv_pos_as_xyz
  1  'x, y, z'
loop_
 _atom_site_type_symbol
 _atom_site_label
 _atom_site_symmetry_multiplicity
 _atom_site_fract_x
 _atom_site_fract_y
 _atom_site_fract_z
 _atom_site_occupancy
  Hf  Hf0  1  0.676557  0.324041  0.750026  1
  Hf  Hf1  1  0.324416  0.675385  0.250175  1
  Hf  Hf2  1  0.823744  0.824242  0.500046  1
  Hf  Hf3  1  0.177876  0.176296  0.999850  1
  Hf  Hf4  1  0.497015  0.151675  0.533213  1
  Hf  Hf5  1  0.499687  0.845696  0.032027  1
  Hf  Hf6  1  0.650272  0.000006  0.286057  1
  Hf  Hf7  1  0.346203  0.994568  0.781956  1
  Hf  Hf8  1  0.849215  0.504874  0.965675  1
  Hf  Hf9  1  0.152776  0.496551  0.467028  1
  Hf  Hf10  1  0.002506  0.652266  0.716407  1
  Hf  Hf11  1  0.003273  0.352180  0.219234  1
  Hf  Hf12  1  0.498748  0.353442  0.125580  1
  Hf  Hf13  1  0.500645  0.645883  0.626825  1
  Hf  Hf14  1  0.852084  0.001977  0.876256  1
  Hf  Hf15  1  0.146367  0.000020  0.376840  1
  Hf  Hf16  1  0.646758  0.500410  0.373401  1
  Hf  Hf17  1  0.352793  0.500862  0.872763  1
  Hf  Hf18  1  0.002851  0.850921  0.124587  1
  Hf  Hf19  1  0.999629  0.145711  0.623330  1
  Si  Si20  1  0.204013  0.853246  0.572860  1
  Si  Si21  1  0.646572  0.704394  0.822745  1
  Si  Si22  1  0.354654  0.296426  0.322880  1
  Si  Si23  1  0.853328  0.204059  0.427126  1
  Si  Si24  1  0.144746  0.797136  0.927095  1
  Si  Si25  1  0.702917  0.646960  0.177166  1
  Si  Si26  1  0.295778  0.353323  0.676486  1
  Si  Si27  1  0.541507  0.197346  0.931266  1
  Si  Si28  1  0.450017  0.800218  0.436710  1
  Si  Si29  1  0.698045  0.951299  0.685934  1
  Si  Si30  1  0.302201  0.048995  0.186461  1
  Si  Si31  1  0.801894  0.451136  0.563786  1
  Si  Si32  1  0.199437  0.549340  0.063608  1
  Si  Si33  1  0.950831  0.699171  0.314838  1
  Si  Si34  1  0.049205  0.301556  0.813519  1
  As  As35  1  0.801444  0.148389  0.076247  1
