# generated using pymatgen
data_HoLu9In8(PtAu)2
_symmetry_space_group_name_H-M   'P 1'
_cell_length_a   3.59262100
_cell_length_b   8.07000903
_cell_length_c   18.08432114
_cell_angle_alpha   90.03355286
_cell_angle_beta   90.00000000
_cell_angle_gamma   90.00000000
_symmetry_Int_Tables_number   1
_chemical_formula_structural   HoLu9In8(PtAu)2
_chemical_formula_sum   'Ho1 Lu9 In8 Pt2 Au2'
_cell_volume   524.30929980
_cell_formula_units_Z   1
loop_
 _symmetry_equiv_pos_site_id
 _symmetry_equiv_pos_as_xyz
  1  'x, y, z'
loop_
 _atom_site_type_symbol
 _atom_site_label
 _atom_site_symmetry_multiplicity
 _atom_site_fract_x
 _atom_site_fract_y
 _atom_site_fract_z
 _atom_site_occupancy
  Ho  Ho0  1  0.000000  0.000000  0.000000  1
  Lu  Lu1  1  0.000000  0.119978  0.419091  1
  Lu  Lu2  1  0.000000  0.880022  0.580909  1
  Lu  Lu3  1  0.000000  0.383469  0.916150  1
  Lu  Lu4  1  0.000000  0.616531  0.083850  1
  Lu  Lu5  1  0.000000  0.256080  0.217417  1
  Lu  Lu6  1  0.000000  0.743920  0.782583  1
  Lu  Lu7  1  0.000000  0.265403  0.722408  1
  Lu  Lu8  1  0.000000  0.734597  0.277592  1
  Lu  Lu9  1  0.000000  0.500000  0.500000  1
  In  In10  1  0.500000  0.423136  0.352929  1
  In  In11  1  0.500000  0.576864  0.647071  1
  In  In12  1  0.500000  0.076072  0.853232  1
  In  In13  1  0.500000  0.923928  0.146768  1
  In  In14  1  0.500000  0.293606  0.064863  1
  In  In15  1  0.500000  0.706394  0.935137  1
  In  In16  1  0.500000  0.210293  0.566719  1
  In  In17  1  0.500000  0.789707  0.433281  1
  Pt  Pt18  1  0.500000  0.470340  0.804239  1
  Pt  Pt19  1  0.500000  0.529660  0.195761  1
  Au  Au20  1  0.500000  0.030471  0.302348  1
  Au  Au21  1  0.500000  0.969529  0.697652  1
