# generated using pymatgen
data_PrTh(SiRh2)2
_symmetry_space_group_name_H-M   'P 1'
_cell_length_a   9.28753338
_cell_length_b   9.28753262
_cell_length_c   4.11432400
_cell_angle_alpha   90.00000000
_cell_angle_beta   90.00000000
_cell_angle_gamma   154.85985303
_symmetry_Int_Tables_number   1
_chemical_formula_structural   PrTh(SiRh2)2
_chemical_formula_sum   'Pr1 Th1 Si2 Rh4'
_cell_volume   150.77118211
_cell_formula_units_Z   1
loop_
 _symmetry_equiv_pos_site_id
 _symmetry_equiv_pos_as_xyz
  1  'x, y, z'
loop_
 _atom_site_type_symbol
 _atom_site_label
 _atom_site_symmetry_multiplicity
 _atom_site_fract_x
 _atom_site_fract_y
 _atom_site_fract_z
 _atom_site_occupancy
  Pr  Pr0  1  0.101473  0.898527  0.750000  1
  Th  Th1  1  0.901117  0.098883  0.250000  1
  Si  Si2  1  0.320410  0.679590  0.750000  1
  Si  Si3  1  0.678679  0.321321  0.250000  1
  Rh  Rh4  1  0.546350  0.453650  0.250000  1
  Rh  Rh5  1  0.450831  0.549169  0.750000  1
  Rh  Rh6  1  0.250431  0.749569  0.250000  1
  Rh  Rh7  1  0.750709  0.249291  0.750000  1
