# generated using pymatgen
data_DyLu(OsO4)2
_symmetry_space_group_name_H-M   'P 1'
_cell_length_a   5.31573209
_cell_length_b   7.38219168
_cell_length_c   7.68302790
_cell_angle_alpha   79.89422402
_cell_angle_beta   85.80254719
_cell_angle_gamma   88.89878582
_symmetry_Int_Tables_number   1
_chemical_formula_structural   DyLu(OsO4)2
_chemical_formula_sum   'Dy2 Lu2 Os4 O16'
_cell_volume   296.01554544
_cell_formula_units_Z   2
loop_
 _symmetry_equiv_pos_site_id
 _symmetry_equiv_pos_as_xyz
  1  'x, y, z'
loop_
 _atom_site_type_symbol
 _atom_site_label
 _atom_site_symmetry_multiplicity
 _atom_site_fract_x
 _atom_site_fract_y
 _atom_site_fract_z
 _atom_site_occupancy
  Dy  Dy0  1  0.759231  0.384553  0.385947  1
  Dy  Dy1  1  0.240769  0.615447  0.614053  1
  Lu  Lu2  1  0.692753  0.894100  0.331703  1
  Lu  Lu3  1  0.307247  0.105900  0.668297  1
  Os  Os4  1  0.786639  0.299747  0.835923  1
  Os  Os5  1  0.213361  0.700253  0.164077  1
  Os  Os6  1  0.253636  0.205126  0.162822  1
  Os  Os7  1  0.746364  0.794874  0.837178  1
  O  O8  1  0.904463  0.805304  0.062003  1
  O  O9  1  0.095537  0.194696  0.937997  1
  O  O10  1  0.355072  0.944629  0.179829  1
  O  O11  1  0.644928  0.055371  0.820171  1
  O  O12  1  0.109654  0.449044  0.173387  1
  O  O13  1  0.890346  0.550956  0.826613  1
  O  O14  1  0.554050  0.288022  0.031784  1
  O  O15  1  0.445950  0.711978  0.968216  1
  O  O16  1  0.011154  0.317107  0.608954  1
  O  O17  1  0.988846  0.682893  0.391046  1
  O  O18  1  0.444347  0.174062  0.390313  1
  O  O19  1  0.555653  0.825938  0.609687  1
  O  O20  1  0.479661  0.618513  0.335359  1
  O  O21  1  0.520339  0.381487  0.664641  1
  O  O22  1  0.943761  0.124026  0.296046  1
  O  O23  1  0.056239  0.875974  0.703954  1
