# generated using pymatgen
data_Rb(CoO2)6
_symmetry_space_group_name_H-M   'P 1'
_cell_length_a   8.60091007
_cell_length_b   9.88545985
_cell_length_c   8.07104093
_cell_angle_alpha   67.14199933
_cell_angle_beta   57.79415153
_cell_angle_gamma   43.60172531
_symmetry_Int_Tables_number   1
_chemical_formula_structural   Rb(CoO2)6
_chemical_formula_sum   'Rb2 Co12 O24'
_cell_volume   400.43471898
_cell_formula_units_Z   2
loop_
 _symmetry_equiv_pos_site_id
 _symmetry_equiv_pos_as_xyz
  1  'x, y, z'
loop_
 _atom_site_type_symbol
 _atom_site_label
 _atom_site_symmetry_multiplicity
 _atom_site_fract_x
 _atom_site_fract_y
 _atom_site_fract_z
 _atom_site_occupancy
  Rb  Rb0  1  0.205995  0.997162  0.001067  1
  Rb  Rb1  1  0.797366  0.001738  0.000877  1
  Co  Co2  1  0.001510  0.489288  0.184839  1
  Co  Co3  1  0.256247  0.185938  0.514061  1
  Co  Co4  1  0.338718  0.488055  0.182970  1
  Co  Co5  1  0.075334  0.817144  0.488954  1
  Co  Co6  1  0.592898  0.183678  0.512104  1
  Co  Co7  1  0.333738  0.513035  0.814266  1
  Co  Co8  1  0.669454  0.487538  0.183381  1
  Co  Co9  1  0.411840  0.816208  0.486905  1
  Co  Co10  1  0.922090  0.185165  0.515219  1
  Co  Co11  1  0.669592  0.508904  0.817833  1
  Co  Co12  1  0.743303  0.815414  0.486849  1
  Co  Co13  1  0.001231  0.512941  0.813667  1
  O  O14  1  0.008355  0.363625  0.050029  1
  O  O15  1  0.141288  0.047548  0.641277  1
  O  O16  1  0.062309  0.299716  0.378855  1
  O  O17  1  0.998283  0.627650  0.292930  1
  O  O18  1  0.338248  0.364953  0.049835  1
  O  O19  1  0.478030  0.047728  0.636394  1
  O  O20  1  0.400323  0.296417  0.374978  1
  O  O21  1  0.338432  0.374560  0.703341  1
  O  O22  1  0.338465  0.624379  0.288185  1
  O  O23  1  0.680365  0.355634  0.050408  1
  O  O24  1  0.268443  0.703543  0.626732  1
  O  O25  1  0.191416  0.953553  0.365751  1
  O  O26  1  0.804733  0.049875  0.639729  1
  O  O27  1  0.735555  0.294524  0.375184  1
  O  O28  1  0.328141  0.638912  0.951063  1
  O  O29  1  0.670362  0.372776  0.706102  1
  O  O30  1  0.664598  0.626033  0.297418  1
  O  O31  1  0.603791  0.706154  0.620953  1
  O  O32  1  0.523249  0.954186  0.362928  1
  O  O33  1  0.665360  0.635220  0.950619  1
  O  O34  1  0.006444  0.373002  0.703681  1
  O  O35  1  0.942900  0.697698  0.620496  1
  O  O36  1  0.860166  0.952499  0.360283  1
  O  O37  1  0.994429  0.637602  0.949835  1
