# generated using pymatgen
data_Sr2Be(SiIr2)3
_symmetry_space_group_name_H-M   'P 1'
_cell_length_a   6.70551095
_cell_length_b   6.72752894
_cell_length_c   6.70551100
_cell_angle_alpha   129.69454962
_cell_angle_beta   116.42121225
_cell_angle_gamma   85.09649904
_symmetry_Int_Tables_number   1
_chemical_formula_structural   Sr2Be(SiIr2)3
_chemical_formula_sum   'Sr2 Be1 Si3 Ir6'
_cell_volume   199.59049846
_cell_formula_units_Z   1
loop_
 _symmetry_equiv_pos_site_id
 _symmetry_equiv_pos_as_xyz
  1  'x, y, z'
loop_
 _atom_site_type_symbol
 _atom_site_label
 _atom_site_symmetry_multiplicity
 _atom_site_fract_x
 _atom_site_fract_y
 _atom_site_fract_z
 _atom_site_occupancy
  Sr  Sr0  1  0.248369  0.995228  0.746859  1
  Sr  Sr1  1  0.752448  0.015716  0.263267  1
  Be  Be2  1  0.077246  0.292587  0.215343  1
  Si  Si3  1  0.907030  0.683195  0.776165  1
  Si  Si4  1  0.428048  0.644851  0.216804  1
  Si  Si5  1  0.585729  0.363795  0.778065  1
  Ir  Ir6  1  0.481990  0.501511  0.487802  1
  Ir  Ir7  1  0.013709  0.501511  0.019521  1
  Ir  Ir8  1  0.263369  0.002131  0.265063  1
  Ir  Ir9  1  0.737067  0.002131  0.738761  1
  Ir  Ir10  1  0.227211  0.498672  0.720889  1
  Ir  Ir11  1  0.777783  0.498672  0.271461  1
