# generated using pymatgen
data_Sm(CoO2)8
_symmetry_space_group_name_H-M   'P 1'
_cell_length_a   5.68379028
_cell_length_b   6.57981760
_cell_length_c   6.88600007
_cell_angle_alpha   92.28053024
_cell_angle_beta   78.11362671
_cell_angle_gamma   77.48426786
_symmetry_Int_Tables_number   1
_chemical_formula_structural   Sm(CoO2)8
_chemical_formula_sum   'Sm1 Co8 O16'
_cell_volume   245.05176203
_cell_formula_units_Z   1
loop_
 _symmetry_equiv_pos_site_id
 _symmetry_equiv_pos_as_xyz
  1  'x, y, z'
loop_
 _atom_site_type_symbol
 _atom_site_label
 _atom_site_symmetry_multiplicity
 _atom_site_fract_x
 _atom_site_fract_y
 _atom_site_fract_z
 _atom_site_occupancy
  Sm  Sm0  1  0.016577  0.998832  0.004827  1
  Co  Co1  1  0.582449  0.508833  0.179440  1
  Co  Co2  1  0.082921  0.503103  0.180432  1
  Co  Co3  1  0.167809  0.818496  0.525178  1
  Co  Co4  1  0.666083  0.816422  0.536796  1
  Co  Co5  1  0.341203  0.183908  0.465002  1
  Co  Co6  1  0.838561  0.183397  0.474801  1
  Co  Co7  1  0.424877  0.490954  0.819463  1
  Co  Co8  1  0.926234  0.496291  0.818162  1
  O  O9  1  0.828234  0.657252  0.068217  1
  O  O10  1  0.316664  0.659275  0.066531  1
  O  O11  1  0.981192  0.674887  0.407002  1
  O  O12  1  0.484981  0.677750  0.405608  1
  O  O13  1  0.850773  0.977285  0.661800  1
  O  O14  1  0.338422  0.980100  0.656770  1
  O  O15  1  0.354037  0.350698  0.257252  1
  O  O16  1  0.855538  0.333312  0.249054  1
  O  O17  1  0.151218  0.667868  0.751764  1
  O  O18  1  0.655593  0.648575  0.735988  1
  O  O19  1  0.155245  0.024044  0.335780  1
  O  O20  1  0.669562  0.017776  0.345830  1
  O  O21  1  0.026045  0.325215  0.593603  1
  O  O22  1  0.522643  0.320700  0.594203  1
  O  O23  1  0.179546  0.341773  0.932934  1
  O  O24  1  0.690688  0.343257  0.933561  1
