# generated using pymatgen
data_KAlZnF6
_symmetry_space_group_name_H-M   'P 1'
_cell_length_a   6.94137200
_cell_length_b   7.12298800
_cell_length_c   9.89206400
_cell_angle_alpha   90.00000000
_cell_angle_beta   90.00000000
_cell_angle_gamma   90.00000000
_symmetry_Int_Tables_number   1
_chemical_formula_structural   KAlZnF6
_chemical_formula_sum   'K4 Al4 Zn4 F24'
_cell_volume   489.09638155
_cell_formula_units_Z   4
loop_
 _symmetry_equiv_pos_site_id
 _symmetry_equiv_pos_as_xyz
  1  'x, y, z'
loop_
 _atom_site_type_symbol
 _atom_site_label
 _atom_site_symmetry_multiplicity
 _atom_site_fract_x
 _atom_site_fract_y
 _atom_site_fract_z
 _atom_site_occupancy
  K  K0  1  0.987964  0.250000  0.381343  1
  K  K1  1  0.512036  0.750000  0.881343  1
  K  K2  1  0.487964  0.250000  0.118657  1
  K  K3  1  0.012036  0.750000  0.618657  1
  Al  Al4  1  0.500000  0.000000  0.500000  1
  Al  Al5  1  0.000000  0.500000  0.000000  1
  Al  Al6  1  0.500000  0.500000  0.500000  1
  Al  Al7  1  0.000000  0.000000  0.000000  1
  Zn  Zn8  1  0.307028  0.250000  0.769683  1
  Zn  Zn9  1  0.692972  0.750000  0.230317  1
  Zn  Zn10  1  0.192972  0.750000  0.269683  1
  Zn  Zn11  1  0.807028  0.250000  0.730317  1
  F  F12  1  0.612241  0.005933  0.334120  1
  F  F13  1  0.112241  0.494067  0.165880  1
  F  F14  1  0.387759  0.505933  0.665880  1
  F  F15  1  0.887759  0.994067  0.834120  1
  F  F16  1  0.387759  0.994067  0.665880  1
  F  F17  1  0.887759  0.505933  0.834120  1
  F  F18  1  0.612241  0.494067  0.334120  1
  F  F19  1  0.112241  0.005933  0.165880  1
  F  F20  1  0.732176  0.056964  0.576588  1
  F  F21  1  0.232176  0.443036  0.923412  1
  F  F22  1  0.267824  0.556964  0.423412  1
  F  F23  1  0.767824  0.943036  0.076588  1
  F  F24  1  0.073454  0.250000  0.657115  1
  F  F25  1  0.573454  0.250000  0.842885  1
  F  F26  1  0.926546  0.750000  0.342885  1
  F  F27  1  0.426546  0.750000  0.157115  1
  F  F28  1  0.436713  0.250000  0.484317  1
  F  F29  1  0.936713  0.250000  0.015683  1
  F  F30  1  0.563287  0.750000  0.515683  1
  F  F31  1  0.063287  0.750000  0.984317  1
  F  F32  1  0.232176  0.056964  0.923412  1
  F  F33  1  0.732176  0.443036  0.576588  1
  F  F34  1  0.767824  0.556964  0.076588  1
  F  F35  1  0.267824  0.943036  0.423412  1
