# generated using pymatgen
data_YEr7SnPd24
_symmetry_space_group_name_H-M   'P 1'
_cell_length_a   8.37397504
_cell_length_b   8.37397504
_cell_length_c   8.37397504
_cell_angle_alpha   90.00762187
_cell_angle_beta   90.00762187
_cell_angle_gamma   90.00762187
_symmetry_Int_Tables_number   1
_chemical_formula_structural   YEr7SnPd24
_chemical_formula_sum   'Y1 Er7 Sn1 Pd24'
_cell_volume   587.21207055
_cell_formula_units_Z   1
loop_
 _symmetry_equiv_pos_site_id
 _symmetry_equiv_pos_as_xyz
  1  'x, y, z'
loop_
 _atom_site_type_symbol
 _atom_site_label
 _atom_site_symmetry_multiplicity
 _atom_site_fract_x
 _atom_site_fract_y
 _atom_site_fract_z
 _atom_site_occupancy
  Y  Y0  1  0.252534  0.252534  0.252534  1
  Er  Er1  1  0.747286  0.747286  0.747286  1
  Er  Er2  1  0.747287  0.747287  0.252714  1
  Er  Er3  1  0.747287  0.252714  0.747287  1
  Er  Er4  1  0.252692  0.252692  0.747323  1
  Er  Er5  1  0.252692  0.747323  0.252692  1
  Er  Er6  1  0.252714  0.747287  0.747287  1
  Er  Er7  1  0.747323  0.252692  0.252692  1
  Sn  Sn8  1  0.999993  0.999993  0.999993  1
  Pd  Pd9  1  0.265146  0.500378  0.999588  1
  Pd  Pd10  1  0.734855  0.500008  0.999989  1
  Pd  Pd11  1  0.999588  0.265146  0.500378  1
  Pd  Pd12  1  0.500378  0.265146  0.999588  1
  Pd  Pd13  1  0.999989  0.734855  0.500008  1
  Pd  Pd14  1  0.500008  0.734855  0.999989  1
  Pd  Pd15  1  0.500378  0.999588  0.265146  1
  Pd  Pd16  1  0.265146  0.999588  0.500378  1
  Pd  Pd17  1  0.500008  0.999989  0.734855  1
  Pd  Pd18  1  0.734855  0.999989  0.500008  1
  Pd  Pd19  1  0.999588  0.500378  0.265146  1
  Pd  Pd20  1  0.999989  0.500008  0.734855  1
  Pd  Pd21  1  0.254955  0.500447  0.500447  1
  Pd  Pd22  1  0.745041  0.500017  0.500017  1
  Pd  Pd23  1  0.500447  0.254955  0.500447  1
  Pd  Pd24  1  0.500017  0.745041  0.500017  1
  Pd  Pd25  1  0.500447  0.500447  0.254955  1
  Pd  Pd26  1  0.500017  0.500017  0.745041  1
  Pd  Pd27  1  0.307780  0.999633  0.999633  1
  Pd  Pd28  1  0.692306  0.999993  0.999993  1
  Pd  Pd29  1  0.999633  0.307780  0.999633  1
  Pd  Pd30  1  0.999993  0.692306  0.999993  1
  Pd  Pd31  1  0.999633  0.999633  0.307780  1
  Pd  Pd32  1  0.999993  0.999993  0.692306  1
