# generated using pymatgen
data_Pm2Cr2H2N3
_symmetry_space_group_name_H-M   'P 1'
_cell_length_a   7.63218200
_cell_length_b   3.78837800
_cell_length_c   3.53249200
_cell_angle_alpha   90.00000000
_cell_angle_beta   90.00000000
_cell_angle_gamma   90.00000000
_symmetry_Int_Tables_number   1
_chemical_formula_structural   Pm2Cr2H2N3
_chemical_formula_sum   'Pm2 Cr2 H2 N3'
_cell_volume   102.13702671
_cell_formula_units_Z   1
loop_
 _symmetry_equiv_pos_site_id
 _symmetry_equiv_pos_as_xyz
  1  'x, y, z'
loop_
 _atom_site_type_symbol
 _atom_site_label
 _atom_site_symmetry_multiplicity
 _atom_site_fract_x
 _atom_site_fract_y
 _atom_site_fract_z
 _atom_site_occupancy
  Pm  Pm0  1  0.000000  0.000000  0.000000  1
  Pm  Pm1  1  0.500000  0.000000  0.000000  1
  Cr  Cr2  1  0.259333  0.499999  0.499999  1
  Cr  Cr3  1  0.740668  0.499999  0.499999  1
  H  H4  1  0.191799  0.499999  0.000000  1
  H  H5  1  0.808202  0.499999  0.000000  1
  N  N6  1  0.233573  0.000000  0.499999  1
  N  N7  1  0.766428  0.000000  0.499999  1
  N  N8  1  0.500000  0.499999  0.499999  1
