# generated using pymatgen
data_Hf(IO3)4
_symmetry_space_group_name_H-M   'P 1'
_cell_length_a   8.45675600
_cell_length_b   8.45675600
_cell_length_c   7.49335900
_cell_angle_alpha   90.00000000
_cell_angle_beta   90.00000000
_cell_angle_gamma   90.00000000
_symmetry_Int_Tables_number   1
_chemical_formula_structural   Hf(IO3)4
_chemical_formula_sum   'Hf2 I8 O24'
_cell_volume   535.90047278
_cell_formula_units_Z   2
loop_
 _symmetry_equiv_pos_site_id
 _symmetry_equiv_pos_as_xyz
  1  'x, y, z'
loop_
 _atom_site_type_symbol
 _atom_site_label
 _atom_site_symmetry_multiplicity
 _atom_site_fract_x
 _atom_site_fract_y
 _atom_site_fract_z
 _atom_site_occupancy
  Hf  Hf0  1  0.000000  0.500000  0.054486  1
  Hf  Hf1  1  0.500000  0.000000  0.945514  1
  I  I2  1  0.753110  0.720714  0.727905  1
  I  I3  1  0.779286  0.253110  0.727905  1
  I  I4  1  0.279286  0.753110  0.272095  1
  I  I5  1  0.253110  0.220714  0.272095  1
  I  I6  1  0.746890  0.779286  0.272095  1
  I  I7  1  0.720714  0.246890  0.272095  1
  I  I8  1  0.246890  0.279286  0.727905  1
  I  I9  1  0.220714  0.746890  0.727905  1
  O  O10  1  0.203795  0.587810  0.902297  1
  O  O11  1  0.087810  0.296205  0.902297  1
  O  O12  1  0.912190  0.703795  0.902297  1
  O  O13  1  0.796205  0.412190  0.902297  1
  O  O14  1  0.296205  0.912190  0.097703  1
  O  O15  1  0.412190  0.203795  0.097703  1
  O  O16  1  0.587810  0.796205  0.097703  1
  O  O17  1  0.703795  0.087810  0.097703  1
  O  O18  1  0.428563  0.794231  0.783658  1
  O  O19  1  0.294231  0.071437  0.783658  1
  O  O20  1  0.744614  0.401194  0.553596  1
  O  O21  1  0.901194  0.755386  0.553596  1
  O  O22  1  0.098806  0.244614  0.553596  1
  O  O23  1  0.255386  0.598806  0.553596  1
  O  O24  1  0.755386  0.098806  0.446404  1
  O  O25  1  0.598806  0.744614  0.446404  1
  O  O26  1  0.401194  0.255386  0.446404  1
  O  O27  1  0.244614  0.901194  0.446404  1
  O  O28  1  0.928563  0.294231  0.216342  1
  O  O29  1  0.794231  0.571437  0.216342  1
  O  O30  1  0.205769  0.428563  0.216342  1
  O  O31  1  0.071437  0.705769  0.216342  1
  O  O32  1  0.571437  0.205769  0.783658  1
  O  O33  1  0.705769  0.928563  0.783658  1
