# generated using pymatgen
data_Ho5Lu11(In3Cu)2
_symmetry_space_group_name_H-M   'P 1'
_cell_length_a   10.39859770
_cell_length_b   10.39859763
_cell_length_c   6.75246951
_cell_angle_alpha   89.96164250
_cell_angle_beta   90.03835415
_cell_angle_gamma   120.05325995
_symmetry_Int_Tables_number   1
_chemical_formula_structural   Ho5Lu11(In3Cu)2
_chemical_formula_sum   'Ho5 Lu11 In6 Cu2'
_cell_volume   631.98876134
_cell_formula_units_Z   1
loop_
 _symmetry_equiv_pos_site_id
 _symmetry_equiv_pos_as_xyz
  1  'x, y, z'
loop_
 _atom_site_type_symbol
 _atom_site_label
 _atom_site_symmetry_multiplicity
 _atom_site_fract_x
 _atom_site_fract_y
 _atom_site_fract_z
 _atom_site_occupancy
  Ho  Ho0  1  0.823545  0.176455  0.224499  1
  Ho  Ho1  1  0.666514  0.333486  0.877634  1
  Ho  Ho2  1  0.333376  0.666624  0.377022  1
  Ho  Ho3  1  0.001186  0.998814  0.490020  1
  Ho  Ho4  1  0.000800  0.999200  0.989238  1
  Lu  Lu5  1  0.523118  0.048765  0.510194  1
  Lu  Lu6  1  0.951235  0.476882  0.510194  1
  Lu  Lu7  1  0.523864  0.476136  0.509102  1
  Lu  Lu8  1  0.473993  0.949474  0.008877  1
  Lu  Lu9  1  0.050526  0.526007  0.008877  1
  Lu  Lu10  1  0.475636  0.524364  0.008720  1
  Lu  Lu11  1  0.175637  0.352499  0.722637  1
  Lu  Lu12  1  0.647501  0.824363  0.722637  1
  Lu  Lu13  1  0.176493  0.823507  0.721934  1
  Lu  Lu14  1  0.823545  0.646353  0.221746  1
  Lu  Lu15  1  0.353647  0.176455  0.221746  1
  In  In16  1  0.836545  0.673335  0.743217  1
  In  In17  1  0.326665  0.163455  0.743217  1
  In  In18  1  0.836574  0.163426  0.742910  1
  In  In19  1  0.165686  0.327529  0.243622  1
  In  In20  1  0.672471  0.834314  0.243622  1
  In  In21  1  0.163543  0.836457  0.243237  1
  Cu  Cu22  1  0.664290  0.335710  0.288347  1
  Cu  Cu23  1  0.333610  0.666390  0.784791  1
