# generated using pymatgen
data_Dy3Y8(Ho3Bi4)3
_symmetry_space_group_name_H-M   'P 1'
_cell_length_a   8.24495412
_cell_length_b   9.50700300
_cell_length_c   12.06861917
_cell_angle_alpha   90.00199727
_cell_angle_beta   89.98078509
_cell_angle_gamma   89.99834153
_symmetry_Int_Tables_number   1
_chemical_formula_structural   Dy3Y8(Ho3Bi4)3
_chemical_formula_sum   'Dy3 Y8 Ho9 Bi12'
_cell_volume   945.99628863
_cell_formula_units_Z   1
loop_
 _symmetry_equiv_pos_site_id
 _symmetry_equiv_pos_as_xyz
  1  'x, y, z'
loop_
 _atom_site_type_symbol
 _atom_site_label
 _atom_site_symmetry_multiplicity
 _atom_site_fract_x
 _atom_site_fract_y
 _atom_site_fract_z
 _atom_site_occupancy
  Dy  Dy0  1  0.306458  0.436603  0.940495  1
  Dy  Dy1  1  0.806571  0.063438  0.559474  1
  Dy  Dy2  1  0.693504  0.936631  0.059517  1
  Y  Y3  1  0.186306  0.749997  0.718993  1
  Y  Y4  1  0.686320  0.749887  0.780903  1
  Y  Y5  1  0.813603  0.250094  0.280949  1
  Y  Y6  1  0.313692  0.249901  0.219086  1
  Y  Y7  1  0.353560  0.749847  0.215582  1
  Y  Y8  1  0.853877  0.749869  0.284604  1
  Y  Y9  1  0.646269  0.249963  0.784520  1
  Y  Y10  1  0.146202  0.249913  0.715520  1
  Ho  Ho11  1  0.025602  0.749968  0.988911  1
  Ho  Ho12  1  0.525444  0.749913  0.511065  1
  Ho  Ho13  1  0.974330  0.249930  0.011184  1
  Ho  Ho14  1  0.474219  0.250047  0.488835  1
  Ho  Ho15  1  0.193656  0.563871  0.440449  1
  Ho  Ho16  1  0.693429  0.563772  0.059498  1
  Ho  Ho17  1  0.193511  0.936111  0.440549  1
  Ho  Ho18  1  0.306555  0.063671  0.940587  1
  Ho  Ho19  1  0.806473  0.436358  0.559406  1
  Bi  Bi20  1  0.433258  0.003876  0.673030  1
  Bi  Bi21  1  0.933343  0.496066  0.826906  1
  Bi  Bi22  1  0.566543  0.503882  0.327035  1
  Bi  Bi23  1  0.066749  0.996061  0.173093  1
  Bi  Bi24  1  0.566458  0.996079  0.326997  1
  Bi  Bi25  1  0.066556  0.503833  0.173141  1
  Bi  Bi26  1  0.433524  0.496079  0.672922  1
  Bi  Bi27  1  0.933548  0.003856  0.826937  1
  Bi  Bi28  1  0.408304  0.750467  0.957967  1
  Bi  Bi29  1  0.908564  0.749266  0.541925  1
  Bi  Bi30  1  0.591657  0.250485  0.042046  1
  Bi  Bi31  1  0.091916  0.250266  0.457875  1
