# generated using pymatgen
data_Ca4Be2Si5Ge
_symmetry_space_group_name_H-M   'P 1'
_cell_length_a   8.15547557
_cell_length_b   7.93660503
_cell_length_c   5.88828913
_cell_angle_alpha   70.53233606
_cell_angle_beta   66.78048255
_cell_angle_gamma   42.90050439
_symmetry_Int_Tables_number   1
_chemical_formula_structural   Ca4Be2Si5Ge
_chemical_formula_sum   'Ca4 Be2 Si5 Ge1'
_cell_volume   237.82769423
_cell_formula_units_Z   1
loop_
 _symmetry_equiv_pos_site_id
 _symmetry_equiv_pos_as_xyz
  1  'x, y, z'
loop_
 _atom_site_type_symbol
 _atom_site_label
 _atom_site_symmetry_multiplicity
 _atom_site_fract_x
 _atom_site_fract_y
 _atom_site_fract_z
 _atom_site_occupancy
  Ca  Ca0  1  0.750361  0.750371  0.749065  1
  Ca  Ca1  1  0.756840  0.242264  0.757877  1
  Ca  Ca2  1  0.250935  0.249797  0.249639  1
  Ca  Ca3  1  0.242123  0.756981  0.243160  1
  Be  Be4  1  0.664528  0.671429  0.335472  1
  Be  Be5  1  0.333127  0.333232  0.666873  1
  Si  Si6  1  0.650611  0.171599  0.349389  1
  Si  Si7  1  0.174318  0.653934  0.825682  1
  Si  Si8  1  0.346729  0.825310  0.653271  1
  Si  Si9  1  0.178013  0.169306  0.821987  1
  Si  Si10  1  0.827823  0.827440  0.172177  1
  Ge  Ge11  1  0.824593  0.348337  0.175407  1
