# generated using pymatgen
data_Ac2ZnGa5Ni4
_symmetry_space_group_name_H-M   'P 1'
_cell_length_a   6.48860579
_cell_length_b   6.48860547
_cell_length_c   5.22085600
_cell_angle_alpha   90.00000000
_cell_angle_beta   90.00000000
_cell_angle_gamma   104.75010697
_symmetry_Int_Tables_number   1
_chemical_formula_structural   Ac2ZnGa5Ni4
_chemical_formula_sum   'Ac2 Zn1 Ga5 Ni4'
_cell_volume   212.56480803
_cell_formula_units_Z   1
loop_
 _symmetry_equiv_pos_site_id
 _symmetry_equiv_pos_as_xyz
  1  'x, y, z'
loop_
 _atom_site_type_symbol
 _atom_site_label
 _atom_site_symmetry_multiplicity
 _atom_site_fract_x
 _atom_site_fract_y
 _atom_site_fract_z
 _atom_site_occupancy
  Ac  Ac0  1  0.660397  0.660397  0.250000  1
  Ac  Ac1  1  0.340952  0.340952  0.750000  1
  Zn  Zn2  1  0.065658  0.065658  0.250000  1
  Ga  Ga3  1  0.938861  0.938861  0.750000  1
  Ga  Ga4  1  0.084444  0.470226  0.250000  1
  Ga  Ga5  1  0.527738  0.915322  0.750000  1
  Ga  Ga6  1  0.915322  0.527738  0.750000  1
  Ga  Ga7  1  0.470226  0.084444  0.250000  1
  Ni  Ni8  1  0.204031  0.794170  0.500513  1
  Ni  Ni9  1  0.204031  0.794170  0.999487  1
  Ni  Ni10  1  0.794170  0.204031  0.500513  1
  Ni  Ni11  1  0.794170  0.204031  0.999487  1
