# generated using pymatgen
data_Sr2CuTe4(ClO5)2
_symmetry_space_group_name_H-M   'P 1'
_cell_length_a   5.51230641
_cell_length_b   7.56165203
_cell_length_c   9.00909857
_cell_angle_alpha   76.88295848
_cell_angle_beta   79.88708288
_cell_angle_gamma   75.95934817
_symmetry_Int_Tables_number   1
_chemical_formula_structural   Sr2CuTe4(ClO5)2
_chemical_formula_sum   'Sr2 Cu1 Te4 Cl2 O10'
_cell_volume   351.89550335
_cell_formula_units_Z   1
loop_
 _symmetry_equiv_pos_site_id
 _symmetry_equiv_pos_as_xyz
  1  'x, y, z'
loop_
 _atom_site_type_symbol
 _atom_site_label
 _atom_site_symmetry_multiplicity
 _atom_site_fract_x
 _atom_site_fract_y
 _atom_site_fract_z
 _atom_site_occupancy
  Sr  Sr0  1  0.845125  0.878300  0.881711  1
  Sr  Sr1  1  0.154875  0.121700  0.118289  1
  Cu  Cu2  1  0.000000  0.000000  0.500000  1
  Te  Te3  1  0.381972  0.182986  0.601637  1
  Te  Te4  1  0.397239  0.607665  0.141013  1
  Te  Te5  1  0.602761  0.392335  0.858987  1
  Te  Te6  1  0.618028  0.817014  0.398363  1
  Cl  Cl7  1  0.858465  0.381953  0.350790  1
  Cl  Cl8  1  0.141535  0.618047  0.649210  1
  O  O9  1  0.681956  0.582570  0.980095  1
  O  O10  1  0.343925  0.037807  0.389480  1
  O  O11  1  0.196416  0.811582  0.029416  1
  O  O12  1  0.101103  0.068989  0.672137  1
  O  O13  1  0.803584  0.188418  0.970584  1
  O  O14  1  0.318044  0.417430  0.019905  1
  O  O15  1  0.563430  0.815557  0.187590  1
  O  O16  1  0.656075  0.962193  0.610520  1
  O  O17  1  0.898897  0.931011  0.327863  1
  O  O18  1  0.436570  0.184443  0.812410  1
