# generated using pymatgen
data_AlCo20(TcB3)2
_symmetry_space_group_name_H-M   'P 1'
_cell_length_a   7.39501041
_cell_length_b   7.39500983
_cell_length_c   7.39501000
_cell_angle_alpha   59.99999925
_cell_angle_beta   60.00000185
_cell_angle_gamma   59.99999604
_symmetry_Int_Tables_number   1
_chemical_formula_structural   AlCo20(TcB3)2
_chemical_formula_sum   'Al1 Co20 Tc2 B6'
_cell_volume   285.95737655
_cell_formula_units_Z   1
loop_
 _symmetry_equiv_pos_site_id
 _symmetry_equiv_pos_as_xyz
  1  'x, y, z'
loop_
 _atom_site_type_symbol
 _atom_site_label
 _atom_site_symmetry_multiplicity
 _atom_site_fract_x
 _atom_site_fract_y
 _atom_site_fract_z
 _atom_site_occupancy
  Al  Al0  1  0.000000  0.000000  0.000000  1
  Co  Co1  1  0.618492  0.144524  0.618492  1
  Co  Co2  1  0.381508  0.381508  0.855476  1
  Co  Co3  1  0.855476  0.381508  0.381508  1
  Co  Co4  1  0.381508  0.381508  0.381508  1
  Co  Co5  1  0.144524  0.618492  0.618492  1
  Co  Co6  1  0.618492  0.618492  0.618492  1
  Co  Co7  1  0.618492  0.618492  0.144524  1
  Co  Co8  1  0.381508  0.855476  0.381508  1
  Co  Co9  1  0.658645  0.341355  0.000000  1
  Co  Co10  1  0.000000  0.341355  0.658645  1
  Co  Co11  1  0.658645  0.000000  0.000000  1
  Co  Co12  1  0.000000  0.000000  0.341355  1
  Co  Co13  1  0.000000  0.000000  0.658645  1
  Co  Co14  1  0.000000  0.341355  0.000000  1
  Co  Co15  1  0.658645  0.000000  0.341355  1
  Co  Co16  1  0.341355  0.000000  0.000000  1
  Co  Co17  1  0.000000  0.658645  0.000000  1
  Co  Co18  1  0.341355  0.000000  0.658645  1
  Co  Co19  1  0.000000  0.658645  0.341355  1
  Co  Co20  1  0.341355  0.658645  0.000000  1
  Tc  Tc21  1  0.750000  0.750000  0.750000  1
  Tc  Tc22  1  0.250000  0.250000  0.250000  1
  B  B23  1  0.276131  0.276131  0.723869  1
  B  B24  1  0.276131  0.723869  0.723869  1
  B  B25  1  0.723869  0.276131  0.276131  1
  B  B26  1  0.276131  0.723869  0.276131  1
  B  B27  1  0.723869  0.276131  0.723869  1
  B  B28  1  0.723869  0.723869  0.276131  1
