# generated using pymatgen
data_LiNb2P2Rh
_symmetry_space_group_name_H-M   'P 1'
_cell_length_a   3.59714300
_cell_length_b   6.22930300
_cell_length_c   7.49392800
_cell_angle_alpha   90.00000000
_cell_angle_beta   90.00000000
_cell_angle_gamma   90.00000000
_symmetry_Int_Tables_number   1
_chemical_formula_structural   LiNb2P2Rh
_chemical_formula_sum   'Li2 Nb4 P4 Rh2'
_cell_volume   167.92164309
_cell_formula_units_Z   2
loop_
 _symmetry_equiv_pos_site_id
 _symmetry_equiv_pos_as_xyz
  1  'x, y, z'
loop_
 _atom_site_type_symbol
 _atom_site_label
 _atom_site_symmetry_multiplicity
 _atom_site_fract_x
 _atom_site_fract_y
 _atom_site_fract_z
 _atom_site_occupancy
  Li  Li0  1  0.250000  0.137288  0.438972  1
  Li  Li1  1  0.250000  0.637288  0.061028  1
  Nb  Nb2  1  0.250000  0.029901  0.831940  1
  Nb  Nb3  1  0.250000  0.529901  0.668060  1
  Nb  Nb4  1  0.750000  0.971120  0.165567  1
  Nb  Nb5  1  0.750000  0.471120  0.334433  1
  P  P6  1  0.250000  0.762403  0.361343  1
  P  P7  1  0.250000  0.262403  0.138657  1
  P  P8  1  0.750000  0.236671  0.627932  1
  P  P9  1  0.750000  0.736671  0.872068  1
  Rh  Rh10  1  0.750000  0.862617  0.555371  1
  Rh  Rh11  1  0.750000  0.362617  0.944629  1
