# generated using pymatgen
data_LiYZnPt3
_symmetry_space_group_name_H-M   'P 1'
_cell_length_a   5.48554720
_cell_length_b   5.15974716
_cell_length_c   5.48554600
_cell_angle_alpha   57.88831066
_cell_angle_beta   59.99999519
_cell_angle_gamma   57.88831240
_symmetry_Int_Tables_number   1
_chemical_formula_structural   LiYZnPt3
_chemical_formula_sum   'Li1 Y1 Zn1 Pt3'
_cell_volume   106.15180438
_cell_formula_units_Z   1
loop_
 _symmetry_equiv_pos_site_id
 _symmetry_equiv_pos_as_xyz
  1  'x, y, z'
loop_
 _atom_site_type_symbol
 _atom_site_label
 _atom_site_symmetry_multiplicity
 _atom_site_fract_x
 _atom_site_fract_y
 _atom_site_fract_z
 _atom_site_occupancy
  Li  Li0  1  0.258009  0.225972  0.258009  1
  Y  Y1  1  0.004916  0.985252  0.004916  1
  Zn  Zn2  1  0.621454  0.135637  0.621454  1
  Pt  Pt3  1  0.620975  0.634379  0.123669  1
  Pt  Pt4  1  0.123669  0.634379  0.620975  1
  Pt  Pt5  1  0.620975  0.634379  0.620975  1
