# generated using pymatgen
data_TaBe8NbRh2
_symmetry_space_group_name_H-M   'P 1'
_cell_length_a   4.46733700
_cell_length_b   4.46733699
_cell_length_c   7.34871200
_cell_angle_alpha   89.99855288
_cell_angle_beta   90.00144609
_cell_angle_gamma   120.00098305
_symmetry_Int_Tables_number   1
_chemical_formula_structural   TaBe8NbRh2
_chemical_formula_sum   'Ta1 Be8 Nb1 Rh2'
_cell_volume   127.00914344
_cell_formula_units_Z   1
loop_
 _symmetry_equiv_pos_site_id
 _symmetry_equiv_pos_as_xyz
  1  'x, y, z'
loop_
 _atom_site_type_symbol
 _atom_site_label
 _atom_site_symmetry_multiplicity
 _atom_site_fract_x
 _atom_site_fract_y
 _atom_site_fract_z
 _atom_site_occupancy
  Ta  Ta0  1  0.666649  0.333351  0.938938  1
  Be  Be1  1  0.000004  0.999996  0.493397  1
  Be  Be2  1  0.999993  0.000007  0.005862  1
  Be  Be3  1  0.167403  0.334790  0.750373  1
  Be  Be4  1  0.167408  0.832592  0.750372  1
  Be  Be5  1  0.665210  0.832597  0.750373  1
  Be  Be6  1  0.832921  0.665859  0.249957  1
  Be  Be7  1  0.832933  0.167067  0.249965  1
  Be  Be8  1  0.334141  0.167079  0.249957  1
  Nb  Nb9  1  0.666642  0.333358  0.561333  1
  Rh  Rh10  1  0.333341  0.666659  0.441921  1
  Rh  Rh11  1  0.333353  0.666647  0.057556  1
