# generated using pymatgen
data_ZrTa5(Be2Ru5)2
_symmetry_space_group_name_H-M   'P 1'
_cell_length_a   9.41147210
_cell_length_b   9.41147210
_cell_length_c   3.18344500
_cell_angle_alpha   90.00000000
_cell_angle_beta   90.00000000
_cell_angle_gamma   89.98308791
_symmetry_Int_Tables_number   1
_chemical_formula_structural   ZrTa5(Be2Ru5)2
_chemical_formula_sum   'Zr1 Ta5 Be4 Ru10'
_cell_volume   281.97619806
_cell_formula_units_Z   1
loop_
 _symmetry_equiv_pos_site_id
 _symmetry_equiv_pos_as_xyz
  1  'x, y, z'
loop_
 _atom_site_type_symbol
 _atom_site_label
 _atom_site_symmetry_multiplicity
 _atom_site_fract_x
 _atom_site_fract_y
 _atom_site_fract_z
 _atom_site_occupancy
  Zr  Zr0  1  0.825427  0.674573  0.000000  1
  Ta  Ta1  1  0.175131  0.324869  0.000000  1
  Ta  Ta2  1  0.326157  0.825054  0.000000  1
  Ta  Ta3  1  0.674946  0.173843  0.000000  1
  Ta  Ta4  1  0.499940  0.499893  0.000000  1
  Ta  Ta5  1  0.000107  0.000060  0.000000  1
  Be  Be6  1  0.619945  0.880055  0.000000  1
  Be  Be7  1  0.378604  0.121396  0.000000  1
  Be  Be8  1  0.122170  0.620437  0.000000  1
  Be  Be9  1  0.879563  0.377830  0.000000  1
  Ru  Ru10  1  0.565885  0.713497  0.500000  1
  Ru  Ru11  1  0.425103  0.289076  0.500000  1
  Ru  Ru12  1  0.079391  0.789842  0.500000  1
  Ru  Ru13  1  0.926638  0.211037  0.500000  1
  Ru  Ru14  1  0.288963  0.573362  0.500000  1
  Ru  Ru15  1  0.710158  0.420609  0.500000  1
  Ru  Ru16  1  0.210924  0.074897  0.500000  1
  Ru  Ru17  1  0.786503  0.934115  0.500000  1
  Ru  Ru18  1  0.498504  0.001496  0.500000  1
  Ru  Ru19  1  0.005942  0.494058  0.500000  1
