# generated using pymatgen
data_Li2SmHo5(Co4P3)4
_symmetry_space_group_name_H-M   'P 1'
_cell_length_a   3.70945800
_cell_length_b   10.55661600
_cell_length_c   12.15992000
_cell_angle_alpha   90.00000000
_cell_angle_beta   90.00000000
_cell_angle_gamma   90.00000000
_symmetry_Int_Tables_number   1
_chemical_formula_structural   Li2SmHo5(Co4P3)4
_chemical_formula_sum   'Li2 Sm1 Ho5 Co16 P12'
_cell_volume   476.17424313
_cell_formula_units_Z   1
loop_
 _symmetry_equiv_pos_site_id
 _symmetry_equiv_pos_as_xyz
  1  'x, y, z'
loop_
 _atom_site_type_symbol
 _atom_site_label
 _atom_site_symmetry_multiplicity
 _atom_site_fract_x
 _atom_site_fract_y
 _atom_site_fract_z
 _atom_site_occupancy
  Li  Li0  1  0.500000  0.500000  0.152584  1
  Li  Li1  1  0.000000  0.000000  0.848261  1
  Sm  Sm2  1  0.500000  0.000000  0.476611  1
  Ho  Ho3  1  0.000000  0.500000  0.523094  1
  Ho  Ho4  1  0.500000  0.819181  0.205674  1
  Ho  Ho5  1  0.500000  0.180819  0.205674  1
  Ho  Ho6  1  0.000000  0.680435  0.793920  1
  Ho  Ho7  1  0.000000  0.319565  0.793920  1
  Co  Co8  1  0.500000  0.500000  0.704028  1
  Co  Co9  1  0.000000  0.000000  0.294078  1
  Co  Co10  1  0.000000  0.500000  0.986594  1
  Co  Co11  1  0.500000  0.000000  0.013123  1
  Co  Co12  1  0.500000  0.333056  0.996784  1
  Co  Co13  1  0.500000  0.666944  0.996784  1
  Co  Co14  1  0.000000  0.167199  0.003120  1
  Co  Co15  1  0.000000  0.832801  0.003120  1
  Co  Co16  1  0.500000  0.298174  0.430846  1
  Co  Co17  1  0.500000  0.701826  0.430846  1
  Co  Co18  1  0.000000  0.204838  0.569474  1
  Co  Co19  1  0.000000  0.795162  0.569474  1
  Co  Co20  1  0.500000  0.878197  0.707882  1
  Co  Co21  1  0.500000  0.121803  0.707882  1
  Co  Co22  1  0.000000  0.620825  0.292707  1
  Co  Co23  1  0.000000  0.379175  0.292707  1
  P  P24  1  0.500000  0.500000  0.884318  1
  P  P25  1  0.000000  0.000000  0.114994  1
  P  P26  1  0.500000  0.500000  0.345920  1
  P  P27  1  0.000000  0.000000  0.656650  1
  P  P28  1  0.500000  0.310184  0.616182  1
  P  P29  1  0.500000  0.689816  0.616182  1
  P  P30  1  0.000000  0.192124  0.383231  1
  P  P31  1  0.000000  0.807876  0.383231  1
  P  P32  1  0.500000  0.843117  0.893611  1
  P  P33  1  0.500000  0.156883  0.893611  1
  P  P34  1  0.000000  0.656507  0.106441  1
  P  P35  1  0.000000  0.343493  0.106441  1
