# generated using pymatgen
data_Ho3Sn3IrPtRh
_symmetry_space_group_name_H-M   'P 1'
_cell_length_a   7.57079300
_cell_length_b   7.57079233
_cell_length_c   3.86030900
_cell_angle_alpha   90.00000000
_cell_angle_beta   90.00000000
_cell_angle_gamma   120.00000731
_symmetry_Int_Tables_number   1
_chemical_formula_structural   Ho3Sn3IrPtRh
_chemical_formula_sum   'Ho3 Sn3 Ir1 Pt1 Rh1'
_cell_volume   191.61759028
_cell_formula_units_Z   1
loop_
 _symmetry_equiv_pos_site_id
 _symmetry_equiv_pos_as_xyz
  1  'x, y, z'
loop_
 _atom_site_type_symbol
 _atom_site_label
 _atom_site_symmetry_multiplicity
 _atom_site_fract_x
 _atom_site_fract_y
 _atom_site_fract_z
 _atom_site_occupancy
  Ho  Ho0  1  0.007091  0.409384  0.000000  1
  Ho  Ho1  1  0.590616  0.597708  0.000000  1
  Ho  Ho2  1  0.402292  0.992909  0.000000  1
  Sn  Sn3  1  0.258792  0.260948  0.500000  1
  Sn  Sn4  1  0.002155  0.741208  0.500000  1
  Sn  Sn5  1  0.739052  0.997845  0.500000  1
  Ir  Ir6  1  0.333333  0.666667  0.500000  1
  Pt  Pt7  1  0.666667  0.333333  0.500000  1
  Rh  Rh8  1  0.000000  0.000000  0.000000  1
