# generated using pymatgen
data_NaThPt4
_symmetry_space_group_name_H-M   'P 1'
_cell_length_a   5.44626625
_cell_length_b   5.44626619
_cell_length_c   5.44626600
_cell_angle_alpha   60.00000114
_cell_angle_beta   60.00000152
_cell_angle_gamma   60.00000765
_symmetry_Int_Tables_number   1
_chemical_formula_structural   NaThPt4
_chemical_formula_sum   'Na1 Th1 Pt4'
_cell_volume   114.23037890
_cell_formula_units_Z   1
loop_
 _symmetry_equiv_pos_site_id
 _symmetry_equiv_pos_as_xyz
  1  'x, y, z'
loop_
 _atom_site_type_symbol
 _atom_site_label
 _atom_site_symmetry_multiplicity
 _atom_site_fract_x
 _atom_site_fract_y
 _atom_site_fract_z
 _atom_site_occupancy
  Na  Na0  1  0.750000  0.750000  0.750000  1
  Th  Th1  1  0.500000  0.500000  0.500000  1
  Pt  Pt2  1  0.124397  0.124397  0.124397  1
  Pt  Pt3  1  0.626807  0.124397  0.124397  1
  Pt  Pt4  1  0.124397  0.626807  0.124397  1
  Pt  Pt5  1  0.124397  0.124397  0.626807  1
