# generated using pymatgen
data_CaNdSnRh2
_symmetry_space_group_name_H-M   'P 1'
_cell_length_a   5.85912864
_cell_length_b   5.85912894
_cell_length_c   8.11089788
_cell_angle_alpha   102.62734616
_cell_angle_beta   102.62734531
_cell_angle_gamma   58.36618698
_symmetry_Int_Tables_number   1
_chemical_formula_structural   CaNdSnRh2
_chemical_formula_sum   'Ca2 Nd2 Sn2 Rh4'
_cell_volume   229.51854859
_cell_formula_units_Z   2
loop_
 _symmetry_equiv_pos_site_id
 _symmetry_equiv_pos_as_xyz
  1  'x, y, z'
loop_
 _atom_site_type_symbol
 _atom_site_label
 _atom_site_symmetry_multiplicity
 _atom_site_fract_x
 _atom_site_fract_y
 _atom_site_fract_z
 _atom_site_occupancy
  Ca  Ca0  1  0.794783  0.503233  0.653317  1
  Ca  Ca1  1  0.496767  0.205217  0.846683  1
  Nd  Nd2  1  0.495160  0.795677  0.142974  1
  Nd  Nd3  1  0.204324  0.504840  0.357025  1
  Sn  Sn4  1  0.853179  0.146821  0.250000  1
  Sn  Sn5  1  0.131467  0.868532  0.749999  1
  Rh  Rh6  1  0.007258  0.276893  0.011801  1
  Rh  Rh7  1  0.723107  0.992743  0.488199  1
  Rh  Rh8  1  0.277360  0.983404  0.495744  1
  Rh  Rh9  1  0.016596  0.722640  0.004256  1
