# generated using pymatgen
data_Tb5Si9P3Ir19
_symmetry_space_group_name_H-M   'P 1'
_cell_length_a   12.83687100
_cell_length_b   12.83687091
_cell_length_c   3.95308200
_cell_angle_alpha   90.00000000
_cell_angle_beta   90.00000000
_cell_angle_gamma   120.00000281
_symmetry_Int_Tables_number   1
_chemical_formula_structural   Tb5Si9P3Ir19
_chemical_formula_sum   'Tb5 Si9 P3 Ir19'
_cell_volume   564.13727111
_cell_formula_units_Z   1
loop_
 _symmetry_equiv_pos_site_id
 _symmetry_equiv_pos_as_xyz
  1  'x, y, z'
loop_
 _atom_site_type_symbol
 _atom_site_label
 _atom_site_symmetry_multiplicity
 _atom_site_fract_x
 _atom_site_fract_y
 _atom_site_fract_z
 _atom_site_occupancy
  Tb  Tb0  1  0.666667  0.333333  0.000000  1
  Tb  Tb1  1  0.333333  0.666667  0.000000  1
  Tb  Tb2  1  0.814401  0.814401  0.500000  1
  Tb  Tb3  1  0.185599  0.000000  0.500000  1
  Tb  Tb4  1  0.000000  0.185599  0.500000  1
  Si  Si5  1  0.686422  0.167160  0.500000  1
  Si  Si6  1  0.832840  0.519263  0.500000  1
  Si  Si7  1  0.480737  0.313578  0.500000  1
  Si  Si8  1  0.167160  0.686422  0.500000  1
  Si  Si9  1  0.519263  0.832840  0.500000  1
  Si  Si10  1  0.313578  0.480737  0.500000  1
  Si  Si11  1  0.632802  0.632802  0.000000  1
  Si  Si12  1  0.367198  0.000000  0.000000  1
  Si  Si13  1  0.000000  0.367198  0.000000  1
  P  P14  1  0.178677  0.178677  0.000000  1
  P  P15  1  0.821323  0.000000  0.000000  1
  P  P16  1  0.000000  0.821323  0.000000  1
  Ir  Ir17  1  0.806618  0.179498  0.000000  1
  Ir  Ir18  1  0.820502  0.627120  0.000000  1
  Ir  Ir19  1  0.372880  0.193382  0.000000  1
  Ir  Ir20  1  0.179498  0.806618  0.000000  1
  Ir  Ir21  1  0.627120  0.820502  0.000000  1
  Ir  Ir22  1  0.193382  0.372880  0.000000  1
  Ir  Ir23  1  0.447072  0.447072  0.000000  1
  Ir  Ir24  1  0.552928  0.000000  0.000000  1
  Ir  Ir25  1  0.000000  0.552928  0.000000  1
  Ir  Ir26  1  0.278393  0.278393  0.500000  1
  Ir  Ir27  1  0.721607  0.000000  0.500000  1
  Ir  Ir28  1  0.000000  0.721607  0.500000  1
  Ir  Ir29  1  0.872760  0.359791  0.500000  1
  Ir  Ir30  1  0.640209  0.512970  0.500000  1
  Ir  Ir31  1  0.487030  0.127240  0.500000  1
  Ir  Ir32  1  0.359791  0.872760  0.500000  1
  Ir  Ir33  1  0.512970  0.640209  0.500000  1
  Ir  Ir34  1  0.127240  0.487030  0.500000  1
  Ir  Ir35  1  0.000000  0.000000  0.000000  1
