# generated using pymatgen
data_Ti2NbCdPt12
_symmetry_space_group_name_H-M   'P 1'
_cell_length_a   5.64738000
_cell_length_b   5.64738039
_cell_length_c   9.16853600
_cell_angle_alpha   90.00000000
_cell_angle_beta   90.00000000
_cell_angle_gamma   119.99999769
_symmetry_Int_Tables_number   1
_chemical_formula_structural   Ti2NbCdPt12
_chemical_formula_sum   'Ti2 Nb1 Cd1 Pt12'
_cell_volume   253.23555954
_cell_formula_units_Z   1
loop_
 _symmetry_equiv_pos_site_id
 _symmetry_equiv_pos_as_xyz
  1  'x, y, z'
loop_
 _atom_site_type_symbol
 _atom_site_label
 _atom_site_symmetry_multiplicity
 _atom_site_fract_x
 _atom_site_fract_y
 _atom_site_fract_z
 _atom_site_occupancy
  Ti  Ti0  1  0.000000  0.000000  0.496174  1
  Ti  Ti1  1  0.000000  0.000000  0.003826  1
  Nb  Nb2  1  0.666667  0.333333  0.750000  1
  Cd  Cd3  1  0.333333  0.666667  0.250000  1
  Pt  Pt4  1  0.502846  0.497154  0.505794  1
  Pt  Pt5  1  0.502846  0.005692  0.505794  1
  Pt  Pt6  1  0.994308  0.497154  0.505794  1
  Pt  Pt7  1  0.502846  0.497154  0.994206  1
  Pt  Pt8  1  0.502846  0.005692  0.994206  1
  Pt  Pt9  1  0.994308  0.497154  0.994206  1
  Pt  Pt10  1  0.832327  0.664653  0.250000  1
  Pt  Pt11  1  0.335347  0.167673  0.250000  1
  Pt  Pt12  1  0.832327  0.167673  0.250000  1
  Pt  Pt13  1  0.166435  0.332868  0.750000  1
  Pt  Pt14  1  0.667132  0.833565  0.750000  1
  Pt  Pt15  1  0.166435  0.833565  0.750000  1
