# generated using pymatgen
data_Ho3Lu2Co16(MoP4)3
_symmetry_space_group_name_H-M   'P 1'
_cell_length_a   12.06730300
_cell_length_b   12.06742609
_cell_length_c   3.70196800
_cell_angle_alpha   90.00000000
_cell_angle_beta   90.00000000
_cell_angle_gamma   120.00033760
_symmetry_Int_Tables_number   1
_chemical_formula_structural   Ho3Lu2Co16(MoP4)3
_chemical_formula_sum   'Ho3 Lu2 Co16 Mo3 P12'
_cell_volume   466.86001518
_cell_formula_units_Z   1
loop_
 _symmetry_equiv_pos_site_id
 _symmetry_equiv_pos_as_xyz
  1  'x, y, z'
loop_
 _atom_site_type_symbol
 _atom_site_label
 _atom_site_symmetry_multiplicity
 _atom_site_fract_x
 _atom_site_fract_y
 _atom_site_fract_z
 _atom_site_occupancy
  Ho  Ho0  1  0.666774  0.333344  0.000000  1
  Ho  Ho1  1  0.333226  0.666572  0.000000  1
  Ho  Ho2  1  0.000000  0.184979  0.500000  1
  Lu  Lu3  1  0.814847  0.814767  0.500000  1
  Lu  Lu4  1  0.185153  0.999920  0.500000  1
  Co  Co5  1  0.872865  0.355096  0.500000  1
  Co  Co6  1  0.645286  0.518226  0.500000  1
  Co  Co7  1  0.481938  0.127139  0.500000  1
  Co  Co8  1  0.354714  0.872940  0.500000  1
  Co  Co9  1  0.518062  0.645202  0.500000  1
  Co  Co10  1  0.127135  0.482231  0.500000  1
  Co  Co11  1  0.802264  0.176920  0.000000  1
  Co  Co12  1  0.822934  0.626163  0.000000  1
  Co  Co13  1  0.374078  0.196833  0.000000  1
  Co  Co14  1  0.177066  0.803230  0.000000  1
  Co  Co15  1  0.625922  0.822756  0.000000  1
  Co  Co16  1  0.197736  0.374657  0.000000  1
  Co  Co17  1  0.280064  0.279549  0.500000  1
  Co  Co18  1  0.719936  0.999485  0.500000  1
  Co  Co19  1  0.000000  0.720623  0.500000  1
  Co  Co20  1  0.000000  0.999394  0.000000  1
  Mo  Mo21  1  0.446646  0.446489  0.000000  1
  Mo  Mo22  1  0.553354  0.999843  0.000000  1
  Mo  Mo23  1  0.000000  0.553962  0.000000  1
  P  P24  1  0.686232  0.165410  0.500000  1
  P  P25  1  0.834579  0.520845  0.500000  1
  P  P26  1  0.479498  0.313942  0.500000  1
  P  P27  1  0.165421  0.686267  0.500000  1
  P  P28  1  0.520502  0.834444  0.500000  1
  P  P29  1  0.313768  0.479177  0.500000  1
  P  P30  1  0.178117  0.177010  0.000000  1
  P  P31  1  0.821883  0.998892  0.000000  1
  P  P32  1  0.000000  0.822568  0.000000  1
  P  P33  1  0.640368  0.640402  0.000000  1
  P  P34  1  0.359632  0.000034  0.000000  1
  P  P35  1  0.000000  0.360688  0.000000  1
