# generated using pymatgen
data_Tb2WC2
_symmetry_space_group_name_H-M   'P 1'
_cell_length_a   5.75218700
_cell_length_b   5.75218700
_cell_length_c   9.97580700
_cell_angle_alpha   90.00000000
_cell_angle_beta   90.00000000
_cell_angle_gamma   90.00000000
_symmetry_Int_Tables_number   1
_chemical_formula_structural   Tb2WC2
_chemical_formula_sum   'Tb8 W4 C8'
_cell_volume   330.07606319
_cell_formula_units_Z   4
loop_
 _symmetry_equiv_pos_site_id
 _symmetry_equiv_pos_as_xyz
  1  'x, y, z'
loop_
 _atom_site_type_symbol
 _atom_site_label
 _atom_site_symmetry_multiplicity
 _atom_site_fract_x
 _atom_site_fract_y
 _atom_site_fract_z
 _atom_site_occupancy
  Tb  Tb0  1  0.199496  0.199496  0.342707  1
  Tb  Tb1  1  0.800504  0.800504  0.657293  1
  Tb  Tb2  1  0.300504  0.699496  0.842707  1
  Tb  Tb3  1  0.800504  0.800504  0.342707  1
  Tb  Tb4  1  0.199496  0.199496  0.657293  1
  Tb  Tb5  1  0.699496  0.300504  0.157293  1
  Tb  Tb6  1  0.699496  0.300504  0.842707  1
  Tb  Tb7  1  0.300504  0.699496  0.157293  1
  W  W8  1  0.177740  0.177740  0.000000  1
  W  W9  1  0.822260  0.822260  0.000000  1
  W  W10  1  0.322260  0.677740  0.500000  1
  W  W11  1  0.677740  0.322260  0.500000  1
  C  C12  1  0.000000  0.000000  0.152062  1
  C  C13  1  0.500000  0.500000  0.347938  1
  C  C14  1  0.500000  0.500000  0.652062  1
  C  C15  1  0.500000  0.000000  0.000000  1
  C  C16  1  0.000000  0.500000  0.000000  1
  C  C17  1  0.000000  0.000000  0.847938  1
  C  C18  1  0.500000  0.000000  0.500000  1
  C  C19  1  0.000000  0.500000  0.500000  1
