# generated using pymatgen
data_Y3Er17(Bi2P)4
_symmetry_space_group_name_H-M   'P 1'
_cell_length_a   7.93658916
_cell_length_b   8.95313300
_cell_length_c   12.04130724
_cell_angle_alpha   90.00000000
_cell_angle_beta   90.02300797
_cell_angle_gamma   90.00000000
_symmetry_Int_Tables_number   1
_chemical_formula_structural   Y3Er17(Bi2P)4
_chemical_formula_sum   'Y3 Er17 Bi8 P4'
_cell_volume   855.62317352
_cell_formula_units_Z   1
loop_
 _symmetry_equiv_pos_site_id
 _symmetry_equiv_pos_as_xyz
  1  'x, y, z'
loop_
 _atom_site_type_symbol
 _atom_site_label
 _atom_site_symmetry_multiplicity
 _atom_site_fract_x
 _atom_site_fract_y
 _atom_site_fract_z
 _atom_site_occupancy
  Y  Y0  1  0.649845  0.750000  0.705919  1
  Y  Y1  1  0.349952  0.250000  0.293417  1
  Y  Y2  1  0.150082  0.250000  0.793719  1
  Er  Er3  1  0.850179  0.750000  0.205967  1
  Er  Er4  1  0.125096  0.750000  0.798785  1
  Er  Er5  1  0.874470  0.250000  0.201690  1
  Er  Er6  1  0.625188  0.250000  0.701649  1
  Er  Er7  1  0.375188  0.750000  0.298010  1
  Er  Er8  1  0.541731  0.750000  0.998641  1
  Er  Er9  1  0.458776  0.250000  0.001997  1
  Er  Er10  1  0.041304  0.250000  0.501216  1
  Er  Er11  1  0.957763  0.750000  0.498165  1
  Er  Er12  1  0.818850  0.447300  0.937025  1
  Er  Er13  1  0.181978  0.552654  0.063008  1
  Er  Er14  1  0.318181  0.552693  0.562854  1
  Er  Er15  1  0.181978  0.947346  0.063008  1
  Er  Er16  1  0.681196  0.447430  0.436855  1
  Er  Er17  1  0.818850  0.052700  0.937025  1
  Er  Er18  1  0.681196  0.052570  0.436855  1
  Er  Er19  1  0.318181  0.947307  0.562854  1
  Bi  Bi20  1  0.922985  0.009653  0.672590  1
  Bi  Bi21  1  0.076063  0.989575  0.326703  1
  Bi  Bi22  1  0.423038  0.990278  0.827517  1
  Bi  Bi23  1  0.076063  0.510425  0.326703  1
  Bi  Bi24  1  0.578338  0.009230  0.172926  1
  Bi  Bi25  1  0.922985  0.490347  0.672590  1
  Bi  Bi26  1  0.578338  0.490770  0.172926  1
  Bi  Bi27  1  0.423038  0.509722  0.827517  1
  P  P28  1  0.922091  0.750000  0.985283  1
  P  P29  1  0.077956  0.250000  0.016553  1
  P  P30  1  0.421913  0.250000  0.516212  1
  P  P31  1  0.577208  0.750000  0.483819  1
