# generated using pymatgen
data_LaSmLuTaO7
_symmetry_space_group_name_H-M   'P 1'
_cell_length_a   6.53407973
_cell_length_b   6.53407964
_cell_length_c   7.63650400
_cell_angle_alpha   90.00000000
_cell_angle_beta   90.00000000
_cell_angle_gamma   108.82747388
_symmetry_Int_Tables_number   1
_chemical_formula_structural   LaSmLuTaO7
_chemical_formula_sum   'La2 Sm2 Lu2 Ta2 O14'
_cell_volume   308.58981441
_cell_formula_units_Z   2
loop_
 _symmetry_equiv_pos_site_id
 _symmetry_equiv_pos_as_xyz
  1  'x, y, z'
loop_
 _atom_site_type_symbol
 _atom_site_label
 _atom_site_symmetry_multiplicity
 _atom_site_fract_x
 _atom_site_fract_y
 _atom_site_fract_z
 _atom_site_occupancy
  La  La0  1  0.512105  0.512105  0.500000  1
  La  La1  1  0.512105  0.512105  0.000000  1
  Sm  Sm2  1  0.464144  0.001559  0.250000  1
  Sm  Sm3  1  0.001559  0.464144  0.750000  1
  Lu  Lu4  1  0.528946  0.002759  0.750000  1
  Lu  Lu5  1  0.002759  0.528946  0.250000  1
  Ta  Ta6  1  0.000632  0.000632  0.500000  1
  Ta  Ta7  1  0.000632  0.000632  0.000000  1
  O  O8  1  0.677114  0.930371  0.477719  1
  O  O9  1  0.930371  0.677114  0.522281  1
  O  O10  1  0.677114  0.930371  0.022281  1
  O  O11  1  0.930371  0.677114  0.977719  1
  O  O12  1  0.312905  0.060239  0.542388  1
  O  O13  1  0.060239  0.312905  0.457612  1
  O  O14  1  0.312905  0.060239  0.957612  1
  O  O15  1  0.060239  0.312905  0.042388  1
  O  O16  1  0.939623  0.064693  0.750000  1
  O  O17  1  0.064693  0.939623  0.250000  1
  O  O18  1  0.372760  0.648563  0.750000  1
  O  O19  1  0.648563  0.372760  0.250000  1
  O  O20  1  0.639416  0.350808  0.750000  1
  O  O21  1  0.350808  0.639416  0.250000  1
