# generated using pymatgen
data_SmPa(B4Os)2
_symmetry_space_group_name_H-M   'P 1'
_cell_length_a   3.60222800
_cell_length_b   6.01757040
_cell_length_c   11.65715516
_cell_angle_alpha   89.96198742
_cell_angle_beta   90.00000000
_cell_angle_gamma   90.00000000
_symmetry_Int_Tables_number   1
_chemical_formula_structural   SmPa(B4Os)2
_chemical_formula_sum   'Sm2 Pa2 B16 Os4'
_cell_volume   252.68814026
_cell_formula_units_Z   2
loop_
 _symmetry_equiv_pos_site_id
 _symmetry_equiv_pos_as_xyz
  1  'x, y, z'
loop_
 _atom_site_type_symbol
 _atom_site_label
 _atom_site_symmetry_multiplicity
 _atom_site_fract_x
 _atom_site_fract_y
 _atom_site_fract_z
 _atom_site_occupancy
  Sm  Sm0  1  0.000000  0.628119  0.851618  1
  Sm  Sm1  1  0.000000  0.371881  0.148382  1
  Pa  Pa2  1  0.000000  0.128434  0.650223  1
  Pa  Pa3  1  0.000000  0.871566  0.349777  1
  B  B4  1  0.500000  0.471924  0.689959  1
  B  B5  1  0.500000  0.528076  0.310041  1
  B  B6  1  0.500000  0.972546  0.809178  1
  B  B7  1  0.500000  0.027454  0.190822  1
  B  B8  1  0.500000  0.286145  0.813046  1
  B  B9  1  0.500000  0.713855  0.186954  1
  B  B10  1  0.500000  0.790579  0.686372  1
  B  B11  1  0.500000  0.209421  0.313628  1
  B  B12  1  0.500000  0.361316  0.968451  1
  B  B13  1  0.500000  0.638684  0.031549  1
  B  B14  1  0.500000  0.866204  0.531867  1
  B  B15  1  0.500000  0.133796  0.468133  1
  B  B16  1  0.500000  0.386502  0.545827  1
  B  B17  1  0.500000  0.613498  0.454173  1
  B  B18  1  0.500000  0.888046  0.954985  1
  B  B19  1  0.500000  0.111954  0.045015  1
  Os  Os20  1  0.000000  0.138333  0.903750  1
  Os  Os21  1  0.000000  0.861667  0.096250  1
  Os  Os22  1  0.000000  0.642598  0.593832  1
  Os  Os23  1  0.000000  0.357402  0.406168  1
