# generated using pymatgen
data_Tb3MgZn2Sn2Au
_symmetry_space_group_name_H-M   'P 1'
_cell_length_a   7.24097711
_cell_length_b   7.24097692
_cell_length_c   4.54520000
_cell_angle_alpha   90.00000000
_cell_angle_beta   90.00000000
_cell_angle_gamma   119.74367968
_symmetry_Int_Tables_number   1
_chemical_formula_structural   Tb3MgZn2Sn2Au
_chemical_formula_sum   'Tb3 Mg1 Zn2 Sn2 Au1'
_cell_volume   206.91591812
_cell_formula_units_Z   1
loop_
 _symmetry_equiv_pos_site_id
 _symmetry_equiv_pos_as_xyz
  1  'x, y, z'
loop_
 _atom_site_type_symbol
 _atom_site_label
 _atom_site_symmetry_multiplicity
 _atom_site_fract_x
 _atom_site_fract_y
 _atom_site_fract_z
 _atom_site_occupancy
  Tb  Tb0  1  0.587247  0.000100  0.000000  1
  Tb  Tb1  1  0.000100  0.587247  0.000000  1
  Tb  Tb2  1  0.402760  0.402760  0.000000  1
  Mg  Mg3  1  0.778684  0.778684  0.500000  1
  Zn  Zn4  1  0.235141  0.002271  0.500000  1
  Zn  Zn5  1  0.002271  0.235141  0.500000  1
  Sn  Sn6  1  0.329248  0.664855  0.500000  1
  Sn  Sn7  1  0.664855  0.329248  0.500000  1
  Au  Au8  1  0.999695  0.999695  0.000000  1
