# generated using pymatgen
data_NaYMn3Ni9As7
_symmetry_space_group_name_H-M   'P 1'
_cell_length_a   9.46269200
_cell_length_b   9.46269279
_cell_length_c   3.80973900
_cell_angle_alpha   90.00000000
_cell_angle_beta   90.00000000
_cell_angle_gamma   120.00000421
_symmetry_Int_Tables_number   1
_chemical_formula_structural   NaYMn3Ni9As7
_chemical_formula_sum   'Na1 Y1 Mn3 Ni9 As7'
_cell_volume   295.43046805
_cell_formula_units_Z   1
loop_
 _symmetry_equiv_pos_site_id
 _symmetry_equiv_pos_as_xyz
  1  'x, y, z'
loop_
 _atom_site_type_symbol
 _atom_site_label
 _atom_site_symmetry_multiplicity
 _atom_site_fract_x
 _atom_site_fract_y
 _atom_site_fract_z
 _atom_site_occupancy
  Na  Na0  1  0.666667  0.333333  0.500000  1
  Y  Y1  1  0.333333  0.666667  0.000000  1
  Mn  Mn2  1  0.220337  0.119059  0.500000  1
  Mn  Mn3  1  0.880941  0.101278  0.500000  1
  Mn  Mn4  1  0.898722  0.779663  0.500000  1
  Ni  Ni5  1  0.122353  0.281039  0.000000  1
  Ni  Ni6  1  0.718961  0.841315  0.000000  1
  Ni  Ni7  1  0.158685  0.877647  0.000000  1
  Ni  Ni8  1  0.429218  0.374874  0.000000  1
  Ni  Ni9  1  0.625126  0.054345  0.000000  1
  Ni  Ni10  1  0.945655  0.570782  0.000000  1
  Ni  Ni11  1  0.049291  0.428988  0.500000  1
  Ni  Ni12  1  0.571012  0.620303  0.500000  1
  Ni  Ni13  1  0.379697  0.950709  0.500000  1
  As  As14  1  0.294230  0.409403  0.500000  1
  As  As15  1  0.590597  0.884826  0.500000  1
  As  As16  1  0.115174  0.705770  0.500000  1
  As  As17  1  0.416021  0.119506  0.000000  1
  As  As18  1  0.880494  0.296516  0.000000  1
  As  As19  1  0.703484  0.583979  0.000000  1
  As  As20  1  0.000000  0.000000  0.000000  1
