# generated using pymatgen
data_PrDyInIrO7
_symmetry_space_group_name_H-M   'P 1'
_cell_length_a   6.39278658
_cell_length_b   6.57363997
_cell_length_c   7.50652100
_cell_angle_alpha   90.00000000
_cell_angle_beta   90.00000000
_cell_angle_gamma   110.25113124
_symmetry_Int_Tables_number   1
_chemical_formula_structural   PrDyInIrO7
_chemical_formula_sum   'Pr2 Dy2 In2 Ir2 O14'
_cell_volume   295.95322669
_cell_formula_units_Z   2
loop_
 _symmetry_equiv_pos_site_id
 _symmetry_equiv_pos_as_xyz
  1  'x, y, z'
loop_
 _atom_site_type_symbol
 _atom_site_label
 _atom_site_symmetry_multiplicity
 _atom_site_fract_x
 _atom_site_fract_y
 _atom_site_fract_z
 _atom_site_occupancy
  Pr  Pr0  1  0.000000  0.000000  0.000000  1
  Pr  Pr1  1  0.000000  0.000000  0.500000  1
  Dy  Dy2  1  0.953231  0.489514  0.750000  1
  Dy  Dy3  1  0.046769  0.510486  0.250000  1
  In  In4  1  0.489856  0.983561  0.750000  1
  In  In5  1  0.510144  0.016439  0.250000  1
  Ir  Ir6  1  0.500000  0.500000  0.000000  1
  Ir  Ir7  1  0.500000  0.500000  0.500000  1
  O  O8  1  0.590797  0.516187  0.750000  1
  O  O9  1  0.409203  0.483813  0.250000  1
  O  O10  1  0.836928  0.126051  0.750000  1
  O  O11  1  0.163072  0.873949  0.250000  1
  O  O12  1  0.140647  0.851799  0.750000  1
  O  O13  1  0.859353  0.148201  0.250000  1
  O  O14  1  0.443867  0.181539  0.997601  1
  O  O15  1  0.556133  0.818461  0.497601  1
  O  O16  1  0.171428  0.420607  0.967092  1
  O  O17  1  0.828572  0.579393  0.467092  1
  O  O18  1  0.443867  0.181539  0.502399  1
  O  O19  1  0.556133  0.818461  0.002399  1
  O  O20  1  0.828572  0.579393  0.032908  1
  O  O21  1  0.171428  0.420607  0.532908  1
