# generated using pymatgen
data_SmZrSn5Rh3
_symmetry_space_group_name_H-M   'P 1'
_cell_length_a   13.42126292
_cell_length_b   13.42126412
_cell_length_c   7.17662400
_cell_angle_alpha   90.00000000
_cell_angle_beta   90.00000000
_cell_angle_gamma   160.93909453
_symmetry_Int_Tables_number   1
_chemical_formula_structural   SmZrSn5Rh3
_chemical_formula_sum   'Sm2 Zr2 Sn10 Rh6'
_cell_volume   422.16998465
_cell_formula_units_Z   2
loop_
 _symmetry_equiv_pos_site_id
 _symmetry_equiv_pos_as_xyz
  1  'x, y, z'
loop_
 _atom_site_type_symbol
 _atom_site_label
 _atom_site_symmetry_multiplicity
 _atom_site_fract_x
 _atom_site_fract_y
 _atom_site_fract_z
 _atom_site_occupancy
  Sm  Sm0  1  0.171388  0.828612  0.747502  1
  Sm  Sm1  1  0.828612  0.171388  0.247502  1
  Zr  Zr2  1  0.475528  0.524472  0.759615  1
  Zr  Zr3  1  0.524472  0.475528  0.259615  1
  Sn  Sn4  1  0.881703  0.118297  0.764662  1
  Sn  Sn5  1  0.118297  0.881703  0.264662  1
  Sn  Sn6  1  0.703310  0.296690  0.454409  1
  Sn  Sn7  1  0.296690  0.703310  0.954409  1
  Sn  Sn8  1  0.594217  0.405783  0.888026  1
  Sn  Sn9  1  0.405783  0.594217  0.388026  1
  Sn  Sn10  1  0.954681  0.045319  0.104461  1
  Sn  Sn11  1  0.045319  0.954681  0.604461  1
  Sn  Sn12  1  0.290477  0.709523  0.523871  1
  Sn  Sn13  1  0.709523  0.290477  0.023871  1
  Rh  Rh14  1  0.049137  0.950863  0.987842  1
  Rh  Rh15  1  0.950863  0.049137  0.487842  1
  Rh  Rh16  1  0.778025  0.221975  0.736739  1
  Rh  Rh17  1  0.221975  0.778025  0.236739  1
  Rh  Rh18  1  0.398913  0.601087  0.004873  1
  Rh  Rh19  1  0.601087  0.398913  0.504873  1
