# generated using pymatgen
data_Pr3Nd(BeAs)12
_symmetry_space_group_name_H-M   'P 1'
_cell_length_a   3.86289600
_cell_length_b   10.94450316
_cell_length_c   11.86264100
_cell_angle_alpha   89.82141932
_cell_angle_beta   90.00000000
_cell_angle_gamma   90.00000000
_symmetry_Int_Tables_number   1
_chemical_formula_structural   Pr3Nd(BeAs)12
_chemical_formula_sum   'Pr3 Nd1 Be12 As12'
_cell_volume   501.52010170
_cell_formula_units_Z   1
loop_
 _symmetry_equiv_pos_site_id
 _symmetry_equiv_pos_as_xyz
  1  'x, y, z'
loop_
 _atom_site_type_symbol
 _atom_site_label
 _atom_site_symmetry_multiplicity
 _atom_site_fract_x
 _atom_site_fract_y
 _atom_site_fract_z
 _atom_site_occupancy
  Pr  Pr0  1  0.250000  0.443642  0.162519  1
  Pr  Pr1  1  0.750000  0.556416  0.837391  1
  Pr  Pr2  1  0.250000  0.055788  0.662761  1
  Nd  Nd3  1  0.750000  0.943833  0.337813  1
  Be  Be4  1  0.750000  0.240983  0.453469  1
  Be  Be5  1  0.250000  0.742379  0.045756  1
  Be  Be6  1  0.750000  0.257655  0.953849  1
  Be  Be7  1  0.250000  0.758457  0.545776  1
  Be  Be8  1  0.750000  0.646491  0.287161  1
  Be  Be9  1  0.250000  0.144604  0.212634  1
  Be  Be10  1  0.750000  0.854860  0.786760  1
  Be  Be11  1  0.250000  0.354316  0.712300  1
  Be  Be12  1  0.750000  0.036925  0.064925  1
  Be  Be13  1  0.250000  0.538251  0.435759  1
  Be  Be14  1  0.750000  0.462951  0.563971  1
  Be  Be15  1  0.250000  0.962392  0.937406  1
  As  As16  1  0.750000  0.439121  0.370853  1
  As  As17  1  0.250000  0.937805  0.130855  1
  As  As18  1  0.750000  0.060982  0.871533  1
  As  As19  1  0.250000  0.561605  0.629060  1
  As  As20  1  0.750000  0.226845  0.144692  1
  As  As21  1  0.250000  0.728755  0.355176  1
  As  As22  1  0.750000  0.272638  0.644077  1
  As  As23  1  0.250000  0.773400  0.855024  1
  As  As24  1  0.750000  0.641721  0.092707  1
  As  As25  1  0.250000  0.139757  0.406975  1
  As  As26  1  0.750000  0.859026  0.591879  1
  As  As27  1  0.250000  0.358399  0.906919  1
