# generated using pymatgen
data_Li2YThSi2Ge
_symmetry_space_group_name_H-M   'P 1'
_cell_length_a   9.36084608
_cell_length_b   9.36084552
_cell_length_c   6.82956200
_cell_angle_alpha   90.00000000
_cell_angle_beta   90.00000000
_cell_angle_gamma   153.00860877
_symmetry_Int_Tables_number   1
_chemical_formula_structural   Li2YThSi2Ge
_chemical_formula_sum   'Li4 Y2 Th2 Si4 Ge2'
_cell_volume   271.60746915
_cell_formula_units_Z   2
loop_
 _symmetry_equiv_pos_site_id
 _symmetry_equiv_pos_as_xyz
  1  'x, y, z'
loop_
 _atom_site_type_symbol
 _atom_site_label
 _atom_site_symmetry_multiplicity
 _atom_site_fract_x
 _atom_site_fract_y
 _atom_site_fract_z
 _atom_site_occupancy
  Li  Li0  1  0.810040  0.189960  0.561069  1
  Li  Li1  1  0.189960  0.810040  0.438931  1
  Li  Li2  1  0.189960  0.810040  0.061069  1
  Li  Li3  1  0.810040  0.189960  0.938931  1
  Y  Y4  1  0.347950  0.652050  0.250000  1
  Y  Y5  1  0.652050  0.347950  0.750000  1
  Th  Th6  1  0.552414  0.447586  0.250000  1
  Th  Th7  1  0.447586  0.552414  0.750000  1
  Si  Si8  1  0.940355  0.059645  0.070151  1
  Si  Si9  1  0.059645  0.940355  0.929849  1
  Si  Si10  1  0.059645  0.940355  0.570151  1
  Si  Si11  1  0.940355  0.059645  0.429849  1
  Ge  Ge12  1  0.722498  0.277502  0.250000  1
  Ge  Ge13  1  0.277502  0.722498  0.750000  1
