# generated using pymatgen
data_Pr3NdSc6(Si5Ir2)4
_symmetry_space_group_name_H-M   'P 1'
_cell_length_a   12.59481702
_cell_length_b   12.59481555
_cell_length_c   4.18128300
_cell_angle_alpha   90.00000000
_cell_angle_beta   90.00000000
_cell_angle_gamma   90.01995264
_symmetry_Int_Tables_number   1
_chemical_formula_structural   Pr3NdSc6(Si5Ir2)4
_chemical_formula_sum   'Pr3 Nd1 Sc6 Si20 Ir8'
_cell_volume   663.27436163
_cell_formula_units_Z   1
loop_
 _symmetry_equiv_pos_site_id
 _symmetry_equiv_pos_as_xyz
  1  'x, y, z'
loop_
 _atom_site_type_symbol
 _atom_site_label
 _atom_site_symmetry_multiplicity
 _atom_site_fract_x
 _atom_site_fract_y
 _atom_site_fract_z
 _atom_site_occupancy
  Pr  Pr0  1  0.115815  0.615613  0.500000  1
  Pr  Pr1  1  0.884387  0.384185  0.500000  1
  Pr  Pr2  1  0.615622  0.884378  0.500000  1
  Nd  Nd3  1  0.383980  0.116020  0.500000  1
  Sc  Sc4  1  0.675223  0.176592  0.500000  1
  Sc  Sc5  1  0.323408  0.824777  0.500000  1
  Sc  Sc6  1  0.176478  0.323522  0.500000  1
  Sc  Sc7  1  0.823873  0.676127  0.500000  1
  Sc  Sc8  1  0.000691  0.000111  0.000000  1
  Sc  Sc9  1  0.499889  0.499309  0.000000  1
  Si  Si10  1  0.569186  0.068891  0.000000  1
  Si  Si11  1  0.431109  0.930814  0.000000  1
  Si  Si12  1  0.069272  0.430728  0.000000  1
  Si  Si13  1  0.930700  0.569300  0.000000  1
  Si  Si14  1  0.200431  0.163239  0.000000  1
  Si  Si15  1  0.799815  0.836873  0.000000  1
  Si  Si16  1  0.163381  0.799966  0.000000  1
  Si  Si17  1  0.700034  0.336619  0.000000  1
  Si  Si18  1  0.836693  0.200132  0.000000  1
  Si  Si19  1  0.299868  0.663307  0.000000  1
  Si  Si20  1  0.663127  0.700185  0.000000  1
  Si  Si21  1  0.336761  0.299569  0.000000  1
  Si  Si22  1  0.009775  0.149349  0.500000  1
  Si  Si23  1  0.991134  0.850872  0.500000  1
  Si  Si24  1  0.150219  0.992348  0.500000  1
  Si  Si25  1  0.507652  0.349781  0.500000  1
  Si  Si26  1  0.851327  0.009914  0.500000  1
  Si  Si27  1  0.490086  0.648673  0.500000  1
  Si  Si28  1  0.649128  0.508866  0.500000  1
  Si  Si29  1  0.350651  0.490225  0.500000  1
  Ir  Ir30  1  0.024724  0.241375  0.000000  1
  Ir  Ir31  1  0.975153  0.758729  0.000000  1
  Ir  Ir32  1  0.242158  0.975453  0.000000  1
  Ir  Ir33  1  0.524547  0.257842  0.000000  1
  Ir  Ir34  1  0.758647  0.024838  0.000000  1
  Ir  Ir35  1  0.475162  0.741353  0.000000  1
  Ir  Ir36  1  0.741271  0.524847  0.000000  1
  Ir  Ir37  1  0.258625  0.475276  0.000000  1
