# generated using pymatgen
data_NaGd11(Si3Au)4
_symmetry_space_group_name_H-M   'P 1'
_cell_length_a   4.30597900
_cell_length_b   11.20840742
_cell_length_c   12.63047400
_cell_angle_alpha   89.98437305
_cell_angle_beta   90.00000000
_cell_angle_gamma   90.00000000
_symmetry_Int_Tables_number   1
_chemical_formula_structural   NaGd11(Si3Au)4
_chemical_formula_sum   'Na1 Gd11 Si12 Au4'
_cell_volume   609.58665278
_cell_formula_units_Z   1
loop_
 _symmetry_equiv_pos_site_id
 _symmetry_equiv_pos_as_xyz
  1  'x, y, z'
loop_
 _atom_site_type_symbol
 _atom_site_label
 _atom_site_symmetry_multiplicity
 _atom_site_fract_x
 _atom_site_fract_y
 _atom_site_fract_z
 _atom_site_occupancy
  Na  Na0  1  0.750000  0.168644  0.694971  1
  Gd  Gd1  1  0.250000  0.875923  0.021137  1
  Gd  Gd2  1  0.250000  0.623783  0.520264  1
  Gd  Gd3  1  0.750000  0.122690  0.974815  1
  Gd  Gd4  1  0.750000  0.373210  0.485152  1
  Gd  Gd5  1  0.250000  0.929933  0.604195  1
  Gd  Gd6  1  0.250000  0.573998  0.101581  1
  Gd  Gd7  1  0.750000  0.076716  0.397744  1
  Gd  Gd8  1  0.750000  0.420810  0.891649  1
  Gd  Gd9  1  0.250000  0.670681  0.803948  1
  Gd  Gd10  1  0.250000  0.829973  0.303919  1
  Gd  Gd11  1  0.750000  0.327679  0.195545  1
  Si  Si12  1  0.250000  0.025833  0.828565  1
  Si  Si13  1  0.250000  0.470924  0.325164  1
  Si  Si14  1  0.750000  0.971467  0.173896  1
  Si  Si15  1  0.750000  0.532958  0.674217  1
  Si  Si16  1  0.250000  0.246786  0.844795  1
  Si  Si17  1  0.250000  0.253872  0.347631  1
  Si  Si18  1  0.750000  0.749381  0.154039  1
  Si  Si19  1  0.750000  0.752102  0.652606  1
  Si  Si20  1  0.250000  0.190131  0.531121  1
  Si  Si21  1  0.250000  0.314833  0.030350  1
  Si  Si22  1  0.750000  0.816899  0.469567  1
  Si  Si23  1  0.750000  0.684274  0.969365  1
  Au  Au24  1  0.250000  0.400690  0.688973  1
  Au  Au25  1  0.250000  0.100257  0.190389  1
  Au  Au26  1  0.750000  0.597451  0.312052  1
  Au  Au27  1  0.750000  0.898103  0.812350  1
