# generated using pymatgen
data_Dy7Y(Ho3Sn4)4
_symmetry_space_group_name_H-M   'P 1'
_cell_length_a   8.02170801
_cell_length_b   8.16043101
_cell_length_c   15.42572700
_cell_angle_alpha   90.00035384
_cell_angle_beta   89.99893315
_cell_angle_gamma   90.00435505
_symmetry_Int_Tables_number   1
_chemical_formula_structural   Dy7Y(Ho3Sn4)4
_chemical_formula_sum   'Dy7 Y1 Ho12 Sn16'
_cell_volume   1009.77726056
_cell_formula_units_Z   1
loop_
 _symmetry_equiv_pos_site_id
 _symmetry_equiv_pos_as_xyz
  1  'x, y, z'
loop_
 _atom_site_type_symbol
 _atom_site_label
 _atom_site_symmetry_multiplicity
 _atom_site_fract_x
 _atom_site_fract_y
 _atom_site_fract_z
 _atom_site_occupancy
  Dy  Dy0  1  0.021244  0.179663  0.597599  1
  Dy  Dy1  1  0.478754  0.679665  0.402405  1
  Dy  Dy2  1  0.978749  0.820346  0.097601  1
  Dy  Dy3  1  0.478756  0.679669  0.097596  1
  Dy  Dy4  1  0.978753  0.820336  0.402401  1
  Dy  Dy5  1  0.521243  0.320339  0.597592  1
  Dy  Dy6  1  0.021233  0.179671  0.902405  1
  Y  Y7  1  0.521306  0.320369  0.902427  1
  Ho  Ho8  1  0.367689  0.836244  0.877932  1
  Ho  Ho9  1  0.867691  0.663747  0.622064  1
  Ho  Ho10  1  0.632319  0.163738  0.377935  1
  Ho  Ho11  1  0.132344  0.336254  0.122065  1
  Ho  Ho12  1  0.632347  0.163710  0.122099  1
  Ho  Ho13  1  0.132322  0.336256  0.377938  1
  Ho  Ho14  1  0.367669  0.836259  0.622069  1
  Ho  Ho15  1  0.867690  0.663736  0.877928  1
  Ho  Ho16  1  0.198412  0.503155  0.749998  1
  Ho  Ho17  1  0.698473  0.996820  0.749987  1
  Ho  Ho18  1  0.801536  0.496857  0.250008  1
  Ho  Ho19  1  0.301537  0.003148  0.250002  1
  Sn  Sn20  1  0.292773  0.035910  0.041753  1
  Sn  Sn21  1  0.792783  0.464061  0.458260  1
  Sn  Sn22  1  0.707213  0.964061  0.541739  1
  Sn  Sn23  1  0.207113  0.535996  0.958265  1
  Sn  Sn24  1  0.707237  0.964015  0.958269  1
  Sn  Sn25  1  0.207207  0.535946  0.541738  1
  Sn  Sn26  1  0.292792  0.035936  0.458263  1
  Sn  Sn27  1  0.792796  0.464075  0.041761  1
  Sn  Sn28  1  0.565196  0.619384  0.749970  1
  Sn  Sn29  1  0.065180  0.880671  0.749995  1
  Sn  Sn30  1  0.434824  0.380656  0.249998  1
  Sn  Sn31  1  0.934820  0.119339  0.250000  1
  Sn  Sn32  1  0.329611  0.147195  0.749959  1
  Sn  Sn33  1  0.829713  0.352761  0.749977  1
  Sn  Sn34  1  0.670345  0.852753  0.250002  1
  Sn  Sn35  1  0.170326  0.647260  0.250000  1
