# generated using pymatgen
data_LaYb7Cu3Si12Pd
_symmetry_space_group_name_H-M   'P 1'
_cell_length_a   8.13283300
_cell_length_b   8.13283140
_cell_length_c   8.43711800
_cell_angle_alpha   90.00000000
_cell_angle_beta   90.00000000
_cell_angle_gamma   119.99999431
_symmetry_Int_Tables_number   1
_chemical_formula_structural   LaYb7Cu3Si12Pd
_chemical_formula_sum   'La1 Yb7 Cu3 Si12 Pd1'
_cell_volume   483.29066137
_cell_formula_units_Z   1
loop_
 _symmetry_equiv_pos_site_id
 _symmetry_equiv_pos_as_xyz
  1  'x, y, z'
loop_
 _atom_site_type_symbol
 _atom_site_label
 _atom_site_symmetry_multiplicity
 _atom_site_fract_x
 _atom_site_fract_y
 _atom_site_fract_z
 _atom_site_occupancy
  La  La0  1  0.000000  0.000000  0.250320  1
  Yb  Yb1  1  0.500562  0.499438  0.747709  1
  Yb  Yb2  1  0.501058  0.498942  0.252271  1
  Yb  Yb3  1  0.998876  0.499438  0.747709  1
  Yb  Yb4  1  0.997883  0.498942  0.252271  1
  Yb  Yb5  1  0.500562  0.001124  0.747709  1
  Yb  Yb6  1  0.501058  0.002117  0.252271  1
  Yb  Yb7  1  0.000000  0.000000  0.749916  1
  Cu  Cu8  1  0.666667  0.333333  0.999219  1
  Cu  Cu9  1  0.333333  0.666667  0.000448  1
  Cu  Cu10  1  0.333333  0.666667  0.498774  1
  Si  Si11  1  0.831974  0.168026  0.996582  1
  Si  Si12  1  0.168103  0.831897  0.997316  1
  Si  Si13  1  0.336051  0.168026  0.996582  1
  Si  Si14  1  0.166936  0.833064  0.503178  1
  Si  Si15  1  0.663797  0.831897  0.997316  1
  Si  Si16  1  0.834406  0.165594  0.502859  1
  Si  Si17  1  0.831974  0.663949  0.996582  1
  Si  Si18  1  0.666127  0.833064  0.503178  1
  Si  Si19  1  0.168103  0.336203  0.997316  1
  Si  Si20  1  0.331188  0.165594  0.502859  1
  Si  Si21  1  0.166936  0.333873  0.503178  1
  Si  Si22  1  0.834406  0.668812  0.502859  1
  Pd  Pd23  1  0.666667  0.333333  0.501575  1
