# generated using pymatgen
data_YHo2ThPt4
_symmetry_space_group_name_H-M   'P 1'
_cell_length_a   4.56370000
_cell_length_b   5.64200287
_cell_length_c   7.07944081
_cell_angle_alpha   90.39913800
_cell_angle_beta   90.00000000
_cell_angle_gamma   90.00000000
_symmetry_Int_Tables_number   1
_chemical_formula_structural   YHo2ThPt4
_chemical_formula_sum   'Y1 Ho2 Th1 Pt4'
_cell_volume   182.27991088
_cell_formula_units_Z   1
loop_
 _symmetry_equiv_pos_site_id
 _symmetry_equiv_pos_as_xyz
  1  'x, y, z'
loop_
 _atom_site_type_symbol
 _atom_site_label
 _atom_site_symmetry_multiplicity
 _atom_site_fract_x
 _atom_site_fract_y
 _atom_site_fract_z
 _atom_site_occupancy
  Y  Y0  1  0.750000  0.642486  0.314290  1
  Ho  Ho1  1  0.250000  0.139544  0.182682  1
  Ho  Ho2  1  0.750000  0.858568  0.821403  1
  Th  Th3  1  0.250000  0.360148  0.682418  1
  Pt  Pt4  1  0.250000  0.843910  0.544538  1
  Pt  Pt5  1  0.250000  0.657965  0.042654  1
  Pt  Pt6  1  0.750000  0.156118  0.454119  1
  Pt  Pt7  1  0.750000  0.341260  0.957896  1
