# generated using pymatgen
data_HoTm3Mn4(Co4P3)4
_symmetry_space_group_name_H-M   'P 1'
_cell_length_a   3.63627600
_cell_length_b   10.28574504
_cell_length_c   11.77227205
_cell_angle_alpha   89.98975148
_cell_angle_beta   90.00000000
_cell_angle_gamma   90.00000000
_symmetry_Int_Tables_number   1
_chemical_formula_structural   HoTm3Mn4(Co4P3)4
_chemical_formula_sum   'Ho1 Tm3 Mn4 Co16 P12'
_cell_volume   440.30424986
_cell_formula_units_Z   1
loop_
 _symmetry_equiv_pos_site_id
 _symmetry_equiv_pos_as_xyz
  1  'x, y, z'
loop_
 _atom_site_type_symbol
 _atom_site_label
 _atom_site_symmetry_multiplicity
 _atom_site_fract_x
 _atom_site_fract_y
 _atom_site_fract_z
 _atom_site_occupancy
  Ho  Ho0  1  0.750000  0.081875  0.795731  1
  Tm  Tm1  1  0.250000  0.581687  0.704485  1
  Tm  Tm2  1  0.250000  0.918059  0.203895  1
  Tm  Tm3  1  0.750000  0.418192  0.295562  1
  Mn  Mn4  1  0.250000  0.711462  0.989213  1
  Mn  Mn5  1  0.250000  0.790497  0.488862  1
  Mn  Mn6  1  0.750000  0.288720  0.011399  1
  Mn  Mn7  1  0.750000  0.210275  0.511116  1
  Co  Co8  1  0.250000  0.406857  0.487063  1
  Co  Co9  1  0.250000  0.093000  0.988308  1
  Co  Co10  1  0.750000  0.593095  0.512848  1
  Co  Co11  1  0.750000  0.906613  0.013015  1
  Co  Co12  1  0.250000  0.221359  0.176849  1
  Co  Co13  1  0.250000  0.279239  0.677036  1
  Co  Co14  1  0.750000  0.778849  0.823805  1
  Co  Co15  1  0.750000  0.721178  0.322501  1
  Co  Co16  1  0.250000  0.882720  0.699081  1
  Co  Co17  1  0.250000  0.615936  0.199214  1
  Co  Co18  1  0.750000  0.116662  0.300385  1
  Co  Co19  1  0.750000  0.384334  0.800872  1
  Co  Co20  1  0.250000  0.466419  0.932266  1
  Co  Co21  1  0.250000  0.034463  0.431484  1
  Co  Co22  1  0.750000  0.534022  0.068035  1
  Co  Co23  1  0.750000  0.965001  0.567045  1
  P  P24  1  0.250000  0.418757  0.112981  1
  P  P25  1  0.250000  0.080888  0.612559  1
  P  P26  1  0.750000  0.581560  0.887327  1
  P  P27  1  0.750000  0.919307  0.385812  1
  P  P28  1  0.250000  0.269422  0.868583  1
  P  P29  1  0.250000  0.231862  0.367720  1
  P  P30  1  0.750000  0.731254  0.131669  1
  P  P31  1  0.750000  0.768235  0.632969  1
  P  P32  1  0.250000  0.598684  0.390290  1
  P  P33  1  0.250000  0.899208  0.891661  1
  P  P34  1  0.750000  0.400549  0.609271  1
  P  P35  1  0.750000  0.099761  0.109084  1
