# generated using pymatgen
data_Rb4In3FeBr16
_symmetry_space_group_name_H-M   'P 1'
_cell_length_a   8.18728817
_cell_length_b   11.01115200
_cell_length_c   11.21411074
_cell_angle_alpha   90.00000000
_cell_angle_beta   89.83419646
_cell_angle_gamma   90.00000000
_symmetry_Int_Tables_number   1
_chemical_formula_structural   Rb4In3FeBr16
_chemical_formula_sum   'Rb4 In3 Fe1 Br16'
_cell_volume   1010.96438500
_cell_formula_units_Z   1
loop_
 _symmetry_equiv_pos_site_id
 _symmetry_equiv_pos_as_xyz
  1  'x, y, z'
loop_
 _atom_site_type_symbol
 _atom_site_label
 _atom_site_symmetry_multiplicity
 _atom_site_fract_x
 _atom_site_fract_y
 _atom_site_fract_z
 _atom_site_occupancy
  Rb  Rb0  1  0.682169  0.747622  0.750083  1
  Rb  Rb1  1  0.322187  0.250178  0.246823  1
  Rb  Rb2  1  0.817831  0.747622  0.249917  1
  Rb  Rb3  1  0.177813  0.250178  0.753177  1
  In  In4  1  0.250000  0.680458  0.000000  1
  In  In5  1  0.750000  0.179122  0.500000  1
  In  In6  1  0.250000  0.820294  0.500000  1
  Fe  Fe7  1  0.750000  0.319440  0.000000  1
  Br  Br8  1  0.825530  0.439494  0.834533  1
  Br  Br9  1  0.165044  0.553628  0.179604  1
  Br  Br10  1  0.674470  0.439494  0.165467  1
  Br  Br11  1  0.660120  0.051064  0.322677  1
  Br  Br12  1  0.334956  0.553628  0.820396  1
  Br  Br13  1  0.339671  0.947501  0.678143  1
  Br  Br14  1  0.839880  0.051064  0.677323  1
  Br  Br15  1  0.160329  0.947501  0.321857  1
  Br  Br16  1  0.004326  0.817456  0.959043  1
  Br  Br17  1  0.976290  0.193676  0.044916  1
  Br  Br18  1  0.495674  0.817456  0.040957  1
  Br  Br19  1  0.495044  0.682886  0.458112  1
  Br  Br20  1  0.523710  0.193676  0.955084  1
  Br  Br21  1  0.504831  0.316837  0.541225  1
  Br  Br22  1  0.004956  0.682886  0.541888  1
  Br  Br23  1  0.995169  0.316837  0.458775  1
