# generated using pymatgen
data_Sr6Cd2Ag14N
_symmetry_space_group_name_H-M   'P 1'
_cell_length_a   8.90854804
_cell_length_b   8.81942508
_cell_length_c   8.86766122
_cell_angle_alpha   109.25653872
_cell_angle_beta   109.41655751
_cell_angle_gamma   109.75657834
_symmetry_Int_Tables_number   1
_chemical_formula_structural   Sr6Cd2Ag14N
_chemical_formula_sum   'Sr6 Cd2 Ag14 N1'
_cell_volume   536.21884851
_cell_formula_units_Z   1
loop_
 _symmetry_equiv_pos_site_id
 _symmetry_equiv_pos_as_xyz
  1  'x, y, z'
loop_
 _atom_site_type_symbol
 _atom_site_label
 _atom_site_symmetry_multiplicity
 _atom_site_fract_x
 _atom_site_fract_y
 _atom_site_fract_z
 _atom_site_occupancy
  Sr  Sr0  1  0.006414  0.261167  0.262417  1
  Sr  Sr1  1  0.258505  0.995962  0.254690  1
  Sr  Sr2  1  0.743996  0.998711  0.737522  1
  Sr  Sr3  1  0.735916  0.738567  0.999920  1
  Sr  Sr4  1  0.259562  0.267028  0.999992  1
  Sr  Sr5  1  0.003768  0.741177  0.745049  1
  Cd  Cd6  1  0.676054  0.337780  0.338054  1
  Cd  Cd7  1  0.338013  0.999722  0.661925  1
  Ag  Ag8  1  0.498648  0.499153  0.499296  1
  Ag  Ag9  1  0.498044  0.999335  0.999968  1
  Ag  Ag10  1  0.999889  0.500850  0.000049  1
  Ag  Ag11  1  0.999433  0.999879  0.501013  1
  Ag  Ag12  1  0.339685  0.680198  0.339864  1
  Ag  Ag13  1  0.337330  0.339688  0.676477  1
  Ag  Ag14  1  0.338101  0.660985  0.000102  1
  Ag  Ag15  1  0.999817  0.340356  0.660272  1
  Ag  Ag16  1  0.997521  0.658146  0.337890  1
  Ag  Ag17  1  0.660687  0.663123  0.323343  1
  Ag  Ag18  1  0.661683  0.997638  0.336987  1
  Ag  Ag19  1  0.663091  0.339527  0.999976  1
  Ag  Ag20  1  0.659459  0.319979  0.661981  1
  Ag  Ag21  1  0.324648  0.660630  0.662971  1
  N  N22  1  0.999736  0.000401  0.000242  1
