# generated using pymatgen
data_Er6Tm2Co3Si12Rh
_symmetry_space_group_name_H-M   'P 1'
_cell_length_a   8.01102000
_cell_length_b   8.01166968
_cell_length_c   7.82324800
_cell_angle_alpha   90.00350273
_cell_angle_beta   90.00000000
_cell_angle_gamma   119.99731755
_symmetry_Int_Tables_number   1
_chemical_formula_structural   Er6Tm2Co3Si12Rh
_chemical_formula_sum   'Er6 Tm2 Co3 Si12 Rh1'
_cell_volume   434.85084473
_cell_formula_units_Z   1
loop_
 _symmetry_equiv_pos_site_id
 _symmetry_equiv_pos_as_xyz
  1  'x, y, z'
loop_
 _atom_site_type_symbol
 _atom_site_label
 _atom_site_symmetry_multiplicity
 _atom_site_fract_x
 _atom_site_fract_y
 _atom_site_fract_z
 _atom_site_occupancy
  Er  Er0  1  0.494327  0.988654  0.750333  1
  Er  Er1  1  0.011319  0.505654  0.750294  1
  Er  Er2  1  0.494335  0.505654  0.750294  1
  Er  Er3  1  0.508409  0.016819  0.248415  1
  Er  Er4  1  0.000010  0.000020  0.751263  1
  Er  Er5  1  0.999986  0.999972  0.248970  1
  Tm  Tm6  1  0.983413  0.491740  0.248479  1
  Tm  Tm7  1  0.508325  0.491740  0.248479  1
  Co  Co8  1  0.333229  0.666460  0.033823  1
  Co  Co9  1  0.666720  0.333439  0.967361  1
  Co  Co10  1  0.666719  0.333436  0.532871  1
  Si  Si11  1  0.166209  0.833639  0.500166  1
  Si  Si12  1  0.166311  0.332622  0.500128  1
  Si  Si13  1  0.667430  0.833639  0.500166  1
  Si  Si14  1  0.342332  0.171277  0.998535  1
  Si  Si15  1  0.827955  0.655910  0.501126  1
  Si  Si16  1  0.828945  0.171277  0.998535  1
  Si  Si17  1  0.828791  0.657582  0.998646  1
  Si  Si18  1  0.171853  0.343706  0.001428  1
  Si  Si19  1  0.656344  0.828079  0.001389  1
  Si  Si20  1  0.344007  0.172113  0.501228  1
  Si  Si21  1  0.828105  0.172113  0.501228  1
  Si  Si22  1  0.171735  0.828079  0.001389  1
  Rh  Rh23  1  0.333188  0.666378  0.465454  1
