# generated using pymatgen
data_La2NiSn4Au3
_symmetry_space_group_name_H-M   'P 1'
_cell_length_a   4.65604200
_cell_length_b   4.65604200
_cell_length_c   10.97023700
_cell_angle_alpha   90.00000000
_cell_angle_beta   90.00000000
_cell_angle_gamma   90.00000000
_symmetry_Int_Tables_number   1
_chemical_formula_structural   La2NiSn4Au3
_chemical_formula_sum   'La2 Ni1 Sn4 Au3'
_cell_volume   237.82077421
_cell_formula_units_Z   1
loop_
 _symmetry_equiv_pos_site_id
 _symmetry_equiv_pos_as_xyz
  1  'x, y, z'
loop_
 _atom_site_type_symbol
 _atom_site_label
 _atom_site_symmetry_multiplicity
 _atom_site_fract_x
 _atom_site_fract_y
 _atom_site_fract_z
 _atom_site_occupancy
  La  La0  1  0.000000  0.500000  0.240419  1
  La  La1  1  0.500000  0.000000  0.749250  1
  Ni  Ni2  1  0.500000  0.000000  0.379341  1
  Sn  Sn3  1  0.000000  0.000000  0.483591  1
  Sn  Sn4  1  0.500000  0.500000  0.483591  1
  Sn  Sn5  1  0.000000  0.500000  0.869983  1
  Sn  Sn6  1  0.500000  0.000000  0.151787  1
  Au  Au7  1  0.000000  0.000000  0.006282  1
  Au  Au8  1  0.500000  0.500000  0.006282  1
  Au  Au9  1  0.000000  0.500000  0.629474  1
