# generated using pymatgen
data_Zr10Zn2GaBi5
_symmetry_space_group_name_H-M   'P 1'
_cell_length_a   8.75977306
_cell_length_b   8.75134761
_cell_length_c   5.96617700
_cell_angle_alpha   90.00000000
_cell_angle_beta   90.00000000
_cell_angle_gamma   119.96818382
_symmetry_Int_Tables_number   1
_chemical_formula_structural   Zr10Zn2GaBi5
_chemical_formula_sum   'Zr10 Zn2 Ga1 Bi5'
_cell_volume   396.21754353
_cell_formula_units_Z   1
loop_
 _symmetry_equiv_pos_site_id
 _symmetry_equiv_pos_as_xyz
  1  'x, y, z'
loop_
 _atom_site_type_symbol
 _atom_site_label
 _atom_site_symmetry_multiplicity
 _atom_site_fract_x
 _atom_site_fract_y
 _atom_site_fract_z
 _atom_site_occupancy
  Zr  Zr0  1  0.674817  0.334966  0.004185  1
  Zr  Zr1  1  0.325183  0.660150  0.004185  1
  Zr  Zr2  1  0.325183  0.660150  0.495815  1
  Zr  Zr3  1  0.674817  0.334966  0.495815  1
  Zr  Zr4  1  0.737191  0.736056  0.750000  1
  Zr  Zr5  1  0.262809  0.998864  0.750000  1
  Zr  Zr6  1  0.000000  0.263335  0.750000  1
  Zr  Zr7  1  0.255862  0.272474  0.250000  1
  Zr  Zr8  1  0.744138  0.016612  0.250000  1
  Zr  Zr9  1  0.000000  0.724287  0.250000  1
  Zn  Zn10  1  0.000000  0.998429  0.005635  1
  Zn  Zn11  1  0.000000  0.998429  0.494365  1
  Ga  Ga12  1  0.000000  0.385534  0.250000  1
  Bi  Bi13  1  0.387602  0.385197  0.750000  1
  Bi  Bi14  1  0.612398  0.997594  0.750000  1
  Bi  Bi15  1  0.000000  0.610546  0.750000  1
  Bi  Bi16  1  0.616619  0.619516  0.250000  1
  Bi  Bi17  1  0.383381  0.002897  0.250000  1
