# generated using pymatgen
data_Zr7Sc(Co4P3)4
_symmetry_space_group_name_H-M   'P 1'
_cell_length_a   12.09862031
_cell_length_b   12.09862168
_cell_length_c   3.66013500
_cell_angle_alpha   90.00000000
_cell_angle_beta   90.00000000
_cell_angle_gamma   120.02585196
_symmetry_Int_Tables_number   1
_chemical_formula_structural   Zr7Sc(Co4P3)4
_chemical_formula_sum   'Zr7 Sc1 Co16 P12'
_cell_volume   463.85931969
_cell_formula_units_Z   1
loop_
 _symmetry_equiv_pos_site_id
 _symmetry_equiv_pos_as_xyz
  1  'x, y, z'
loop_
 _atom_site_type_symbol
 _atom_site_label
 _atom_site_symmetry_multiplicity
 _atom_site_fract_x
 _atom_site_fract_y
 _atom_site_fract_z
 _atom_site_occupancy
  Zr  Zr0  1  0.555895  0.999764  0.000000  1
  Zr  Zr1  1  0.999764  0.555895  0.000000  1
  Zr  Zr2  1  0.665731  0.332988  0.000000  1
  Zr  Zr3  1  0.332988  0.665731  0.000000  1
  Zr  Zr4  1  0.821596  0.821596  0.500000  1
  Zr  Zr5  1  0.176641  0.000824  0.500000  1
  Zr  Zr6  1  0.000824  0.176641  0.500000  1
  Sc  Sc7  1  0.442432  0.442432  0.000000  1
  Co  Co8  1  0.194422  0.372562  0.000000  1
  Co  Co9  1  0.178617  0.806862  0.000000  1
  Co  Co10  1  0.821242  0.628796  0.000000  1
  Co  Co11  1  0.806862  0.178617  0.000000  1
  Co  Co12  1  0.372562  0.194422  0.000000  1
  Co  Co13  1  0.126584  0.479709  0.500000  1
  Co  Co14  1  0.354357  0.873996  0.500000  1
  Co  Co15  1  0.519676  0.645332  0.500000  1
  Co  Co16  1  0.645332  0.519676  0.500000  1
  Co  Co17  1  0.873996  0.354357  0.500000  1
  Co  Co18  1  0.479709  0.126584  0.500000  1
  Co  Co19  1  0.000274  0.000274  0.000000  1
  Co  Co20  1  0.722432  0.000079  0.500000  1
  Co  Co21  1  0.000079  0.722432  0.500000  1
  Co  Co22  1  0.628796  0.821242  0.000000  1
  Co  Co23  1  0.279350  0.279350  0.500000  1
  P  P24  1  0.650241  0.650241  0.000000  1
  P  P25  1  0.345605  0.000969  0.000000  1
  P  P26  1  0.000969  0.345605  0.000000  1
  P  P27  1  0.481908  0.310847  0.500000  1
  P  P28  1  0.691601  0.173889  0.500000  1
  P  P29  1  0.825768  0.518360  0.500000  1
  P  P30  1  0.518360  0.825768  0.500000  1
  P  P31  1  0.173889  0.691601  0.500000  1
  P  P32  1  0.824682  0.999649  0.000000  1
  P  P33  1  0.999649  0.824682  0.000000  1
  P  P34  1  0.310847  0.481908  0.500000  1
  P  P35  1  0.176322  0.176322  0.000000  1
