# generated using pymatgen
data_Ho6TmVO12
_symmetry_space_group_name_H-M   'P 1'
_cell_length_a   6.59365354
_cell_length_b   6.59365376
_cell_length_c   6.59365440
_cell_angle_alpha   93.08907936
_cell_angle_beta   93.08908372
_cell_angle_gamma   93.08908929
_symmetry_Int_Tables_number   1
_chemical_formula_structural   Ho6TmVO12
_chemical_formula_sum   'Ho6 Tm1 V1 O12'
_cell_volume   285.37098202
_cell_formula_units_Z   1
loop_
 _symmetry_equiv_pos_site_id
 _symmetry_equiv_pos_as_xyz
  1  'x, y, z'
loop_
 _atom_site_type_symbol
 _atom_site_label
 _atom_site_symmetry_multiplicity
 _atom_site_fract_x
 _atom_site_fract_y
 _atom_site_fract_z
 _atom_site_occupancy
  Ho  Ho0  1  0.740679  0.925834  0.436331  1
  Ho  Ho1  1  0.925834  0.436331  0.740679  1
  Ho  Ho2  1  0.436331  0.740679  0.925834  1
  Ho  Ho3  1  0.259321  0.074166  0.563669  1
  Ho  Ho4  1  0.074166  0.563669  0.259321  1
  Ho  Ho5  1  0.563669  0.259321  0.074166  1
  Tm  Tm6  1  0.000000  0.000000  0.000000  1
  V  V7  1  0.500000  0.500000  0.500000  1
  O  O8  1  0.590260  0.462816  0.801410  1
  O  O9  1  0.462816  0.801410  0.590260  1
  O  O10  1  0.801410  0.590260  0.462816  1
  O  O11  1  0.409740  0.537184  0.198590  1
  O  O12  1  0.537184  0.198590  0.409740  1
  O  O13  1  0.198590  0.409740  0.537184  1
  O  O14  1  0.069063  0.908743  0.316649  1
  O  O15  1  0.908743  0.316649  0.069063  1
  O  O16  1  0.683351  0.930937  0.091257  1
  O  O17  1  0.091257  0.683351  0.930937  1
  O  O18  1  0.930937  0.091257  0.683351  1
  O  O19  1  0.316649  0.069063  0.908743  1
