# generated using pymatgen
data_Mg4AlSbPd10
_symmetry_space_group_name_H-M   'P 1'
_cell_length_a   4.17472800
_cell_length_b   5.57198787
_cell_length_c   10.93150196
_cell_angle_alpha   89.74492480
_cell_angle_beta   90.00000000
_cell_angle_gamma   90.00000000
_symmetry_Int_Tables_number   1
_chemical_formula_structural   Mg4AlSbPd10
_chemical_formula_sum   'Mg4 Al1 Sb1 Pd10'
_cell_volume   254.28098204
_cell_formula_units_Z   1
loop_
 _symmetry_equiv_pos_site_id
 _symmetry_equiv_pos_as_xyz
  1  'x, y, z'
loop_
 _atom_site_type_symbol
 _atom_site_label
 _atom_site_symmetry_multiplicity
 _atom_site_fract_x
 _atom_site_fract_y
 _atom_site_fract_z
 _atom_site_occupancy
  Mg  Mg0  1  0.500000  0.171410  0.148107  1
  Mg  Mg1  1  0.500000  0.828590  0.851893  1
  Mg  Mg2  1  0.500000  0.326631  0.637380  1
  Mg  Mg3  1  0.500000  0.673369  0.362620  1
  Al  Al4  1  0.000000  0.000000  0.500000  1
  Sb  Sb5  1  0.000000  0.500000  0.000000  1
  Pd  Pd6  1  0.500000  0.182885  0.396147  1
  Pd  Pd7  1  0.500000  0.817115  0.603853  1
  Pd  Pd8  1  0.500000  0.302593  0.887096  1
  Pd  Pd9  1  0.500000  0.697407  0.112904  1
  Pd  Pd10  1  0.000000  0.426057  0.245563  1
  Pd  Pd11  1  0.000000  0.573943  0.754437  1
  Pd  Pd12  1  0.000000  0.074128  0.736230  1
  Pd  Pd13  1  0.000000  0.925872  0.263770  1
  Pd  Pd14  1  0.000000  0.000000  0.000000  1
  Pd  Pd15  1  0.000000  0.500000  0.500000  1
