# generated using pymatgen
data_Ho4Sc16(Bi3Pb)3
_symmetry_space_group_name_H-M   'P 1'
_cell_length_a   7.86466838
_cell_length_b   9.08531824
_cell_length_c   11.52887146
_cell_angle_alpha   90.01509808
_cell_angle_beta   89.97164498
_cell_angle_gamma   89.97860854
_symmetry_Int_Tables_number   1
_chemical_formula_structural   Ho4Sc16(Bi3Pb)3
_chemical_formula_sum   'Ho4 Sc16 Bi9 Pb3'
_cell_volume   823.77243844
_cell_formula_units_Z   1
loop_
 _symmetry_equiv_pos_site_id
 _symmetry_equiv_pos_as_xyz
  1  'x, y, z'
loop_
 _atom_site_type_symbol
 _atom_site_label
 _atom_site_symmetry_multiplicity
 _atom_site_fract_x
 _atom_site_fract_y
 _atom_site_fract_z
 _atom_site_occupancy
  Ho  Ho0  1  0.313307  0.251502  0.219276  1
  Ho  Ho1  1  0.813296  0.248854  0.280373  1
  Ho  Ho2  1  0.684753  0.749736  0.780446  1
  Ho  Ho3  1  0.187493  0.748380  0.718963  1
  Sc  Sc4  1  0.347190  0.750857  0.222712  1
  Sc  Sc5  1  0.847862  0.749573  0.277031  1
  Sc  Sc6  1  0.650177  0.251970  0.777637  1
  Sc  Sc7  1  0.154365  0.250732  0.721401  1
  Sc  Sc8  1  0.696066  0.565921  0.062324  1
  Sc  Sc9  1  0.195712  0.934354  0.437584  1
  Sc  Sc10  1  0.306915  0.065958  0.938078  1
  Sc  Sc11  1  0.804291  0.434002  0.562490  1
  Sc  Sc12  1  0.306185  0.433197  0.936498  1
  Sc  Sc13  1  0.805850  0.066653  0.561742  1
  Sc  Sc14  1  0.692648  0.933440  0.063815  1
  Sc  Sc15  1  0.194294  0.566139  0.436756  1
  Sc  Sc16  1  0.484374  0.248530  0.490220  1
  Sc  Sc17  1  0.984330  0.251916  0.010695  1
  Sc  Sc18  1  0.515865  0.748720  0.509805  1
  Sc  Sc19  1  0.016725  0.749035  0.991718  1
  Bi  Bi20  1  0.401536  0.749313  0.967335  1
  Bi  Bi21  1  0.902147  0.750339  0.533248  1
  Bi  Bi22  1  0.598119  0.250221  0.033142  1
  Bi  Bi23  1  0.097706  0.250490  0.466566  1
  Bi  Bi24  1  0.937336  0.009327  0.828019  1
  Bi  Bi25  1  0.437602  0.008697  0.672456  1
  Bi  Bi26  1  0.938112  0.491233  0.827626  1
  Bi  Bi27  1  0.561563  0.508254  0.327783  1
  Bi  Bi28  1  0.062381  0.991463  0.171755  1
  Pb  Pb29  1  0.561671  0.991411  0.327875  1
  Pb  Pb30  1  0.061963  0.508477  0.172756  1
  Pb  Pb31  1  0.438167  0.491305  0.671876  1
