# generated using pymatgen
data_La3NdFe(NiO4)3
_symmetry_space_group_name_H-M   'P 1'
_cell_length_a   5.47530204
_cell_length_b   5.62539074
_cell_length_c   7.81034430
_cell_angle_alpha   90.02106793
_cell_angle_beta   90.13977957
_cell_angle_gamma   90.19407444
_symmetry_Int_Tables_number   1
_chemical_formula_structural   La3NdFe(NiO4)3
_chemical_formula_sum   'La3 Nd1 Fe1 Ni3 O12'
_cell_volume   240.56206350
_cell_formula_units_Z   1
loop_
 _symmetry_equiv_pos_site_id
 _symmetry_equiv_pos_as_xyz
  1  'x, y, z'
loop_
 _atom_site_type_symbol
 _atom_site_label
 _atom_site_symmetry_multiplicity
 _atom_site_fract_x
 _atom_site_fract_y
 _atom_site_fract_z
 _atom_site_occupancy
  La  La0  1  0.012411  0.950683  0.754956  1
  La  La1  1  0.492079  0.454519  0.754288  1
  La  La2  1  0.507635  0.545321  0.245530  1
  Nd  Nd3  1  0.985018  0.057380  0.246229  1
  Fe  Fe4  1  0.499504  0.999617  0.498518  1
  Ni  Ni5  1  0.000132  0.500843  0.000851  1
  Ni  Ni6  1  0.000132  0.500978  0.499128  1
  Ni  Ni7  1  0.500183  0.999565  0.001316  1
  O  O8  1  0.713286  0.286527  0.455614  1
  O  O9  1  0.786279  0.798149  0.041831  1
  O  O10  1  0.220186  0.202035  0.539032  1
  O  O11  1  0.294253  0.710513  0.961482  1
  O  O12  1  0.291325  0.709585  0.541804  1
  O  O13  1  0.215710  0.203570  0.963753  1
  O  O14  1  0.781607  0.800406  0.455717  1
  O  O15  1  0.710242  0.285399  0.040660  1
  O  O16  1  0.071223  0.483048  0.251162  1
  O  O17  1  0.415955  0.986664  0.255865  1
  O  O18  1  0.574654  0.012762  0.743510  1
  O  O19  1  0.928186  0.512436  0.748754  1
