# generated using pymatgen
data_Zr3Co6GeB2
_symmetry_space_group_name_H-M   'P 1'
_cell_length_a   5.02366600
_cell_length_b   5.02448919
_cell_length_c   13.64908700
_cell_angle_alpha   90.00000000
_cell_angle_beta   90.00000000
_cell_angle_gamma   120.00025704
_symmetry_Int_Tables_number   1
_chemical_formula_structural   Zr3Co6GeB2
_chemical_formula_sum   'Zr6 Co12 Ge2 B4'
_cell_volume   298.36356150
_cell_formula_units_Z   2
loop_
 _symmetry_equiv_pos_site_id
 _symmetry_equiv_pos_as_xyz
  1  'x, y, z'
loop_
 _atom_site_type_symbol
 _atom_site_label
 _atom_site_symmetry_multiplicity
 _atom_site_fract_x
 _atom_site_fract_y
 _atom_site_fract_z
 _atom_site_occupancy
  Zr  Zr0  1  0.333451  0.666768  0.250000  1
  Zr  Zr1  1  0.666549  0.333232  0.750000  1
  Zr  Zr2  1  0.333171  0.666740  0.039147  1
  Zr  Zr3  1  0.666829  0.333260  0.539147  1
  Zr  Zr4  1  0.666829  0.333260  0.960853  1
  Zr  Zr5  1  0.333171  0.666740  0.460853  1
  Co  Co6  1  0.832568  0.665118  0.146273  1
  Co  Co7  1  0.167395  0.832509  0.646277  1
  Co  Co8  1  0.665051  0.832516  0.646186  1
  Co  Co9  1  0.334949  0.167484  0.146186  1
  Co  Co10  1  0.832605  0.167491  0.146277  1
  Co  Co11  1  0.167432  0.334882  0.853727  1
  Co  Co12  1  0.167395  0.832509  0.853723  1
  Co  Co13  1  0.167432  0.334882  0.646273  1
  Co  Co14  1  0.665051  0.832516  0.853814  1
  Co  Co15  1  0.334949  0.167484  0.353814  1
  Co  Co16  1  0.832568  0.665118  0.353727  1
  Co  Co17  1  0.832605  0.167491  0.353723  1
  Ge  Ge18  1  0.000000  0.000000  0.000000  1
  Ge  Ge19  1  0.000000  0.000000  0.500000  1
  B  B20  1  0.000266  0.000218  0.250000  1
  B  B21  1  0.999734  0.999782  0.750000  1
  B  B22  1  0.333503  0.666729  0.750000  1
  B  B23  1  0.666497  0.333271  0.250000  1
