# generated using pymatgen
data_Ho5Cu6
_symmetry_space_group_name_H-M   'P 1'
_cell_length_a   15.84741870
_cell_length_b   15.84741921
_cell_length_c   3.79856400
_cell_angle_alpha   90.00000000
_cell_angle_beta   90.00000000
_cell_angle_gamma   166.38956170
_symmetry_Int_Tables_number   1
_chemical_formula_structural   Ho5Cu6
_chemical_formula_sum   'Ho5 Cu6'
_cell_volume   224.48837707
_cell_formula_units_Z   1
loop_
 _symmetry_equiv_pos_site_id
 _symmetry_equiv_pos_as_xyz
  1  'x, y, z'
loop_
 _atom_site_type_symbol
 _atom_site_label
 _atom_site_symmetry_multiplicity
 _atom_site_fract_x
 _atom_site_fract_y
 _atom_site_fract_z
 _atom_site_occupancy
  Ho  Ho0  1  0.000000  0.000000  0.000000  1
  Ho  Ho1  1  0.616194  0.383804  0.000000  1
  Ho  Ho2  1  0.383804  0.616194  0.000000  1
  Ho  Ho3  1  0.804782  0.195216  0.500001  1
  Ho  Ho4  1  0.195216  0.804782  0.500001  1
  Cu  Cu5  1  0.724206  0.275792  0.000000  1
  Cu  Cu6  1  0.275792  0.724206  0.000000  1
  Cu  Cu7  1  0.910229  0.089770  0.500001  1
  Cu  Cu8  1  0.539755  0.460243  0.500001  1
  Cu  Cu9  1  0.460243  0.539755  0.500001  1
  Cu  Cu10  1  0.089770  0.910229  0.500001  1
