# generated using pymatgen
data_Y20NiHg6Ir
_symmetry_space_group_name_H-M   'P 1'
_cell_length_a   9.70961800
_cell_length_b   9.70961813
_cell_length_c   9.60210900
_cell_angle_alpha   90.00000000
_cell_angle_beta   90.00000000
_cell_angle_gamma   119.99999955
_symmetry_Int_Tables_number   1
_chemical_formula_structural   Y20NiHg6Ir
_chemical_formula_sum   'Y20 Ni1 Hg6 Ir1'
_cell_volume   783.97381837
_cell_formula_units_Z   1
loop_
 _symmetry_equiv_pos_site_id
 _symmetry_equiv_pos_as_xyz
  1  'x, y, z'
loop_
 _atom_site_type_symbol
 _atom_site_label
 _atom_site_symmetry_multiplicity
 _atom_site_fract_x
 _atom_site_fract_y
 _atom_site_fract_z
 _atom_site_occupancy
  Y  Y0  1  0.000000  0.000000  0.498777  1
  Y  Y1  1  0.000000  0.000000  0.001223  1
  Y  Y2  1  0.541557  0.458443  0.250000  1
  Y  Y3  1  0.541557  0.083115  0.250000  1
  Y  Y4  1  0.916885  0.458443  0.250000  1
  Y  Y5  1  0.457067  0.542933  0.750000  1
  Y  Y6  1  0.457067  0.914132  0.750000  1
  Y  Y7  1  0.085868  0.542933  0.750000  1
  Y  Y8  1  0.208070  0.791930  0.439191  1
  Y  Y9  1  0.208070  0.416141  0.439191  1
  Y  Y10  1  0.583859  0.791930  0.439191  1
  Y  Y11  1  0.790511  0.209489  0.564003  1
  Y  Y12  1  0.790511  0.581022  0.564003  1
  Y  Y13  1  0.418978  0.209489  0.564003  1
  Y  Y14  1  0.790511  0.209489  0.935997  1
  Y  Y15  1  0.790511  0.581022  0.935997  1
  Y  Y16  1  0.418978  0.209489  0.935997  1
  Y  Y17  1  0.208070  0.791930  0.060809  1
  Y  Y18  1  0.208070  0.416141  0.060809  1
  Y  Y19  1  0.583859  0.791930  0.060809  1
  Ni  Ni20  1  0.666667  0.333333  0.750000  1
  Hg  Hg21  1  0.879549  0.120451  0.250000  1
  Hg  Hg22  1  0.879549  0.759098  0.250000  1
  Hg  Hg23  1  0.240902  0.120451  0.250000  1
  Hg  Hg24  1  0.120063  0.879937  0.750000  1
  Hg  Hg25  1  0.120063  0.240126  0.750000  1
  Hg  Hg26  1  0.759874  0.879937  0.750000  1
  Ir  Ir27  1  0.333333  0.666667  0.250000  1
