# generated using pymatgen
data_Y2Al2IrRh
_symmetry_space_group_name_H-M   'P 1'
_cell_length_a   4.22827400
_cell_length_b   6.92390027
_cell_length_c   7.96403215
_cell_angle_alpha   90.07480378
_cell_angle_beta   90.00000000
_cell_angle_gamma   90.00000000
_symmetry_Int_Tables_number   1
_chemical_formula_structural   Y2Al2IrRh
_chemical_formula_sum   'Y4 Al4 Ir2 Rh2'
_cell_volume   233.15598106
_cell_formula_units_Z   2
loop_
 _symmetry_equiv_pos_site_id
 _symmetry_equiv_pos_as_xyz
  1  'x, y, z'
loop_
 _atom_site_type_symbol
 _atom_site_label
 _atom_site_symmetry_multiplicity
 _atom_site_fract_x
 _atom_site_fract_y
 _atom_site_fract_z
 _atom_site_occupancy
  Y  Y0  1  0.250000  0.531897  0.179370  1
  Y  Y1  1  0.750000  0.468103  0.820630  1
  Y  Y2  1  0.750000  0.965907  0.680517  1
  Y  Y3  1  0.250000  0.034093  0.319483  1
  Al  Al4  1  0.250000  0.638039  0.561673  1
  Al  Al5  1  0.750000  0.361961  0.438327  1
  Al  Al6  1  0.750000  0.861857  0.060063  1
  Al  Al7  1  0.250000  0.138143  0.939937  1
  Ir  Ir8  1  0.250000  0.768577  0.878591  1
  Ir  Ir9  1  0.750000  0.231423  0.121409  1
  Rh  Rh10  1  0.750000  0.732313  0.380874  1
  Rh  Rh11  1  0.250000  0.267687  0.619126  1
