# generated using pymatgen
data_PrEr2Th3Si4
_symmetry_space_group_name_H-M   'P 1'
_cell_length_a   7.63215519
_cell_length_b   7.63215625
_cell_length_c   4.29258500
_cell_angle_alpha   90.00000000
_cell_angle_beta   90.00000000
_cell_angle_gamma   90.35747205
_symmetry_Int_Tables_number   1
_chemical_formula_structural   PrEr2Th3Si4
_chemical_formula_sum   'Pr1 Er2 Th3 Si4'
_cell_volume   250.03735523
_cell_formula_units_Z   1
loop_
 _symmetry_equiv_pos_site_id
 _symmetry_equiv_pos_as_xyz
  1  'x, y, z'
loop_
 _atom_site_type_symbol
 _atom_site_label
 _atom_site_symmetry_multiplicity
 _atom_site_fract_x
 _atom_site_fract_y
 _atom_site_fract_z
 _atom_site_occupancy
  Pr  Pr0  1  0.823392  0.676608  0.500000  1
  Er  Er1  1  0.999169  0.001309  0.000000  1
  Er  Er2  1  0.498691  0.500831  0.000000  1
  Th  Th3  1  0.677463  0.178702  0.500000  1
  Th  Th4  1  0.321298  0.822537  0.500000  1
  Th  Th5  1  0.178391  0.321609  0.500000  1
  Si  Si6  1  0.120435  0.615088  0.000000  1
  Si  Si7  1  0.884912  0.379565  0.000000  1
  Si  Si8  1  0.614268  0.885732  0.000000  1
  Si  Si9  1  0.381979  0.118021  0.000000  1
