# generated using pymatgen
data_Y4Al18Cu3Re2Pd
_symmetry_space_group_name_H-M   'P 1'
_cell_length_a   7.57524524
_cell_length_b   7.57524421
_cell_length_c   9.49451933
_cell_angle_alpha   89.95107298
_cell_angle_beta   89.95107154
_cell_angle_gamma   118.66865524
_symmetry_Int_Tables_number   1
_chemical_formula_structural   Y4Al18Cu3Re2Pd
_chemical_formula_sum   'Y4 Al18 Cu3 Re2 Pd1'
_cell_volume   478.04377731
_cell_formula_units_Z   1
loop_
 _symmetry_equiv_pos_site_id
 _symmetry_equiv_pos_as_xyz
  1  'x, y, z'
loop_
 _atom_site_type_symbol
 _atom_site_label
 _atom_site_symmetry_multiplicity
 _atom_site_fract_x
 _atom_site_fract_y
 _atom_site_fract_z
 _atom_site_occupancy
  Y  Y0  1  0.994477  0.678112  0.249382  1
  Y  Y1  1  0.006469  0.322360  0.750722  1
  Y  Y2  1  0.677640  0.993531  0.249278  1
  Y  Y3  1  0.321888  0.005523  0.750618  1
  Al  Al4  1  0.133209  0.133293  0.249838  1
  Al  Al5  1  0.866707  0.866791  0.750162  1
  Al  Al6  1  0.001158  0.336575  0.076130  1
  Al  Al7  1  0.998695  0.663676  0.923661  1
  Al  Al8  1  0.999305  0.664504  0.575915  1
  Al  Al9  1  0.335496  0.000695  0.424085  1
  Al  Al10  1  0.001978  0.335748  0.423987  1
  Al  Al11  1  0.664252  0.998022  0.576013  1
  Al  Al12  1  0.663425  0.998842  0.923870  1
  Al  Al13  1  0.336324  0.001305  0.076339  1
  Al  Al14  1  0.330174  0.331255  0.549045  1
  Al  Al15  1  0.668745  0.669826  0.450955  1
  Al  Al16  1  0.667933  0.667992  0.049762  1
  Al  Al17  1  0.332008  0.332067  0.950238  1
  Al  Al18  1  0.345126  0.554544  0.250146  1
  Al  Al19  1  0.654907  0.446259  0.751280  1
  Al  Al20  1  0.553741  0.345093  0.248720  1
  Al  Al21  1  0.445456  0.654874  0.749854  1
  Cu  Cu22  1  0.671604  0.328396  0.000000  1
  Cu  Cu23  1  0.328476  0.671524  0.000000  1
  Cu  Cu24  1  0.328538  0.671462  0.500000  1
  Re  Re25  1  0.999972  0.000028  0.000000  1
  Re  Re26  1  0.000569  0.999431  0.500000  1
  Pd  Pd27  1  0.671728  0.328272  0.500000  1
