# generated using pymatgen
data_SmErAg2(Pt2O7)2
_symmetry_space_group_name_H-M   'P 1'
_cell_length_a   7.41015254
_cell_length_b   7.24366318
_cell_length_c   7.24366315
_cell_angle_alpha   59.47374656
_cell_angle_beta   59.44309618
_cell_angle_gamma   59.44309996
_symmetry_Int_Tables_number   1
_chemical_formula_structural   SmErAg2(Pt2O7)2
_chemical_formula_sum   'Sm1 Er1 Ag2 Pt4 O14'
_cell_volume   271.51481985
_cell_formula_units_Z   1
loop_
 _symmetry_equiv_pos_site_id
 _symmetry_equiv_pos_as_xyz
  1  'x, y, z'
loop_
 _atom_site_type_symbol
 _atom_site_label
 _atom_site_symmetry_multiplicity
 _atom_site_fract_x
 _atom_site_fract_y
 _atom_site_fract_z
 _atom_site_occupancy
  Sm  Sm0  1  0.625000  0.625000  0.625000  1
  Er  Er1  1  0.125000  0.625000  0.625000  1
  Ag  Ag2  1  0.625000  0.625000  0.125000  1
  Ag  Ag3  1  0.625000  0.125000  0.625000  1
  Pt  Pt4  1  0.625000  0.125000  0.125000  1
  Pt  Pt5  1  0.125000  0.125000  0.125000  1
  Pt  Pt6  1  0.125000  0.625000  0.125000  1
  Pt  Pt7  1  0.125000  0.125000  0.625000  1
  O  O8  1  0.036586  0.467937  0.467937  1
  O  O9  1  0.795917  0.790327  0.216446  1
  O  O10  1  0.796115  0.204548  0.204548  1
  O  O11  1  0.744590  0.763247  0.763247  1
  O  O12  1  0.056762  0.460602  0.026444  1
  O  O13  1  0.454083  0.033554  0.459673  1
  O  O14  1  0.056762  0.026444  0.460602  1
  O  O15  1  0.505410  0.486753  0.486753  1
  O  O16  1  0.193238  0.223556  0.789398  1
  O  O17  1  0.193238  0.789398  0.223556  1
  O  O18  1  0.795917  0.216446  0.790327  1
  O  O19  1  0.453885  0.045452  0.045452  1
  O  O20  1  0.454083  0.459673  0.033554  1
  O  O21  1  0.213414  0.782063  0.782063  1
