# generated using pymatgen
data_Lu3In3Ni2Ag
_symmetry_space_group_name_H-M   'P 1'
_cell_length_a   7.60084900
_cell_length_b   7.60084934
_cell_length_c   3.67508200
_cell_angle_alpha   90.00000000
_cell_angle_beta   90.00000000
_cell_angle_gamma   119.99999419
_symmetry_Int_Tables_number   1
_chemical_formula_structural   Lu3In3Ni2Ag
_chemical_formula_sum   'Lu3 In3 Ni2 Ag1'
_cell_volume   183.87467564
_cell_formula_units_Z   1
loop_
 _symmetry_equiv_pos_site_id
 _symmetry_equiv_pos_as_xyz
  1  'x, y, z'
loop_
 _atom_site_type_symbol
 _atom_site_label
 _atom_site_symmetry_multiplicity
 _atom_site_fract_x
 _atom_site_fract_y
 _atom_site_fract_z
 _atom_site_occupancy
  Lu  Lu0  1  0.608653  0.027759  0.000000  1
  Lu  Lu1  1  0.972241  0.580894  0.000000  1
  Lu  Lu2  1  0.419106  0.391347  0.000000  1
  In  In3  1  0.252513  0.996001  0.500000  1
  In  In4  1  0.003999  0.256513  0.500000  1
  In  In5  1  0.743487  0.747487  0.500000  1
  Ni  Ni6  1  0.666667  0.333333  0.500000  1
  Ni  Ni7  1  0.000000  0.000000  0.000000  1
  Ag  Ag8  1  0.333333  0.666667  0.500000  1
