# generated using pymatgen
data_NdY15Cd3Ni4Ag
_symmetry_space_group_name_H-M   'P 1'
_cell_length_a   9.57885240
_cell_length_b   9.57845410
_cell_length_c   9.57848887
_cell_angle_alpha   60.02010563
_cell_angle_beta   60.01863386
_cell_angle_gamma   60.01548659
_symmetry_Int_Tables_number   1
_chemical_formula_structural   NdY15Cd3Ni4Ag
_chemical_formula_sum   'Nd1 Y15 Cd3 Ni4 Ag1'
_cell_volume   621.68276322
_cell_formula_units_Z   1
loop_
 _symmetry_equiv_pos_site_id
 _symmetry_equiv_pos_as_xyz
  1  'x, y, z'
loop_
 _atom_site_type_symbol
 _atom_site_label
 _atom_site_symmetry_multiplicity
 _atom_site_fract_x
 _atom_site_fract_y
 _atom_site_fract_z
 _atom_site_occupancy
  Nd  Nd0  1  0.596943  0.596926  0.596924  1
  Y  Y1  1  0.600755  0.600751  0.197497  1
  Y  Y2  1  0.600751  0.197501  0.600755  1
  Y  Y3  1  0.197498  0.600749  0.600759  1
  Y  Y4  1  0.062972  0.439758  0.439756  1
  Y  Y5  1  0.439017  0.061738  0.061734  1
  Y  Y6  1  0.439757  0.062978  0.439755  1
  Y  Y7  1  0.061735  0.439014  0.061739  1
  Y  Y8  1  0.439759  0.439758  0.062973  1
  Y  Y9  1  0.061732  0.061740  0.439015  1
  Y  Y10  1  0.184653  0.813402  0.813398  1
  Y  Y11  1  0.812693  0.186391  0.186392  1
  Y  Y12  1  0.813402  0.184653  0.813401  1
  Y  Y13  1  0.186391  0.812694  0.186393  1
  Y  Y14  1  0.813399  0.813402  0.184651  1
  Y  Y15  1  0.186390  0.186390  0.812694  1
  Cd  Cd16  1  0.832063  0.832064  0.507238  1
  Cd  Cd17  1  0.832066  0.507234  0.832062  1
  Cd  Cd18  1  0.507238  0.832065  0.832061  1
  Ni  Ni19  1  0.393782  0.393785  0.393795  1
  Ni  Ni20  1  0.390279  0.390277  0.824010  1
  Ni  Ni21  1  0.390273  0.824005  0.390279  1
  Ni  Ni22  1  0.823997  0.390272  0.390273  1
  Ag  Ag23  1  0.832457  0.832453  0.832449  1
