# generated using pymatgen
data_NaSr2IrO6
_symmetry_space_group_name_H-M   'P 1'
_cell_length_a   5.75222244
_cell_length_b   5.97736103
_cell_length_c   8.16101939
_cell_angle_alpha   90.01038649
_cell_angle_beta   90.05717133
_cell_angle_gamma   89.99737604
_symmetry_Int_Tables_number   1
_chemical_formula_structural   NaSr2IrO6
_chemical_formula_sum   'Na2 Sr4 Ir2 O12'
_cell_volume   280.60108449
_cell_formula_units_Z   2
loop_
 _symmetry_equiv_pos_site_id
 _symmetry_equiv_pos_as_xyz
  1  'x, y, z'
loop_
 _atom_site_type_symbol
 _atom_site_label
 _atom_site_symmetry_multiplicity
 _atom_site_fract_x
 _atom_site_fract_y
 _atom_site_fract_z
 _atom_site_occupancy
  Na  Na0  1  0.000000  0.000000  0.000000  1
  Na  Na1  1  0.500000  0.499999  0.500000  1
  Sr  Sr2  1  0.012585  0.557631  0.248836  1
  Sr  Sr3  1  0.487474  0.057677  0.251545  1
  Sr  Sr4  1  0.512525  0.942322  0.748455  1
  Sr  Sr5  1  0.987414  0.442370  0.751164  1
  Ir  Ir6  1  0.500000  0.499999  0.000001  1
  Ir  Ir7  1  0.000000  0.000000  0.499999  1
  O  O8  1  0.226784  0.320489  0.042778  1
  O  O9  1  0.327238  0.768489  0.050527  1
  O  O10  1  0.587582  0.471097  0.225874  1
  O  O11  1  0.912295  0.971066  0.274013  1
  O  O12  1  0.172722  0.268636  0.449580  1
  O  O13  1  0.273273  0.820465  0.457174  1
  O  O14  1  0.726728  0.179536  0.542826  1
  O  O15  1  0.827277  0.731365  0.550420  1
  O  O16  1  0.087705  0.028934  0.725987  1
  O  O17  1  0.412419  0.528902  0.774126  1
  O  O18  1  0.672761  0.231512  0.949473  1
  O  O19  1  0.773217  0.679510  0.957222  1
