# generated using pymatgen
data_Lu4AlGaTc6
_symmetry_space_group_name_H-M   'P 1'
_cell_length_a   5.29866400
_cell_length_b   5.29866469
_cell_length_c   8.87777200
_cell_angle_alpha   90.00000000
_cell_angle_beta   90.00000000
_cell_angle_gamma   119.99998323
_symmetry_Int_Tables_number   1
_chemical_formula_structural   Lu4AlGaTc6
_chemical_formula_sum   'Lu4 Al1 Ga1 Tc6'
_cell_volume   215.85768257
_cell_formula_units_Z   1
loop_
 _symmetry_equiv_pos_site_id
 _symmetry_equiv_pos_as_xyz
  1  'x, y, z'
loop_
 _atom_site_type_symbol
 _atom_site_label
 _atom_site_symmetry_multiplicity
 _atom_site_fract_x
 _atom_site_fract_y
 _atom_site_fract_z
 _atom_site_occupancy
  Lu  Lu0  1  0.333333  0.666667  0.432632  1
  Lu  Lu1  1  0.666667  0.333333  0.567368  1
  Lu  Lu2  1  0.666667  0.333333  0.932101  1
  Lu  Lu3  1  0.333333  0.666667  0.067899  1
  Al  Al4  1  0.000000  0.000000  0.000000  1
  Ga  Ga5  1  0.000000  0.000000  0.500000  1
  Tc  Tc6  1  0.828983  0.171017  0.249813  1
  Tc  Tc7  1  0.828983  0.657968  0.249813  1
  Tc  Tc8  1  0.342032  0.171017  0.249813  1
  Tc  Tc9  1  0.171017  0.828983  0.750187  1
  Tc  Tc10  1  0.171017  0.342032  0.750187  1
  Tc  Tc11  1  0.657968  0.828983  0.750187  1
