# generated using pymatgen
data_CsMnRhF6
_symmetry_space_group_name_H-M   'P 1'
_cell_length_a   7.68317957
_cell_length_b   7.68317877
_cell_length_c   7.68317987
_cell_angle_alpha   120.07354400
_cell_angle_beta   121.32671756
_cell_angle_gamma   88.79505880
_symmetry_Int_Tables_number   1
_chemical_formula_structural   CsMnRhF6
_chemical_formula_sum   'Cs2 Mn2 Rh2 F12'
_cell_volume   317.18796194
_cell_formula_units_Z   2
loop_
 _symmetry_equiv_pos_site_id
 _symmetry_equiv_pos_as_xyz
  1  'x, y, z'
loop_
 _atom_site_type_symbol
 _atom_site_label
 _atom_site_symmetry_multiplicity
 _atom_site_fract_x
 _atom_site_fract_y
 _atom_site_fract_z
 _atom_site_occupancy
  Cs  Cs0  1  0.366932  0.616932  0.750000  1
  Cs  Cs1  1  0.633068  0.383068  0.250000  1
  Mn  Mn2  1  0.000000  0.000000  0.500000  1
  Mn  Mn3  1  0.000000  0.500000  0.000000  1
  Rh  Rh4  1  0.000000  0.000000  0.000000  1
  Rh  Rh5  1  0.500000  0.000000  0.500000  1
  F  F6  1  0.319782  0.069782  0.250000  1
  F  F7  1  0.928745  0.678745  0.250000  1
  F  F8  1  0.335558  0.686510  0.263164  1
  F  F9  1  0.923346  0.072394  0.236836  1
  F  F10  1  0.335558  0.072394  0.649048  1
  F  F11  1  0.923346  0.686510  0.850952  1
  F  F12  1  0.680218  0.930218  0.750000  1
  F  F13  1  0.071255  0.321255  0.750000  1
  F  F14  1  0.664442  0.313490  0.736836  1
  F  F15  1  0.076654  0.927606  0.763164  1
  F  F16  1  0.664442  0.927606  0.350952  1
  F  F17  1  0.076654  0.313490  0.149048  1
