# generated using pymatgen
data_Tb6EuNiBr12
_symmetry_space_group_name_H-M   'P 1'
_cell_length_a   9.20588496
_cell_length_b   9.20588473
_cell_length_c   9.20588500
_cell_angle_alpha   106.02708703
_cell_angle_beta   106.02708662
_cell_angle_gamma   106.02708697
_symmetry_Int_Tables_number   1
_chemical_formula_structural   Tb6EuNiBr12
_chemical_formula_sum   'Tb6 Eu1 Ni1 Br12'
_cell_volume   666.23670820
_cell_formula_units_Z   1
loop_
 _symmetry_equiv_pos_site_id
 _symmetry_equiv_pos_as_xyz
  1  'x, y, z'
loop_
 _atom_site_type_symbol
 _atom_site_label
 _atom_site_symmetry_multiplicity
 _atom_site_fract_x
 _atom_site_fract_y
 _atom_site_fract_z
 _atom_site_occupancy
  Tb  Tb0  1  0.901837  0.694498  0.979702  1
  Tb  Tb1  1  0.979702  0.901837  0.694498  1
  Tb  Tb2  1  0.694498  0.979702  0.901837  1
  Tb  Tb3  1  0.098163  0.305502  0.020298  1
  Tb  Tb4  1  0.020298  0.098163  0.305502  1
  Tb  Tb5  1  0.305502  0.020298  0.098163  1
  Eu  Eu6  1  0.500000  0.500000  0.500000  1
  Ni  Ni7  1  0.000000  0.000000  0.000000  1
  Br  Br8  1  0.631214  0.857715  0.551368  1
  Br  Br9  1  0.551368  0.631214  0.857715  1
  Br  Br10  1  0.857715  0.551368  0.631214  1
  Br  Br11  1  0.368786  0.142285  0.448632  1
  Br  Br12  1  0.448632  0.368786  0.142285  1
  Br  Br13  1  0.142285  0.448632  0.368786  1
  Br  Br14  1  0.676893  0.073698  0.221736  1
  Br  Br15  1  0.221736  0.676893  0.073698  1
  Br  Br16  1  0.073698  0.221736  0.676893  1
  Br  Br17  1  0.323107  0.926302  0.778264  1
  Br  Br18  1  0.778264  0.323107  0.926302  1
  Br  Br19  1  0.926302  0.778264  0.323107  1
