# generated using pymatgen
data_Tm4Sc3AlPt4
_symmetry_space_group_name_H-M   'P 1'
_cell_length_a   4.48273900
_cell_length_b   6.96595814
_cell_length_c   8.25464900
_cell_angle_alpha   87.06656506
_cell_angle_beta   90.00000000
_cell_angle_gamma   90.00000000
_symmetry_Int_Tables_number   1
_chemical_formula_structural   Tm4Sc3AlPt4
_chemical_formula_sum   'Tm4 Sc3 Al1 Pt4'
_cell_volume   257.42663512
_cell_formula_units_Z   1
loop_
 _symmetry_equiv_pos_site_id
 _symmetry_equiv_pos_as_xyz
  1  'x, y, z'
loop_
 _atom_site_type_symbol
 _atom_site_label
 _atom_site_symmetry_multiplicity
 _atom_site_fract_x
 _atom_site_fract_y
 _atom_site_fract_z
 _atom_site_occupancy
  Tm  Tm0  1  0.250000  0.038716  0.670555  1
  Tm  Tm1  1  0.250000  0.520977  0.815554  1
  Tm  Tm2  1  0.750000  0.989369  0.341192  1
  Tm  Tm3  1  0.750000  0.468472  0.183061  1
  Sc  Sc4  1  0.250000  0.134254  0.070298  1
  Sc  Sc5  1  0.250000  0.639950  0.435885  1
  Sc  Sc6  1  0.750000  0.861645  0.928375  1
  Al  Al7  1  0.750000  0.360128  0.567877  1
  Pt  Pt8  1  0.250000  0.261804  0.383607  1
  Pt  Pt9  1  0.250000  0.744291  0.101645  1
  Pt  Pt10  1  0.750000  0.732761  0.615606  1
  Pt  Pt11  1  0.750000  0.247632  0.886347  1
