# generated using pymatgen
data_Rb2Ba(SeO4)2
_symmetry_space_group_name_H-M   'P 1'
_cell_length_a   8.38556518
_cell_length_b   8.38556428
_cell_length_c   8.38556478
_cell_angle_alpha   41.81044987
_cell_angle_beta   41.81045669
_cell_angle_gamma   41.81045353
_symmetry_Int_Tables_number   1
_chemical_formula_structural   Rb2Ba(SeO4)2
_chemical_formula_sum   'Rb2 Ba1 Se2 O8'
_cell_volume   236.97068945
_cell_formula_units_Z   1
loop_
 _symmetry_equiv_pos_site_id
 _symmetry_equiv_pos_as_xyz
  1  'x, y, z'
loop_
 _atom_site_type_symbol
 _atom_site_label
 _atom_site_symmetry_multiplicity
 _atom_site_fract_x
 _atom_site_fract_y
 _atom_site_fract_z
 _atom_site_occupancy
  Rb  Rb0  1  0.202400  0.202400  0.202400  1
  Rb  Rb1  1  0.797600  0.797600  0.797600  1
  Ba  Ba2  1  0.000000  0.000000  0.000000  1
  Se  Se3  1  0.401669  0.401669  0.401669  1
  Se  Se4  1  0.598331  0.598331  0.598331  1
  O  O5  1  0.272821  0.732099  0.272822  1
  O  O6  1  0.732099  0.272821  0.272822  1
  O  O7  1  0.727179  0.727179  0.267901  1
  O  O8  1  0.328670  0.328670  0.328670  1
  O  O9  1  0.671330  0.671330  0.671330  1
  O  O10  1  0.272822  0.272822  0.732099  1
  O  O11  1  0.727179  0.267901  0.727179  1
  O  O12  1  0.267901  0.727179  0.727179  1
