# generated using pymatgen
data_Cs3BiSbI9
_symmetry_space_group_name_H-M   'P 1'
_cell_length_a   8.63059666
_cell_length_b   8.63059752
_cell_length_c   21.88586000
_cell_angle_alpha   90.73586794
_cell_angle_beta   89.26413403
_cell_angle_gamma   60.01860667
_symmetry_Int_Tables_number   1
_chemical_formula_structural   Cs3BiSbI9
_chemical_formula_sum   'Cs6 Bi2 Sb2 I18'
_cell_volume   1411.60795638
_cell_formula_units_Z   2
loop_
 _symmetry_equiv_pos_site_id
 _symmetry_equiv_pos_as_xyz
  1  'x, y, z'
loop_
 _atom_site_type_symbol
 _atom_site_label
 _atom_site_symmetry_multiplicity
 _atom_site_fract_x
 _atom_site_fract_y
 _atom_site_fract_z
 _atom_site_occupancy
  Cs  Cs0  1  0.324211  0.337277  0.077456  1
  Cs  Cs1  1  0.337276  0.324212  0.422544  1
  Cs  Cs2  1  0.675339  0.663126  0.924207  1
  Cs  Cs3  1  0.663125  0.675340  0.575793  1
  Cs  Cs4  1  0.003081  0.003080  0.750000  1
  Cs  Cs5  1  0.997008  0.997009  0.250000  1
  Bi  Bi6  1  0.347075  0.326028  0.844080  1
  Bi  Bi7  1  0.326027  0.347075  0.655920  1
  Sb  Sb8  1  0.652839  0.674127  0.156900  1
  Sb  Sb9  1  0.674127  0.652839  0.343099  1
  I  I10  1  0.504591  0.000069  0.742882  1
  I  I11  1  0.000070  0.504591  0.757118  1
  I  I12  1  0.496565  0.997527  0.257098  1
  I  I13  1  0.997528  0.496565  0.242902  1
  I  I14  1  0.189460  0.146624  0.917593  1
  I  I15  1  0.146624  0.189460  0.582407  1
  I  I16  1  0.807063  0.849198  0.084345  1
  I  I17  1  0.849198  0.807064  0.415655  1
  I  I18  1  0.504877  0.504876  0.750000  1
  I  I19  1  0.496391  0.496392  0.250000  1
  I  I20  1  0.652736  0.183975  0.575186  1
  I  I21  1  0.183975  0.652736  0.924813  1
  I  I22  1  0.354570  0.812323  0.422524  1
  I  I23  1  0.812323  0.354569  0.077476  1
  I  I24  1  0.693402  0.149799  0.910666  1
  I  I25  1  0.149798  0.693403  0.589334  1
  I  I26  1  0.314836  0.845880  0.090928  1
  I  I27  1  0.845878  0.314838  0.409073  1
