# generated using pymatgen
data_HfP4SeO14
_symmetry_space_group_name_H-M   'P 1'
_cell_length_a   4.97064311
_cell_length_b   7.18448921
_cell_length_c   8.31407293
_cell_angle_alpha   91.64322400
_cell_angle_beta   92.90679957
_cell_angle_gamma   105.98499111
_symmetry_Int_Tables_number   1
_chemical_formula_structural   HfP4SeO14
_chemical_formula_sum   'Hf1 P4 Se1 O14'
_cell_volume   284.77945351
_cell_formula_units_Z   1
loop_
 _symmetry_equiv_pos_site_id
 _symmetry_equiv_pos_as_xyz
  1  'x, y, z'
loop_
 _atom_site_type_symbol
 _atom_site_label
 _atom_site_symmetry_multiplicity
 _atom_site_fract_x
 _atom_site_fract_y
 _atom_site_fract_z
 _atom_site_occupancy
  Hf  Hf0  1  0.500000  0.500000  0.500000  1
  P  P1  1  0.518915  0.134395  0.768757  1
  P  P2  1  0.119238  0.752024  0.697898  1
  P  P3  1  0.880762  0.247976  0.302102  1
  P  P4  1  0.481085  0.865605  0.231243  1
  Se  Se5  1  0.000000  0.000000  0.000000  1
  O  O6  1  0.369985  0.166077  0.921383  1
  O  O7  1  0.040745  0.761822  0.874764  1
  O  O8  1  0.788747  0.072964  0.803595  1
  O  O9  1  0.297793  0.612969  0.674572  1
  O  O10  1  0.579603  0.309640  0.664204  1
  O  O11  1  0.304584  0.965445  0.655731  1
  O  O12  1  0.866366  0.705207  0.577324  1
  O  O13  1  0.133634  0.294793  0.422676  1
  O  O14  1  0.695416  0.034555  0.344269  1
  O  O15  1  0.420397  0.690360  0.335796  1
  O  O16  1  0.702207  0.387031  0.325428  1
  O  O17  1  0.211253  0.927036  0.196405  1
  O  O18  1  0.959255  0.238178  0.125236  1
  O  O19  1  0.630015  0.833923  0.078617  1
