# generated using pymatgen
data_Tb8Ho2In8Ni3Rh
_symmetry_space_group_name_H-M   'P 1'
_cell_length_a   8.09124632
_cell_length_b   18.09113797
_cell_length_c   3.61209200
_cell_angle_alpha   90.00000000
_cell_angle_beta   90.00000000
_cell_angle_gamma   89.86083672
_symmetry_Int_Tables_number   1
_chemical_formula_structural   Tb8Ho2In8Ni3Rh
_chemical_formula_sum   'Tb8 Ho2 In8 Ni3 Rh1'
_cell_volume   528.73593845
_cell_formula_units_Z   1
loop_
 _symmetry_equiv_pos_site_id
 _symmetry_equiv_pos_as_xyz
  1  'x, y, z'
loop_
 _atom_site_type_symbol
 _atom_site_label
 _atom_site_symmetry_multiplicity
 _atom_site_fract_x
 _atom_site_fract_y
 _atom_site_fract_z
 _atom_site_occupancy
  Tb  Tb0  1  0.500228  0.501145  0.000000  1
  Tb  Tb1  1  0.999736  0.999189  0.000000  1
  Tb  Tb2  1  0.743464  0.281381  0.000000  1
  Tb  Tb3  1  0.256274  0.718985  0.000000  1
  Tb  Tb4  1  0.755432  0.778014  0.000000  1
  Tb  Tb5  1  0.248395  0.222259  0.000000  1
  Tb  Tb6  1  0.616825  0.086560  0.000000  1
  Tb  Tb7  1  0.382360  0.910420  0.000000  1
  Ho  Ho8  1  0.883616  0.588849  0.000000  1
  Ho  Ho9  1  0.115952  0.411856  0.000000  1
  In  In10  1  0.704982  0.929634  0.500000  1
  In  In11  1  0.292383  0.068204  0.500000  1
  In  In12  1  0.797691  0.434343  0.500000  1
  In  In13  1  0.201573  0.566957  0.500000  1
  In  In14  1  0.575360  0.651724  0.500000  1
  In  In15  1  0.425688  0.351451  0.500000  1
  In  In16  1  0.926803  0.153219  0.500000  1
  In  In17  1  0.073347  0.846049  0.500000  1
  Ni  Ni18  1  0.476882  0.802821  0.500000  1
  Ni  Ni19  1  0.977697  0.695167  0.500000  1
  Ni  Ni20  1  0.021384  0.305386  0.500000  1
  Rh  Rh21  1  0.523924  0.196389  0.500000  1
