# generated using pymatgen
data_LaNd5(PtI3)2
_symmetry_space_group_name_H-M   'P 1'
_cell_length_a   10.91682931
_cell_length_b   10.93187458
_cell_length_c   10.93187532
_cell_angle_alpha   109.52662740
_cell_angle_beta   109.56731883
_cell_angle_gamma   109.37553453
_symmetry_Int_Tables_number   1
_chemical_formula_structural   LaNd5(PtI3)2
_chemical_formula_sum   'La2 Nd10 Pt4 I12'
_cell_volume   1003.60632425
_cell_formula_units_Z   2
loop_
 _symmetry_equiv_pos_site_id
 _symmetry_equiv_pos_as_xyz
  1  'x, y, z'
loop_
 _atom_site_type_symbol
 _atom_site_label
 _atom_site_symmetry_multiplicity
 _atom_site_fract_x
 _atom_site_fract_y
 _atom_site_fract_z
 _atom_site_occupancy
  La  La0  1  0.270802  0.019077  0.040473  1
  La  La1  1  0.229198  0.269670  0.748275  1
  Nd  Nd2  1  0.458717  0.479463  0.230416  1
  Nd  Nd3  1  0.753579  0.230964  0.272644  1
  Nd  Nd4  1  0.746421  0.019065  0.477385  1
  Nd  Nd5  1  0.230391  0.459619  0.478039  1
  Nd  Nd6  1  0.269609  0.747648  0.229229  1
  Nd  Nd7  1  0.041283  0.271698  0.020746  1
  Nd  Nd8  1  0.021355  0.042580  0.270925  1
  Nd  Nd9  1  0.478645  0.749570  0.021224  1
  Nd  Nd10  1  0.481552  0.230623  0.461425  1
  Nd  Nd11  1  0.018448  0.479873  0.749071  1
  Pt  Pt12  1  0.250951  0.250196  0.250792  1
  Pt  Pt13  1  0.499953  0.000607  0.250734  1
  Pt  Pt14  1  0.000047  0.250782  0.500654  1
  Pt  Pt15  1  0.249049  0.499841  0.999245  1
  I  I16  1  0.250021  0.755633  0.739465  1
  I  I17  1  0.518014  0.511268  0.757784  1
  I  I18  1  0.981986  0.739770  0.993254  1
  I  I19  1  0.741860  0.249889  0.758032  1
  I  I20  1  0.986282  0.981979  0.739877  1
  I  I21  1  0.249979  0.989444  0.505612  1
  I  I22  1  0.758140  0.516172  0.508029  1
  I  I23  1  0.513718  0.253595  0.995697  1
  I  I24  1  0.757639  0.742370  0.250026  1
  I  I25  1  0.742361  0.992387  0.984731  1
  I  I26  1  0.991795  0.508183  0.249829  1
  I  I27  1  0.508205  0.758034  0.516388  1
