# generated using pymatgen
data_CaPr2Tm3S8
_symmetry_space_group_name_H-M   'P 1'
_cell_length_a   3.87222100
_cell_length_b   12.99712700
_cell_length_c   13.14540400
_cell_angle_alpha   90.00000000
_cell_angle_beta   90.00000000
_cell_angle_gamma   90.00000000
_symmetry_Int_Tables_number   1
_chemical_formula_structural   CaPr2Tm3S8
_chemical_formula_sum   'Ca2 Pr4 Tm6 S16'
_cell_volume   661.57858130
_cell_formula_units_Z   2
loop_
 _symmetry_equiv_pos_site_id
 _symmetry_equiv_pos_as_xyz
  1  'x, y, z'
loop_
 _atom_site_type_symbol
 _atom_site_label
 _atom_site_symmetry_multiplicity
 _atom_site_fract_x
 _atom_site_fract_y
 _atom_site_fract_z
 _atom_site_occupancy
  Ca  Ca0  1  0.250000  0.103397  0.418726  1
  Ca  Ca1  1  0.250000  0.603397  0.081274  1
  Pr  Pr2  1  0.250000  0.368511  0.587115  1
  Pr  Pr3  1  0.250000  0.868511  0.912885  1
  Pr  Pr4  1  0.750000  0.638939  0.411003  1
  Pr  Pr5  1  0.750000  0.138939  0.088997  1
  Tm  Tm6  1  0.750000  0.892723  0.578677  1
  Tm  Tm7  1  0.750000  0.392723  0.921323  1
  Tm  Tm8  1  0.250000  0.143916  0.795957  1
  Tm  Tm9  1  0.250000  0.643916  0.704043  1
  Tm  Tm10  1  0.750000  0.857169  0.204406  1
  Tm  Tm11  1  0.750000  0.357169  0.295594  1
  S  S12  1  0.250000  0.223742  0.234672  1
  S  S13  1  0.250000  0.723742  0.265328  1
  S  S14  1  0.750000  0.780456  0.762579  1
  S  S15  1  0.750000  0.280456  0.737421  1
  S  S16  1  0.250000  0.254099  0.968794  1
  S  S17  1  0.250000  0.754099  0.531206  1
  S  S18  1  0.750000  0.752006  0.027380  1
  S  S19  1  0.750000  0.252006  0.472620  1
  S  S20  1  0.250000  0.474169  0.381611  1
  S  S21  1  0.250000  0.974169  0.118389  1
  S  S22  1  0.750000  0.533110  0.613576  1
  S  S23  1  0.750000  0.033110  0.886424  1
  S  S24  1  0.250000  0.023991  0.630145  1
  S  S25  1  0.250000  0.523991  0.869855  1
  S  S26  1  0.750000  0.953773  0.385321  1
  S  S27  1  0.750000  0.453773  0.114679  1
