# generated using pymatgen
data_Dy5ErAl24Co3Os5
_symmetry_space_group_name_H-M   'P 1'
_cell_length_a   8.73771230
_cell_length_b   8.77787625
_cell_length_c   9.46746409
_cell_angle_alpha   90.00294750
_cell_angle_beta   89.71005550
_cell_angle_gamma   120.12625189
_symmetry_Int_Tables_number   1
_chemical_formula_structural   Dy5ErAl24Co3Os5
_chemical_formula_sum   'Dy5 Er1 Al24 Co3 Os5'
_cell_volume   628.04421447
_cell_formula_units_Z   1
loop_
 _symmetry_equiv_pos_site_id
 _symmetry_equiv_pos_as_xyz
  1  'x, y, z'
loop_
 _atom_site_type_symbol
 _atom_site_label
 _atom_site_symmetry_multiplicity
 _atom_site_fract_x
 _atom_site_fract_y
 _atom_site_fract_z
 _atom_site_occupancy
  Dy  Dy0  1  0.802804  0.611936  0.749369  1
  Dy  Dy1  1  0.610500  0.805222  0.247679  1
  Dy  Dy2  1  0.389432  0.194645  0.752302  1
  Dy  Dy3  1  0.197120  0.809213  0.250619  1
  Dy  Dy4  1  0.802811  0.190757  0.749397  1
  Er  Er5  1  0.198204  0.389417  0.250925  1
  Al  Al6  1  0.326192  0.662991  0.016119  1
  Al  Al7  1  0.673460  0.336693  0.984346  1
  Al  Al8  1  0.666655  0.333272  0.514682  1
  Al  Al9  1  0.333325  0.666581  0.484998  1
  Al  Al10  1  0.158895  0.319114  0.576105  1
  Al  Al11  1  0.841063  0.680761  0.423346  1
  Al  Al12  1  0.680530  0.840257  0.574609  1
  Al  Al13  1  0.841737  0.679535  0.074915  1
  Al  Al14  1  0.319184  0.159814  0.425058  1
  Al  Al15  1  0.158131  0.320378  0.925688  1
  Al  Al16  1  0.158949  0.839697  0.576423  1
  Al  Al17  1  0.321347  0.160948  0.075586  1
  Al  Al18  1  0.841487  0.160425  0.423212  1
  Al  Al19  1  0.678268  0.839105  0.924741  1
  Al  Al20  1  0.842168  0.162368  0.075042  1
  Al  Al21  1  0.158230  0.837783  0.925249  1
  Al  Al22  1  0.564060  0.125163  0.248990  1
  Al  Al23  1  0.435962  0.874840  0.750959  1
  Al  Al24  1  0.883379  0.441367  0.243943  1
  Al  Al25  1  0.117175  0.558494  0.755898  1
  Al  Al26  1  0.563591  0.438808  0.249037  1
  Al  Al27  1  0.435895  0.560987  0.751019  1
  Al  Al28  1  0.001395  0.001530  0.250105  1
  Al  Al29  1  0.999080  0.999491  0.749858  1
  Co  Co30  1  0.000068  0.499787  0.000126  1
  Co  Co31  1  0.999841  0.999726  0.999934  1
  Co  Co32  1  0.999877  0.999766  0.500010  1
  Os  Os33  1  0.499902  0.999847  0.000076  1
  Os  Os34  1  0.499962  0.999903  0.499875  1
  Os  Os35  1  0.499475  0.499794  0.000372  1
  Os  Os36  1  0.000208  0.499797  0.499653  1
  Os  Os37  1  0.499639  0.499789  0.499734  1
