# generated using pymatgen
data_Tb5Tm5(LuOs2)2
_symmetry_space_group_name_H-M   'P 1'
_cell_length_a   6.26424488
_cell_length_b   7.40891344
_cell_length_c   8.92414817
_cell_angle_alpha   89.95381779
_cell_angle_beta   89.76323718
_cell_angle_gamma   89.94502996
_symmetry_Int_Tables_number   1
_chemical_formula_structural   Tb5Tm5(LuOs2)2
_chemical_formula_sum   'Tb5 Tm5 Lu2 Os4'
_cell_volume   414.17699436
_cell_formula_units_Z   1
loop_
 _symmetry_equiv_pos_site_id
 _symmetry_equiv_pos_as_xyz
  1  'x, y, z'
loop_
 _atom_site_type_symbol
 _atom_site_label
 _atom_site_symmetry_multiplicity
 _atom_site_fract_x
 _atom_site_fract_y
 _atom_site_fract_z
 _atom_site_occupancy
  Tb  Tb0  1  0.164487  0.174778  0.062799  1
  Tb  Tb1  1  0.871423  0.540094  0.251084  1
  Tb  Tb2  1  0.629618  0.038584  0.251664  1
  Tb  Tb3  1  0.127284  0.461684  0.748216  1
  Tb  Tb4  1  0.372070  0.960182  0.748387  1
  Tm  Tm5  1  0.337167  0.673617  0.063302  1
  Tm  Tm6  1  0.162982  0.172921  0.438695  1
  Tm  Tm7  1  0.662329  0.326498  0.562681  1
  Tm  Tm8  1  0.835419  0.825143  0.935685  1
  Tm  Tm9  1  0.663846  0.326504  0.936461  1
  Lu  Lu10  1  0.836349  0.825669  0.562649  1
  Lu  Lu11  1  0.336773  0.674558  0.436807  1
  Os  Os12  1  0.044455  0.880342  0.251982  1
  Os  Os13  1  0.457595  0.382850  0.252157  1
  Os  Os14  1  0.954112  0.117639  0.747204  1
  Os  Os15  1  0.544092  0.618939  0.750230  1
