# generated using pymatgen
data_Tb3ThAl15(GaIr2)3
_symmetry_space_group_name_H-M   'P 1'
_cell_length_a   7.57668510
_cell_length_b   7.58916017
_cell_length_c   9.55747800
_cell_angle_alpha   90.00000000
_cell_angle_beta   90.00000000
_cell_angle_gamma   119.54068271
_symmetry_Int_Tables_number   1
_chemical_formula_structural   Tb3ThAl15(GaIr2)3
_chemical_formula_sum   'Tb3 Th1 Al15 Ga3 Ir6'
_cell_volume   478.12166948
_cell_formula_units_Z   1
loop_
 _symmetry_equiv_pos_site_id
 _symmetry_equiv_pos_as_xyz
  1  'x, y, z'
loop_
 _atom_site_type_symbol
 _atom_site_label
 _atom_site_symmetry_multiplicity
 _atom_site_fract_x
 _atom_site_fract_y
 _atom_site_fract_z
 _atom_site_occupancy
  Tb  Tb0  1  0.001772  0.328385  0.750000  1
  Tb  Tb1  1  0.671049  0.994630  0.250000  1
  Tb  Tb2  1  0.328302  0.002901  0.750000  1
  Th  Th3  1  0.994601  0.670149  0.250000  1
  Al  Al4  1  0.871160  0.873151  0.750000  1
  Al  Al5  1  0.002783  0.331013  0.070337  1
  Al  Al6  1  0.999281  0.664604  0.919974  1
  Al  Al7  1  0.999281  0.664604  0.580026  1
  Al  Al8  1  0.339496  0.006090  0.429705  1
  Al  Al9  1  0.002783  0.331013  0.429663  1
  Al  Al10  1  0.664801  0.000275  0.575619  1
  Al  Al11  1  0.664801  0.000275  0.924381  1
  Al  Al12  1  0.339496  0.006090  0.070295  1
  Al  Al13  1  0.332414  0.332545  0.561494  1
  Al  Al14  1  0.663037  0.666144  0.458917  1
  Al  Al15  1  0.663037  0.666144  0.041083  1
  Al  Al16  1  0.332414  0.332545  0.938506  1
  Al  Al17  1  0.659411  0.449926  0.750000  1
  Al  Al18  1  0.450218  0.661885  0.750000  1
  Ga  Ga19  1  0.130814  0.133210  0.250000  1
  Ga  Ga20  1  0.345636  0.548385  0.250000  1
  Ga  Ga21  1  0.542713  0.336426  0.250000  1
  Ir  Ir22  1  0.673213  0.330302  0.998883  1
  Ir  Ir23  1  0.327010  0.671341  0.998851  1
  Ir  Ir24  1  0.327010  0.671341  0.501149  1
  Ir  Ir25  1  0.673213  0.330302  0.501117  1
  Ir  Ir26  1  0.000127  0.998162  0.998565  1
  Ir  Ir27  1  0.000127  0.998162  0.501435  1
