# generated using pymatgen
data_TbSc2Ga5Pt
_symmetry_space_group_name_H-M   'P 1'
_cell_length_a   6.80443100
_cell_length_b   6.73389237
_cell_length_c   4.16568500
_cell_angle_alpha   90.00000000
_cell_angle_beta   90.00000000
_cell_angle_gamma   119.65766015
_symmetry_Int_Tables_number   1
_chemical_formula_structural   TbSc2Ga5Pt
_chemical_formula_sum   'Tb1 Sc2 Ga5 Pt1'
_cell_volume   165.86810826
_cell_formula_units_Z   1
loop_
 _symmetry_equiv_pos_site_id
 _symmetry_equiv_pos_as_xyz
  1  'x, y, z'
loop_
 _atom_site_type_symbol
 _atom_site_label
 _atom_site_symmetry_multiplicity
 _atom_site_fract_x
 _atom_site_fract_y
 _atom_site_fract_z
 _atom_site_occupancy
  Tb  Tb0  1  0.000000  0.579525  0.000000  1
  Sc  Sc1  1  0.583316  0.996991  0.000000  1
  Sc  Sc2  1  0.416685  0.413675  0.000000  1
  Ga  Ga3  1  0.247057  0.001900  0.499999  1
  Ga  Ga4  1  0.000000  0.244639  0.499999  1
  Ga  Ga5  1  0.657117  0.326846  0.499999  1
  Ga  Ga6  1  0.342883  0.669730  0.499999  1
  Ga  Ga7  1  0.752943  0.754844  0.499999  1
  Pt  Pt8  1  0.000000  0.011849  0.000000  1
