# generated using pymatgen
data_Ac3Er(NiP)4
_symmetry_space_group_name_H-M   'P 1'
_cell_length_a   4.02615700
_cell_length_b   4.02615704
_cell_length_c   16.76214000
_cell_angle_alpha   90.00000000
_cell_angle_beta   90.00000000
_cell_angle_gamma   120.00000788
_symmetry_Int_Tables_number   1
_chemical_formula_structural   Ac3Er(NiP)4
_chemical_formula_sum   'Ac3 Er1 Ni4 P4'
_cell_volume   235.31059264
_cell_formula_units_Z   1
loop_
 _symmetry_equiv_pos_site_id
 _symmetry_equiv_pos_as_xyz
  1  'x, y, z'
loop_
 _atom_site_type_symbol
 _atom_site_label
 _atom_site_symmetry_multiplicity
 _atom_site_fract_x
 _atom_site_fract_y
 _atom_site_fract_z
 _atom_site_occupancy
  Ac  Ac0  1  0.000000  0.000000  0.511754  1
  Ac  Ac1  1  0.000000  0.000000  0.988246  1
  Ac  Ac2  1  0.000000  0.000000  0.250000  1
  Er  Er3  1  0.000000  0.000000  0.750000  1
  Ni  Ni4  1  0.333333  0.666667  0.383817  1
  Ni  Ni5  1  0.666667  0.333333  0.647113  1
  Ni  Ni6  1  0.666667  0.333333  0.852887  1
  Ni  Ni7  1  0.333333  0.666667  0.116183  1
  P  P8  1  0.333333  0.666667  0.861751  1
  P  P9  1  0.666667  0.333333  0.122877  1
  P  P10  1  0.666667  0.333333  0.377123  1
  P  P11  1  0.333333  0.666667  0.638249  1
