# generated using pymatgen
data_Dy8CuSi12RhAu2
_symmetry_space_group_name_H-M   'P 1'
_cell_length_a   8.14665200
_cell_length_b   8.14665186
_cell_length_c   8.17407900
_cell_angle_alpha   90.00000000
_cell_angle_beta   90.00000000
_cell_angle_gamma   119.99999246
_symmetry_Int_Tables_number   1
_chemical_formula_structural   Dy8CuSi12RhAu2
_chemical_formula_sum   'Dy8 Cu1 Si12 Rh1 Au2'
_cell_volume   469.81601598
_cell_formula_units_Z   1
loop_
 _symmetry_equiv_pos_site_id
 _symmetry_equiv_pos_as_xyz
  1  'x, y, z'
loop_
 _atom_site_type_symbol
 _atom_site_label
 _atom_site_symmetry_multiplicity
 _atom_site_fract_x
 _atom_site_fract_y
 _atom_site_fract_z
 _atom_site_occupancy
  Dy  Dy0  1  0.000000  0.000000  0.249709  1
  Dy  Dy1  1  0.000000  0.000000  0.750247  1
  Dy  Dy2  1  0.993697  0.496848  0.251636  1
  Dy  Dy3  1  0.503152  0.496848  0.251636  1
  Dy  Dy4  1  0.504462  0.008924  0.748281  1
  Dy  Dy5  1  0.503152  0.006303  0.251636  1
  Dy  Dy6  1  0.504462  0.495538  0.748281  1
  Dy  Dy7  1  0.991076  0.495538  0.748281  1
  Cu  Cu8  1  0.666667  0.333333  0.002281  1
  Si  Si9  1  0.162077  0.324154  0.000227  1
  Si  Si10  1  0.675846  0.837923  0.000227  1
  Si  Si11  1  0.161529  0.323058  0.500444  1
  Si  Si12  1  0.340574  0.170288  0.999992  1
  Si  Si13  1  0.162077  0.837923  0.000227  1
  Si  Si14  1  0.676942  0.838471  0.500444  1
  Si  Si15  1  0.829712  0.659426  0.999992  1
  Si  Si16  1  0.337623  0.168812  0.499196  1
  Si  Si17  1  0.161529  0.838471  0.500444  1
  Si  Si18  1  0.831188  0.662377  0.499196  1
  Si  Si19  1  0.829712  0.170288  0.999992  1
  Si  Si20  1  0.831188  0.168812  0.499196  1
  Rh  Rh21  1  0.666667  0.333333  0.499030  1
  Au  Au22  1  0.333333  0.666667  0.997370  1
  Au  Au23  1  0.333333  0.666667  0.502029  1
