# generated using pymatgen
data_LiYb4IrC8
_symmetry_space_group_name_H-M   'P 1'
_cell_length_a   6.85748611
_cell_length_b   6.85748617
_cell_length_c   6.85748432
_cell_angle_alpha   134.90049644
_cell_angle_beta   109.28103918
_cell_angle_gamma   87.93233183
_symmetry_Int_Tables_number   1
_chemical_formula_structural   LiYb4IrC8
_chemical_formula_sum   'Li1 Yb4 Ir1 C8'
_cell_volume   206.03555793
_cell_formula_units_Z   1
loop_
 _symmetry_equiv_pos_site_id
 _symmetry_equiv_pos_as_xyz
  1  'x, y, z'
loop_
 _atom_site_type_symbol
 _atom_site_label
 _atom_site_symmetry_multiplicity
 _atom_site_fract_x
 _atom_site_fract_y
 _atom_site_fract_z
 _atom_site_occupancy
  Li  Li0  1  0.000000  0.250000  0.250000  1
  Yb  Yb1  1  0.198833  0.345044  0.839046  1
  Yb  Yb2  1  0.801167  0.640213  0.146211  1
  Yb  Yb3  1  0.505997  0.859787  0.660954  1
  Yb  Yb4  1  0.494003  0.154956  0.353789  1
  Ir  Ir5  1  0.000000  0.750000  0.750000  1
  C  C6  1  0.789757  0.134574  0.670654  1
  C  C7  1  0.210243  0.880896  0.344816  1
  C  C8  1  0.463919  0.619104  0.829346  1
  C  C9  1  0.536081  0.365426  0.155184  1
  C  C10  1  0.895827  0.027284  0.752196  1
  C  C11  1  0.104173  0.856370  0.131457  1
  C  C12  1  0.275087  0.643630  0.747804  1
  C  C13  1  0.724913  0.472716  0.368543  1
