# generated using pymatgen
data_AcNd15(HoSn4)4
_symmetry_space_group_name_H-M   'P 1'
_cell_length_a   8.26315062
_cell_length_b   8.39754545
_cell_length_c   15.98036143
_cell_angle_alpha   90.02103869
_cell_angle_beta   89.90777356
_cell_angle_gamma   89.73004843
_symmetry_Int_Tables_number   1
_chemical_formula_structural   AcNd15(HoSn4)4
_chemical_formula_sum   'Ac1 Nd15 Ho4 Sn16'
_cell_volume   1108.86637942
_cell_formula_units_Z   1
loop_
 _symmetry_equiv_pos_site_id
 _symmetry_equiv_pos_as_xyz
  1  'x, y, z'
loop_
 _atom_site_type_symbol
 _atom_site_label
 _atom_site_symmetry_multiplicity
 _atom_site_fract_x
 _atom_site_fract_y
 _atom_site_fract_z
 _atom_site_occupancy
  Ac  Ac0  1  0.017817  0.181775  0.403718  1
  Nd  Nd1  1  0.367594  0.837199  0.120406  1
  Nd  Nd2  1  0.133252  0.338028  0.621190  1
  Nd  Nd3  1  0.481633  0.680554  0.901338  1
  Nd  Nd4  1  0.867657  0.662425  0.119830  1
  Nd  Nd5  1  0.132283  0.337389  0.879435  1
  Nd  Nd6  1  0.481663  0.680773  0.598899  1
  Nd  Nd7  1  0.632753  0.163041  0.621492  1
  Nd  Nd8  1  0.866603  0.662170  0.379460  1
  Nd  Nd9  1  0.018279  0.180783  0.098489  1
  Nd  Nd10  1  0.981699  0.819369  0.901324  1
  Nd  Nd11  1  0.632337  0.162805  0.879161  1
  Nd  Nd12  1  0.518291  0.319755  0.097824  1
  Nd  Nd13  1  0.368028  0.837193  0.378471  1
  Nd  Nd14  1  0.982064  0.818156  0.599126  1
  Nd  Nd15  1  0.518746  0.320629  0.401230  1
  Ho  Ho16  1  0.199691  0.503221  0.249142  1
  Ho  Ho17  1  0.698248  0.997227  0.249134  1
  Ho  Ho18  1  0.301459  0.002141  0.750246  1
  Ho  Ho19  1  0.800966  0.497752  0.749968  1
  Sn  Sn20  1  0.790423  0.466626  0.544830  1
  Sn  Sn21  1  0.701664  0.960409  0.457894  1
  Sn  Sn22  1  0.675300  0.853807  0.750117  1
  Sn  Sn23  1  0.210787  0.539057  0.457241  1
  Sn  Sn24  1  0.292009  0.034388  0.956096  1
  Sn  Sn25  1  0.819875  0.356686  0.247025  1
  Sn  Sn26  1  0.791605  0.465267  0.955925  1
  Sn  Sn27  1  0.564809  0.617056  0.249763  1
  Sn  Sn28  1  0.208657  0.534642  0.043649  1
  Sn  Sn29  1  0.434676  0.383575  0.750296  1
  Sn  Sn30  1  0.175930  0.645846  0.750038  1
  Sn  Sn31  1  0.934980  0.116898  0.750026  1
  Sn  Sn32  1  0.296752  0.031336  0.546424  1
  Sn  Sn33  1  0.708283  0.965546  0.043686  1
  Sn  Sn34  1  0.328084  0.146244  0.248473  1
  Sn  Sn35  1  0.065100  0.880233  0.248633  1
