# generated using pymatgen
data_Ho12Tc3Au
_symmetry_space_group_name_H-M   'P 1'
_cell_length_a   6.32073266
_cell_length_b   7.39438158
_cell_length_c   9.19404700
_cell_angle_alpha   90.00000000
_cell_angle_beta   90.00000000
_cell_angle_gamma   89.78486740
_symmetry_Int_Tables_number   1
_chemical_formula_structural   Ho12Tc3Au
_chemical_formula_sum   'Ho12 Tc3 Au1'
_cell_volume   429.70750475
_cell_formula_units_Z   1
loop_
 _symmetry_equiv_pos_site_id
 _symmetry_equiv_pos_as_xyz
  1  'x, y, z'
loop_
 _atom_site_type_symbol
 _atom_site_label
 _atom_site_symmetry_multiplicity
 _atom_site_fract_x
 _atom_site_fract_y
 _atom_site_fract_z
 _atom_site_occupancy
  Ho  Ho0  1  0.326910  0.675673  0.068870  1
  Ho  Ho1  1  0.166930  0.179562  0.435245  1
  Ho  Ho2  1  0.669179  0.312210  0.554868  1
  Ho  Ho3  1  0.842366  0.830692  0.942548  1
  Ho  Ho4  1  0.669179  0.312210  0.945132  1
  Ho  Ho5  1  0.842366  0.830692  0.557452  1
  Ho  Ho6  1  0.326910  0.675673  0.431130  1
  Ho  Ho7  1  0.166930  0.179562  0.064755  1
  Ho  Ho8  1  0.869372  0.542757  0.250000  1
  Ho  Ho9  1  0.624655  0.037391  0.250000  1
  Ho  Ho10  1  0.118792  0.454358  0.750000  1
  Ho  Ho11  1  0.372033  0.973848  0.750000  1
  Tc  Tc12  1  0.036368  0.886336  0.250000  1
  Tc  Tc13  1  0.465892  0.386221  0.250000  1
  Tc  Tc14  1  0.953605  0.112956  0.750000  1
  Au  Au15  1  0.548512  0.609858  0.750000  1
