# generated using pymatgen
data_Pr16MgIn3Ru4
_symmetry_space_group_name_H-M   'P 1'
_cell_length_a   10.04258451
_cell_length_b   10.04243900
_cell_length_c   10.04243900
_cell_angle_alpha   59.99999671
_cell_angle_beta   60.00047600
_cell_angle_gamma   60.00048313
_symmetry_Int_Tables_number   1
_chemical_formula_structural   Pr16MgIn3Ru4
_chemical_formula_sum   'Pr16 Mg1 In3 Ru4'
_cell_volume   716.16326280
_cell_formula_units_Z   1
loop_
 _symmetry_equiv_pos_site_id
 _symmetry_equiv_pos_as_xyz
  1  'x, y, z'
loop_
 _atom_site_type_symbol
 _atom_site_label
 _atom_site_symmetry_multiplicity
 _atom_site_fract_x
 _atom_site_fract_y
 _atom_site_fract_z
 _atom_site_occupancy
  Pr  Pr0  1  0.595924  0.595692  0.595692  1
  Pr  Pr1  1  0.595924  0.595692  0.212693  1
  Pr  Pr2  1  0.595924  0.212693  0.595692  1
  Pr  Pr3  1  0.209551  0.596817  0.596817  1
  Pr  Pr4  1  0.056991  0.442481  0.442481  1
  Pr  Pr5  1  0.439927  0.060184  0.060184  1
  Pr  Pr6  1  0.439927  0.060184  0.439705  1
  Pr  Pr7  1  0.056991  0.442481  0.058046  1
  Pr  Pr8  1  0.439927  0.439705  0.060184  1
  Pr  Pr9  1  0.056991  0.058046  0.442481  1
  Pr  Pr10  1  0.190352  0.810014  0.810014  1
  Pr  Pr11  1  0.810020  0.190015  0.190015  1
  Pr  Pr12  1  0.810020  0.190015  0.809952  1
  Pr  Pr13  1  0.190352  0.810014  0.189619  1
  Pr  Pr14  1  0.810020  0.809952  0.190015  1
  Pr  Pr15  1  0.190352  0.189619  0.810014  1
  Mg  Mg16  1  0.524836  0.825054  0.825054  1
  In  In17  1  0.829539  0.830423  0.830423  1
  In  In18  1  0.829539  0.830423  0.509614  1
  In  In19  1  0.829539  0.509614  0.830423  1
  Ru  Ru20  1  0.387658  0.388427  0.388427  1
  Ru  Ru21  1  0.387658  0.388427  0.835486  1
  Ru  Ru22  1  0.387658  0.835486  0.388427  1
  Ru  Ru23  1  0.834377  0.388541  0.388541  1
