# generated using pymatgen
data_RbTh2S3
_symmetry_space_group_name_H-M   'P 1'
_cell_length_a   4.12351100
_cell_length_b   4.12351137
_cell_length_c   11.08520000
_cell_angle_alpha   90.00000000
_cell_angle_beta   90.00000000
_cell_angle_gamma   119.99998897
_symmetry_Int_Tables_number   1
_chemical_formula_structural   RbTh2S3
_chemical_formula_sum   'Rb1 Th2 S3'
_cell_volume   163.23322737
_cell_formula_units_Z   1
loop_
 _symmetry_equiv_pos_site_id
 _symmetry_equiv_pos_as_xyz
  1  'x, y, z'
loop_
 _atom_site_type_symbol
 _atom_site_label
 _atom_site_symmetry_multiplicity
 _atom_site_fract_x
 _atom_site_fract_y
 _atom_site_fract_z
 _atom_site_occupancy
  Rb  Rb0  1  0.000000  0.000000  0.000000  1
  Th  Th1  1  0.333333  0.666667  0.640372  1
  Th  Th2  1  0.666667  0.333333  0.359628  1
  S  S3  1  0.333333  0.666667  0.213129  1
  S  S4  1  0.666667  0.333333  0.786871  1
  S  S5  1  0.000000  0.000000  0.500000  1
