# generated using pymatgen
data_Th4Al4Fe3Ir
_symmetry_space_group_name_H-M   'P 1'
_cell_length_a   6.81176465
_cell_length_b   4.16353300
_cell_length_c   8.16929307
_cell_angle_alpha   90.00000000
_cell_angle_beta   90.54129497
_cell_angle_gamma   90.00000000
_symmetry_Int_Tables_number   1
_chemical_formula_structural   Th4Al4Fe3Ir
_chemical_formula_sum   'Th4 Al4 Fe3 Ir1'
_cell_volume   231.67903772
_cell_formula_units_Z   1
loop_
 _symmetry_equiv_pos_site_id
 _symmetry_equiv_pos_as_xyz
  1  'x, y, z'
loop_
 _atom_site_type_symbol
 _atom_site_label
 _atom_site_symmetry_multiplicity
 _atom_site_fract_x
 _atom_site_fract_y
 _atom_site_fract_z
 _atom_site_occupancy
  Th  Th0  1  0.966293  0.250000  0.170491  1
  Th  Th1  1  0.450969  0.250000  0.319390  1
  Th  Th2  1  0.038465  0.750000  0.819185  1
  Th  Th3  1  0.532931  0.750000  0.686315  1
  Al  Al4  1  0.876319  0.250000  0.558672  1
  Al  Al5  1  0.372172  0.250000  0.944468  1
  Al  Al6  1  0.133760  0.750000  0.446076  1
  Al  Al7  1  0.626013  0.750000  0.055279  1
  Fe  Fe8  1  0.744025  0.250000  0.873981  1
  Fe  Fe9  1  0.245408  0.250000  0.626401  1
  Fe  Fe10  1  0.254537  0.750000  0.125477  1
  Ir  Ir11  1  0.759109  0.750000  0.374265  1
