# generated using pymatgen
data_La12Cu2TcIr
_symmetry_space_group_name_H-M   'P 1'
_cell_length_a   6.62823976
_cell_length_b   7.43418674
_cell_length_c   10.17610700
_cell_angle_alpha   90.00000000
_cell_angle_beta   90.00000000
_cell_angle_gamma   89.48565782
_symmetry_Int_Tables_number   1
_chemical_formula_structural   La12Cu2TcIr
_chemical_formula_sum   'La12 Cu2 Tc1 Ir1'
_cell_volume   501.41329059
_cell_formula_units_Z   1
loop_
 _symmetry_equiv_pos_site_id
 _symmetry_equiv_pos_as_xyz
  1  'x, y, z'
loop_
 _atom_site_type_symbol
 _atom_site_label
 _atom_site_symmetry_multiplicity
 _atom_site_fract_x
 _atom_site_fract_y
 _atom_site_fract_z
 _atom_site_occupancy
  La  La0  1  0.335776  0.669536  0.068439  1
  La  La1  1  0.176101  0.179301  0.435281  1
  La  La2  1  0.660720  0.328441  0.562837  1
  La  La3  1  0.830549  0.822140  0.935467  1
  La  La4  1  0.660720  0.328441  0.937163  1
  La  La5  1  0.830549  0.822140  0.564533  1
  La  La6  1  0.335776  0.669536  0.431561  1
  La  La7  1  0.176101  0.179301  0.064719  1
  La  La8  1  0.850536  0.524827  0.250000  1
  La  La9  1  0.628806  0.051068  0.250000  1
  La  La10  1  0.151173  0.472975  0.750000  1
  La  La11  1  0.364000  0.952864  0.750000  1
  Cu  Cu12  1  0.056952  0.884823  0.250000  1
  Cu  Cu13  1  0.936319  0.116681  0.750000  1
  Tc  Tc14  1  0.428740  0.379059  0.250000  1
  Ir  Ir15  1  0.577182  0.618868  0.750000  1
