# generated using pymatgen
data_Al3Si(PPd6)2
_symmetry_space_group_name_H-M   'P 1'
_cell_length_a   3.41652000
_cell_length_b   6.70140160
_cell_length_c   11.55969529
_cell_angle_alpha   89.96897363
_cell_angle_beta   90.00000000
_cell_angle_gamma   90.00000000
_symmetry_Int_Tables_number   1
_chemical_formula_structural   Al3Si(PPd6)2
_chemical_formula_sum   'Al3 Si1 P2 Pd12'
_cell_volume   264.66464796
_cell_formula_units_Z   1
loop_
 _symmetry_equiv_pos_site_id
 _symmetry_equiv_pos_as_xyz
  1  'x, y, z'
loop_
 _atom_site_type_symbol
 _atom_site_label
 _atom_site_symmetry_multiplicity
 _atom_site_fract_x
 _atom_site_fract_y
 _atom_site_fract_z
 _atom_site_occupancy
  Al  Al0  1  0.000000  0.501092  0.166554  1
  Al  Al1  1  0.000000  0.499128  0.833998  1
  Al  Al2  1  0.000000  0.000822  0.332827  1
  Si  Si3  1  0.000000  0.998370  0.666454  1
  P  P4  1  0.500000  0.002336  0.999559  1
  P  P5  1  0.500000  0.497577  0.500560  1
  Pd  Pd6  1  0.000000  0.744815  0.998605  1
  Pd  Pd7  1  0.000000  0.238703  0.503452  1
  Pd  Pd8  1  0.000000  0.631823  0.629513  1
  Pd  Pd9  1  0.000000  0.128988  0.127441  1
  Pd  Pd10  1  0.000000  0.124777  0.866506  1
  Pd  Pd11  1  0.000000  0.629469  0.373873  1
  Pd  Pd12  1  0.500000  0.899492  0.507134  1
  Pd  Pd13  1  0.500000  0.394944  0.997821  1
  Pd  Pd14  1  0.500000  0.808052  0.796346  1
  Pd  Pd15  1  0.500000  0.302242  0.303088  1
  Pd  Pd16  1  0.500000  0.295955  0.696799  1
  Pd  Pd17  1  0.500000  0.801615  0.199472  1
