# generated using pymatgen
data_TbGd2(YH6)3
_symmetry_space_group_name_H-M   'P 1'
_cell_length_a   6.38726200
_cell_length_b   6.38599415
_cell_length_c   6.65200100
_cell_angle_alpha   89.99064330
_cell_angle_beta   90.00000000
_cell_angle_gamma   120.00656775
_symmetry_Int_Tables_number   1
_chemical_formula_structural   TbGd2(YH6)3
_chemical_formula_sum   'Tb1 Gd2 Y3 H18'
_cell_volume   234.96189228
_cell_formula_units_Z   1
loop_
 _symmetry_equiv_pos_site_id
 _symmetry_equiv_pos_as_xyz
  1  'x, y, z'
loop_
 _atom_site_type_symbol
 _atom_site_label
 _atom_site_symmetry_multiplicity
 _atom_site_fract_x
 _atom_site_fract_y
 _atom_site_fract_z
 _atom_site_occupancy
  Tb  Tb0  1  0.338745  0.000000  0.250000  1
  Gd  Gd1  1  0.999861  0.664869  0.749958  1
  Gd  Gd2  1  0.334993  0.335131  0.750042  1
  Y  Y3  1  0.999461  0.338110  0.249984  1
  Y  Y4  1  0.661352  0.661890  0.250016  1
  Y  Y5  1  0.665037  0.000000  0.750000  1
  H  H6  1  0.999631  0.000000  0.250000  1
  H  H7  1  0.997826  0.000000  0.750000  1
  H  H8  1  0.333003  0.665844  0.179125  1
  H  H9  1  0.667160  0.334156  0.320875  1
  H  H10  1  0.666474  0.330919  0.810679  1
  H  H11  1  0.335554  0.669081  0.689321  1
  H  H12  1  0.359767  0.326131  0.092962  1
  H  H13  1  0.674011  0.032327  0.091905  1
  H  H14  1  0.966597  0.640899  0.093332  1
  H  H15  1  0.033636  0.673869  0.407038  1
  H  H16  1  0.641683  0.967673  0.408095  1
  H  H17  1  0.325699  0.359101  0.406668  1
  H  H18  1  0.658980  0.683702  0.907956  1
  H  H19  1  0.317368  0.976512  0.908354  1
  H  H20  1  0.024400  0.341773  0.909437  1
  H  H21  1  0.975276  0.316298  0.592044  1
  H  H22  1  0.340858  0.023488  0.591646  1
  H  H23  1  0.682627  0.658227  0.590563  1
