# generated using pymatgen
data_ErCd2Ni7B2
_symmetry_space_group_name_H-M   'P 1'
_cell_length_a   4.95640671
_cell_length_b   4.95548215
_cell_length_c   14.04596900
_cell_angle_alpha   90.00000000
_cell_angle_beta   90.00000000
_cell_angle_gamma   119.94463559
_symmetry_Int_Tables_number   1
_chemical_formula_structural   ErCd2Ni7B2
_chemical_formula_sum   'Er2 Cd4 Ni14 B4'
_cell_volume   298.93530375
_cell_formula_units_Z   2
loop_
 _symmetry_equiv_pos_site_id
 _symmetry_equiv_pos_as_xyz
  1  'x, y, z'
loop_
 _atom_site_type_symbol
 _atom_site_label
 _atom_site_symmetry_multiplicity
 _atom_site_fract_x
 _atom_site_fract_y
 _atom_site_fract_z
 _atom_site_occupancy
  Er  Er0  1  0.666660  0.333322  0.750000  1
  Er  Er1  1  0.333340  0.666678  0.250000  1
  Cd  Cd2  1  0.333322  0.666623  0.470064  1
  Cd  Cd3  1  0.666678  0.333377  0.970064  1
  Cd  Cd4  1  0.666678  0.333377  0.529936  1
  Cd  Cd5  1  0.333322  0.666623  0.029936  1
  Ni  Ni6  1  0.833860  0.166141  0.353158  1
  Ni  Ni7  1  0.833831  0.667668  0.353231  1
  Ni  Ni8  1  0.000000  0.000000  0.000000  1
  Ni  Ni9  1  0.000000  0.000000  0.500000  1
  Ni  Ni10  1  0.833831  0.667668  0.146769  1
  Ni  Ni11  1  0.166140  0.833859  0.646842  1
  Ni  Ni12  1  0.667688  0.833843  0.646761  1
  Ni  Ni13  1  0.332312  0.166157  0.146761  1
  Ni  Ni14  1  0.833860  0.166141  0.146842  1
  Ni  Ni15  1  0.166169  0.332332  0.853231  1
  Ni  Ni16  1  0.166140  0.833859  0.853158  1
  Ni  Ni17  1  0.166169  0.332332  0.646769  1
  Ni  Ni18  1  0.667688  0.833843  0.853239  1
  Ni  Ni19  1  0.332312  0.166157  0.353239  1
  B  B20  1  0.666629  0.333304  0.250000  1
  B  B21  1  0.333371  0.666696  0.750000  1
  B  B22  1  0.999961  0.000030  0.750000  1
  B  B23  1  0.000039  0.999970  0.250000  1
