# generated using pymatgen
data_Ta3Ti4ReTc8
_symmetry_space_group_name_H-M   'P 1'
_cell_length_a   6.29861700
_cell_length_b   4.43348500
_cell_length_c   8.84392901
_cell_angle_alpha   90.00000000
_cell_angle_beta   90.00418740
_cell_angle_gamma   90.00000000
_symmetry_Int_Tables_number   1
_chemical_formula_structural   Ta3Ti4ReTc8
_chemical_formula_sum   'Ta3 Ti4 Re1 Tc8'
_cell_volume   246.96516038
_cell_formula_units_Z   1
loop_
 _symmetry_equiv_pos_site_id
 _symmetry_equiv_pos_as_xyz
  1  'x, y, z'
loop_
 _atom_site_type_symbol
 _atom_site_label
 _atom_site_symmetry_multiplicity
 _atom_site_fract_x
 _atom_site_fract_y
 _atom_site_fract_z
 _atom_site_occupancy
  Ta  Ta0  1  0.250070  0.750001  0.374835  1
  Ta  Ta1  1  0.749937  0.250000  0.625015  1
  Ta  Ta2  1  0.249932  0.750001  0.875163  1
  Ti  Ti3  1  0.250087  0.250000  0.125004  1
  Ti  Ti4  1  0.750079  0.750001  0.374493  1
  Ti  Ti5  1  0.249924  0.250000  0.624987  1
  Ti  Ti6  1  0.749926  0.750001  0.875499  1
  Re  Re7  1  0.750066  0.250000  0.125016  1
  Tc  Tc8  1  0.504499  0.750001  0.124976  1
  Tc  Tc9  1  0.995615  0.750001  0.124984  1
  Tc  Tc10  1  0.502227  0.250000  0.370361  1
  Tc  Tc11  1  0.997868  0.250000  0.370365  1
  Tc  Tc12  1  0.999782  0.750001  0.625000  1
  Tc  Tc13  1  0.500124  0.750001  0.625010  1
  Tc  Tc14  1  0.997744  0.250000  0.879644  1
  Tc  Tc15  1  0.502122  0.250000  0.879649  1
