# generated using pymatgen
data_BaAl2ZnAu2
_symmetry_space_group_name_H-M   'P 1'
_cell_length_a   5.49887800
_cell_length_b   7.04952600
_cell_length_c   13.60927700
_cell_angle_alpha   90.00000000
_cell_angle_beta   90.00000000
_cell_angle_gamma   90.00000000
_symmetry_Int_Tables_number   1
_chemical_formula_structural   BaAl2ZnAu2
_chemical_formula_sum   'Ba4 Al8 Zn4 Au8'
_cell_volume   527.55659279
_cell_formula_units_Z   4
loop_
 _symmetry_equiv_pos_site_id
 _symmetry_equiv_pos_as_xyz
  1  'x, y, z'
loop_
 _atom_site_type_symbol
 _atom_site_label
 _atom_site_symmetry_multiplicity
 _atom_site_fract_x
 _atom_site_fract_y
 _atom_site_fract_z
 _atom_site_occupancy
  Ba  Ba0  1  0.250000  0.638333  0.913424  1
  Ba  Ba1  1  0.250000  0.861667  0.413424  1
  Ba  Ba2  1  0.750000  0.361667  0.086576  1
  Ba  Ba3  1  0.750000  0.138333  0.586576  1
  Al  Al4  1  0.997962  0.131424  0.852395  1
  Al  Al5  1  0.502038  0.368576  0.352395  1
  Al  Al6  1  0.497962  0.868576  0.147605  1
  Al  Al7  1  0.002038  0.631424  0.647605  1
  Al  Al8  1  0.002038  0.868576  0.147605  1
  Al  Al9  1  0.497962  0.631424  0.647605  1
  Al  Al10  1  0.502038  0.131424  0.852395  1
  Al  Al11  1  0.997962  0.368576  0.352395  1
  Zn  Zn12  1  0.250000  0.319070  0.709466  1
  Zn  Zn13  1  0.250000  0.180930  0.209466  1
  Zn  Zn14  1  0.750000  0.680930  0.290534  1
  Zn  Zn15  1  0.750000  0.819070  0.790534  1
  Au  Au16  1  0.250000  0.926655  0.713848  1
  Au  Au17  1  0.250000  0.573345  0.213848  1
  Au  Au18  1  0.750000  0.073345  0.286152  1
  Au  Au19  1  0.750000  0.426655  0.786152  1
  Au  Au20  1  0.250000  0.401646  0.513934  1
  Au  Au21  1  0.250000  0.098354  0.013934  1
  Au  Au22  1  0.750000  0.598354  0.486066  1
  Au  Au23  1  0.750000  0.901646  0.986066  1
