# generated using pymatgen
data_Sr3Tc4(P3Pd)2
_symmetry_space_group_name_H-M   'P 1'
_cell_length_a   8.64907783
_cell_length_b   8.64907750
_cell_length_c   8.64907781
_cell_angle_alpha   152.55897451
_cell_angle_beta   96.48202426
_cell_angle_gamma   89.97839961
_symmetry_Int_Tables_number   1
_chemical_formula_structural   Sr3Tc4(P3Pd)2
_chemical_formula_sum   'Sr3 Tc4 P6 Pd2'
_cell_volume   289.13361987
_cell_formula_units_Z   1
loop_
 _symmetry_equiv_pos_site_id
 _symmetry_equiv_pos_as_xyz
  1  'x, y, z'
loop_
 _atom_site_type_symbol
 _atom_site_label
 _atom_site_symmetry_multiplicity
 _atom_site_fract_x
 _atom_site_fract_y
 _atom_site_fract_z
 _atom_site_occupancy
  Sr  Sr0  1  0.333762  0.333762  0.000000  1
  Sr  Sr1  1  0.666514  0.666514  0.000000  1
  Sr  Sr2  1  0.999731  0.999731  0.000000  1
  Tc  Tc3  1  0.580607  0.830203  0.750403  1
  Tc  Tc4  1  0.253181  0.503123  0.750059  1
  Tc  Tc5  1  0.753064  0.503123  0.249941  1
  Tc  Tc6  1  0.079801  0.830203  0.249597  1
  P  P7  1  0.308350  0.666762  0.641587  1
  P  P8  1  0.694435  0.340487  0.353948  1
  P  P9  1  0.986539  0.340487  0.646052  1
  P  P10  1  0.346435  0.992778  0.353657  1
  P  P11  1  0.025176  0.666762  0.358413  1
  P  P12  1  0.639121  0.992778  0.646343  1
  Pd  Pd13  1  0.416215  0.166644  0.249572  1
  Pd  Pd14  1  0.917070  0.166644  0.750428  1
