# generated using pymatgen
data_Tb5CeFe2
_symmetry_space_group_name_H-M   'P 1'
_cell_length_a   6.34221800
_cell_length_b   6.96240400
_cell_length_c   9.42384300
_cell_angle_alpha   90.00000000
_cell_angle_beta   90.00000000
_cell_angle_gamma   90.00000000
_symmetry_Int_Tables_number   1
_chemical_formula_structural   Tb5CeFe2
_chemical_formula_sum   'Tb10 Ce2 Fe4'
_cell_volume   416.12942669
_cell_formula_units_Z   2
loop_
 _symmetry_equiv_pos_site_id
 _symmetry_equiv_pos_as_xyz
  1  'x, y, z'
loop_
 _atom_site_type_symbol
 _atom_site_label
 _atom_site_symmetry_multiplicity
 _atom_site_fract_x
 _atom_site_fract_y
 _atom_site_fract_z
 _atom_site_occupancy
  Tb  Tb0  1  0.333745  0.672316  0.062686  1
  Tb  Tb1  1  0.166255  0.172316  0.437314  1
  Tb  Tb2  1  0.677684  0.329274  0.569809  1
  Tb  Tb3  1  0.822316  0.829274  0.930191  1
  Tb  Tb4  1  0.677684  0.329274  0.930191  1
  Tb  Tb5  1  0.822316  0.829274  0.569809  1
  Tb  Tb6  1  0.333745  0.672316  0.437314  1
  Tb  Tb7  1  0.166255  0.172316  0.062686  1
  Tb  Tb8  1  0.140557  0.455634  0.750000  1
  Tb  Tb9  1  0.359443  0.955634  0.750000  1
  Ce  Ce10  1  0.868747  0.576685  0.250000  1
  Ce  Ce11  1  0.631253  0.076685  0.250000  1
  Fe  Fe12  1  0.006637  0.852749  0.250000  1
  Fe  Fe13  1  0.493363  0.352749  0.250000  1
  Fe  Fe14  1  0.962120  0.111752  0.750000  1
  Fe  Fe15  1  0.537880  0.611752  0.750000  1
