# generated using pymatgen
data_Rb3Se22
_symmetry_space_group_name_H-M   'P 1'
_cell_length_a   9.17779015
_cell_length_b   8.96692060
_cell_length_c   11.53919849
_cell_angle_alpha   113.05574046
_cell_angle_beta   113.48543748
_cell_angle_gamma   89.83483733
_symmetry_Int_Tables_number   1
_chemical_formula_structural   Rb3Se22
_chemical_formula_sum   'Rb3 Se22'
_cell_volume   788.08629357
_cell_formula_units_Z   1
loop_
 _symmetry_equiv_pos_site_id
 _symmetry_equiv_pos_as_xyz
  1  'x, y, z'
loop_
 _atom_site_type_symbol
 _atom_site_label
 _atom_site_symmetry_multiplicity
 _atom_site_fract_x
 _atom_site_fract_y
 _atom_site_fract_z
 _atom_site_occupancy
  Rb  Rb0  1  0.190241  0.164070  0.345837  1
  Rb  Rb1  1  0.843849  0.819380  0.654132  1
  Rb  Rb2  1  0.493212  0.490650  0.000380  1
  Se  Se3  1  0.865471  0.853114  0.000460  1
  Se  Se4  1  0.109527  0.503687  0.770227  1
  Se  Se5  1  0.254732  0.100132  0.752311  1
  Se  Se6  1  0.037461  0.206552  0.625826  1
  Se  Se7  1  0.339114  0.734003  0.230539  1
  Se  Se8  1  0.947105  0.803447  0.358491  1
  Se  Se9  1  0.654041  0.266745  0.759439  1
  Se  Se10  1  0.502187  0.347897  0.247120  1
  Se  Se11  1  0.861313  0.112122  0.000880  1
  Se  Se12  1  0.496959  0.676076  0.782153  1
  Se  Se13  1  0.713672  0.895320  0.218365  1
  Se  Se14  1  0.894607  0.509337  0.241377  1
  Se  Se15  1  0.427106  0.041395  0.633402  1
  Se  Se16  1  0.566582  0.959080  0.359530  1
  Se  Se17  1  0.208525  0.598670  0.641379  1
  Se  Se18  1  0.210234  0.878478  0.000566  1
  Se  Se19  1  0.590416  0.443659  0.642669  1
  Se  Se20  1  0.029689  0.450174  0.000004  1
  Se  Se21  1  0.793353  0.408797  0.366228  1
  Se  Se22  1  0.116288  0.199257  0.000259  1
  Se  Se23  1  0.448876  0.974818  0.001051  1
  Se  Se24  1  0.411480  0.581622  0.374425  1
