# generated using pymatgen
data_Cd2InBiO6
_symmetry_space_group_name_H-M   'P 1'
_cell_length_a   6.04241472
_cell_length_b   6.04241456
_cell_length_c   6.04241467
_cell_angle_alpha   56.27297265
_cell_angle_beta   56.27297370
_cell_angle_gamma   56.27296663
_symmetry_Int_Tables_number   1
_chemical_formula_structural   Cd2InBiO6
_chemical_formula_sum   'Cd2 In1 Bi1 O6'
_cell_volume   142.54446362
_cell_formula_units_Z   1
loop_
 _symmetry_equiv_pos_site_id
 _symmetry_equiv_pos_as_xyz
  1  'x, y, z'
loop_
 _atom_site_type_symbol
 _atom_site_label
 _atom_site_symmetry_multiplicity
 _atom_site_fract_x
 _atom_site_fract_y
 _atom_site_fract_z
 _atom_site_occupancy
  Cd  Cd0  1  0.364646  0.364646  0.364646  1
  Cd  Cd1  1  0.633288  0.633288  0.633288  1
  In  In2  1  0.148202  0.148202  0.148202  1
  Bi  Bi3  1  0.847651  0.847651  0.847651  1
  O  O4  1  0.770935  0.039907  0.453934  1
  O  O5  1  0.039907  0.453934  0.770935  1
  O  O6  1  0.453934  0.770935  0.039907  1
  O  O7  1  0.559656  0.218894  0.962456  1
  O  O8  1  0.962456  0.559656  0.218894  1
  O  O9  1  0.218894  0.962456  0.559656  1
