# generated using pymatgen
data_Yb5(Ag2Au)2
_symmetry_space_group_name_H-M   'P 1'
_cell_length_a   15.88176000
_cell_length_b   15.88175931
_cell_length_c   4.18972200
_cell_angle_alpha   90.00000000
_cell_angle_beta   90.00000000
_cell_angle_gamma   164.27610538
_symmetry_Int_Tables_number   1
_chemical_formula_structural   Yb5(Ag2Au)2
_chemical_formula_sum   'Yb5 Ag4 Au2'
_cell_volume   286.38798048
_cell_formula_units_Z   1
loop_
 _symmetry_equiv_pos_site_id
 _symmetry_equiv_pos_as_xyz
  1  'x, y, z'
loop_
 _atom_site_type_symbol
 _atom_site_label
 _atom_site_symmetry_multiplicity
 _atom_site_fract_x
 _atom_site_fract_y
 _atom_site_fract_z
 _atom_site_occupancy
  Yb  Yb0  1  0.000754  0.999246  0.000000  1
  Yb  Yb1  1  0.617416  0.382584  0.000000  1
  Yb  Yb2  1  0.380326  0.619674  0.000000  1
  Yb  Yb3  1  0.800856  0.199143  0.500000  1
  Yb  Yb4  1  0.197723  0.802276  0.500000  1
  Ag  Ag5  1  0.719086  0.280914  0.000000  1
  Ag  Ag6  1  0.901167  0.098833  0.500000  1
  Ag  Ag7  1  0.543035  0.456964  0.500000  1
  Ag  Ag8  1  0.456834  0.543165  0.500000  1
  Au  Au9  1  0.281526  0.718474  0.000000  1
  Au  Au10  1  0.101275  0.898725  0.500000  1
