# generated using pymatgen
data_K8Mn7FeP8(O4F)8
_symmetry_space_group_name_H-M   'P 1'
_cell_length_a   6.44680100
_cell_length_b   10.80440100
_cell_length_c   13.05242200
_cell_angle_alpha   90.00000000
_cell_angle_beta   90.00000000
_cell_angle_gamma   90.00000000
_symmetry_Int_Tables_number   1
_chemical_formula_structural   K8Mn7FeP8(O4F)8
_chemical_formula_sum   'K8 Mn7 Fe1 P8 O32 F8'
_cell_volume   909.15109394
_cell_formula_units_Z   1
loop_
 _symmetry_equiv_pos_site_id
 _symmetry_equiv_pos_as_xyz
  1  'x, y, z'
loop_
 _atom_site_type_symbol
 _atom_site_label
 _atom_site_symmetry_multiplicity
 _atom_site_fract_x
 _atom_site_fract_y
 _atom_site_fract_z
 _atom_site_occupancy
  K  K0  1  0.768335  0.199526  0.375688  1
  K  K1  1  0.303737  0.938723  0.895979  1
  K  K2  1  0.804457  0.448259  0.601813  1
  K  K3  1  0.194651  0.946734  0.397222  1
  K  K4  1  0.697635  0.436430  0.105632  1
  K  K5  1  0.273331  0.701165  0.126108  1
  K  K6  1  0.726342  0.200475  0.878081  1
  K  K7  1  0.230588  0.701556  0.619675  1
  Mn  Mn8  1  0.753231  0.748978  0.253362  1
  Mn  Mn9  1  0.249867  0.249996  0.747435  1
  Mn  Mn10  1  0.748068  0.749117  0.753098  1
  Mn  Mn11  1  0.251859  0.246463  0.245068  1
  Mn  Mn12  1  0.487655  0.495679  0.385083  1
  Mn  Mn13  1  0.513659  0.997113  0.613707  1
  Mn  Mn14  1  0.995255  0.501216  0.887085  1
  Fe  Fe15  1  0.997511  0.997009  0.111932  1
  P  P16  1  0.998952  0.493690  0.318816  1
  P  P17  1  0.499501  0.995738  0.181212  1
  P  P18  1  0.497145  0.499502  0.819462  1
  P  P19  1  0.002300  0.996327  0.681256  1
  P  P20  1  0.169877  0.243194  0.996531  1
  P  P21  1  0.826843  0.744409  0.003932  1
  P  P22  1  0.325565  0.252815  0.501724  1
  P  P23  1  0.674205  0.752781  0.497136  1
  O  O24  1  0.314319  0.967038  0.110094  1
  O  O25  1  0.817753  0.023013  0.608787  1
  O  O26  1  0.304530  0.530058  0.884729  1
  O  O27  1  0.692998  0.026268  0.116823  1
  O  O28  1  0.049977  0.382748  0.244490  1
  O  O29  1  0.950907  0.886547  0.756003  1
  O  O30  1  0.461580  0.384380  0.748655  1
  O  O31  1  0.539674  0.882844  0.253828  1
  O  O32  1  0.524578  0.867435  0.512638  1
  O  O33  1  0.474677  0.367636  0.486838  1
  O  O34  1  0.981927  0.853264  0.017347  1
  O  O35  1  0.012077  0.349489  0.986619  1
  O  O36  1  0.806532  0.461980  0.385234  1
  O  O37  1  0.195631  0.963997  0.615496  1
  O  O38  1  0.683870  0.473206  0.892091  1
  O  O39  1  0.183613  0.521736  0.390596  1
  O  O40  1  0.529857  0.640134  0.487104  1
  O  O41  1  0.470489  0.140464  0.511769  1
  O  O42  1  0.968115  0.626094  0.990891  1
  O  O43  1  0.442192  0.105387  0.255816  1
  O  O44  1  0.808351  0.773429  0.399117  1
  O  O45  1  0.192499  0.273966  0.600227  1
  O  O46  1  0.680122  0.764133  0.913823  1
  O  O47  1  0.318461  0.261087  0.087387  1
  O  O48  1  0.697856  0.724882  0.104122  1
  O  O49  1  0.304804  0.228936  0.896651  1
  O  O50  1  0.820111  0.736936  0.589091  1
  O  O51  1  0.180982  0.235742  0.408890  1
  O  O52  1  0.950571  0.605116  0.246551  1
  O  O53  1  0.049157  0.109111  0.752697  1
  O  O54  1  0.554038  0.607476  0.744087  1
  O  O55  1  0.039842  0.121104  0.006046  1
  F  F56  1  0.999135  0.874450  0.227434  1
  F  F57  1  0.006835  0.382171  0.776892  1
  F  F58  1  0.516082  0.857453  0.731868  1
  F  F59  1  0.489474  0.356942  0.268523  1
  F  F60  1  0.022023  0.122855  0.227780  1
  F  F61  1  0.972470  0.632287  0.765786  1
  F  F62  1  0.489680  0.109550  0.727536  1
  F  F63  1  0.511638  0.608967  0.272604  1
