# generated using pymatgen
data_Tb4Y4Ti3Si16W9
_symmetry_space_group_name_H-M   'P 1'
_cell_length_a   6.91020263
_cell_length_b   6.91072912
_cell_length_c   12.83782342
_cell_angle_alpha   89.96757079
_cell_angle_beta   90.02376795
_cell_angle_gamma   89.89573013
_symmetry_Int_Tables_number   1
_chemical_formula_structural   Tb4Y4Ti3Si16W9
_chemical_formula_sum   'Tb4 Y4 Ti3 Si16 W9'
_cell_volume   613.06316711
_cell_formula_units_Z   1
loop_
 _symmetry_equiv_pos_site_id
 _symmetry_equiv_pos_as_xyz
  1  'x, y, z'
loop_
 _atom_site_type_symbol
 _atom_site_label
 _atom_site_symmetry_multiplicity
 _atom_site_fract_x
 _atom_site_fract_y
 _atom_site_fract_z
 _atom_site_occupancy
  Tb  Tb0  1  0.162730  0.499401  0.782389  1
  Tb  Tb1  1  0.660954  0.999185  0.968779  1
  Tb  Tb2  1  0.001763  0.338524  0.531476  1
  Tb  Tb3  1  0.999151  0.660917  0.031311  1
  Y  Y4  1  0.338627  0.001592  0.468408  1
  Y  Y5  1  0.497521  0.837402  0.719024  1
  Y  Y6  1  0.499197  0.162494  0.217599  1
  Y  Y7  1  0.837447  0.497608  0.280931  1
  Ti  Ti8  1  0.170228  0.831849  0.248646  1
  Ti  Ti9  1  0.831970  0.170355  0.751362  1
  Ti  Ti10  1  0.668834  0.668616  0.499955  1
  Si  Si11  1  0.200612  0.127406  0.683464  1
  Si  Si12  1  0.374620  0.698347  0.933798  1
  Si  Si13  1  0.627642  0.299066  0.433705  1
  Si  Si14  1  0.698186  0.374502  0.066362  1
  Si  Si15  1  0.299053  0.628036  0.566138  1
  Si  Si16  1  0.797219  0.873314  0.184486  1
  Si  Si17  1  0.127932  0.200352  0.316433  1
  Si  Si18  1  0.873227  0.797204  0.815521  1
  Si  Si19  1  0.288819  0.963440  0.062432  1
  Si  Si20  1  0.539071  0.791390  0.313740  1
  Si  Si21  1  0.459761  0.209363  0.813974  1
  Si  Si22  1  0.791053  0.539129  0.686250  1
  Si  Si23  1  0.209451  0.459639  0.186087  1
  Si  Si24  1  0.709424  0.040193  0.563745  1
  Si  Si25  1  0.963469  0.288770  0.937689  1
  Si  Si26  1  0.040355  0.709881  0.436061  1
  W  W27  1  0.332056  0.332035  0.000173  1
  W  W28  1  0.159324  0.003239  0.873690  1
  W  W29  1  0.493832  0.665802  0.125311  1
  W  W30  1  0.505890  0.339344  0.624792  1
  W  W31  1  0.665664  0.493722  0.874916  1
  W  W32  1  0.339459  0.506131  0.375055  1
  W  W33  1  0.838835  0.993488  0.374489  1
  W  W34  1  0.003387  0.159312  0.126483  1
  W  W35  1  0.993236  0.838954  0.625326  1
