# generated using pymatgen
data_Dy20Sn3Bi5Ru4
_symmetry_space_group_name_H-M   'P 1'
_cell_length_a   7.93042719
_cell_length_b   9.05568023
_cell_length_c   12.36076270
_cell_angle_alpha   90.02303380
_cell_angle_beta   90.11709338
_cell_angle_gamma   90.01261172
_symmetry_Int_Tables_number   1
_chemical_formula_structural   Dy20Sn3Bi5Ru4
_chemical_formula_sum   'Dy20 Sn3 Bi5 Ru4'
_cell_volume   887.69132853
_cell_formula_units_Z   1
loop_
 _symmetry_equiv_pos_site_id
 _symmetry_equiv_pos_as_xyz
  1  'x, y, z'
loop_
 _atom_site_type_symbol
 _atom_site_label
 _atom_site_symmetry_multiplicity
 _atom_site_fract_x
 _atom_site_fract_y
 _atom_site_fract_z
 _atom_site_occupancy
  Dy  Dy0  1  0.842659  0.742230  0.791802  1
  Dy  Dy1  1  0.159849  0.254175  0.207001  1
  Dy  Dy2  1  0.343203  0.257362  0.709218  1
  Dy  Dy3  1  0.653560  0.745513  0.291971  1
  Dy  Dy4  1  0.375030  0.743259  0.693655  1
  Dy  Dy5  1  0.620201  0.254289  0.306437  1
  Dy  Dy6  1  0.875259  0.256459  0.806447  1
  Dy  Dy7  1  0.128533  0.746646  0.191735  1
  Dy  Dy8  1  0.949274  0.746445  0.506001  1
  Dy  Dy9  1  0.053446  0.253366  0.498512  1
  Dy  Dy10  1  0.449301  0.256631  0.995736  1
  Dy  Dy11  1  0.551065  0.743371  0.003807  1
  Dy  Dy12  1  0.675670  0.040880  0.565604  1
  Dy  Dy13  1  0.322452  0.959167  0.434273  1
  Dy  Dy14  1  0.176710  0.959950  0.933741  1
  Dy  Dy15  1  0.324707  0.540038  0.432379  1
  Dy  Dy16  1  0.823648  0.040318  0.066021  1
  Dy  Dy17  1  0.677880  0.460853  0.570909  1
  Dy  Dy18  1  0.819433  0.460549  0.064400  1
  Dy  Dy19  1  0.179214  0.539194  0.931456  1
  Sn  Sn20  1  0.570644  0.493886  0.828701  1
  Sn  Sn21  1  0.429332  0.506065  0.171947  1
  Sn  Sn22  1  0.070120  0.505770  0.670585  1
  Bi  Bi23  1  0.430567  0.993774  0.171644  1
  Bi  Bi24  1  0.929786  0.493066  0.326930  1
  Bi  Bi25  1  0.569715  0.006028  0.827911  1
  Bi  Bi26  1  0.929894  0.006548  0.327666  1
  Bi  Bi27  1  0.069465  0.993733  0.673326  1
  Ru  Ru28  1  0.573627  0.750582  0.510045  1
  Ru  Ru29  1  0.425964  0.249768  0.490200  1
  Ru  Ru30  1  0.072483  0.249735  0.989968  1
  Ru  Ru31  1  0.927310  0.750348  0.009970  1
