# generated using pymatgen
data_Sr3LaTi5(Si2O11)2
_symmetry_space_group_name_H-M   'P 1'
_cell_length_a   5.67914433
_cell_length_b   7.64952447
_cell_length_c   11.43318278
_cell_angle_alpha   94.21301268
_cell_angle_beta   104.37954577
_cell_angle_gamma   111.78833590
_symmetry_Int_Tables_number   1
_chemical_formula_structural   Sr3LaTi5(Si2O11)2
_chemical_formula_sum   'Sr3 La1 Ti5 Si4 O22'
_cell_volume   439.11641993
_cell_formula_units_Z   1
loop_
 _symmetry_equiv_pos_site_id
 _symmetry_equiv_pos_as_xyz
  1  'x, y, z'
loop_
 _atom_site_type_symbol
 _atom_site_label
 _atom_site_symmetry_multiplicity
 _atom_site_fract_x
 _atom_site_fract_y
 _atom_site_fract_z
 _atom_site_occupancy
  Sr  Sr0  1  0.030831  0.797102  0.264494  1
  Sr  Sr1  1  0.966347  0.200449  0.732271  1
  Sr  Sr2  1  0.695065  0.648031  0.742008  1
  La  La3  1  0.303553  0.353147  0.254170  1
  Ti  Ti4  1  0.239063  0.997626  0.998250  1
  Ti  Ti5  1  0.756819  0.997658  0.998238  1
  Ti  Ti6  1  0.726037  0.448843  0.003084  1
  Ti  Ti7  1  0.000783  0.499699  0.501855  1
  Ti  Ti8  1  0.272177  0.546798  0.997520  1
  Si  Si9  1  0.678170  0.084813  0.271608  1
  Si  Si10  1  0.608393  0.765370  0.451369  1
  Si  Si11  1  0.392737  0.238144  0.547363  1
  Si  Si12  1  0.322779  0.918066  0.727463  1
  O  O13  1  0.098918  0.191295  0.006613  1
  O  O14  1  0.906092  0.808585  0.003688  1
  O  O15  1  0.405925  0.806786  0.005111  1
  O  O16  1  0.077503  0.525896  0.123634  1
  O  O17  1  0.572041  0.525877  0.123652  1
  O  O18  1  0.385899  0.062092  0.185062  1
  O  O19  1  0.861138  0.062068  0.185033  1
  O  O20  1  0.625973  0.906095  0.345930  1
  O  O21  1  0.827065  0.298341  0.355644  1
  O  O22  1  0.270408  0.135248  0.405714  1
  O  O23  1  0.283903  0.624683  0.411229  1
  O  O24  1  0.752029  0.624692  0.411202  1
  O  O25  1  0.239559  0.371745  0.585416  1
  O  O26  1  0.717571  0.371723  0.585384  1
  O  O27  1  0.733679  0.878116  0.589164  1
  O  O28  1  0.173625  0.706020  0.641283  1
  O  O29  1  0.370764  0.092503  0.649005  1
  O  O30  1  0.145262  0.944455  0.816106  1
  O  O31  1  0.615352  0.944484  0.816110  1
  O  O32  1  0.425128  0.466196  0.883977  1
  O  O33  1  0.925169  0.466196  0.884005  1
  O  O34  1  0.594239  0.191156  0.997339  1
