# generated using pymatgen
data_BeVFeIr
_symmetry_space_group_name_H-M   'P 1'
_cell_length_a   4.03593318
_cell_length_b   4.03593249
_cell_length_c   4.03593300
_cell_angle_alpha   60.00000401
_cell_angle_beta   60.00000965
_cell_angle_gamma   59.99999606
_symmetry_Int_Tables_number   1
_chemical_formula_structural   BeVFeIr
_chemical_formula_sum   'Be1 V1 Fe1 Ir1'
_cell_volume   46.48542888
_cell_formula_units_Z   1
loop_
 _symmetry_equiv_pos_site_id
 _symmetry_equiv_pos_as_xyz
  1  'x, y, z'
loop_
 _atom_site_type_symbol
 _atom_site_label
 _atom_site_symmetry_multiplicity
 _atom_site_fract_x
 _atom_site_fract_y
 _atom_site_fract_z
 _atom_site_occupancy
  Be  Be0  1  0.750000  0.750000  0.750000  1
  V  V1  1  0.250000  0.250000  0.250000  1
  Fe  Fe2  1  0.500001  0.500001  0.500001  1
  Ir  Ir3  1  0.000000  0.000000  0.000000  1
