# generated using pymatgen
data_Ac(BiO2)7
_symmetry_space_group_name_H-M   'P 1'
_cell_length_a   6.83588147
_cell_length_b   6.94417411
_cell_length_c   8.00200733
_cell_angle_alpha   73.39579769
_cell_angle_beta   89.53354365
_cell_angle_gamma   80.83191095
_symmetry_Int_Tables_number   1
_chemical_formula_structural   Ac(BiO2)7
_chemical_formula_sum   'Ac1 Bi7 O14'
_cell_volume   359.08153749
_cell_formula_units_Z   1
loop_
 _symmetry_equiv_pos_site_id
 _symmetry_equiv_pos_as_xyz
  1  'x, y, z'
loop_
 _atom_site_type_symbol
 _atom_site_label
 _atom_site_symmetry_multiplicity
 _atom_site_fract_x
 _atom_site_fract_y
 _atom_site_fract_z
 _atom_site_occupancy
  Ac  Ac0  1  0.737711  0.536456  0.113634  1
  Bi  Bi1  1  0.007370  0.003166  0.998362  1
  Bi  Bi2  1  0.464507  0.001203  0.252047  1
  Bi  Bi3  1  0.270710  0.470138  0.390611  1
  Bi  Bi4  1  0.999269  0.000666  0.502243  1
  Bi  Bi5  1  0.718057  0.523923  0.609846  1
  Bi  Bi6  1  0.530497  0.003790  0.737495  1
  Bi  Bi7  1  0.245831  0.485187  0.882593  1
  O  O8  1  0.075584  0.678300  0.031054  1
  O  O9  1  0.717628  0.936475  0.065995  1
  O  O10  1  0.432883  0.362169  0.180688  1
  O  O11  1  0.113879  0.927477  0.269900  1
  O  O12  1  0.528269  0.646616  0.357991  1
  O  O13  1  0.908858  0.317641  0.382552  1
  O  O14  1  0.708148  0.919317  0.484353  1
  O  O15  1  0.290941  0.085614  0.516049  1
  O  O16  1  0.097117  0.682670  0.628536  1
  O  O17  1  0.468924  0.348060  0.636322  1
  O  O18  1  0.887879  0.072268  0.734483  1
  O  O19  1  0.545177  0.634344  0.816622  1
  O  O20  1  0.307450  0.039790  0.952657  1
  O  O21  1  0.943309  0.324728  0.955970  1
