# generated using pymatgen
data_Dy4Zn2(OsRu)3
_symmetry_space_group_name_H-M   'P 1'
_cell_length_a   5.34475333
_cell_length_b   5.29098003
_cell_length_c   8.88301700
_cell_angle_alpha   90.00000000
_cell_angle_beta   90.00000000
_cell_angle_gamma   119.77645376
_symmetry_Int_Tables_number   1
_chemical_formula_structural   Dy4Zn2(OsRu)3
_chemical_formula_sum   'Dy4 Zn2 Os3 Ru3'
_cell_volume   218.03630049
_cell_formula_units_Z   1
loop_
 _symmetry_equiv_pos_site_id
 _symmetry_equiv_pos_as_xyz
  1  'x, y, z'
loop_
 _atom_site_type_symbol
 _atom_site_label
 _atom_site_symmetry_multiplicity
 _atom_site_fract_x
 _atom_site_fract_y
 _atom_site_fract_z
 _atom_site_occupancy
  Dy  Dy0  1  0.673205  0.336343  0.568562  1
  Dy  Dy1  1  0.341431  0.670329  0.442186  1
  Dy  Dy2  1  0.341431  0.670329  0.057814  1
  Dy  Dy3  1  0.673205  0.336343  0.931438  1
  Zn  Zn4  1  0.816318  0.655141  0.250000  1
  Zn  Zn5  1  0.816766  0.161541  0.250000  1
  Os  Os6  1  0.167249  0.333765  0.750000  1
  Os  Os7  1  0.167870  0.834108  0.750000  1
  Os  Os8  1  0.646089  0.823744  0.750000  1
  Ru  Ru9  1  0.018741  0.009783  0.498608  1
  Ru  Ru10  1  0.018741  0.009783  0.001392  1
  Ru  Ru11  1  0.318952  0.158791  0.250000  1
