# generated using pymatgen
data_Y2ErAl9Si3Os4
_symmetry_space_group_name_H-M   'P 1'
_cell_length_a   8.70079708
_cell_length_b   8.67697615
_cell_length_c   9.54128400
_cell_angle_alpha   90.00000000
_cell_angle_beta   90.00000000
_cell_angle_gamma   120.11223687
_symmetry_Int_Tables_number   1
_chemical_formula_structural   Y2ErAl9Si3Os4
_chemical_formula_sum   'Y4 Er2 Al18 Si6 Os8'
_cell_volume   623.12132087
_cell_formula_units_Z   2
loop_
 _symmetry_equiv_pos_site_id
 _symmetry_equiv_pos_as_xyz
  1  'x, y, z'
loop_
 _atom_site_type_symbol
 _atom_site_label
 _atom_site_symmetry_multiplicity
 _atom_site_fract_x
 _atom_site_fract_y
 _atom_site_fract_z
 _atom_site_occupancy
  Y  Y0  1  0.192673  0.385394  0.250000  1
  Y  Y1  1  0.807327  0.614606  0.750000  1
  Y  Y2  1  0.611289  0.807957  0.250000  1
  Y  Y3  1  0.388711  0.192043  0.750000  1
  Er  Er4  1  0.198255  0.807079  0.250000  1
  Er  Er5  1  0.801745  0.192921  0.750000  1
  Al  Al6  1  0.164875  0.330106  0.578400  1
  Al  Al7  1  0.835125  0.669894  0.421600  1
  Al  Al8  1  0.670412  0.834747  0.576649  1
  Al  Al9  1  0.835125  0.669894  0.078400  1
  Al  Al10  1  0.329588  0.165253  0.423351  1
  Al  Al11  1  0.164875  0.330106  0.921600  1
  Al  Al12  1  0.164261  0.834450  0.576027  1
  Al  Al13  1  0.329588  0.165253  0.076649  1
  Al  Al14  1  0.835739  0.165550  0.423973  1
  Al  Al15  1  0.670412  0.834747  0.923351  1
  Al  Al16  1  0.835739  0.165550  0.076027  1
  Al  Al17  1  0.164261  0.834450  0.923973  1
  Al  Al18  1  0.872758  0.433293  0.250000  1
  Al  Al19  1  0.127242  0.566707  0.750000  1
  Al  Al20  1  0.560559  0.432764  0.250000  1
  Al  Al21  1  0.439441  0.567236  0.750000  1
  Al  Al22  1  0.000051  0.998006  0.250000  1
  Al  Al23  1  0.999949  0.001994  0.750000  1
  Si  Si24  1  0.331781  0.664060  0.039223  1
  Si  Si25  1  0.668219  0.335940  0.960777  1
  Si  Si26  1  0.668219  0.335940  0.539223  1
  Si  Si27  1  0.331781  0.664060  0.460777  1
  Si  Si28  1  0.562882  0.126589  0.250000  1
  Si  Si29  1  0.437118  0.873411  0.750000  1
  Os  Os30  1  0.500000  0.000000  0.000000  1
  Os  Os31  1  0.000000  0.500000  0.000000  1
  Os  Os32  1  0.500000  0.000000  0.500000  1
  Os  Os33  1  0.500000  0.500000  0.000000  1
  Os  Os34  1  0.000000  0.500000  0.500000  1
  Os  Os35  1  0.500000  0.500000  0.500000  1
  Os  Os36  1  0.000000  0.000000  0.000000  1
  Os  Os37  1  0.000000  0.000000  0.500000  1
