# generated using pymatgen
data_SrPr2Nd(Pt2O7)2
_symmetry_space_group_name_H-M   'P 1'
_cell_length_a   7.45767065
_cell_length_b   7.48644791
_cell_length_c   7.49060700
_cell_angle_alpha   59.98161645
_cell_angle_beta   59.85379305
_cell_angle_gamma   59.86510281
_symmetry_Int_Tables_number   1
_chemical_formula_structural   SrPr2Nd(Pt2O7)2
_chemical_formula_sum   'Sr1 Pr2 Nd1 Pt4 O14'
_cell_volume   295.04957087
_cell_formula_units_Z   1
loop_
 _symmetry_equiv_pos_site_id
 _symmetry_equiv_pos_as_xyz
  1  'x, y, z'
loop_
 _atom_site_type_symbol
 _atom_site_label
 _atom_site_symmetry_multiplicity
 _atom_site_fract_x
 _atom_site_fract_y
 _atom_site_fract_z
 _atom_site_occupancy
  Sr  Sr0  1  0.125000  0.625000  0.625000  1
  Pr  Pr1  1  0.625000  0.625000  0.125000  1
  Pr  Pr2  1  0.625000  0.625000  0.625000  1
  Nd  Nd3  1  0.625000  0.125000  0.625000  1
  Pt  Pt4  1  0.125000  0.125000  0.625000  1
  Pt  Pt5  1  0.125000  0.625000  0.125000  1
  Pt  Pt6  1  0.625000  0.125000  0.125000  1
  Pt  Pt7  1  0.125000  0.125000  0.125000  1
  O  O8  1  0.510392  0.494404  0.497601  1
  O  O9  1  0.739608  0.755596  0.752399  1
  O  O10  1  0.459110  0.042665  0.457100  1
  O  O11  1  0.210811  0.796041  0.197119  1
  O  O12  1  0.458807  0.456868  0.042163  1
  O  O13  1  0.039189  0.453959  0.453971  1
  O  O14  1  0.459110  0.042665  0.041125  1
  O  O15  1  0.038054  0.053382  0.454282  1
  O  O16  1  0.039189  0.453959  0.052881  1
  O  O17  1  0.790890  0.207335  0.208875  1
  O  O18  1  0.210811  0.796041  0.796029  1
  O  O19  1  0.790890  0.207335  0.792900  1
  O  O20  1  0.211946  0.196618  0.795718  1
  O  O21  1  0.791193  0.793132  0.207837  1
