# generated using pymatgen
data_Yb4Y4Ir3WO24
_symmetry_space_group_name_H-M   'P 1'
_cell_length_a   5.30091071
_cell_length_b   9.15794445
_cell_length_c   9.85848743
_cell_angle_alpha   90.36550825
_cell_angle_beta   89.78893816
_cell_angle_gamma   90.00783178
_symmetry_Int_Tables_number   1
_chemical_formula_structural   Yb4Y4Ir3WO24
_chemical_formula_sum   'Yb4 Y4 Ir3 W1 O24'
_cell_volume   478.57167951
_cell_formula_units_Z   1
loop_
 _symmetry_equiv_pos_site_id
 _symmetry_equiv_pos_as_xyz
  1  'x, y, z'
loop_
 _atom_site_type_symbol
 _atom_site_label
 _atom_site_symmetry_multiplicity
 _atom_site_fract_x
 _atom_site_fract_y
 _atom_site_fract_z
 _atom_site_occupancy
  Yb  Yb0  1  0.977208  0.599444  0.532039  1
  Yb  Yb1  1  0.480878  0.899157  0.466645  1
  Yb  Yb2  1  0.025133  0.097699  0.968276  1
  Yb  Yb3  1  0.522052  0.394730  0.030404  1
  Y  Y4  1  0.460885  0.782551  0.876301  1
  Y  Y5  1  0.957929  0.728740  0.128700  1
  Y  Y6  1  0.038675  0.213326  0.368024  1
  Y  Y7  1  0.542348  0.281084  0.625804  1
  Ir  Ir8  1  0.956211  0.995930  0.648944  1
  Ir  Ir9  1  0.455226  0.504494  0.351337  1
  Ir  Ir10  1  0.045978  0.496542  0.851776  1
  W  W11  1  0.541405  0.009642  0.150484  1
  O  O12  1  0.753508  0.091714  0.505621  1
  O  O13  1  0.252187  0.407658  0.493571  1
  O  O14  1  0.248028  0.588617  0.995427  1
  O  O15  1  0.746169  0.907819  0.004871  1
  O  O16  1  0.227363  0.117015  0.577699  1
  O  O17  1  0.728679  0.384632  0.425614  1
  O  O18  1  0.772829  0.615966  0.926289  1
  O  O19  1  0.269167  0.882894  0.069744  1
  O  O20  1  0.064424  0.848659  0.529376  1
  O  O21  1  0.562939  0.648991  0.473222  1
  O  O22  1  0.934984  0.347790  0.966455  1
  O  O23  1  0.423662  0.153931  0.028269  1
  O  O24  1  0.694480  0.858132  0.265912  1
  O  O25  1  0.187503  0.641917  0.737257  1
  O  O26  1  0.313561  0.360413  0.237244  1
  O  O27  1  0.811248  0.141141  0.762650  1
  O  O28  1  0.330837  0.052606  0.301040  1
  O  O29  1  0.838939  0.441800  0.704691  1
  O  O30  1  0.679954  0.868325  0.688607  1
  O  O31  1  0.163715  0.940106  0.792824  1
  O  O32  1  0.823640  0.137333  0.184620  1
  O  O33  1  0.323937  0.370539  0.809267  1
  O  O34  1  0.179754  0.632089  0.314041  1
  O  O35  1  0.664565  0.556575  0.206954  1
