# generated using pymatgen
data_DyLuSn(AsRh2)6
_symmetry_space_group_name_H-M   'P 1'
_cell_length_a   10.06042900
_cell_length_b   10.06042917
_cell_length_c   3.92977400
_cell_angle_alpha   90.00000000
_cell_angle_beta   90.00000000
_cell_angle_gamma   120.00000271
_symmetry_Int_Tables_number   1
_chemical_formula_structural   DyLuSn(AsRh2)6
_chemical_formula_sum   'Dy1 Lu1 Sn1 As6 Rh12'
_cell_volume   344.45397684
_cell_formula_units_Z   1
loop_
 _symmetry_equiv_pos_site_id
 _symmetry_equiv_pos_as_xyz
  1  'x, y, z'
loop_
 _atom_site_type_symbol
 _atom_site_label
 _atom_site_symmetry_multiplicity
 _atom_site_fract_x
 _atom_site_fract_y
 _atom_site_fract_z
 _atom_site_occupancy
  Dy  Dy0  1  0.666667  0.333333  0.248322  1
  Lu  Lu1  1  0.333333  0.666667  0.751992  1
  Sn  Sn2  1  0.000000  0.000000  0.593495  1
  As  As3  1  0.881894  0.593527  0.747756  1
  As  As4  1  0.406473  0.288367  0.747756  1
  As  As5  1  0.711633  0.118106  0.747756  1
  As  As6  1  0.117004  0.406081  0.253364  1
  As  As7  1  0.593919  0.710923  0.253364  1
  As  As8  1  0.289077  0.882996  0.253364  1
  Rh  Rh9  1  0.617478  0.550438  0.749795  1
  Rh  Rh10  1  0.449562  0.067041  0.749795  1
  Rh  Rh11  1  0.932959  0.382522  0.749795  1
  Rh  Rh12  1  0.384541  0.452370  0.252079  1
  Rh  Rh13  1  0.547630  0.932171  0.252079  1
  Rh  Rh14  1  0.067829  0.615459  0.252079  1
  Rh  Rh15  1  0.126235  0.838068  0.756080  1
  Rh  Rh16  1  0.161932  0.288167  0.756080  1
  Rh  Rh17  1  0.711833  0.873765  0.756080  1
  Rh  Rh18  1  0.879057  0.151808  0.244416  1
  Rh  Rh19  1  0.848192  0.727249  0.244416  1
  Rh  Rh20  1  0.272751  0.120943  0.244416  1
