# generated using pymatgen
data_Tb2TiWO8
_symmetry_space_group_name_H-M   'P 1'
_cell_length_a   5.50722300
_cell_length_b   5.11259309
_cell_length_c   5.33850908
_cell_angle_alpha   82.54934241
_cell_angle_beta   90.00000000
_cell_angle_gamma   90.00000000
_symmetry_Int_Tables_number   1
_chemical_formula_structural   Tb2TiWO8
_chemical_formula_sum   'Tb2 Ti1 W1 O8'
_cell_volume   149.04297743
_cell_formula_units_Z   1
loop_
 _symmetry_equiv_pos_site_id
 _symmetry_equiv_pos_as_xyz
  1  'x, y, z'
loop_
 _atom_site_type_symbol
 _atom_site_label
 _atom_site_symmetry_multiplicity
 _atom_site_fract_x
 _atom_site_fract_y
 _atom_site_fract_z
 _atom_site_occupancy
  Tb  Tb0  1  0.271101  0.500000  0.750000  1
  Tb  Tb1  1  0.737549  0.500000  0.250000  1
  Ti  Ti2  1  0.797448  0.000000  0.750000  1
  W  W3  1  0.174231  0.000000  0.250000  1
  O  O4  1  0.073009  0.237714  0.488566  1
  O  O5  1  0.935339  0.219739  0.005126  1
  O  O6  1  0.593766  0.254371  0.608783  1
  O  O7  1  0.407723  0.240661  0.109094  1
  O  O8  1  0.593766  0.745629  0.891217  1
  O  O9  1  0.407723  0.759339  0.390906  1
  O  O10  1  0.073009  0.762286  0.011434  1
  O  O11  1  0.935339  0.780261  0.494874  1
