# generated using pymatgen
data_TmLu2Sc7(NiPb3)2
_symmetry_space_group_name_H-M   'P 1'
_cell_length_a   8.83683100
_cell_length_b   8.83157871
_cell_length_c   6.29037000
_cell_angle_alpha   90.00000000
_cell_angle_beta   90.00000000
_cell_angle_gamma   120.01967129
_symmetry_Int_Tables_number   1
_chemical_formula_structural   TmLu2Sc7(NiPb3)2
_chemical_formula_sum   'Tm1 Lu2 Sc7 Ni2 Pb6'
_cell_volume   425.06524421
_cell_formula_units_Z   1
loop_
 _symmetry_equiv_pos_site_id
 _symmetry_equiv_pos_as_xyz
  1  'x, y, z'
loop_
 _atom_site_type_symbol
 _atom_site_label
 _atom_site_symmetry_multiplicity
 _atom_site_fract_x
 _atom_site_fract_y
 _atom_site_fract_z
 _atom_site_occupancy
  Tm  Tm0  1  0.770978  0.000000  0.750000  1
  Lu  Lu1  1  0.000265  0.772730  0.750000  1
  Lu  Lu2  1  0.227536  0.227270  0.750000  1
  Sc  Sc3  1  0.744233  0.744174  0.250000  1
  Sc  Sc4  1  0.333522  0.666878  0.498720  1
  Sc  Sc5  1  0.255019  0.000000  0.250000  1
  Sc  Sc6  1  0.000059  0.255826  0.250000  1
  Sc  Sc7  1  0.666645  0.333122  0.498720  1
  Sc  Sc8  1  0.333522  0.666878  0.001280  1
  Sc  Sc9  1  0.666645  0.333122  0.001280  1
  Ni  Ni10  1  0.000691  0.000000  0.052454  1
  Ni  Ni11  1  0.000691  0.000000  0.447546  1
  Pb  Pb12  1  0.406148  0.000000  0.750000  1
  Pb  Pb13  1  0.609381  0.000000  0.250000  1
  Pb  Pb14  1  0.390421  0.389938  0.250000  1
  Pb  Pb15  1  0.000482  0.610062  0.250000  1
  Pb  Pb16  1  0.000752  0.407740  0.750000  1
  Pb  Pb17  1  0.593011  0.592260  0.750000  1
