# generated using pymatgen
data_Pr2B2Pt5Rh3
_symmetry_space_group_name_H-M   'P 1'
_cell_length_a   5.49562144
_cell_length_b   5.49180916
_cell_length_c   7.57938400
_cell_angle_alpha   90.00000000
_cell_angle_beta   90.00000000
_cell_angle_gamma   119.97706850
_symmetry_Int_Tables_number   1
_chemical_formula_structural   Pr2B2Pt5Rh3
_chemical_formula_sum   'Pr2 B2 Pt5 Rh3'
_cell_volume   198.15137750
_cell_formula_units_Z   1
loop_
 _symmetry_equiv_pos_site_id
 _symmetry_equiv_pos_as_xyz
  1  'x, y, z'
loop_
 _atom_site_type_symbol
 _atom_site_label
 _atom_site_symmetry_multiplicity
 _atom_site_fract_x
 _atom_site_fract_y
 _atom_site_fract_z
 _atom_site_occupancy
  Pr  Pr0  1  0.000000  0.000000  0.496748  1
  Pr  Pr1  1  0.000000  0.000000  0.001738  1
  B  B2  1  0.667047  0.333523  0.497958  1
  B  B3  1  0.332953  0.666477  0.497958  1
  Pt  Pt4  1  0.667022  0.333511  0.001351  1
  Pt  Pt5  1  0.500000  0.000000  0.697900  1
  Pt  Pt6  1  0.500000  0.500000  0.697900  1
  Pt  Pt7  1  0.332978  0.666489  0.001351  1
  Pt  Pt8  1  0.000000  0.500000  0.301769  1
  Rh  Rh9  1  0.500000  0.500000  0.305078  1
  Rh  Rh10  1  0.500000  0.000000  0.305078  1
  Rh  Rh11  1  0.000000  0.500000  0.695172  1
