# generated using pymatgen
data_CeLu5TcPt
_symmetry_space_group_name_H-M   'P 1'
_cell_length_a   6.30599400
_cell_length_b   7.08206800
_cell_length_c   9.24944000
_cell_angle_alpha   90.00000000
_cell_angle_beta   90.00000000
_cell_angle_gamma   90.00000000
_symmetry_Int_Tables_number   1
_chemical_formula_structural   CeLu5TcPt
_chemical_formula_sum   'Ce2 Lu10 Tc2 Pt2'
_cell_volume   413.07516511
_cell_formula_units_Z   2
loop_
 _symmetry_equiv_pos_site_id
 _symmetry_equiv_pos_as_xyz
  1  'x, y, z'
loop_
 _atom_site_type_symbol
 _atom_site_label
 _atom_site_symmetry_multiplicity
 _atom_site_fract_x
 _atom_site_fract_y
 _atom_site_fract_z
 _atom_site_occupancy
  Ce  Ce0  1  0.871263  0.551153  0.250000  1
  Ce  Ce1  1  0.628737  0.051153  0.250000  1
  Lu  Lu2  1  0.328195  0.680391  0.062519  1
  Lu  Lu3  1  0.171805  0.180391  0.437481  1
  Lu  Lu4  1  0.669835  0.319629  0.562405  1
  Lu  Lu5  1  0.830165  0.819629  0.937595  1
  Lu  Lu6  1  0.669835  0.319629  0.937595  1
  Lu  Lu7  1  0.830165  0.819629  0.562405  1
  Lu  Lu8  1  0.328195  0.680391  0.437481  1
  Lu  Lu9  1  0.171805  0.180391  0.062519  1
  Lu  Lu10  1  0.131883  0.469797  0.750000  1
  Lu  Lu11  1  0.368117  0.969797  0.750000  1
  Tc  Tc12  1  0.007549  0.864853  0.250000  1
  Tc  Tc13  1  0.492451  0.364853  0.250000  1
  Pt  Pt14  1  0.950253  0.114158  0.750000  1
  Pt  Pt15  1  0.549747  0.614158  0.750000  1
