# generated using pymatgen
data_K3MnCo5P6
_symmetry_space_group_name_H-M   'P 1'
_cell_length_a   5.26418442
_cell_length_b   7.12967778
_cell_length_c   8.31508629
_cell_angle_alpha   110.46109262
_cell_angle_beta   108.41590185
_cell_angle_gamma   90.01614294
_symmetry_Int_Tables_number   1
_chemical_formula_structural   K3MnCo5P6
_chemical_formula_sum   'K3 Mn1 Co5 P6'
_cell_volume   275.25801598
_cell_formula_units_Z   1
loop_
 _symmetry_equiv_pos_site_id
 _symmetry_equiv_pos_as_xyz
  1  'x, y, z'
loop_
 _atom_site_type_symbol
 _atom_site_label
 _atom_site_symmetry_multiplicity
 _atom_site_fract_x
 _atom_site_fract_y
 _atom_site_fract_z
 _atom_site_occupancy
  K  K0  1  0.998536  0.997256  0.998966  1
  K  K1  1  0.668564  0.999728  0.333177  1
  K  K2  1  0.332976  0.003175  0.667887  1
  Mn  Mn3  1  0.416766  0.500375  0.333471  1
  Co  Co4  1  0.082894  0.500167  0.665840  1
  Co  Co5  1  0.750339  0.499682  0.000803  1
  Co  Co6  1  0.584427  0.500083  0.668618  1
  Co  Co7  1  0.249034  0.499664  0.997995  1
  Co  Co8  1  0.916582  0.499990  0.333303  1
  P  P9  1  0.221167  0.320460  0.437725  1
  P  P10  1  0.887556  0.325584  0.775194  1
  P  P11  1  0.552297  0.319884  0.109316  1
  P  P12  1  0.776695  0.680289  0.557602  1
  P  P13  1  0.445788  0.674172  0.891472  1
  P  P14  1  0.116379  0.679489  0.228630  1
