# generated using pymatgen
data_Lu12Tc3Pd2
_symmetry_space_group_name_H-M   'P 1'
_cell_length_a   8.09744039
_cell_length_b   8.09744199
_cell_length_c   8.09744153
_cell_angle_alpha   110.68894318
_cell_angle_beta   110.68895498
_cell_angle_gamma   107.06228500
_symmetry_Int_Tables_number   1
_chemical_formula_structural   Lu12Tc3Pd2
_chemical_formula_sum   'Lu12 Tc3 Pd2'
_cell_volume   408.17691449
_cell_formula_units_Z   1
loop_
 _symmetry_equiv_pos_site_id
 _symmetry_equiv_pos_as_xyz
  1  'x, y, z'
loop_
 _atom_site_type_symbol
 _atom_site_label
 _atom_site_symmetry_multiplicity
 _atom_site_fract_x
 _atom_site_fract_y
 _atom_site_fract_z
 _atom_site_occupancy
  Lu  Lu0  1  0.320802  0.320802  0.641607  1
  Lu  Lu1  1  0.679198  0.679198  0.358393  1
  Lu  Lu2  1  0.679198  0.320802  0.000000  1
  Lu  Lu3  1  0.320802  0.679198  0.000000  1
  Lu  Lu4  1  0.181929  0.437353  0.255424  1
  Lu  Lu5  1  0.818071  0.562647  0.744576  1
  Lu  Lu6  1  0.181929  0.926505  0.744576  1
  Lu  Lu7  1  0.926505  0.181929  0.744576  1
  Lu  Lu8  1  0.818071  0.073495  0.255424  1
  Lu  Lu9  1  0.073495  0.818071  0.255424  1
  Lu  Lu10  1  0.437353  0.181929  0.255424  1
  Lu  Lu11  1  0.562647  0.818071  0.744576  1
  Tc  Tc12  1  0.333174  0.333174  0.000000  1
  Tc  Tc13  1  0.666826  0.666826  0.000000  1
  Tc  Tc14  1  0.000000  0.000000  0.000000  1
  Pd  Pd15  1  0.000000  0.500000  0.500000  1
  Pd  Pd16  1  0.500000  0.000000  0.500000  1
