# generated using pymatgen
data_DyEr3(In2Cl5)4
_symmetry_space_group_name_H-M   'P 1'
_cell_length_a   8.25035927
_cell_length_b   8.53038900
_cell_length_c   13.06170343
_cell_angle_alpha   90.00000000
_cell_angle_beta   89.97068697
_cell_angle_gamma   90.00000000
_symmetry_Int_Tables_number   1
_chemical_formula_structural   DyEr3(In2Cl5)4
_chemical_formula_sum   'Dy1 Er3 In8 Cl20'
_cell_volume   919.26655277
_cell_formula_units_Z   1
loop_
 _symmetry_equiv_pos_site_id
 _symmetry_equiv_pos_as_xyz
  1  'x, y, z'
loop_
 _atom_site_type_symbol
 _atom_site_label
 _atom_site_symmetry_multiplicity
 _atom_site_fract_x
 _atom_site_fract_y
 _atom_site_fract_z
 _atom_site_occupancy
  Dy  Dy0  1  0.928103  0.750000  0.503649  1
  Er  Er1  1  0.071756  0.250000  0.496405  1
  Er  Er2  1  0.428256  0.250000  0.996414  1
  Er  Er3  1  0.571770  0.750000  0.003587  1
  In  In4  1  0.947797  0.004162  0.827237  1
  In  In5  1  0.052198  0.995848  0.172770  1
  In  In6  1  0.447774  0.995869  0.672766  1
  In  In7  1  0.052198  0.504152  0.172770  1
  In  In8  1  0.552173  0.004159  0.327234  1
  In  In9  1  0.947797  0.495838  0.827237  1
  In  In10  1  0.552173  0.495841  0.327234  1
  In  In11  1  0.447774  0.504131  0.672766  1
  Cl  Cl12  1  0.105844  0.750000  0.675398  1
  Cl  Cl13  1  0.894921  0.250000  0.325326  1
  Cl  Cl14  1  0.605053  0.250000  0.825328  1
  Cl  Cl15  1  0.394934  0.750000  0.174681  1
  Cl  Cl16  1  0.841335  0.044943  0.569954  1
  Cl  Cl17  1  0.159042  0.956491  0.430025  1
  Cl  Cl18  1  0.341589  0.955903  0.930257  1
  Cl  Cl19  1  0.159042  0.543509  0.430025  1
  Cl  Cl20  1  0.658415  0.044097  0.069752  1
  Cl  Cl21  1  0.841335  0.455057  0.569954  1
  Cl  Cl22  1  0.658415  0.455903  0.069752  1
  Cl  Cl23  1  0.341589  0.544097  0.930257  1
  Cl  Cl24  1  0.597487  0.750000  0.511059  1
  Cl  Cl25  1  0.401527  0.250000  0.488968  1
  Cl  Cl26  1  0.098527  0.250000  0.988945  1
  Cl  Cl27  1  0.901456  0.750000  0.011046  1
  Cl  Cl28  1  0.654370  0.750000  0.805682  1
  Cl  Cl29  1  0.345645  0.250000  0.194320  1
  Cl  Cl30  1  0.154370  0.250000  0.694320  1
  Cl  Cl31  1  0.845335  0.750000  0.304883  1
