# generated using pymatgen
data_AcPr3(Si5Os3)2
_symmetry_space_group_name_H-M   'P 1'
_cell_length_a   8.29436329
_cell_length_b   8.29718511
_cell_length_c   5.93602411
_cell_angle_alpha   70.22332631
_cell_angle_beta   70.47575666
_cell_angle_gamma   93.55438579
_symmetry_Int_Tables_number   1
_chemical_formula_structural   AcPr3(Si5Os3)2
_chemical_formula_sum   'Ac1 Pr3 Si10 Os6'
_cell_volume   355.18804152
_cell_formula_units_Z   1
loop_
 _symmetry_equiv_pos_site_id
 _symmetry_equiv_pos_as_xyz
  1  'x, y, z'
loop_
 _atom_site_type_symbol
 _atom_site_label
 _atom_site_symmetry_multiplicity
 _atom_site_fract_x
 _atom_site_fract_y
 _atom_site_fract_z
 _atom_site_occupancy
  Ac  Ac0  1  0.604540  0.865493  0.257171  1
  Pr  Pr1  1  0.866337  0.603390  0.755397  1
  Pr  Pr2  1  0.395293  0.133189  0.745144  1
  Pr  Pr3  1  0.132134  0.398126  0.244146  1
  Si  Si4  1  0.059288  0.259190  0.836441  1
  Si  Si5  1  0.743835  0.942928  0.661433  1
  Si  Si6  1  0.946196  0.738392  0.161717  1
  Si  Si7  1  0.257971  0.061992  0.337818  1
  Si  Si8  1  0.208471  0.787856  0.753975  1
  Si  Si9  1  0.793430  0.214028  0.247135  1
  Si  Si10  1  0.509500  0.484913  0.754897  1
  Si  Si11  1  0.486570  0.507834  0.249862  1
  Si  Si12  1  0.769193  0.234228  0.747218  1
  Si  Si13  1  0.225590  0.768936  0.248949  1
  Os  Os14  1  0.255252  0.540399  0.631290  1
  Os  Os15  1  0.460195  0.742644  0.867399  1
  Os  Os16  1  0.741888  0.459043  0.366437  1
  Os  Os17  1  0.540707  0.256290  0.134680  1
  Os  Os18  1  0.005832  0.996584  0.749130  1
  Os  Os19  1  0.997779  0.004547  0.249761  1
