# generated using pymatgen
data_Fe3Si3(NiMo2)2
_symmetry_space_group_name_H-M   'P 1'
_cell_length_a   4.75749559
_cell_length_b   4.75749582
_cell_length_c   7.65994600
_cell_angle_alpha   90.00000000
_cell_angle_beta   90.00000000
_cell_angle_gamma   120.15126669
_symmetry_Int_Tables_number   1
_chemical_formula_structural   Fe3Si3(NiMo2)2
_chemical_formula_sum   'Fe3 Si3 Ni2 Mo4'
_cell_volume   149.91640189
_cell_formula_units_Z   1
loop_
 _symmetry_equiv_pos_site_id
 _symmetry_equiv_pos_as_xyz
  1  'x, y, z'
loop_
 _atom_site_type_symbol
 _atom_site_label
 _atom_site_symmetry_multiplicity
 _atom_site_fract_x
 _atom_site_fract_y
 _atom_site_fract_z
 _atom_site_occupancy
  Fe  Fe0  1  0.824525  0.175475  0.000000  1
  Fe  Fe1  1  0.336768  0.173252  0.000000  1
  Fe  Fe2  1  0.826748  0.663232  0.000000  1
  Si  Si3  1  0.990241  0.009759  0.247855  1
  Si  Si4  1  0.990241  0.009759  0.752145  1
  Si  Si5  1  0.188178  0.811822  0.500000  1
  Ni  Ni6  1  0.675837  0.822592  0.500000  1
  Ni  Ni7  1  0.177408  0.324163  0.500000  1
  Mo  Mo8  1  0.329401  0.670599  0.820650  1
  Mo  Mo9  1  0.665639  0.334361  0.690540  1
  Mo  Mo10  1  0.665639  0.334361  0.309460  1
  Mo  Mo11  1  0.329401  0.670599  0.179350  1
