# generated using pymatgen
data_Hf6Nb4CuSn7
_symmetry_space_group_name_H-M   'P 1'
_cell_length_a   5.75907003
_cell_length_b   8.56944220
_cell_length_c   8.56840304
_cell_angle_alpha   120.00402071
_cell_angle_beta   90.00300998
_cell_angle_gamma   89.99398009
_symmetry_Int_Tables_number   1
_chemical_formula_structural   Hf6Nb4CuSn7
_chemical_formula_sum   'Hf6 Nb4 Cu1 Sn7'
_cell_volume   366.19957201
_cell_formula_units_Z   1
loop_
 _symmetry_equiv_pos_site_id
 _symmetry_equiv_pos_as_xyz
  1  'x, y, z'
loop_
 _atom_site_type_symbol
 _atom_site_label
 _atom_site_symmetry_multiplicity
 _atom_site_fract_x
 _atom_site_fract_y
 _atom_site_fract_z
 _atom_site_occupancy
  Hf  Hf0  1  0.733296  0.275691  0.000000  1
  Hf  Hf1  1  0.733256  0.724338  0.724314  1
  Hf  Hf2  1  0.733256  0.000025  0.275686  1
  Hf  Hf3  1  0.266718  0.724332  0.000000  1
  Hf  Hf4  1  0.266750  0.275634  0.275675  1
  Hf  Hf5  1  0.266750  0.999959  0.724325  1
  Nb  Nb6  1  0.500042  0.333296  0.666615  1
  Nb  Nb7  1  0.500042  0.666681  0.333385  1
  Nb  Nb8  1  0.999944  0.666688  0.333336  1
  Nb  Nb9  1  0.999944  0.333352  0.666664  1
  Cu  Cu10  1  0.499923  0.000005  0.000000  1
  Sn  Sn11  1  0.756980  0.612916  0.000000  1
  Sn  Sn12  1  0.757047  0.387106  0.387078  1
  Sn  Sn13  1  0.757047  0.000029  0.612922  1
  Sn  Sn14  1  0.243056  0.387119  0.000000  1
  Sn  Sn15  1  0.242966  0.612856  0.612881  1
  Sn  Sn16  1  0.242966  0.999975  0.387119  1
  Sn  Sn17  1  0.000017  0.999999  0.000000  1
