# generated using pymatgen
data_Dy2ErAl12CoOs3
_symmetry_space_group_name_H-M   'P 1'
_cell_length_a   8.76141450
_cell_length_b   8.76141364
_cell_length_c   9.50371700
_cell_angle_alpha   90.00000000
_cell_angle_beta   90.00000000
_cell_angle_gamma   120.03888224
_symmetry_Int_Tables_number   1
_chemical_formula_structural   Dy2ErAl12CoOs3
_chemical_formula_sum   'Dy4 Er2 Al24 Co2 Os6'
_cell_volume   631.54201403
_cell_formula_units_Z   2
loop_
 _symmetry_equiv_pos_site_id
 _symmetry_equiv_pos_as_xyz
  1  'x, y, z'
loop_
 _atom_site_type_symbol
 _atom_site_label
 _atom_site_symmetry_multiplicity
 _atom_site_fract_x
 _atom_site_fract_y
 _atom_site_fract_z
 _atom_site_occupancy
  Dy  Dy0  1  0.194173  0.388431  0.250000  1
  Dy  Dy1  1  0.805827  0.611569  0.750000  1
  Dy  Dy2  1  0.611569  0.805827  0.250000  1
  Dy  Dy3  1  0.388431  0.194173  0.750000  1
  Er  Er4  1  0.194478  0.805522  0.250000  1
  Er  Er5  1  0.805522  0.194478  0.750000  1
  Al  Al6  1  0.333246  0.666754  0.016565  1
  Al  Al7  1  0.666754  0.333246  0.983435  1
  Al  Al8  1  0.666754  0.333246  0.516565  1
  Al  Al9  1  0.333246  0.666754  0.483435  1
  Al  Al10  1  0.159218  0.318691  0.575905  1
  Al  Al11  1  0.840782  0.681309  0.424095  1
  Al  Al12  1  0.681309  0.840782  0.575905  1
  Al  Al13  1  0.840782  0.681309  0.075905  1
  Al  Al14  1  0.318691  0.159218  0.424095  1
  Al  Al15  1  0.159218  0.318691  0.924095  1
  Al  Al16  1  0.159382  0.840618  0.575688  1
  Al  Al17  1  0.318691  0.159218  0.075905  1
  Al  Al18  1  0.840618  0.159382  0.424312  1
  Al  Al19  1  0.681309  0.840782  0.924095  1
  Al  Al20  1  0.840618  0.159382  0.075688  1
  Al  Al21  1  0.159382  0.840618  0.924312  1
  Al  Al22  1  0.561309  0.122944  0.250000  1
  Al  Al23  1  0.438691  0.877056  0.750000  1
  Al  Al24  1  0.877056  0.438691  0.250000  1
  Al  Al25  1  0.122944  0.561309  0.750000  1
  Al  Al26  1  0.561596  0.438404  0.250000  1
  Al  Al27  1  0.438404  0.561596  0.750000  1
  Al  Al28  1  0.000149  0.999851  0.250000  1
  Al  Al29  1  0.999851  0.000149  0.750000  1
  Co  Co30  1  0.000000  0.000000  0.000000  1
  Co  Co31  1  0.000000  0.000000  0.500000  1
  Os  Os32  1  0.500000  0.000000  0.000000  1
  Os  Os33  1  0.000000  0.500000  0.000000  1
  Os  Os34  1  0.500000  0.000000  0.500000  1
  Os  Os35  1  0.500000  0.500000  0.000000  1
  Os  Os36  1  0.000000  0.500000  0.500000  1
  Os  Os37  1  0.500000  0.500000  0.500000  1
