# generated using pymatgen
data_Ho9Sc11Sn16
_symmetry_space_group_name_H-M   'P 1'
_cell_length_a   7.72687179
_cell_length_b   7.92596353
_cell_length_c   14.90309504
_cell_angle_alpha   90.09306797
_cell_angle_beta   90.08640872
_cell_angle_gamma   90.06079982
_symmetry_Int_Tables_number   1
_chemical_formula_structural   Ho9Sc11Sn16
_chemical_formula_sum   'Ho9 Sc11 Sn16'
_cell_volume   912.70606061
_cell_formula_units_Z   1
loop_
 _symmetry_equiv_pos_site_id
 _symmetry_equiv_pos_as_xyz
  1  'x, y, z'
loop_
 _atom_site_type_symbol
 _atom_site_label
 _atom_site_symmetry_multiplicity
 _atom_site_fract_x
 _atom_site_fract_y
 _atom_site_fract_z
 _atom_site_occupancy
  Ho  Ho0  1  0.852178  0.663138  0.876336  1
  Ho  Ho1  1  0.513942  0.322323  0.905307  1
  Ho  Ho2  1  0.013985  0.177703  0.592426  1
  Ho  Ho3  1  0.486355  0.677452  0.406022  1
  Ho  Ho4  1  0.985757  0.822497  0.096553  1
  Ho  Ho5  1  0.487636  0.676858  0.095332  1
  Ho  Ho6  1  0.986454  0.822573  0.405351  1
  Ho  Ho7  1  0.512737  0.321425  0.593151  1
  Ho  Ho8  1  0.013813  0.178109  0.905221  1
  Sc  Sc9  1  0.350314  0.837642  0.872500  1
  Sc  Sc10  1  0.850058  0.661655  0.625494  1
  Sc  Sc11  1  0.649588  0.160791  0.373553  1
  Sc  Sc12  1  0.149189  0.338573  0.126835  1
  Sc  Sc13  1  0.646883  0.160300  0.129629  1
  Sc  Sc14  1  0.149565  0.338728  0.373712  1
  Sc  Sc15  1  0.351203  0.839851  0.624274  1
  Sc  Sc16  1  0.181337  0.504408  0.749352  1
  Sc  Sc17  1  0.680140  0.995305  0.748984  1
  Sc  Sc18  1  0.819051  0.494175  0.251027  1
  Sc  Sc19  1  0.318834  0.004692  0.249848  1
  Sn  Sn20  1  0.309768  0.041842  0.042401  1
  Sn  Sn21  1  0.810717  0.457675  0.457420  1
  Sn  Sn22  1  0.690346  0.957157  0.541541  1
  Sn  Sn23  1  0.198762  0.541509  0.959426  1
  Sn  Sn24  1  0.684277  0.965667  0.959594  1
  Sn  Sn25  1  0.189323  0.542926  0.541715  1
  Sn  Sn26  1  0.310690  0.043370  0.456549  1
  Sn  Sn27  1  0.808364  0.451913  0.046757  1
  Sn  Sn28  1  0.541450  0.624020  0.746361  1
  Sn  Sn29  1  0.046625  0.879830  0.746498  1
  Sn  Sn30  1  0.455260  0.374812  0.251648  1
  Sn  Sn31  1  0.956347  0.125094  0.250725  1
  Sn  Sn32  1  0.320380  0.150062  0.749022  1
  Sn  Sn33  1  0.819606  0.347617  0.748067  1
  Sn  Sn34  1  0.679133  0.849372  0.251124  1
  Sn  Sn35  1  0.179935  0.648935  0.250250  1
