# generated using pymatgen
data_LuNb8RhSe16
_symmetry_space_group_name_H-M   'P 1'
_cell_length_a   7.04418300
_cell_length_b   7.04418251
_cell_length_c   13.31229300
_cell_angle_alpha   90.00000000
_cell_angle_beta   90.00000000
_cell_angle_gamma   120.00001637
_symmetry_Int_Tables_number   1
_chemical_formula_structural   LuNb8RhSe16
_chemical_formula_sum   'Lu1 Nb8 Rh1 Se16'
_cell_volume   572.06405171
_cell_formula_units_Z   1
loop_
 _symmetry_equiv_pos_site_id
 _symmetry_equiv_pos_as_xyz
  1  'x, y, z'
loop_
 _atom_site_type_symbol
 _atom_site_label
 _atom_site_symmetry_multiplicity
 _atom_site_fract_x
 _atom_site_fract_y
 _atom_site_fract_z
 _atom_site_occupancy
  Lu  Lu0  1  0.000000  0.000000  0.500000  1
  Nb  Nb1  1  0.000000  0.000000  0.232947  1
  Nb  Nb2  1  0.000000  0.000000  0.767053  1
  Nb  Nb3  1  0.509306  0.018611  0.233214  1
  Nb  Nb4  1  0.981389  0.490694  0.233214  1
  Nb  Nb5  1  0.509306  0.490694  0.233214  1
  Nb  Nb6  1  0.490694  0.981389  0.766786  1
  Nb  Nb7  1  0.018611  0.509306  0.766786  1
  Nb  Nb8  1  0.490694  0.509306  0.766786  1
  Rh  Rh9  1  0.000000  0.000000  0.000000  1
  Se  Se10  1  0.333333  0.666667  0.897370  1
  Se  Se11  1  0.666667  0.333333  0.102630  1
  Se  Se12  1  0.666667  0.333333  0.365721  1
  Se  Se13  1  0.333333  0.666667  0.634279  1
  Se  Se14  1  0.168677  0.831323  0.358636  1
  Se  Se15  1  0.168677  0.337357  0.358636  1
  Se  Se16  1  0.662643  0.831323  0.358636  1
  Se  Se17  1  0.831323  0.168677  0.641364  1
  Se  Se18  1  0.831323  0.662643  0.641364  1
  Se  Se19  1  0.337357  0.168677  0.641364  1
  Se  Se20  1  0.830837  0.169163  0.888775  1
  Se  Se21  1  0.830837  0.661674  0.888775  1
  Se  Se22  1  0.338326  0.169163  0.888775  1
  Se  Se23  1  0.169163  0.830837  0.111225  1
  Se  Se24  1  0.169163  0.338326  0.111225  1
  Se  Se25  1  0.661674  0.830837  0.111225  1
