# generated using pymatgen
data_Tb4Cu3Ni11
_symmetry_space_group_name_H-M   'P 1'
_cell_length_a   4.95918726
_cell_length_b   4.96026736
_cell_length_c   12.46441718
_cell_angle_alpha   78.52285802
_cell_angle_beta   78.59550427
_cell_angle_gamma   59.99278176
_symmetry_Int_Tables_number   1
_chemical_formula_structural   Tb4Cu3Ni11
_chemical_formula_sum   'Tb4 Cu3 Ni11'
_cell_volume   258.45558373
_cell_formula_units_Z   1
loop_
 _symmetry_equiv_pos_site_id
 _symmetry_equiv_pos_as_xyz
  1  'x, y, z'
loop_
 _atom_site_type_symbol
 _atom_site_label
 _atom_site_symmetry_multiplicity
 _atom_site_fract_x
 _atom_site_fract_y
 _atom_site_fract_z
 _atom_site_occupancy
  Tb  Tb0  1  0.948554  0.949001  0.153446  1
  Tb  Tb1  1  0.051446  0.050999  0.846554  1
  Tb  Tb2  1  0.852443  0.853281  0.440996  1
  Tb  Tb3  1  0.147557  0.146719  0.559004  1
  Cu  Cu4  1  0.717819  0.724018  0.834146  1
  Cu  Cu5  1  0.282181  0.275982  0.165854  1
  Cu  Cu6  1  0.000000  0.500000  0.000000  1
  Ni  Ni7  1  0.500000  0.500000  0.500000  1
  Ni  Ni8  1  0.606760  0.614062  0.165116  1
  Ni  Ni9  1  0.393240  0.385938  0.834884  1
  Ni  Ni10  1  0.500000  0.000000  0.000000  1
  Ni  Ni11  1  0.500000  0.500000  0.000000  1
  Ni  Ni12  1  0.390851  0.390873  0.329569  1
  Ni  Ni13  1  0.890530  0.390008  0.329453  1
  Ni  Ni14  1  0.390851  0.888708  0.329569  1
  Ni  Ni15  1  0.609149  0.609127  0.670431  1
  Ni  Ni16  1  0.109470  0.609992  0.670547  1
  Ni  Ni17  1  0.609149  0.111292  0.670431  1
