# generated using pymatgen
data_BaHf3Zr(PO4)6
_symmetry_space_group_name_H-M   'P 1'
_cell_length_a   8.76063214
_cell_length_b   8.76063251
_cell_length_c   9.50078607
_cell_angle_alpha   62.54526657
_cell_angle_beta   117.45473274
_cell_angle_gamma   120.00000000
_symmetry_Int_Tables_number   1
_chemical_formula_structural   BaHf3Zr(PO4)6
_chemical_formula_sum   'Ba1 Hf3 Zr1 P6 O24'
_cell_volume   534.55627827
_cell_formula_units_Z   1
loop_
 _symmetry_equiv_pos_site_id
 _symmetry_equiv_pos_as_xyz
  1  'x, y, z'
loop_
 _atom_site_type_symbol
 _atom_site_label
 _atom_site_symmetry_multiplicity
 _atom_site_fract_x
 _atom_site_fract_y
 _atom_site_fract_z
 _atom_site_occupancy
  Ba  Ba0  1  0.000121  0.999879  0.000363  1
  Hf  Hf1  1  0.352781  0.647220  0.058341  1
  Hf  Hf2  1  0.150669  0.849331  0.452006  1
  Hf  Hf3  1  0.848824  0.151176  0.546471  1
  Zr  Zr4  1  0.646806  0.353195  0.940419  1
  P  P5  1  0.752217  0.539385  0.246940  1
  P  P6  1  0.034109  0.247783  0.246940  1
  P  P7  1  0.460616  0.965892  0.246940  1
  P  P8  1  0.538327  0.029605  0.753392  1
  P  P9  1  0.970394  0.755328  0.753392  1
  P  P10  1  0.244672  0.461674  0.753392  1
  O  O11  1  0.853981  0.232612  0.099348  1
  O  O12  1  0.477978  0.146017  0.099348  1
  O  O13  1  0.767387  0.522020  0.099348  1
  O  O14  1  0.564374  0.550912  0.200000  1
  O  O15  1  0.186535  0.435625  0.200000  1
  O  O16  1  0.449089  0.813464  0.200000  1
  O  O17  1  0.910586  0.721156  0.282172  1
  O  O18  1  0.092742  0.089415  0.282172  1
  O  O19  1  0.278845  0.907259  0.282172  1
  O  O20  1  0.776635  0.376083  0.405221  1
  O  O21  1  0.004669  0.223365  0.405221  1
  O  O22  1  0.623918  0.995331  0.405221  1
  O  O23  1  0.376770  0.001793  0.594348  1
  O  O24  1  0.998206  0.780629  0.594348  1
  O  O25  1  0.219370  0.623230  0.594348  1
  O  O26  1  0.720069  0.086310  0.719254  1
  O  O27  1  0.913690  0.914505  0.719254  1
  O  O28  1  0.085494  0.279931  0.719254  1
  O  O29  1  0.549730  0.183471  0.798386  1
  O  O30  1  0.816529  0.567874  0.798386  1
  O  O31  1  0.432127  0.450270  0.798386  1
  O  O32  1  0.233337  0.481276  0.901742  1
  O  O33  1  0.518724  0.850320  0.901742  1
  O  O34  1  0.149680  0.766664  0.901742  1
