# generated using pymatgen
data_Sc22CoOs6Rh
_symmetry_space_group_name_H-M   'P 1'
_cell_length_a   9.43553247
_cell_length_b   9.43664466
_cell_length_c   9.43530864
_cell_angle_alpha   59.99532390
_cell_angle_beta   60.06075383
_cell_angle_gamma   59.99598601
_symmetry_Int_Tables_number   1
_chemical_formula_structural   Sc22CoOs6Rh
_chemical_formula_sum   'Sc22 Co1 Os6 Rh1'
_cell_volume   594.28611734
_cell_formula_units_Z   1
loop_
 _symmetry_equiv_pos_site_id
 _symmetry_equiv_pos_as_xyz
  1  'x, y, z'
loop_
 _atom_site_type_symbol
 _atom_site_label
 _atom_site_symmetry_multiplicity
 _atom_site_fract_x
 _atom_site_fract_y
 _atom_site_fract_z
 _atom_site_occupancy
  Sc  Sc0  1  0.843683  0.843314  0.843676  1
  Sc  Sc1  1  0.531109  0.157126  0.154637  1
  Sc  Sc2  1  0.154641  0.157122  0.531110  1
  Sc  Sc3  1  0.156314  0.530672  0.156322  1
  Sc  Sc4  1  0.845359  0.842878  0.468890  1
  Sc  Sc5  1  0.843686  0.469328  0.843678  1
  Sc  Sc6  1  0.468891  0.842874  0.845363  1
  Sc  Sc7  1  0.156317  0.156686  0.156324  1
  Sc  Sc8  1  0.198698  0.801302  0.198698  1
  Sc  Sc9  1  0.196637  0.800450  0.803362  1
  Sc  Sc10  1  0.803363  0.199550  0.196638  1
  Sc  Sc11  1  0.803363  0.800448  0.196638  1
  Sc  Sc12  1  0.196637  0.199552  0.803362  1
  Sc  Sc13  1  0.801302  0.198698  0.801302  1
  Sc  Sc14  1  0.382532  0.388786  0.382531  1
  Sc  Sc15  1  0.152824  0.615621  0.615932  1
  Sc  Sc16  1  0.617470  0.153848  0.617468  1
  Sc  Sc17  1  0.615928  0.615624  0.152821  1
  Sc  Sc18  1  0.382530  0.846152  0.382532  1
  Sc  Sc19  1  0.384072  0.384376  0.847179  1
  Sc  Sc20  1  0.847176  0.384379  0.384068  1
  Sc  Sc21  1  0.617468  0.611214  0.617469  1
  Co  Co22  1  0.500000  0.500000  0.500000  1
  Os  Os23  1  0.500000  0.500000  0.000000  1
  Os  Os24  1  0.000000  0.000000  0.500000  1
  Os  Os25  1  0.000000  0.500000  0.500000  1
  Os  Os26  1  0.500000  0.000000  0.000000  1
  Os  Os27  1  0.000000  0.500000  0.000000  1
  Os  Os28  1  0.000000  0.000000  0.000000  1
  Rh  Rh29  1  0.500000  0.000000  0.500000  1
