# generated using pymatgen
data_Zr8Tc4IrOs3
_symmetry_space_group_name_H-M   'P 1'
_cell_length_a   6.55147600
_cell_length_b   4.66245900
_cell_length_c   9.30968500
_cell_angle_alpha   90.00000000
_cell_angle_beta   90.00021216
_cell_angle_gamma   90.00000000
_symmetry_Int_Tables_number   1
_chemical_formula_structural   Zr8Tc4IrOs3
_chemical_formula_sum   'Zr8 Tc4 Ir1 Os3'
_cell_volume   284.37352852
_cell_formula_units_Z   1
loop_
 _symmetry_equiv_pos_site_id
 _symmetry_equiv_pos_as_xyz
  1  'x, y, z'
loop_
 _atom_site_type_symbol
 _atom_site_label
 _atom_site_symmetry_multiplicity
 _atom_site_fract_x
 _atom_site_fract_y
 _atom_site_fract_z
 _atom_site_occupancy
  Zr  Zr0  1  0.998141  0.749999  0.125009  1
  Zr  Zr1  1  0.501953  0.749999  0.125016  1
  Zr  Zr2  1  0.999131  0.249999  0.376200  1
  Zr  Zr3  1  0.501022  0.249999  0.376206  1
  Zr  Zr4  1  0.499997  0.749999  0.625009  1
  Zr  Zr5  1  0.999854  0.749999  0.625016  1
  Zr  Zr6  1  0.500885  0.249999  0.873773  1
  Zr  Zr7  1  0.999015  0.249999  0.873781  1
  Tc  Tc8  1  0.750061  0.249999  0.124999  1
  Tc  Tc9  1  0.250066  0.749999  0.374188  1
  Tc  Tc10  1  0.749939  0.249999  0.625001  1
  Tc  Tc11  1  0.249938  0.749999  0.875807  1
  Ir  Ir12  1  0.250065  0.249999  0.124997  1
  Os  Os13  1  0.750068  0.749999  0.374485  1
  Os  Os14  1  0.249933  0.249999  0.624993  1
  Os  Os15  1  0.749933  0.749999  0.875519  1
