# generated using pymatgen
data_ErCoTeO6
_symmetry_space_group_name_H-M   'P 1'
_cell_length_a   5.03611900
_cell_length_b   5.03638788
_cell_length_c   9.62964100
_cell_angle_alpha   89.99543808
_cell_angle_beta   90.00228677
_cell_angle_gamma   120.00174814
_symmetry_Int_Tables_number   1
_chemical_formula_structural   ErCoTeO6
_chemical_formula_sum   'Er2 Co2 Te2 O12'
_cell_volume   211.51843777
_cell_formula_units_Z   2
loop_
 _symmetry_equiv_pos_site_id
 _symmetry_equiv_pos_as_xyz
  1  'x, y, z'
loop_
 _atom_site_type_symbol
 _atom_site_label
 _atom_site_symmetry_multiplicity
 _atom_site_fract_x
 _atom_site_fract_y
 _atom_site_fract_z
 _atom_site_occupancy
  Er  Er0  1  0.000000  0.000000  0.000000  1
  Er  Er1  1  0.000000  0.000000  0.500000  1
  Co  Co2  1  0.333236  0.666618  0.250000  1
  Co  Co3  1  0.666764  0.333382  0.750000  1
  Te  Te4  1  0.333185  0.666592  0.750000  1
  Te  Te5  1  0.666815  0.333408  0.250000  1
  O  O6  1  0.359325  0.362919  0.139194  1
  O  O7  1  0.637045  0.996487  0.139207  1
  O  O8  1  0.003429  0.640534  0.139226  1
  O  O9  1  0.640675  0.637081  0.860806  1
  O  O10  1  0.362955  0.003513  0.860793  1
  O  O11  1  0.996571  0.359466  0.860774  1
  O  O12  1  0.637045  0.640558  0.360793  1
  O  O13  1  0.359325  0.996407  0.360806  1
  O  O14  1  0.003429  0.362896  0.360774  1
  O  O15  1  0.362955  0.359442  0.639207  1
  O  O16  1  0.640675  0.003593  0.639194  1
  O  O17  1  0.996571  0.637104  0.639226  1
