# generated using pymatgen
data_La8Tb12Si15Tc
_symmetry_space_group_name_H-M   'P 1'
_cell_length_a   7.88410705
_cell_length_b   7.82620577
_cell_length_c   14.62971178
_cell_angle_alpha   90.02034657
_cell_angle_beta   89.77399321
_cell_angle_gamma   90.30858439
_symmetry_Int_Tables_number   1
_chemical_formula_structural   La8Tb12Si15Tc
_chemical_formula_sum   'La8 Tb12 Si15 Tc1'
_cell_volume   902.67173391
_cell_formula_units_Z   1
loop_
 _symmetry_equiv_pos_site_id
 _symmetry_equiv_pos_as_xyz
  1  'x, y, z'
loop_
 _atom_site_type_symbol
 _atom_site_label
 _atom_site_symmetry_multiplicity
 _atom_site_fract_x
 _atom_site_fract_y
 _atom_site_fract_z
 _atom_site_occupancy
  La  La0  1  0.989836  0.635867  0.044788  1
  La  La1  1  0.011176  0.374973  0.539388  1
  La  La2  1  0.639082  0.987531  0.957645  1
  La  La3  1  0.138015  0.511931  0.792819  1
  La  La4  1  0.870583  0.495620  0.300813  1
  La  La5  1  0.513238  0.139254  0.206668  1
  La  La6  1  0.491724  0.864329  0.706664  1
  La  La7  1  0.358597  0.004223  0.457455  1
  Tb  Tb8  1  0.361194  0.493243  0.377954  1
  Tb  Tb9  1  0.866315  0.005820  0.375907  1
  Tb  Tb10  1  0.988637  0.138428  0.124658  1
  Tb  Tb11  1  0.014662  0.860299  0.619491  1
  Tb  Tb12  1  0.636257  0.511938  0.875597  1
  Tb  Tb13  1  0.493434  0.362289  0.626113  1
  Tb  Tb14  1  0.508959  0.636336  0.124874  1
  Tb  Tb15  1  0.132395  0.990270  0.875125  1
  Tb  Tb16  1  0.688892  0.685899  0.498517  1
  Tb  Tb17  1  0.818561  0.182954  0.747378  1
  Tb  Tb18  1  0.178329  0.811049  0.255578  1
  Tb  Tb19  1  0.312987  0.313403  0.998627  1
  Si  Si20  1  0.929539  0.287642  0.937369  1
  Si  Si21  1  0.708253  0.070026  0.561218  1
  Si  Si22  1  0.214998  0.428529  0.188225  1
  Si  Si23  1  0.788435  0.570528  0.689855  1
  Si  Si24  1  0.430381  0.213188  0.811550  1
  Si  Si25  1  0.566585  0.788430  0.309376  1
  Si  Si26  1  0.287584  0.932960  0.061598  1
  Si  Si27  1  0.844793  0.796813  0.806095  1
  Si  Si28  1  0.159840  0.201007  0.304479  1
  Si  Si29  1  0.792750  0.847014  0.191570  1
  Si  Si30  1  0.302848  0.652828  0.559535  1
  Si  Si31  1  0.699734  0.342747  0.053636  1
  Si  Si32  1  0.652152  0.292987  0.443318  1
  Si  Si33  1  0.341283  0.702931  0.944762  1
  Si  Si34  1  0.202936  0.159349  0.692956  1
  Tc  Tc35  1  0.065014  0.707367  0.438399  1
