# generated using pymatgen
data_Sm4TeC4I
_symmetry_space_group_name_H-M   'P 1'
_cell_length_a   7.71648496
_cell_length_b   7.71648473
_cell_length_c   6.87133258
_cell_angle_alpha   99.77429948
_cell_angle_beta   99.77429873
_cell_angle_gamma   32.92246597
_symmetry_Int_Tables_number   1
_chemical_formula_structural   Sm4TeC4I
_chemical_formula_sum   'Sm4 Te1 C4 I1'
_cell_volume   218.86117525
_cell_formula_units_Z   1
loop_
 _symmetry_equiv_pos_site_id
 _symmetry_equiv_pos_as_xyz
  1  'x, y, z'
loop_
 _atom_site_type_symbol
 _atom_site_label
 _atom_site_symmetry_multiplicity
 _atom_site_fract_x
 _atom_site_fract_y
 _atom_site_fract_z
 _atom_site_occupancy
  Sm  Sm0  1  0.857740  0.453326  0.155830  1
  Sm  Sm1  1  0.546674  0.142260  0.344170  1
  Sm  Sm2  1  0.459104  0.859344  0.641802  1
  Sm  Sm3  1  0.140657  0.540896  0.858199  1
  Te  Te4  1  0.219053  0.780948  0.250000  1
  C  C5  1  0.350894  0.101678  0.025121  1
  C  C6  1  0.898322  0.649105  0.474880  1
  C  C7  1  0.105312  0.356895  0.526975  1
  C  C8  1  0.643105  0.894688  0.973025  1
  I  I9  1  0.779140  0.220860  0.750000  1
