# generated using pymatgen
data_SrSb12Ru3Au
_symmetry_space_group_name_H-M   'P 1'
_cell_length_a   8.24381725
_cell_length_b   8.22859369
_cell_length_c   8.24381676
_cell_angle_alpha   109.43381044
_cell_angle_beta   109.50859603
_cell_angle_gamma   109.43381635
_symmetry_Int_Tables_number   1
_chemical_formula_structural   SrSb12Ru3Au
_chemical_formula_sum   'Sr1 Sb12 Ru3 Au1'
_cell_volume   430.68597692
_cell_formula_units_Z   1
loop_
 _symmetry_equiv_pos_site_id
 _symmetry_equiv_pos_as_xyz
  1  'x, y, z'
loop_
 _atom_site_type_symbol
 _atom_site_label
 _atom_site_symmetry_multiplicity
 _atom_site_fract_x
 _atom_site_fract_y
 _atom_site_fract_z
 _atom_site_occupancy
  Sr  Sr0  1  0.000000  0.000000  0.000000  1
  Sb  Sb1  1  0.162780  0.499018  0.356084  1
  Sb  Sb2  1  0.502756  0.662049  0.841435  1
  Sb  Sb3  1  0.356084  0.857066  0.193305  1
  Sb  Sb4  1  0.806695  0.663762  0.162780  1
  Sb  Sb5  1  0.661321  0.840707  0.502756  1
  Sb  Sb6  1  0.193305  0.336238  0.837220  1
  Sb  Sb7  1  0.643916  0.142934  0.806695  1
  Sb  Sb8  1  0.338679  0.159293  0.497244  1
  Sb  Sb9  1  0.497244  0.337951  0.158565  1
  Sb  Sb10  1  0.837220  0.500982  0.643916  1
  Sb  Sb11  1  0.841435  0.179387  0.338679  1
  Sb  Sb12  1  0.158565  0.820613  0.661321  1
  Ru  Ru13  1  0.500000  0.500000  0.500000  1
  Ru  Ru14  1  0.500000  0.000000  0.000000  1
  Ru  Ru15  1  0.000000  0.000000  0.500000  1
  Au  Au16  1  0.000000  0.500000  0.000000  1
