# generated using pymatgen
data_Ca4Yb3Pr(Si3Pd)4
_symmetry_space_group_name_H-M   'P 1'
_cell_length_a   8.26575300
_cell_length_b   8.26575182
_cell_length_c   8.42577600
_cell_angle_alpha   90.00000000
_cell_angle_beta   90.00000000
_cell_angle_gamma   120.00000074
_symmetry_Int_Tables_number   1
_chemical_formula_structural   Ca4Yb3Pr(Si3Pd)4
_chemical_formula_sum   'Ca4 Yb3 Pr1 Si12 Pd4'
_cell_volume   498.54609883
_cell_formula_units_Z   1
loop_
 _symmetry_equiv_pos_site_id
 _symmetry_equiv_pos_as_xyz
  1  'x, y, z'
loop_
 _atom_site_type_symbol
 _atom_site_label
 _atom_site_symmetry_multiplicity
 _atom_site_fract_x
 _atom_site_fract_y
 _atom_site_fract_z
 _atom_site_occupancy
  Ca  Ca0  1  0.500559  0.499441  0.250000  1
  Ca  Ca1  1  0.998882  0.499441  0.250000  1
  Ca  Ca2  1  0.500559  0.001118  0.250000  1
  Ca  Ca3  1  0.000000  0.000000  0.750000  1
  Yb  Yb4  1  0.499405  0.500595  0.750000  1
  Yb  Yb5  1  0.001189  0.500595  0.750000  1
  Yb  Yb6  1  0.499405  0.998811  0.750000  1
  Pr  Pr7  1  0.000000  0.000000  0.250000  1
  Si  Si8  1  0.834754  0.165246  0.997984  1
  Si  Si9  1  0.165221  0.834779  0.998804  1
  Si  Si10  1  0.330492  0.165246  0.997984  1
  Si  Si11  1  0.165221  0.834779  0.501196  1
  Si  Si12  1  0.669559  0.834779  0.998804  1
  Si  Si13  1  0.834754  0.165246  0.502016  1
  Si  Si14  1  0.834754  0.669508  0.997984  1
  Si  Si15  1  0.669559  0.834779  0.501196  1
  Si  Si16  1  0.165221  0.330441  0.998804  1
  Si  Si17  1  0.330492  0.165246  0.502016  1
  Si  Si18  1  0.165221  0.330441  0.501196  1
  Si  Si19  1  0.834754  0.669508  0.502016  1
  Pd  Pd20  1  0.666667  0.333333  0.992783  1
  Pd  Pd21  1  0.333333  0.666667  0.995210  1
  Pd  Pd22  1  0.333333  0.666667  0.504790  1
  Pd  Pd23  1  0.666667  0.333333  0.507217  1
