# generated using pymatgen
data_Lu2UBe2Rh5
_symmetry_space_group_name_H-M   'P 1'
_cell_length_a   9.79241700
_cell_length_b   9.79241700
_cell_length_c   3.27845400
_cell_angle_alpha   90.00000000
_cell_angle_beta   90.00000000
_cell_angle_gamma   90.00000000
_symmetry_Int_Tables_number   1
_chemical_formula_structural   Lu2UBe2Rh5
_chemical_formula_sum   'Lu4 U2 Be4 Rh10'
_cell_volume   314.37564455
_cell_formula_units_Z   2
loop_
 _symmetry_equiv_pos_site_id
 _symmetry_equiv_pos_as_xyz
  1  'x, y, z'
loop_
 _atom_site_type_symbol
 _atom_site_label
 _atom_site_symmetry_multiplicity
 _atom_site_fract_x
 _atom_site_fract_y
 _atom_site_fract_z
 _atom_site_occupancy
  Lu  Lu0  1  0.828025  0.328025  0.000000  1
  Lu  Lu1  1  0.328025  0.171975  0.000000  1
  Lu  Lu2  1  0.671975  0.828025  0.000000  1
  Lu  Lu3  1  0.171975  0.671975  0.000000  1
  U  U4  1  0.000000  0.000000  0.000000  1
  U  U5  1  0.500000  0.500000  0.000000  1
  Be  Be6  1  0.621050  0.121050  0.000000  1
  Be  Be7  1  0.121050  0.378950  0.000000  1
  Be  Be8  1  0.878950  0.621050  0.000000  1
  Be  Be9  1  0.378950  0.878950  0.000000  1
  Rh  Rh10  1  0.070665  0.213728  0.500000  1
  Rh  Rh11  1  0.213728  0.929335  0.500000  1
  Rh  Rh12  1  0.786272  0.070665  0.500000  1
  Rh  Rh13  1  0.929335  0.786272  0.500000  1
  Rh  Rh14  1  0.429335  0.713728  0.500000  1
  Rh  Rh15  1  0.570665  0.286272  0.500000  1
  Rh  Rh16  1  0.713728  0.570665  0.500000  1
  Rh  Rh17  1  0.286272  0.429335  0.500000  1
  Rh  Rh18  1  0.500000  0.000000  0.500000  1
  Rh  Rh19  1  0.000000  0.500000  0.500000  1
