# generated using pymatgen
data_DyY15(ErIr3)4
_symmetry_space_group_name_H-M   'P 1'
_cell_length_a   10.90826151
_cell_length_b   10.92817674
_cell_length_c   6.39282500
_cell_angle_alpha   89.89871682
_cell_angle_beta   90.13328262
_cell_angle_gamma   89.85386343
_symmetry_Int_Tables_number   1
_chemical_formula_structural   DyY15(ErIr3)4
_chemical_formula_sum   'Dy1 Y15 Er4 Ir12'
_cell_volume   762.06636954
_cell_formula_units_Z   1
loop_
 _symmetry_equiv_pos_site_id
 _symmetry_equiv_pos_as_xyz
  1  'x, y, z'
loop_
 _atom_site_type_symbol
 _atom_site_label
 _atom_site_symmetry_multiplicity
 _atom_site_fract_x
 _atom_site_fract_y
 _atom_site_fract_z
 _atom_site_occupancy
  Dy  Dy0  1  0.290889  0.088389  0.378416  1
  Y  Y1  1  0.290622  0.912224  0.878548  1
  Y  Y2  1  0.708913  0.086970  0.878771  1
  Y  Y3  1  0.709711  0.912411  0.378996  1
  Y  Y4  1  0.588049  0.791082  0.878497  1
  Y  Y5  1  0.586870  0.209481  0.378571  1
  Y  Y6  1  0.411614  0.791661  0.378695  1
  Y  Y7  1  0.412329  0.209103  0.878908  1
  Y  Y8  1  0.209330  0.412303  0.622399  1
  Y  Y9  1  0.209666  0.587660  0.121851  1
  Y  Y10  1  0.790853  0.411673  0.121678  1
  Y  Y11  1  0.790883  0.587655  0.621434  1
  Y  Y12  1  0.912468  0.709116  0.121807  1
  Y  Y13  1  0.911867  0.290282  0.622343  1
  Y  Y14  1  0.087711  0.708975  0.621532  1
  Y  Y15  1  0.088348  0.290512  0.121569  1
  Er  Er16  1  0.001099  0.000079  0.499623  1
  Er  Er17  1  0.999640  0.000116  0.999699  1
  Er  Er18  1  0.500264  0.500371  0.999029  1
  Er  Er19  1  0.499827  0.500790  0.499080  1
  Ir  Ir20  1  0.848314  0.151584  0.250158  1
  Ir  Ir21  1  0.848948  0.848256  0.749348  1
  Ir  Ir22  1  0.152478  0.151244  0.749605  1
  Ir  Ir23  1  0.151248  0.847685  0.248905  1
  Ir  Ir24  1  0.651331  0.347955  0.750086  1
  Ir  Ir25  1  0.651499  0.652063  0.249979  1
  Ir  Ir26  1  0.348304  0.348649  0.249934  1
  Ir  Ir27  1  0.348202  0.652065  0.749474  1
  Ir  Ir28  1  0.499394  0.000169  0.126055  1
  Ir  Ir29  1  0.499205  0.000356  0.624083  1
  Ir  Ir30  1  0.000038  0.499632  0.875651  1
  Ir  Ir31  1  0.000089  0.499492  0.375275  1
