# generated using pymatgen
data_Eu2Zn2IrPd
_symmetry_space_group_name_H-M   'P 1'
_cell_length_a   4.38553600
_cell_length_b   7.18826500
_cell_length_c   7.87418900
_cell_angle_alpha   90.00000000
_cell_angle_beta   90.00000000
_cell_angle_gamma   90.00000000
_symmetry_Int_Tables_number   1
_chemical_formula_structural   Eu2Zn2IrPd
_chemical_formula_sum   'Eu4 Zn4 Ir2 Pd2'
_cell_volume   248.22904383
_cell_formula_units_Z   2
loop_
 _symmetry_equiv_pos_site_id
 _symmetry_equiv_pos_as_xyz
  1  'x, y, z'
loop_
 _atom_site_type_symbol
 _atom_site_label
 _atom_site_symmetry_multiplicity
 _atom_site_fract_x
 _atom_site_fract_y
 _atom_site_fract_z
 _atom_site_occupancy
  Eu  Eu0  1  0.250000  0.016216  0.308743  1
  Eu  Eu1  1  0.250000  0.516216  0.191257  1
  Eu  Eu2  1  0.750000  0.990240  0.696233  1
  Eu  Eu3  1  0.750000  0.490240  0.803767  1
  Zn  Zn4  1  0.250000  0.662245  0.582507  1
  Zn  Zn5  1  0.250000  0.162245  0.917493  1
  Zn  Zn6  1  0.750000  0.330928  0.427848  1
  Zn  Zn7  1  0.750000  0.830928  0.072152  1
  Ir  Ir8  1  0.250000  0.288118  0.603883  1
  Ir  Ir9  1  0.250000  0.788118  0.896117  1
  Pd  Pd10  1  0.750000  0.712254  0.397456  1
  Pd  Pd11  1  0.750000  0.212254  0.102544  1
