# generated using pymatgen
data_Dy3HoGa3Si
_symmetry_space_group_name_H-M   'P 1'
_cell_length_a   3.97296900
_cell_length_b   4.34251100
_cell_length_c   10.82587300
_cell_angle_alpha   90.00000000
_cell_angle_beta   90.00000000
_cell_angle_gamma   90.00000000
_symmetry_Int_Tables_number   1
_chemical_formula_structural   Dy3HoGa3Si
_chemical_formula_sum   'Dy3 Ho1 Ga3 Si1'
_cell_volume   186.77512323
_cell_formula_units_Z   1
loop_
 _symmetry_equiv_pos_site_id
 _symmetry_equiv_pos_as_xyz
  1  'x, y, z'
loop_
 _atom_site_type_symbol
 _atom_site_label
 _atom_site_symmetry_multiplicity
 _atom_site_fract_x
 _atom_site_fract_y
 _atom_site_fract_z
 _atom_site_occupancy
  Dy  Dy0  1  0.000000  0.500000  0.637516  1
  Dy  Dy1  1  0.500000  0.500000  0.360649  1
  Dy  Dy2  1  0.500000  0.000000  0.858682  1
  Ho  Ho3  1  0.000000  0.000000  0.143505  1
  Ga  Ga4  1  0.000000  0.500000  0.921446  1
  Ga  Ga5  1  0.500000  0.500000  0.080278  1
  Ga  Ga6  1  0.500000  0.000000  0.574148  1
  Si  Si7  1  0.000000  0.000000  0.423777  1
