# generated using pymatgen
data_LuV6InO18
_symmetry_space_group_name_H-M   'P 1'
_cell_length_a   8.32482979
_cell_length_b   8.31939408
_cell_length_c   10.69458580
_cell_angle_alpha   57.75645086
_cell_angle_beta   122.21579484
_cell_angle_gamma   127.67398179
_symmetry_Int_Tables_number   1
_chemical_formula_structural   LuV6InO18
_chemical_formula_sum   'Lu1 V6 In1 O18'
_cell_volume   471.53343720
_cell_formula_units_Z   1
loop_
 _symmetry_equiv_pos_site_id
 _symmetry_equiv_pos_as_xyz
  1  'x, y, z'
loop_
 _atom_site_type_symbol
 _atom_site_label
 _atom_site_symmetry_multiplicity
 _atom_site_fract_x
 _atom_site_fract_y
 _atom_site_fract_z
 _atom_site_occupancy
  Lu  Lu0  1  0.869312  0.611589  0.854615  1
  V  V1  1  0.650163  0.122055  0.178804  1
  V  V2  1  0.873682  0.346552  0.675962  1
  V  V3  1  0.084478  0.101960  0.524473  1
  V  V4  1  0.901292  0.919360  0.027111  1
  V  V5  1  0.328573  0.587085  0.591137  1
  V  V6  1  0.415079  0.667958  0.094061  1
  In  In7  1  0.388478  0.130682  0.354149  1
  O  O8  1  0.852000  0.074051  0.357336  1
  O  O9  1  0.925018  0.148003  0.856613  1
  O  O10  1  0.242546  0.052751  0.509525  1
  O  O11  1  0.948649  0.760956  0.011638  1
  O  O12  1  0.009496  0.927155  0.686671  1
  O  O13  1  0.075772  0.996124  0.188759  1
  O  O14  1  0.217071  0.374247  0.520497  1
  O  O15  1  0.628773  0.783510  0.023330  1
  O  O16  1  0.537079  0.221138  0.195072  1
  O  O17  1  0.778049  0.460453  0.693773  1
  O  O18  1  0.457413  0.866344  0.146751  1
  O  O19  1  0.129719  0.541691  0.644365  1
  O  O20  1  0.390625  0.826712  0.451272  1
  O  O21  1  0.177092  0.607260  0.954031  1
  O  O22  1  0.415050  0.447983  0.249614  1
  O  O23  1  0.548289  0.587354  0.745964  1
  O  O24  1  0.700124  0.239408  0.528718  1
  O  O25  1  0.756779  0.297024  0.031555  1
