# generated using pymatgen
data_TbTlBiSbO7
_symmetry_space_group_name_H-M   'P 1'
_cell_length_a   6.56389843
_cell_length_b   6.56389877
_cell_length_c   7.78379800
_cell_angle_alpha   90.00000000
_cell_angle_beta   90.00000000
_cell_angle_gamma   110.03441383
_symmetry_Int_Tables_number   1
_chemical_formula_structural   TbTlBiSbO7
_chemical_formula_sum   'Tb2 Tl2 Bi2 Sb2 O14'
_cell_volume   315.06928643
_cell_formula_units_Z   2
loop_
 _symmetry_equiv_pos_site_id
 _symmetry_equiv_pos_as_xyz
  1  'x, y, z'
loop_
 _atom_site_type_symbol
 _atom_site_label
 _atom_site_symmetry_multiplicity
 _atom_site_fract_x
 _atom_site_fract_y
 _atom_site_fract_z
 _atom_site_occupancy
  Tb  Tb0  1  0.452945  0.004361  0.250000  1
  Tb  Tb1  1  0.004361  0.452945  0.750000  1
  Tl  Tl2  1  0.501058  0.003959  0.750000  1
  Tl  Tl3  1  0.003959  0.501058  0.250000  1
  Bi  Bi4  1  0.536563  0.536563  0.500000  1
  Bi  Bi5  1  0.536563  0.536563  0.000000  1
  Sb  Sb6  1  0.996719  0.996719  0.500000  1
  Sb  Sb7  1  0.996719  0.996719  0.000000  1
  O  O8  1  0.676587  0.919063  0.460150  1
  O  O9  1  0.919063  0.676587  0.539850  1
  O  O10  1  0.676587  0.919063  0.039850  1
  O  O11  1  0.919063  0.676587  0.960150  1
  O  O12  1  0.314415  0.056143  0.516250  1
  O  O13  1  0.056143  0.314415  0.483750  1
  O  O14  1  0.314415  0.056143  0.983750  1
  O  O15  1  0.056143  0.314415  0.016250  1
  O  O16  1  0.950285  0.065146  0.750000  1
  O  O17  1  0.065146  0.950285  0.250000  1
  O  O18  1  0.380323  0.653131  0.750000  1
  O  O19  1  0.653131  0.380323  0.250000  1
  O  O20  1  0.639922  0.349888  0.750000  1
  O  O21  1  0.349888  0.639922  0.250000  1
