# generated using pymatgen
data_TbHoGa6(NiHg)2
_symmetry_space_group_name_H-M   'P 1'
_cell_length_a   4.18981285
_cell_length_b   6.60811500
_cell_length_c   8.09278566
_cell_angle_alpha   90.00000000
_cell_angle_beta   105.00250272
_cell_angle_gamma   90.00000000
_symmetry_Int_Tables_number   1
_chemical_formula_structural   TbHoGa6(NiHg)2
_chemical_formula_sum   'Tb1 Ho1 Ga6 Ni2 Hg2'
_cell_volume   216.42575904
_cell_formula_units_Z   1
loop_
 _symmetry_equiv_pos_site_id
 _symmetry_equiv_pos_as_xyz
  1  'x, y, z'
loop_
 _atom_site_type_symbol
 _atom_site_label
 _atom_site_symmetry_multiplicity
 _atom_site_fract_x
 _atom_site_fract_y
 _atom_site_fract_z
 _atom_site_occupancy
  Tb  Tb0  1  0.125856  0.250000  0.251713  1
  Ho  Ho1  1  0.873933  0.750000  0.747866  1
  Ga  Ga2  1  0.072528  0.750000  0.145057  1
  Ga  Ga3  1  0.927419  0.250000  0.854838  1
  Ga  Ga4  1  0.688453  0.551307  0.376905  1
  Ga  Ga5  1  0.311990  0.449271  0.623979  1
  Ga  Ga6  1  0.688453  0.948693  0.376905  1
  Ga  Ga7  1  0.311990  0.050729  0.623979  1
  Ni  Ni8  1  0.222974  0.750000  0.445948  1
  Ni  Ni9  1  0.777312  0.250000  0.554624  1
  Hg  Hg10  1  0.499547  0.500752  0.999093  1
  Hg  Hg11  1  0.499547  0.999248  0.999093  1
