# generated using pymatgen
data_MnTc6(AgO12)2
_symmetry_space_group_name_H-M   'P 1'
_cell_length_a   10.10070008
_cell_length_b   10.10070040
_cell_length_c   10.10070097
_cell_angle_alpha   55.33701839
_cell_angle_beta   55.33702256
_cell_angle_gamma   55.33702634
_symmetry_Int_Tables_number   1
_chemical_formula_structural   MnTc6(AgO12)2
_chemical_formula_sum   'Mn1 Tc6 Ag2 O24'
_cell_volume   649.73778595
_cell_formula_units_Z   1
loop_
 _symmetry_equiv_pos_site_id
 _symmetry_equiv_pos_as_xyz
  1  'x, y, z'
loop_
 _atom_site_type_symbol
 _atom_site_label
 _atom_site_symmetry_multiplicity
 _atom_site_fract_x
 _atom_site_fract_y
 _atom_site_fract_z
 _atom_site_occupancy
  Mn  Mn0  1  0.846898  0.846898  0.846898  1
  Tc  Tc1  1  0.036626  0.479730  0.748091  1
  Tc  Tc2  1  0.479730  0.748091  0.036626  1
  Tc  Tc3  1  0.748091  0.036626  0.479730  1
  Tc  Tc4  1  0.223731  0.952964  0.560878  1
  Tc  Tc5  1  0.560878  0.223731  0.952964  1
  Tc  Tc6  1  0.952964  0.560878  0.223731  1
  Ag  Ag7  1  0.357847  0.357847  0.357847  1
  Ag  Ag8  1  0.640647  0.640647  0.640647  1
  O  O9  1  0.117761  0.532791  0.259713  1
  O  O10  1  0.259713  0.117761  0.532791  1
  O  O11  1  0.987728  0.343643  0.958816  1
  O  O12  1  0.532791  0.259713  0.117761  1
  O  O13  1  0.998396  0.690584  0.724091  1
  O  O14  1  0.249584  0.388176  0.628807  1
  O  O15  1  0.388176  0.628807  0.249584  1
  O  O16  1  0.343643  0.958816  0.987728  1
  O  O17  1  0.628807  0.249584  0.388176  1
  O  O18  1  0.000922  0.972942  0.697879  1
  O  O19  1  0.273794  0.964923  0.362573  1
  O  O20  1  0.362573  0.273794  0.964923  1
  O  O21  1  0.690584  0.724091  0.998396  1
  O  O22  1  0.724091  0.998396  0.690584  1
  O  O23  1  0.958816  0.987728  0.343643  1
  O  O24  1  0.358429  0.754771  0.657889  1
  O  O25  1  0.697879  0.000922  0.972942  1
  O  O26  1  0.657889  0.358429  0.754771  1
  O  O27  1  0.754771  0.657889  0.358429  1
  O  O28  1  0.964923  0.362573  0.273794  1
  O  O29  1  0.507068  0.664814  0.908851  1
  O  O30  1  0.972942  0.697879  0.000922  1
  O  O31  1  0.664814  0.908851  0.507068  1
  O  O32  1  0.908851  0.507068  0.664814  1
