# generated using pymatgen
data_Tm6Al24Fe2Cu2IrRu3
_symmetry_space_group_name_H-M   'P 1'
_cell_length_a   8.73869257
_cell_length_b   8.73869127
_cell_length_c   9.49829200
_cell_angle_alpha   89.94139087
_cell_angle_beta   90.05860256
_cell_angle_gamma   120.03924164
_symmetry_Int_Tables_number   1
_chemical_formula_structural   Tm6Al24Fe2Cu2IrRu3
_chemical_formula_sum   'Tm6 Al24 Fe2 Cu2 Ir1 Ru3'
_cell_volume   627.90918590
_cell_formula_units_Z   1
loop_
 _symmetry_equiv_pos_site_id
 _symmetry_equiv_pos_as_xyz
  1  'x, y, z'
loop_
 _atom_site_type_symbol
 _atom_site_label
 _atom_site_symmetry_multiplicity
 _atom_site_fract_x
 _atom_site_fract_y
 _atom_site_fract_z
 _atom_site_occupancy
  Tm  Tm0  1  0.806138  0.193592  0.749869  1
  Tm  Tm1  1  0.193862  0.806408  0.250131  1
  Tm  Tm2  1  0.390119  0.196088  0.747704  1
  Tm  Tm3  1  0.609881  0.803912  0.252296  1
  Tm  Tm4  1  0.803751  0.609902  0.752165  1
  Tm  Tm5  1  0.196249  0.390098  0.247835  1
  Al  Al6  1  0.665268  0.330562  0.977133  1
  Al  Al7  1  0.334732  0.669438  0.022867  1
  Al  Al8  1  0.331757  0.663863  0.477522  1
  Al  Al9  1  0.668243  0.336137  0.522478  1
  Al  Al10  1  0.847184  0.165271  0.422552  1
  Al  Al11  1  0.152816  0.834729  0.577448  1
  Al  Al12  1  0.318695  0.164898  0.421876  1
  Al  Al13  1  0.164845  0.847424  0.921664  1
  Al  Al14  1  0.681305  0.835102  0.578124  1
  Al  Al15  1  0.835155  0.152576  0.078336  1
  Al  Al16  1  0.840330  0.679939  0.423372  1
  Al  Al17  1  0.679955  0.842077  0.923454  1
  Al  Al18  1  0.159670  0.320061  0.576628  1
  Al  Al19  1  0.320045  0.157923  0.076546  1
  Al  Al20  1  0.162608  0.318024  0.921528  1
  Al  Al21  1  0.837392  0.681976  0.078472  1
  Al  Al22  1  0.438256  0.561550  0.748552  1
  Al  Al23  1  0.561744  0.438450  0.251448  1
  Al  Al24  1  0.123327  0.561217  0.748088  1
  Al  Al25  1  0.876673  0.438783  0.251912  1
  Al  Al26  1  0.438737  0.876769  0.752532  1
  Al  Al27  1  0.561263  0.123231  0.247468  1
  Al  Al28  1  0.999629  0.000269  0.749916  1
  Al  Al29  1  0.000371  0.999731  0.250084  1
  Fe  Fe30  1  0.000000  0.000000  0.000000  1
  Fe  Fe31  1  0.000000  0.000000  0.500000  1
  Cu  Cu32  1  0.000000  0.500000  0.000000  1
  Cu  Cu33  1  0.500000  0.000000  0.500000  1
  Ir  Ir34  1  0.500000  0.500000  0.000000  1
  Ru  Ru35  1  0.500000  0.500000  0.500000  1
  Ru  Ru36  1  0.500000  0.000000  0.000000  1
  Ru  Ru37  1  0.000000  0.500000  0.500000  1
