# generated using pymatgen
data_Pr2HoTm5(WO6)4
_symmetry_space_group_name_H-M   'P 1'
_cell_length_a   5.42165700
_cell_length_b   7.73447059
_cell_length_c   11.48271129
_cell_angle_alpha   75.52223167
_cell_angle_beta   90.00000000
_cell_angle_gamma   90.00000000
_symmetry_Int_Tables_number   1
_chemical_formula_structural   Pr2HoTm5(WO6)4
_chemical_formula_sum   'Pr2 Ho1 Tm5 W4 O24'
_cell_volume   466.22140998
_cell_formula_units_Z   1
loop_
 _symmetry_equiv_pos_site_id
 _symmetry_equiv_pos_as_xyz
  1  'x, y, z'
loop_
 _atom_site_type_symbol
 _atom_site_label
 _atom_site_symmetry_multiplicity
 _atom_site_fract_x
 _atom_site_fract_y
 _atom_site_fract_z
 _atom_site_occupancy
  Pr  Pr0  1  0.685854  0.500000  0.750000  1
  Pr  Pr1  1  0.313686  0.500000  0.250000  1
  Ho  Ho2  1  0.742765  0.000000  0.750000  1
  Tm  Tm3  1  0.257586  0.000000  0.250000  1
  Tm  Tm4  1  0.186220  0.798257  0.576885  1
  Tm  Tm5  1  0.814174  0.798444  0.077430  1
  Tm  Tm6  1  0.186220  0.201743  0.923115  1
  Tm  Tm7  1  0.814174  0.201556  0.422570  1
  W  W8  1  0.253298  0.728423  0.884664  1
  W  W9  1  0.746594  0.729137  0.384227  1
  W  W10  1  0.253298  0.271577  0.615336  1
  W  W11  1  0.746594  0.270863  0.115773  1
  O  O12  1  0.042231  0.942827  0.897030  1
  O  O13  1  0.536199  0.844682  0.931633  1
  O  O14  1  0.959847  0.943209  0.395850  1
  O  O15  1  0.454331  0.796583  0.725875  1
  O  O16  1  0.463399  0.845986  0.430751  1
  O  O17  1  0.986621  0.722152  0.768268  1
  O  O18  1  0.543960  0.798136  0.225760  1
  O  O19  1  0.858314  0.643281  0.545783  1
  O  O20  1  0.345654  0.492030  0.888290  1
  O  O21  1  0.013602  0.723015  0.267931  1
  O  O22  1  0.345654  0.507970  0.611710  1
  O  O23  1  0.858314  0.356719  0.954217  1
  O  O24  1  0.140899  0.642266  0.046108  1
  O  O25  1  0.654711  0.492771  0.387743  1
  O  O26  1  0.986621  0.277848  0.731732  1
  O  O27  1  0.654711  0.507229  0.112257  1
  O  O28  1  0.140899  0.357734  0.453892  1
  O  O29  1  0.454331  0.203417  0.774125  1
  O  O30  1  0.013602  0.276985  0.232069  1
  O  O31  1  0.536199  0.155318  0.568367  1
  O  O32  1  0.543960  0.201864  0.274240  1
  O  O33  1  0.042231  0.057173  0.602970  1
  O  O34  1  0.463399  0.154014  0.069249  1
  O  O35  1  0.959847  0.056791  0.104150  1
