# generated using pymatgen
data_K4W2NCl10
_symmetry_space_group_name_H-M   'P 1'
_cell_length_a   7.16698048
_cell_length_b   7.16700478
_cell_length_c   10.46460472
_cell_angle_alpha   110.03109762
_cell_angle_beta   110.03088437
_cell_angle_gamma   89.98767213
_symmetry_Int_Tables_number   1
_chemical_formula_structural   K4W2NCl10
_chemical_formula_sum   'K4 W2 N1 Cl10'
_cell_volume   470.26289245
_cell_formula_units_Z   1
loop_
 _symmetry_equiv_pos_site_id
 _symmetry_equiv_pos_as_xyz
  1  'x, y, z'
loop_
 _atom_site_type_symbol
 _atom_site_label
 _atom_site_symmetry_multiplicity
 _atom_site_fract_x
 _atom_site_fract_y
 _atom_site_fract_z
 _atom_site_occupancy
  K  K0  1  0.500000  0.000000  0.000000  1
  K  K1  1  0.000000  0.500000  0.000000  1
  K  K2  1  0.750000  0.249999  0.500000  1
  K  K3  1  0.250000  0.750001  0.500000  1
  W  W4  1  0.101661  0.101661  0.203321  1
  W  W5  1  0.898338  0.898338  0.796679  1
  N  N6  1  0.000000  0.000000  0.000000  1
  Cl  Cl7  1  0.349365  0.349365  0.222790  1
  Cl  Cl8  1  0.873478  0.349380  0.222847  1
  Cl  Cl9  1  0.349380  0.873478  0.222847  1
  Cl  Cl10  1  0.873435  0.873435  0.222813  1
  Cl  Cl11  1  0.239950  0.239950  0.479915  1
  Cl  Cl12  1  0.760050  0.760050  0.520085  1
  Cl  Cl13  1  0.126566  0.126566  0.777188  1
  Cl  Cl14  1  0.650621  0.126523  0.777154  1
  Cl  Cl15  1  0.126523  0.650621  0.777154  1
  Cl  Cl16  1  0.650636  0.650636  0.777211  1
