# generated using pymatgen
data_PrHoSn5Rh3
_symmetry_space_group_name_H-M   'P 1'
_cell_length_a   13.54637669
_cell_length_b   13.54637636
_cell_length_c   7.28003200
_cell_angle_alpha   90.00000000
_cell_angle_beta   90.00000000
_cell_angle_gamma   160.92432166
_symmetry_Int_Tables_number   1
_chemical_formula_structural   PrHoSn5Rh3
_chemical_formula_sum   'Pr2 Ho2 Sn10 Rh6'
_cell_volume   436.60014393
_cell_formula_units_Z   2
loop_
 _symmetry_equiv_pos_site_id
 _symmetry_equiv_pos_as_xyz
  1  'x, y, z'
loop_
 _atom_site_type_symbol
 _atom_site_label
 _atom_site_symmetry_multiplicity
 _atom_site_fract_x
 _atom_site_fract_y
 _atom_site_fract_z
 _atom_site_occupancy
  Pr  Pr0  1  0.172016  0.827984  0.749151  1
  Pr  Pr1  1  0.827984  0.172016  0.249151  1
  Ho  Ho2  1  0.476324  0.523676  0.760365  1
  Ho  Ho3  1  0.523676  0.476324  0.260365  1
  Sn  Sn4  1  0.881588  0.118412  0.766872  1
  Sn  Sn5  1  0.118412  0.881588  0.266872  1
  Sn  Sn6  1  0.704104  0.295896  0.451415  1
  Sn  Sn7  1  0.295896  0.704104  0.951415  1
  Sn  Sn8  1  0.594322  0.405678  0.885085  1
  Sn  Sn9  1  0.405678  0.594322  0.385085  1
  Sn  Sn10  1  0.953229  0.046771  0.099724  1
  Sn  Sn11  1  0.046771  0.953229  0.599724  1
  Sn  Sn12  1  0.290046  0.709954  0.527722  1
  Sn  Sn13  1  0.709954  0.290046  0.027722  1
  Rh  Rh14  1  0.049675  0.950325  0.980650  1
  Rh  Rh15  1  0.950325  0.049675  0.480650  1
  Rh  Rh16  1  0.778224  0.221776  0.739391  1
  Rh  Rh17  1  0.221776  0.778224  0.239391  1
  Rh  Rh18  1  0.395837  0.604163  0.011626  1
  Rh  Rh19  1  0.604163  0.395837  0.511626  1
