# generated using pymatgen
data_Y2AsPd14
_symmetry_space_group_name_H-M   'P 1'
_cell_length_a   8.96293400
_cell_length_b   8.96293400
_cell_length_c   7.12022400
_cell_angle_alpha   90.00000000
_cell_angle_beta   90.00000000
_cell_angle_gamma   90.00000000
_symmetry_Int_Tables_number   1
_chemical_formula_structural   Y2AsPd14
_chemical_formula_sum   'Y4 As2 Pd28'
_cell_volume   571.99739838
_cell_formula_units_Z   2
loop_
 _symmetry_equiv_pos_site_id
 _symmetry_equiv_pos_as_xyz
  1  'x, y, z'
loop_
 _atom_site_type_symbol
 _atom_site_label
 _atom_site_symmetry_multiplicity
 _atom_site_fract_x
 _atom_site_fract_y
 _atom_site_fract_z
 _atom_site_occupancy
  Y  Y0  1  0.500000  0.000000  0.933915  1
  Y  Y1  1  0.000000  0.500000  0.066085  1
  Y  Y2  1  0.000000  0.000000  0.500000  1
  Y  Y3  1  0.500000  0.500000  0.500000  1
  As  As4  1  0.500000  0.000000  0.447712  1
  As  As5  1  0.000000  0.500000  0.552288  1
  Pd  Pd6  1  0.331562  0.831562  0.620925  1
  Pd  Pd7  1  0.331562  0.168438  0.620925  1
  Pd  Pd8  1  0.668438  0.831562  0.620925  1
  Pd  Pd9  1  0.668438  0.168438  0.620925  1
  Pd  Pd10  1  0.168438  0.668438  0.379075  1
  Pd  Pd11  1  0.168438  0.331562  0.379075  1
  Pd  Pd12  1  0.831562  0.668438  0.379075  1
  Pd  Pd13  1  0.831562  0.331562  0.379075  1
  Pd  Pd14  1  0.500000  0.766182  0.252798  1
  Pd  Pd15  1  0.500000  0.233818  0.252798  1
  Pd  Pd16  1  0.266182  0.000000  0.252798  1
  Pd  Pd17  1  0.733818  0.000000  0.252798  1
  Pd  Pd18  1  0.000000  0.733818  0.747202  1
  Pd  Pd19  1  0.000000  0.266182  0.747202  1
  Pd  Pd20  1  0.233818  0.500000  0.747202  1
  Pd  Pd21  1  0.766182  0.500000  0.747202  1
  Pd  Pd22  1  0.500000  0.348987  0.854089  1
  Pd  Pd23  1  0.500000  0.651013  0.854089  1
  Pd  Pd24  1  0.848987  0.000000  0.854089  1
  Pd  Pd25  1  0.151013  0.000000  0.854089  1
  Pd  Pd26  1  0.000000  0.151013  0.145911  1
  Pd  Pd27  1  0.000000  0.848987  0.145911  1
  Pd  Pd28  1  0.651013  0.500000  0.145911  1
  Pd  Pd29  1  0.348987  0.500000  0.145911  1
  Pd  Pd30  1  0.250000  0.750000  0.000000  1
  Pd  Pd31  1  0.250000  0.250000  0.000000  1
  Pd  Pd32  1  0.750000  0.750000  0.000000  1
  Pd  Pd33  1  0.750000  0.250000  0.000000  1
