# generated using pymatgen
data_NdScCo3P7Ru9
_symmetry_space_group_name_H-M   'P 1'
_cell_length_a   9.31744000
_cell_length_b   9.31743973
_cell_length_c   3.81273400
_cell_angle_alpha   90.00000000
_cell_angle_beta   90.00000000
_cell_angle_gamma   120.00000002
_symmetry_Int_Tables_number   1
_chemical_formula_structural   NdScCo3P7Ru9
_chemical_formula_sum   'Nd1 Sc1 Co3 P7 Ru9'
_cell_volume   286.65553747
_cell_formula_units_Z   1
loop_
 _symmetry_equiv_pos_site_id
 _symmetry_equiv_pos_as_xyz
  1  'x, y, z'
loop_
 _atom_site_type_symbol
 _atom_site_label
 _atom_site_symmetry_multiplicity
 _atom_site_fract_x
 _atom_site_fract_y
 _atom_site_fract_z
 _atom_site_occupancy
  Nd  Nd0  1  0.333333  0.666667  0.000000  1
  Sc  Sc1  1  0.666667  0.333333  0.500000  1
  Co  Co2  1  0.729855  0.888989  0.000000  1
  Co  Co3  1  0.111011  0.840864  0.000000  1
  Co  Co4  1  0.159136  0.270145  0.000000  1
  P  P5  1  0.603773  0.717696  0.500000  1
  P  P6  1  0.000000  0.000000  0.000000  1
  P  P7  1  0.282304  0.886076  0.500000  1
  P  P8  1  0.113924  0.396227  0.500000  1
  P  P9  1  0.887951  0.583266  0.000000  1
  P  P10  1  0.416734  0.304685  0.000000  1
  P  P11  1  0.695315  0.112049  0.000000  1
  Ru  Ru12  1  0.566740  0.953543  0.500000  1
  Ru  Ru13  1  0.386805  0.433260  0.500000  1
  Ru  Ru14  1  0.914295  0.118405  0.500000  1
  Ru  Ru15  1  0.204110  0.085705  0.500000  1
  Ru  Ru16  1  0.881595  0.795890  0.500000  1
  Ru  Ru17  1  0.426074  0.066801  0.000000  1
  Ru  Ru18  1  0.933199  0.359274  0.000000  1
  Ru  Ru19  1  0.640726  0.573926  0.000000  1
  Ru  Ru20  1  0.046457  0.613195  0.500000  1
