# generated using pymatgen
data_Pa4Al24Pd8W
_symmetry_space_group_name_H-M   'P 1'
_cell_length_a   7.57959661
_cell_length_b   7.67567420
_cell_length_c   13.05256300
_cell_angle_alpha   85.02397065
_cell_angle_beta   79.18757745
_cell_angle_gamma   59.54978627
_symmetry_Int_Tables_number   1
_chemical_formula_structural   Pa4Al24Pd8W
_chemical_formula_sum   'Pa4 Al24 Pd8 W1'
_cell_volume   642.98433254
_cell_formula_units_Z   1
loop_
 _symmetry_equiv_pos_site_id
 _symmetry_equiv_pos_as_xyz
  1  'x, y, z'
loop_
 _atom_site_type_symbol
 _atom_site_label
 _atom_site_symmetry_multiplicity
 _atom_site_fract_x
 _atom_site_fract_y
 _atom_site_fract_z
 _atom_site_occupancy
  Pa  Pa0  1  0.378666  0.182042  0.811943  1
  Pa  Pa1  1  0.621334  0.817958  0.188057  1
  Pa  Pa2  1  0.747091  0.498130  0.811753  1
  Pa  Pa3  1  0.252909  0.501870  0.188247  1
  Al  Al4  1  0.683282  0.839622  0.942445  1
  Al  Al5  1  0.316718  0.160378  0.057555  1
  Al  Al6  1  0.145085  0.832019  0.562098  1
  Al  Al7  1  0.854915  0.167981  0.437902  1
  Al  Al8  1  0.482314  0.165537  0.560319  1
  Al  Al9  1  0.517686  0.834463  0.439681  1
  Al  Al10  1  0.220431  0.159802  0.327043  1
  Al  Al11  1  0.779569  0.840198  0.672957  1
  Al  Al12  1  0.438997  0.509476  0.673661  1
  Al  Al13  1  0.561003  0.490524  0.326339  1
  Al  Al14  1  0.111320  0.156716  0.666375  1
  Al  Al15  1  0.888680  0.843284  0.333625  1
  Al  Al16  1  0.354822  0.503768  0.942393  1
  Al  Al17  1  0.645178  0.496232  0.057607  1
  Al  Al18  1  0.013577  0.165652  0.959000  1
  Al  Al19  1  0.986423  0.834348  0.041000  1
  Al  Al20  1  0.188070  0.499198  0.441065  1
  Al  Al21  1  0.811930  0.500802  0.558935  1
  Al  Al22  1  0.732308  0.156631  0.183819  1
  Al  Al23  1  0.267692  0.843369  0.816181  1
  Al  Al24  1  0.060980  0.644599  0.815961  1
  Al  Al25  1  0.939020  0.355401  0.184039  1
  Al  Al26  1  0.853481  0.050894  0.816145  1
  Al  Al27  1  0.146519  0.949106  0.183855  1
  Pd  Pd28  1  0.119875  0.492476  0.640240  1
  Pd  Pd29  1  0.880125  0.507524  0.359760  1
  Pd  Pd30  1  0.655334  0.172551  0.000014  1
  Pd  Pd31  1  0.344666  0.827449  0.999986  1
  Pd  Pd32  1  0.535937  0.167688  0.362579  1
  Pd  Pd33  1  0.464063  0.832312  0.637421  1
  Pd  Pd34  1  0.778799  0.175768  0.636999  1
  Pd  Pd35  1  0.221201  0.824232  0.363001  1
  W  W36  1  0.000000  0.500000  0.000000  1
