# generated using pymatgen
data_Ba15Sr5Si11Ge
_symmetry_space_group_name_H-M   'P 1'
_cell_length_a   8.35165147
_cell_length_b   8.35982084
_cell_length_c   16.79788171
_cell_angle_alpha   89.92382096
_cell_angle_beta   90.11858041
_cell_angle_gamma   89.92094330
_symmetry_Int_Tables_number   1
_chemical_formula_structural   Ba15Sr5Si11Ge
_chemical_formula_sum   'Ba15 Sr5 Si11 Ge1'
_cell_volume   1172.79504285
_cell_formula_units_Z   1
loop_
 _symmetry_equiv_pos_site_id
 _symmetry_equiv_pos_as_xyz
  1  'x, y, z'
loop_
 _atom_site_type_symbol
 _atom_site_label
 _atom_site_symmetry_multiplicity
 _atom_site_fract_x
 _atom_site_fract_y
 _atom_site_fract_z
 _atom_site_occupancy
  Ba  Ba0  1  0.172316  0.193833  0.109875  1
  Ba  Ba1  1  0.328195  0.696062  0.390066  1
  Ba  Ba2  1  0.669859  0.696112  0.890568  1
  Ba  Ba3  1  0.195799  0.171506  0.390029  1
  Ba  Ba4  1  0.671261  0.306305  0.389000  1
  Ba  Ba5  1  0.171316  0.804941  0.609412  1
  Ba  Ba6  1  0.329895  0.304711  0.890627  1
  Ba  Ba7  1  0.197239  0.828193  0.891287  1
  Ba  Ba8  1  0.828747  0.195971  0.609201  1
  Ba  Ba9  1  0.304028  0.328897  0.609218  1
  Ba  Ba10  1  0.805260  0.827943  0.390241  1
  Ba  Ba11  1  0.804787  0.170217  0.889919  1
  Ba  Ba12  1  0.827595  0.805061  0.110100  1
  Ba  Ba13  1  0.692491  0.328746  0.109878  1
  Ba  Ba14  1  0.695799  0.671592  0.609402  1
  Sr  Sr15  1  0.307924  0.673028  0.114858  1
  Sr  Sr16  1  0.500282  0.000116  0.724241  1
  Sr  Sr17  1  0.499300  0.999254  0.225375  1
  Sr  Sr18  1  0.001670  0.501046  0.272934  1
  Sr  Sr19  1  0.000302  0.500912  0.773544  1
  Si  Si20  1  0.103752  0.104630  0.749900  1
  Si  Si21  1  0.395514  0.603658  0.749358  1
  Si  Si22  1  0.601838  0.606280  0.248643  1
  Si  Si23  1  0.496922  0.992439  0.017613  1
  Si  Si24  1  0.105237  0.893890  0.250437  1
  Si  Si25  1  0.604438  0.395619  0.750415  1
  Si  Si26  1  0.895372  0.895805  0.749939  1
  Si  Si27  1  0.392573  0.398362  0.247357  1
  Si  Si28  1  0.895891  0.103396  0.249878  1
  Si  Si29  1  0.499919  0.000611  0.516177  1
  Si  Si30  1  0.999502  0.499438  0.483626  1
  Ge  Ge31  1  0.004978  0.501424  0.986882  1
