# generated using pymatgen
data_Ho4Al18OsPt5
_symmetry_space_group_name_H-M   'P 1'
_cell_length_a   7.60572945
_cell_length_b   7.60572894
_cell_length_c   9.42535242
_cell_angle_alpha   90.06212988
_cell_angle_beta   90.06213034
_cell_angle_gamma   119.74931403
_symmetry_Int_Tables_number   1
_chemical_formula_structural   Ho4Al18OsPt5
_chemical_formula_sum   'Ho4 Al18 Os1 Pt5'
_cell_volume   473.36970548
_cell_formula_units_Z   1
loop_
 _symmetry_equiv_pos_site_id
 _symmetry_equiv_pos_as_xyz
  1  'x, y, z'
loop_
 _atom_site_type_symbol
 _atom_site_label
 _atom_site_symmetry_multiplicity
 _atom_site_fract_x
 _atom_site_fract_y
 _atom_site_fract_z
 _atom_site_occupancy
  Ho  Ho0  1  0.995043  0.669335  0.248811  1
  Ho  Ho1  1  0.005419  0.330218  0.751288  1
  Ho  Ho2  1  0.669782  0.994581  0.248712  1
  Ho  Ho3  1  0.330665  0.004957  0.751189  1
  Al  Al4  1  0.128417  0.130077  0.249240  1
  Al  Al5  1  0.869923  0.871583  0.750760  1
  Al  Al6  1  0.995598  0.333893  0.075153  1
  Al  Al7  1  0.995897  0.660245  0.925282  1
  Al  Al8  1  0.999707  0.666216  0.578085  1
  Al  Al9  1  0.333784  0.000293  0.421915  1
  Al  Al10  1  0.000414  0.334490  0.422868  1
  Al  Al11  1  0.665510  0.999586  0.577132  1
  Al  Al12  1  0.666107  0.004402  0.924847  1
  Al  Al13  1  0.339755  0.004103  0.074718  1
  Al  Al14  1  0.333696  0.334123  0.561275  1
  Al  Al15  1  0.665877  0.666305  0.438725  1
  Al  Al16  1  0.667705  0.662073  0.055019  1
  Al  Al17  1  0.337928  0.332295  0.944981  1
  Al  Al18  1  0.336675  0.546217  0.249185  1
  Al  Al19  1  0.661153  0.452762  0.753648  1
  Al  Al20  1  0.547238  0.338847  0.246352  1
  Al  Al21  1  0.453783  0.663325  0.750815  1
  Os  Os22  1  0.672030  0.327970  0.000000  1
  Pt  Pt23  1  0.328036  0.671964  0.000000  1
  Pt  Pt24  1  0.327453  0.672547  0.500000  1
  Pt  Pt25  1  0.671949  0.328051  0.500000  1
  Pt  Pt26  1  0.000656  0.999344  0.000000  1
  Pt  Pt27  1  0.999803  0.000197  0.500000  1
