# generated using pymatgen
data_Tb2Ho8CuSiPb6
_symmetry_space_group_name_H-M   'P 1'
_cell_length_a   9.18880900
_cell_length_b   9.18880873
_cell_length_c   6.68853500
_cell_angle_alpha   90.00000000
_cell_angle_beta   90.00000000
_cell_angle_gamma   119.99999738
_symmetry_Int_Tables_number   1
_chemical_formula_structural   Tb2Ho8CuSiPb6
_chemical_formula_sum   'Tb2 Ho8 Cu1 Si1 Pb6'
_cell_volume   489.08020208
_cell_formula_units_Z   1
loop_
 _symmetry_equiv_pos_site_id
 _symmetry_equiv_pos_as_xyz
  1  'x, y, z'
loop_
 _atom_site_type_symbol
 _atom_site_label
 _atom_site_symmetry_multiplicity
 _atom_site_fract_x
 _atom_site_fract_y
 _atom_site_fract_z
 _atom_site_occupancy
  Tb  Tb0  1  0.666667  0.333333  0.500000  1
  Tb  Tb1  1  0.333333  0.666667  0.500000  1
  Ho  Ho2  1  0.250116  0.000000  0.240086  1
  Ho  Ho3  1  0.749884  0.000000  0.759914  1
  Ho  Ho4  1  0.000000  0.250116  0.240086  1
  Ho  Ho5  1  0.000000  0.749884  0.759914  1
  Ho  Ho6  1  0.749884  0.749884  0.240086  1
  Ho  Ho7  1  0.250116  0.250116  0.759914  1
  Ho  Ho8  1  0.333333  0.666667  0.000000  1
  Ho  Ho9  1  0.666667  0.333333  0.000000  1
  Cu  Cu10  1  0.000000  0.000000  0.500000  1
  Si  Si11  1  0.000000  0.000000  0.000000  1
  Pb  Pb12  1  0.607924  0.000000  0.249625  1
  Pb  Pb13  1  0.392076  0.000000  0.750375  1
  Pb  Pb14  1  0.000000  0.607924  0.249625  1
  Pb  Pb15  1  0.000000  0.392076  0.750375  1
  Pb  Pb16  1  0.392076  0.392076  0.249625  1
  Pb  Pb17  1  0.607924  0.607924  0.750375  1
