# generated using pymatgen
data_Pr10Al3ZnRu6
_symmetry_space_group_name_H-M   'P 1'
_cell_length_a   8.61752053
_cell_length_b   8.61751985
_cell_length_c   8.61752031
_cell_angle_alpha   109.61507434
_cell_angle_beta   109.61507016
_cell_angle_gamma   109.61507987
_symmetry_Int_Tables_number   1
_chemical_formula_structural   Pr10Al3ZnRu6
_chemical_formula_sum   'Pr10 Al3 Zn1 Ru6'
_cell_volume   489.99338877
_cell_formula_units_Z   1
loop_
 _symmetry_equiv_pos_site_id
 _symmetry_equiv_pos_as_xyz
  1  'x, y, z'
loop_
 _atom_site_type_symbol
 _atom_site_label
 _atom_site_symmetry_multiplicity
 _atom_site_fract_x
 _atom_site_fract_y
 _atom_site_fract_z
 _atom_site_occupancy
  Pr  Pr0  1  0.251105  0.684249  0.435372  1
  Pr  Pr1  1  0.748394  0.814337  0.064132  1
  Pr  Pr2  1  0.435372  0.251105  0.684249  1
  Pr  Pr3  1  0.684249  0.435372  0.251105  1
  Pr  Pr4  1  0.064132  0.748394  0.814337  1
  Pr  Pr5  1  0.814337  0.064132  0.748394  1
  Pr  Pr6  1  0.217584  0.217584  0.217584  1
  Pr  Pr7  1  0.500450  0.000265  0.285215  1
  Pr  Pr8  1  0.285215  0.500450  0.000265  1
  Pr  Pr9  1  0.000265  0.285215  0.500450  1
  Al  Al10  1  0.499058  0.000844  0.909155  1
  Al  Al11  1  0.909155  0.499058  0.000844  1
  Al  Al12  1  0.000844  0.909155  0.499058  1
  Zn  Zn13  1  0.588476  0.588476  0.588476  1
  Ru  Ru14  1  0.250342  0.117208  0.868322  1
  Ru  Ru15  1  0.754678  0.376774  0.634042  1
  Ru  Ru16  1  0.868321  0.250342  0.117208  1
  Ru  Ru17  1  0.117208  0.868321  0.250342  1
  Ru  Ru18  1  0.634042  0.754678  0.376774  1
  Ru  Ru19  1  0.376774  0.634042  0.754678  1
