# generated using pymatgen
data_Pr12Si2Br17
_symmetry_space_group_name_H-M   'P 1'
_cell_length_a   9.52624147
_cell_length_b   11.40175504
_cell_length_c   11.30008530
_cell_angle_alpha   93.73594338
_cell_angle_beta   104.76300693
_cell_angle_gamma   115.12699555
_symmetry_Int_Tables_number   1
_chemical_formula_structural   Pr12Si2Br17
_chemical_formula_sum   'Pr12 Si2 Br17'
_cell_volume   1053.25990496
_cell_formula_units_Z   1
loop_
 _symmetry_equiv_pos_site_id
 _symmetry_equiv_pos_as_xyz
  1  'x, y, z'
loop_
 _atom_site_type_symbol
 _atom_site_label
 _atom_site_symmetry_multiplicity
 _atom_site_fract_x
 _atom_site_fract_y
 _atom_site_fract_z
 _atom_site_occupancy
  Pr  Pr0  1  0.068611  0.531318  0.332280  1
  Pr  Pr1  1  0.984635  0.814233  0.568274  1
  Pr  Pr2  1  0.623508  0.237828  0.285933  1
  Pr  Pr3  1  0.015365  0.185767  0.431726  1
  Pr  Pr4  1  0.228087  0.664473  0.007767  1
  Pr  Pr5  1  0.277316  0.003431  0.907374  1
  Pr  Pr6  1  0.376492  0.762172  0.714067  1
  Pr  Pr7  1  0.931389  0.468682  0.667720  1
  Pr  Pr8  1  0.722684  0.996569  0.092626  1
  Pr  Pr9  1  0.166123  0.290246  0.142929  1
  Pr  Pr10  1  0.771913  0.335527  0.992233  1
  Pr  Pr11  1  0.833877  0.709754  0.857071  1
  Si  Si12  1  0.105503  0.736716  0.786092  1
  Si  Si13  1  0.894497  0.263284  0.213908  1
  Br  Br14  1  0.780901  0.527225  0.417207  1
  Br  Br15  1  0.633209  0.420130  0.743216  1
  Br  Br16  1  0.840761  0.897148  0.318687  1
  Br  Br17  1  0.317438  0.211830  0.368918  1
  Br  Br18  1  0.159239  0.102852  0.681313  1
  Br  Br19  1  0.585810  0.054526  0.835733  1
  Br  Br20  1  0.742551  0.168160  0.533350  1
  Br  Br21  1  0.534852  0.689192  0.952600  1
  Br  Br22  1  0.366791  0.579870  0.256784  1
  Br  Br23  1  0.219099  0.472775  0.582793  1
  Br  Br24  1  0.057259  0.366131  0.892203  1
  Br  Br25  1  0.465148  0.310808  0.047400  1
  Br  Br26  1  0.000000  0.000000  0.000000  1
  Br  Br27  1  0.257449  0.831840  0.466650  1
  Br  Br28  1  0.414190  0.945474  0.164267  1
  Br  Br29  1  0.682562  0.788170  0.631082  1
  Br  Br30  1  0.942741  0.633869  0.107797  1
