# generated using pymatgen
data_Ho3Hf(Co5As3)4
_symmetry_space_group_name_H-M   'P 1'
_cell_length_a   3.76181600
_cell_length_b   12.13425382
_cell_length_c   10.64153323
_cell_angle_alpha   89.88191131
_cell_angle_beta   90.00000000
_cell_angle_gamma   90.00000000
_symmetry_Int_Tables_number   1
_chemical_formula_structural   Ho3Hf(Co5As3)4
_chemical_formula_sum   'Ho3 Hf1 Co20 As12'
_cell_volume   485.75122856
_cell_formula_units_Z   1
loop_
 _symmetry_equiv_pos_site_id
 _symmetry_equiv_pos_as_xyz
  1  'x, y, z'
loop_
 _atom_site_type_symbol
 _atom_site_label
 _atom_site_symmetry_multiplicity
 _atom_site_fract_x
 _atom_site_fract_y
 _atom_site_fract_z
 _atom_site_occupancy
  Ho  Ho0  1  0.250000  0.297564  0.918362  1
  Ho  Ho1  1  0.250000  0.798406  0.582467  1
  Ho  Ho2  1  0.750000  0.201894  0.417896  1
  Hf  Hf3  1  0.750000  0.698271  0.077965  1
  Co  Co4  1  0.750000  0.697599  0.381625  1
  Co  Co5  1  0.250000  0.303910  0.615829  1
  Co  Co6  1  0.250000  0.800001  0.889004  1
  Co  Co7  1  0.750000  0.196281  0.114794  1
  Co  Co8  1  0.750000  0.992493  0.213718  1
  Co  Co9  1  0.250000  0.006778  0.786882  1
  Co  Co10  1  0.250000  0.510045  0.713641  1
  Co  Co11  1  0.750000  0.493051  0.284806  1
  Co  Co12  1  0.750000  0.678924  0.784881  1
  Co  Co13  1  0.250000  0.322895  0.214721  1
  Co  Co14  1  0.250000  0.821237  0.282628  1
  Co  Co15  1  0.750000  0.178617  0.717006  1
  Co  Co16  1  0.750000  0.926453  0.973060  1
  Co  Co17  1  0.250000  0.064743  0.031059  1
  Co  Co18  1  0.250000  0.569250  0.467225  1
  Co  Co19  1  0.750000  0.432750  0.529798  1
  Co  Co20  1  0.750000  0.988320  0.592992  1
  Co  Co21  1  0.250000  0.011966  0.407315  1
  Co  Co22  1  0.250000  0.517952  0.092951  1
  Co  Co23  1  0.750000  0.490890  0.910223  1
  As  As24  1  0.750000  0.614773  0.584350  1
  As  As25  1  0.250000  0.386599  0.414202  1
  As  As26  1  0.250000  0.881251  0.086332  1
  As  As27  1  0.750000  0.111038  0.915121  1
  As  As28  1  0.750000  0.890578  0.399927  1
  As  As29  1  0.250000  0.110241  0.600810  1
  As  As30  1  0.250000  0.610680  0.900731  1
  As  As31  1  0.750000  0.390174  0.100094  1
  As  As32  1  0.750000  0.871112  0.769798  1
  As  As33  1  0.250000  0.129337  0.230463  1
  As  As34  1  0.250000  0.631791  0.265639  1
  As  As35  1  0.750000  0.372139  0.731684  1
