# generated using pymatgen
data_La2Zn20NiPd
_symmetry_space_group_name_H-M   'P 1'
_cell_length_a   8.31005735
_cell_length_b   8.29436948
_cell_length_c   8.31418859
_cell_angle_alpha   99.83762359
_cell_angle_beta   99.56488698
_cell_angle_gamma   131.23184595
_symmetry_Int_Tables_number   1
_chemical_formula_structural   La2Zn20NiPd
_chemical_formula_sum   'La2 Zn20 Ni1 Pd1'
_cell_volume   393.44052165
_cell_formula_units_Z   1
loop_
 _symmetry_equiv_pos_site_id
 _symmetry_equiv_pos_as_xyz
  1  'x, y, z'
loop_
 _atom_site_type_symbol
 _atom_site_label
 _atom_site_symmetry_multiplicity
 _atom_site_fract_x
 _atom_site_fract_y
 _atom_site_fract_z
 _atom_site_occupancy
  La  La0  1  0.254788  0.754093  0.506606  1
  La  La1  1  0.995212  0.995907  0.993394  1
  Zn  Zn2  1  0.898917  0.569927  0.089945  1
  Zn  Zn3  1  0.432319  0.507307  0.324590  1
  Zn  Zn4  1  0.487823  0.571536  0.671037  1
  Zn  Zn5  1  0.432305  0.110293  0.926287  1
  Zn  Zn6  1  0.762177  0.178464  0.828963  1
  Zn  Zn7  1  0.489910  0.817022  0.917526  1
  Zn  Zn8  1  0.505026  0.498330  0.013200  1
  Zn  Zn9  1  0.760090  0.932978  0.582474  1
  Zn  Zn10  1  0.744974  0.251670  0.486800  1
  Zn  Zn11  1  0.067157  0.654396  0.830183  1
  Zn  Zn12  1  0.125000  0.375000  0.750000  1
  Zn  Zn13  1  0.351083  0.180073  0.410055  1
  Zn  Zn14  1  0.817695  0.639707  0.573713  1
  Zn  Zn15  1  0.897925  0.809825  0.327801  1
  Zn  Zn16  1  0.182843  0.095604  0.669817  1
  Zn  Zn17  1  0.067700  0.235795  0.411791  1
  Zn  Zn18  1  0.352075  0.940175  0.172199  1
  Zn  Zn19  1  0.817681  0.242693  0.175410  1
  Zn  Zn20  1  0.182300  0.514205  0.088209  1
  Zn  Zn21  1  0.625000  0.375000  0.750000  1
  Ni  Ni22  1  0.625000  0.375000  0.250000  1
  Pd  Pd23  1  0.625000  0.875000  0.250000  1
