# generated using pymatgen
data_Dy4ZnSi8Au15
_symmetry_space_group_name_H-M   'P 1'
_cell_length_a   4.36091500
_cell_length_b   4.36297800
_cell_length_c   27.41856500
_cell_angle_alpha   90.00000000
_cell_angle_beta   90.00000000
_cell_angle_gamma   90.00000000
_symmetry_Int_Tables_number   1
_chemical_formula_structural   Dy4ZnSi8Au15
_chemical_formula_sum   'Dy4 Zn1 Si8 Au15'
_cell_volume   521.68141640
_cell_formula_units_Z   1
loop_
 _symmetry_equiv_pos_site_id
 _symmetry_equiv_pos_as_xyz
  1  'x, y, z'
loop_
 _atom_site_type_symbol
 _atom_site_label
 _atom_site_symmetry_multiplicity
 _atom_site_fract_x
 _atom_site_fract_y
 _atom_site_fract_z
 _atom_site_occupancy
  Dy  Dy0  1  0.000000  0.500000  0.750022  1
  Dy  Dy1  1  0.500000  0.000000  0.250208  1
  Dy  Dy2  1  0.500000  0.500000  0.999932  1
  Dy  Dy3  1  0.500000  0.500000  0.500496  1
  Zn  Zn4  1  0.000000  0.000000  0.656353  1
  Si  Si5  1  0.000000  0.000000  0.957495  1
  Si  Si6  1  0.000000  0.000000  0.457589  1
  Si  Si7  1  0.500000  0.000000  0.793024  1
  Si  Si8  1  0.500000  0.000000  0.708307  1
  Si  Si9  1  0.000000  0.500000  0.207820  1
  Si  Si10  1  0.000000  0.500000  0.292916  1
  Si  Si11  1  0.000000  0.000000  0.042628  1
  Si  Si12  1  0.000000  0.000000  0.542079  1
  Au  Au13  1  0.500000  0.000000  0.085820  1
  Au  Au14  1  0.500000  0.500000  0.664573  1
  Au  Au15  1  0.500000  0.500000  0.835835  1
  Au  Au16  1  0.000000  0.500000  0.085981  1
  Au  Au17  1  0.500000  0.000000  0.914951  1
  Au  Au18  1  0.000000  0.500000  0.414752  1
  Au  Au19  1  0.500000  0.500000  0.336559  1
  Au  Au20  1  0.500000  0.000000  0.414210  1
  Au  Au21  1  0.000000  0.000000  0.335533  1
  Au  Au22  1  0.000000  0.000000  0.164705  1
  Au  Au23  1  0.500000  0.000000  0.584738  1
  Au  Au24  1  0.000000  0.000000  0.836235  1
  Au  Au25  1  0.500000  0.500000  0.164271  1
  Au  Au26  1  0.000000  0.500000  0.588920  1
  Au  Au27  1  0.000000  0.500000  0.914048  1
