# generated using pymatgen
data_YbTm6NiBr12
_symmetry_space_group_name_H-M   'P 1'
_cell_length_a   9.08684035
_cell_length_b   9.08683967
_cell_length_c   9.08684062
_cell_angle_alpha   106.65196090
_cell_angle_beta   106.65195998
_cell_angle_gamma   106.65196086
_symmetry_Int_Tables_number   1
_chemical_formula_structural   YbTm6NiBr12
_chemical_formula_sum   'Yb1 Tm6 Ni1 Br12'
_cell_volume   630.70087472
_cell_formula_units_Z   1
loop_
 _symmetry_equiv_pos_site_id
 _symmetry_equiv_pos_as_xyz
  1  'x, y, z'
loop_
 _atom_site_type_symbol
 _atom_site_label
 _atom_site_symmetry_multiplicity
 _atom_site_fract_x
 _atom_site_fract_y
 _atom_site_fract_z
 _atom_site_occupancy
  Yb  Yb0  1  0.500000  0.500000  0.500000  1
  Tm  Tm1  1  0.900776  0.975320  0.695740  1
  Tm  Tm2  1  0.695740  0.900776  0.975320  1
  Tm  Tm3  1  0.975320  0.695740  0.900776  1
  Tm  Tm4  1  0.099224  0.024680  0.304260  1
  Tm  Tm5  1  0.304260  0.099224  0.024680  1
  Tm  Tm6  1  0.024680  0.304260  0.099224  1
  Ni  Ni7  1  0.000000  0.000000  0.000000  1
  Br  Br8  1  0.928139  0.323906  0.780346  1
  Br  Br9  1  0.780346  0.928139  0.323906  1
  Br  Br10  1  0.323906  0.780346  0.928139  1
  Br  Br11  1  0.071861  0.676094  0.219654  1
  Br  Br12  1  0.219654  0.071861  0.676094  1
  Br  Br13  1  0.676094  0.219654  0.071861  1
  Br  Br14  1  0.546015  0.846181  0.622381  1
  Br  Br15  1  0.622381  0.546015  0.846181  1
  Br  Br16  1  0.846181  0.622381  0.546015  1
  Br  Br17  1  0.453985  0.153819  0.377619  1
  Br  Br18  1  0.377619  0.453985  0.153819  1
  Br  Br19  1  0.153819  0.377619  0.453985  1
