# generated using pymatgen
data_SmDyAg2(Pt2O7)2
_symmetry_space_group_name_H-M   'P 1'
_cell_length_a   7.25953323
_cell_length_b   7.27168960
_cell_length_c   7.19422500
_cell_angle_alpha   60.35176938
_cell_angle_beta   60.29714390
_cell_angle_gamma   61.45783120
_symmetry_Int_Tables_number   1
_chemical_formula_structural   SmDyAg2(Pt2O7)2
_chemical_formula_sum   'Sm1 Dy1 Ag2 Pt4 O14'
_cell_volume   272.72848534
_cell_formula_units_Z   1
loop_
 _symmetry_equiv_pos_site_id
 _symmetry_equiv_pos_as_xyz
  1  'x, y, z'
loop_
 _atom_site_type_symbol
 _atom_site_label
 _atom_site_symmetry_multiplicity
 _atom_site_fract_x
 _atom_site_fract_y
 _atom_site_fract_z
 _atom_site_occupancy
  Sm  Sm0  1  0.625000  0.125000  0.125000  1
  Dy  Dy1  1  0.125000  0.625000  0.125000  1
  Ag  Ag2  1  0.125000  0.125000  0.625000  1
  Ag  Ag3  1  0.125000  0.125000  0.125000  1
  Pt  Pt4  1  0.625000  0.625000  0.625000  1
  Pt  Pt5  1  0.125000  0.625000  0.625000  1
  Pt  Pt6  1  0.625000  0.125000  0.625000  1
  Pt  Pt7  1  0.625000  0.625000  0.125000  1
  O  O8  1  0.294291  0.694535  0.721440  1
  O  O9  1  0.553592  0.954027  0.959032  1
  O  O10  1  0.696408  0.295973  0.716652  1
  O  O11  1  0.295685  0.296141  0.704087  1
  O  O12  1  0.720551  0.714683  0.282383  1
  O  O13  1  0.018802  0.008983  0.986107  1
  O  O14  1  0.294291  0.694535  0.289734  1
  O  O15  1  0.955709  0.555465  0.960266  1
  O  O16  1  0.954315  0.953859  0.545913  1
  O  O17  1  0.529449  0.535317  0.967617  1
  O  O18  1  0.231198  0.241017  0.263893  1
  O  O19  1  0.553592  0.954027  0.533348  1
  O  O20  1  0.696408  0.295973  0.290968  1
  O  O21  1  0.955709  0.555465  0.528560  1
