# generated using pymatgen
data_HoEr9Si16Pd
_symmetry_space_group_name_H-M   'P 1'
_cell_length_a   11.03239292
_cell_length_b   11.04404315
_cell_length_c   11.03248252
_cell_angle_alpha   144.76767217
_cell_angle_beta   136.44909011
_cell_angle_gamma   57.19312513
_symmetry_Int_Tables_number   1
_chemical_formula_structural   HoEr9Si16Pd
_chemical_formula_sum   'Ho1 Er9 Si16 Pd1'
_cell_volume   530.02299618
_cell_formula_units_Z   1
loop_
 _symmetry_equiv_pos_site_id
 _symmetry_equiv_pos_as_xyz
  1  'x, y, z'
loop_
 _atom_site_type_symbol
 _atom_site_label
 _atom_site_symmetry_multiplicity
 _atom_site_fract_x
 _atom_site_fract_y
 _atom_site_fract_z
 _atom_site_occupancy
  Ho  Ho0  1  0.752486  0.763304  0.514196  1
  Er  Er1  1  0.051896  0.563518  0.016182  1
  Er  Er2  1  0.352031  0.371381  0.521775  1
  Er  Er3  1  0.151886  0.166443  0.520584  1
  Er  Er4  1  0.451570  0.963055  0.014850  1
  Er  Er5  1  0.645864  0.166440  0.014554  1
  Er  Er6  1  0.948213  0.963074  0.511487  1
  Er  Er7  1  0.849614  0.371397  0.019375  1
  Er  Er8  1  0.547342  0.563517  0.511623  1
  Er  Er9  1  0.249143  0.763316  0.010821  1
  Si  Si10  1  0.118342  0.079159  0.960845  1
  Si  Si11  1  0.798158  0.182336  0.384187  1
  Si  Si12  1  0.300455  0.899131  0.598653  1
  Si  Si13  1  0.399852  0.501127  0.101190  1
  Si  Si14  1  0.884337  0.847753  0.963440  1
  Si  Si15  1  0.104325  0.709084  0.604864  1
  Si  Si16  1  0.200493  0.584562  0.384081  1
  Si  Si17  1  0.698013  0.293420  0.595383  1
  Si  Si18  1  0.999914  0.433311  0.433529  1
  Si  Si19  1  0.714288  0.668164  0.953864  1
  Si  Si20  1  0.600583  0.702108  0.101412  1
  Si  Si21  1  0.000442  0.085069  0.084788  1
  Si  Si22  1  0.500992  0.391714  0.890653  1
  Si  Si23  1  0.285473  0.240890  0.955394  1
  Si  Si24  1  0.582868  0.040732  0.457689  1
  Si  Si25  1  0.415310  0.872319  0.456851  1
  Pd  Pd26  1  0.896110  0.502595  0.606647  1
