# generated using pymatgen
data_AcLaTe3
_symmetry_space_group_name_H-M   'P 1'
_cell_length_a   4.65296900
_cell_length_b   12.19012400
_cell_length_c   12.69926300
_cell_angle_alpha   90.00000000
_cell_angle_beta   90.00000000
_cell_angle_gamma   90.00000000
_symmetry_Int_Tables_number   1
_chemical_formula_structural   AcLaTe3
_chemical_formula_sum   'Ac4 La4 Te12'
_cell_volume   720.30561445
_cell_formula_units_Z   4
loop_
 _symmetry_equiv_pos_site_id
 _symmetry_equiv_pos_as_xyz
  1  'x, y, z'
loop_
 _atom_site_type_symbol
 _atom_site_label
 _atom_site_symmetry_multiplicity
 _atom_site_fract_x
 _atom_site_fract_y
 _atom_site_fract_z
 _atom_site_occupancy
  Ac  Ac0  1  0.750000  0.499709  0.695794  1
  Ac  Ac1  1  0.750000  0.000291  0.195794  1
  Ac  Ac2  1  0.250000  0.500291  0.304206  1
  Ac  Ac3  1  0.250000  0.999709  0.804206  1
  La  La4  1  0.250000  0.187038  0.489141  1
  La  La5  1  0.250000  0.312962  0.989141  1
  La  La6  1  0.750000  0.812962  0.510859  1
  La  La7  1  0.750000  0.687038  0.010859  1
  Te  Te8  1  0.250000  0.628129  0.544170  1
  Te  Te9  1  0.250000  0.871871  0.044170  1
  Te  Te10  1  0.750000  0.371871  0.455830  1
  Te  Te11  1  0.750000  0.128129  0.955830  1
  Te  Te12  1  0.250000  0.296059  0.729994  1
  Te  Te13  1  0.250000  0.203941  0.229994  1
  Te  Te14  1  0.750000  0.703941  0.270006  1
  Te  Te15  1  0.750000  0.796059  0.770006  1
  Te  Te16  1  0.750000  0.057419  0.615998  1
  Te  Te17  1  0.750000  0.442581  0.115998  1
  Te  Te18  1  0.250000  0.942581  0.384002  1
  Te  Te19  1  0.250000  0.557419  0.884002  1
