# generated using pymatgen
data_HfNb3(FeP)4
_symmetry_space_group_name_H-M   'P 1'
_cell_length_a   3.62642600
_cell_length_b   6.18124860
_cell_length_c   6.98854817
_cell_angle_alpha   89.77775328
_cell_angle_beta   90.00000000
_cell_angle_gamma   90.00000000
_symmetry_Int_Tables_number   1
_chemical_formula_structural   HfNb3(FeP)4
_chemical_formula_sum   'Hf1 Nb3 Fe4 P4'
_cell_volume   156.65300359
_cell_formula_units_Z   1
loop_
 _symmetry_equiv_pos_site_id
 _symmetry_equiv_pos_as_xyz
  1  'x, y, z'
loop_
 _atom_site_type_symbol
 _atom_site_label
 _atom_site_symmetry_multiplicity
 _atom_site_fract_x
 _atom_site_fract_y
 _atom_site_fract_z
 _atom_site_occupancy
  Hf  Hf0  1  0.250000  0.519999  0.180525  1
  Nb  Nb1  1  0.750000  0.479105  0.820512  1
  Nb  Nb2  1  0.750000  0.979489  0.676927  1
  Nb  Nb3  1  0.250000  0.021413  0.323728  1
  Fe  Fe4  1  0.250000  0.643493  0.563417  1
  Fe  Fe5  1  0.750000  0.357024  0.438873  1
  Fe  Fe6  1  0.750000  0.856484  0.059635  1
  Fe  Fe7  1  0.250000  0.141825  0.938390  1
  P  P8  1  0.250000  0.779606  0.879771  1
  P  P9  1  0.750000  0.218186  0.115454  1
  P  P10  1  0.750000  0.724297  0.384723  1
  P  P11  1  0.250000  0.279079  0.618045  1
