# generated using pymatgen
data_HoSn6Ru3Rh
_symmetry_space_group_name_H-M   'P 1'
_cell_length_a   6.96928586
_cell_length_b   6.95514749
_cell_length_c   6.94703289
_cell_angle_alpha   120.33750245
_cell_angle_beta   120.40446679
_cell_angle_gamma   89.48499862
_symmetry_Int_Tables_number   1
_chemical_formula_structural   HoSn6Ru3Rh
_chemical_formula_sum   'Ho1 Sn6 Ru3 Rh1'
_cell_volume   236.49988575
_cell_formula_units_Z   1
loop_
 _symmetry_equiv_pos_site_id
 _symmetry_equiv_pos_as_xyz
  1  'x, y, z'
loop_
 _atom_site_type_symbol
 _atom_site_label
 _atom_site_symmetry_multiplicity
 _atom_site_fract_x
 _atom_site_fract_y
 _atom_site_fract_z
 _atom_site_occupancy
  Ho  Ho0  1  0.996640  0.004275  0.000000  1
  Sn  Sn1  1  0.877442  0.534481  0.000000  1
  Sn  Sn2  1  0.536787  0.879508  0.000000  1
  Sn  Sn3  1  0.121035  0.114894  0.649829  1
  Sn  Sn4  1  0.002411  0.501048  0.498008  1
  Sn  Sn5  1  0.471207  0.465066  0.350171  1
  Sn  Sn6  1  0.504403  0.003040  0.501992  1
  Ru  Ru7  1  0.400127  0.401588  0.651225  1
  Ru  Ru8  1  0.597583  0.247248  0.000000  1
  Ru  Ru9  1  0.748901  0.750363  0.348775  1
  Rh  Rh10  1  0.243464  0.598489  0.000000  1
