# generated using pymatgen
data_BaPa2Te5
_symmetry_space_group_name_H-M   'P 1'
_cell_length_a   9.62393739
_cell_length_b   9.62393709
_cell_length_c   9.62393770
_cell_angle_alpha   128.45876489
_cell_angle_beta   128.45876490
_cell_angle_gamma   75.88301918
_symmetry_Int_Tables_number   1
_chemical_formula_structural   BaPa2Te5
_chemical_formula_sum   'Ba2 Pa4 Te10'
_cell_volume   531.51355147
_cell_formula_units_Z   2
loop_
 _symmetry_equiv_pos_site_id
 _symmetry_equiv_pos_as_xyz
  1  'x, y, z'
loop_
 _atom_site_type_symbol
 _atom_site_label
 _atom_site_symmetry_multiplicity
 _atom_site_fract_x
 _atom_site_fract_y
 _atom_site_fract_z
 _atom_site_occupancy
  Ba  Ba0  1  0.750000  0.750000  0.000000  1
  Ba  Ba1  1  0.250000  0.250000  0.000000  1
  Pa  Pa2  1  0.650796  0.150796  0.801593  1
  Pa  Pa3  1  0.349204  0.849204  0.198407  1
  Pa  Pa4  1  0.150796  0.349204  0.500000  1
  Pa  Pa5  1  0.849204  0.650796  0.500000  1
  Te  Te6  1  0.015807  0.515807  0.799108  1
  Te  Te7  1  0.716698  0.216698  0.200892  1
  Te  Te8  1  0.515807  0.716698  0.500000  1
  Te  Te9  1  0.216698  0.015807  0.500000  1
  Te  Te10  1  0.984193  0.484193  0.200892  1
  Te  Te11  1  0.283302  0.783302  0.799108  1
  Te  Te12  1  0.484193  0.283302  0.500000  1
  Te  Te13  1  0.783302  0.984193  0.500000  1
  Te  Te14  1  0.000000  0.000000  0.000000  1
  Te  Te15  1  0.500000  0.500000  0.000000  1
