# generated using pymatgen
data_K2Sr3Tc2N7
_symmetry_space_group_name_H-M   'P 1'
_cell_length_a   6.53153279
_cell_length_b   9.57361752
_cell_length_c   9.48917971
_cell_angle_alpha   117.53885601
_cell_angle_beta   95.32878584
_cell_angle_gamma   88.09592813
_symmetry_Int_Tables_number   1
_chemical_formula_structural   K2Sr3Tc2N7
_chemical_formula_sum   'K4 Sr6 Tc4 N14'
_cell_volume   523.82718622
_cell_formula_units_Z   2
loop_
 _symmetry_equiv_pos_site_id
 _symmetry_equiv_pos_as_xyz
  1  'x, y, z'
loop_
 _atom_site_type_symbol
 _atom_site_label
 _atom_site_symmetry_multiplicity
 _atom_site_fract_x
 _atom_site_fract_y
 _atom_site_fract_z
 _atom_site_occupancy
  K  K0  1  0.848842  0.590341  0.311080  1
  K  K1  1  0.270698  0.984223  0.556126  1
  K  K2  1  0.714658  0.424294  0.860736  1
  K  K3  1  0.282942  0.591273  0.158806  1
  Sr  Sr4  1  0.408673  0.798721  0.940318  1
  Sr  Sr5  1  0.589200  0.208681  0.045607  1
  Sr  Sr6  1  0.165576  0.411191  0.689208  1
  Sr  Sr7  1  0.908224  0.834765  0.749185  1
  Sr  Sr8  1  0.096953  0.169114  0.243614  1
  Sr  Sr9  1  0.739006  0.009511  0.452197  1
  Tc  Tc10  1  0.582932  0.355273  0.480831  1
  Tc  Tc11  1  0.432953  0.630499  0.523047  1
  Tc  Tc12  1  0.105874  0.197753  0.910808  1
  Tc  Tc13  1  0.881612  0.810153  0.080808  1
  N  N14  1  0.519855  0.547758  0.675886  1
  N  N15  1  0.487803  0.430972  0.326205  1
  N  N16  1  0.169134  0.678736  0.539889  1
  N  N17  1  0.847430  0.296306  0.479785  1
  N  N18  1  0.415036  0.201583  0.461787  1
  N  N19  1  0.593299  0.786529  0.537992  1
  N  N20  1  0.927328  0.103975  0.730633  1
  N  N21  1  0.039737  0.912533  0.268541  1
  N  N22  1  0.235874  0.049062  0.959086  1
  N  N23  1  0.763260  0.955939  0.022865  1
  N  N24  1  0.310488  0.309329  0.885762  1
  N  N25  1  0.961512  0.319701  0.079155  1
  N  N26  1  0.036477  0.674161  0.917547  1
  N  N27  1  0.664626  0.717625  0.112497  1
