# generated using pymatgen
data_Sr2LiCo5O12
_symmetry_space_group_name_H-M   'P 1'
_cell_length_a   4.92944034
_cell_length_b   6.04385843
_cell_length_c   8.49657500
_cell_angle_alpha   89.99996208
_cell_angle_beta   89.99998838
_cell_angle_gamma   75.23657907
_symmetry_Int_Tables_number   1
_chemical_formula_structural   Sr2LiCo5O12
_chemical_formula_sum   'Sr2 Li1 Co5 O12'
_cell_volume   244.78009715
_cell_formula_units_Z   1
loop_
 _symmetry_equiv_pos_site_id
 _symmetry_equiv_pos_as_xyz
  1  'x, y, z'
loop_
 _atom_site_type_symbol
 _atom_site_label
 _atom_site_symmetry_multiplicity
 _atom_site_fract_x
 _atom_site_fract_y
 _atom_site_fract_z
 _atom_site_occupancy
  Sr  Sr0  1  0.000000  0.499999  0.176404  1
  Sr  Sr1  1  0.500001  0.500000  0.678895  1
  Li  Li2  1  0.500000  0.000000  0.837287  1
  Co  Co3  1  0.000000  0.000000  0.665572  1
  Co  Co4  1  0.500000  0.000000  0.501769  1
  Co  Co5  1  0.500000  0.000000  0.162698  1
  Co  Co6  1  0.000000  0.000000  0.332168  1
  Co  Co7  1  0.000000  0.000000  0.993464  1
  O  O8  1  0.778534  0.170910  0.163424  1
  O  O9  1  0.271453  0.171364  0.651236  1
  O  O10  1  0.221465  0.829090  0.163425  1
  O  O11  1  0.728547  0.828636  0.651236  1
  O  O12  1  0.266871  0.172688  0.015349  1
  O  O13  1  0.778825  0.172579  0.499947  1
  O  O14  1  0.282369  0.165078  0.332216  1
  O  O15  1  0.806409  0.175915  0.830365  1
  O  O16  1  0.717631  0.834922  0.332216  1
  O  O17  1  0.193591  0.824086  0.830365  1
  O  O18  1  0.733129  0.827311  0.015349  1
  O  O19  1  0.221175  0.827422  0.499947  1
