# generated using pymatgen
data_Eu2Ga5Au3
_symmetry_space_group_name_H-M   'P 1'
_cell_length_a   4.38409100
_cell_length_b   4.38409100
_cell_length_c   11.06984200
_cell_angle_alpha   90.00000000
_cell_angle_beta   90.00000000
_cell_angle_gamma   90.00000000
_symmetry_Int_Tables_number   1
_chemical_formula_structural   Eu2Ga5Au3
_chemical_formula_sum   'Eu2 Ga5 Au3'
_cell_volume   212.76517383
_cell_formula_units_Z   1
loop_
 _symmetry_equiv_pos_site_id
 _symmetry_equiv_pos_as_xyz
  1  'x, y, z'
loop_
 _atom_site_type_symbol
 _atom_site_label
 _atom_site_symmetry_multiplicity
 _atom_site_fract_x
 _atom_site_fract_y
 _atom_site_fract_z
 _atom_site_occupancy
  Eu  Eu0  1  0.000000  0.500000  0.254866  1
  Eu  Eu1  1  0.500000  0.000000  0.745134  1
  Ga  Ga2  1  0.500000  0.500000  0.000000  1
  Ga  Ga3  1  0.000000  0.000000  0.000000  1
  Ga  Ga4  1  0.000000  0.500000  0.634794  1
  Ga  Ga5  1  0.500000  0.000000  0.365206  1
  Ga  Ga6  1  0.000000  0.000000  0.500000  1
  Au  Au7  1  0.000000  0.500000  0.865451  1
  Au  Au8  1  0.500000  0.000000  0.134549  1
  Au  Au9  1  0.500000  0.500000  0.500000  1
