# generated using pymatgen
data_Y8Si16Mo11W
_symmetry_space_group_name_H-M   'P 1'
_cell_length_a   6.78977726
_cell_length_b   6.96489463
_cell_length_c   12.94429400
_cell_angle_alpha   90.00000000
_cell_angle_beta   90.00000000
_cell_angle_gamma   90.03398904
_symmetry_Int_Tables_number   1
_chemical_formula_structural   Y8Si16Mo11W
_chemical_formula_sum   'Y8 Si16 Mo11 W1'
_cell_volume   612.13663199
_cell_formula_units_Z   1
loop_
 _symmetry_equiv_pos_site_id
 _symmetry_equiv_pos_as_xyz
  1  'x, y, z'
loop_
 _atom_site_type_symbol
 _atom_site_label
 _atom_site_symmetry_multiplicity
 _atom_site_fract_x
 _atom_site_fract_y
 _atom_site_fract_z
 _atom_site_occupancy
  Y  Y0  1  0.997138  0.167027  0.093946  1
  Y  Y1  1  0.003167  0.832773  0.905933  1
  Y  Y2  1  0.502769  0.666735  0.905721  1
  Y  Y3  1  0.003167  0.832773  0.594067  1
  Y  Y4  1  0.496996  0.332990  0.094077  1
  Y  Y5  1  0.997138  0.167027  0.406054  1
  Y  Y6  1  0.496996  0.332990  0.405923  1
  Y  Y7  1  0.502769  0.666735  0.594279  1
  Si  Si8  1  0.035078  0.133429  0.750000  1
  Si  Si9  1  0.964126  0.865156  0.250000  1
  Si  Si10  1  0.464507  0.634651  0.250000  1
  Si  Si11  1  0.536052  0.365460  0.750000  1
  Si  Si12  1  0.303423  0.870814  0.750000  1
  Si  Si13  1  0.696536  0.128354  0.250000  1
  Si  Si14  1  0.196412  0.371919  0.250000  1
  Si  Si15  1  0.803271  0.629127  0.750000  1
  Si  Si16  1  0.159206  0.457850  0.547665  1
  Si  Si17  1  0.841196  0.542518  0.452179  1
  Si  Si18  1  0.341362  0.957428  0.452178  1
  Si  Si19  1  0.841196  0.542518  0.047821  1
  Si  Si20  1  0.658713  0.042841  0.548137  1
  Si  Si21  1  0.159206  0.457850  0.952335  1
  Si  Si22  1  0.658713  0.042841  0.951863  1
  Si  Si23  1  0.341362  0.957428  0.047822  1
  Mo  Mo24  1  0.833355  0.500126  0.250000  1
  Mo  Mo25  1  0.333350  0.999841  0.250000  1
  Mo  Mo26  1  0.666538  0.000147  0.750000  1
  Mo  Mo27  1  0.330545  0.164692  0.625473  1
  Mo  Mo28  1  0.668767  0.835455  0.374740  1
  Mo  Mo29  1  0.168665  0.664703  0.374512  1
  Mo  Mo30  1  0.668767  0.835455  0.125260  1
  Mo  Mo31  1  0.832009  0.335933  0.625579  1
  Mo  Mo32  1  0.330545  0.164692  0.874527  1
  Mo  Mo33  1  0.832009  0.335933  0.874421  1
  Mo  Mo34  1  0.168665  0.664703  0.125488  1
  W  W35  1  0.166281  0.499086  0.750000  1
