# generated using pymatgen
data_LuZr(Np3Sb5)2
_symmetry_space_group_name_H-M   'P 1'
_cell_length_a   9.28530300
_cell_length_b   9.28530251
_cell_length_c   6.29760600
_cell_angle_alpha   90.00000000
_cell_angle_beta   90.00000000
_cell_angle_gamma   119.99999819
_symmetry_Int_Tables_number   1
_chemical_formula_structural   LuZr(Np3Sb5)2
_chemical_formula_sum   'Lu1 Zr1 Np6 Sb10'
_cell_volume   470.21693181
_cell_formula_units_Z   1
loop_
 _symmetry_equiv_pos_site_id
 _symmetry_equiv_pos_as_xyz
  1  'x, y, z'
loop_
 _atom_site_type_symbol
 _atom_site_label
 _atom_site_symmetry_multiplicity
 _atom_site_fract_x
 _atom_site_fract_y
 _atom_site_fract_z
 _atom_site_occupancy
  Lu  Lu0  1  0.000000  0.000000  0.000000  1
  Zr  Zr1  1  0.000000  0.000000  0.500000  1
  Np  Np2  1  0.615945  0.000000  0.250581  1
  Np  Np3  1  0.384055  0.000000  0.749419  1
  Np  Np4  1  0.000000  0.615945  0.250581  1
  Np  Np5  1  0.000000  0.384055  0.749419  1
  Np  Np6  1  0.384055  0.384055  0.250581  1
  Np  Np7  1  0.615945  0.615945  0.749419  1
  Sb  Sb8  1  0.271449  0.000000  0.251904  1
  Sb  Sb9  1  0.728551  0.000000  0.748096  1
  Sb  Sb10  1  0.000000  0.271449  0.251904  1
  Sb  Sb11  1  0.000000  0.728551  0.748096  1
  Sb  Sb12  1  0.728551  0.728551  0.251904  1
  Sb  Sb13  1  0.271449  0.271449  0.748096  1
  Sb  Sb14  1  0.333333  0.666667  0.000000  1
  Sb  Sb15  1  0.666667  0.333333  0.000000  1
  Sb  Sb16  1  0.666667  0.333333  0.500000  1
  Sb  Sb17  1  0.333333  0.666667  0.500000  1
