# generated using pymatgen
data_Er4Sc(GeB4)2
_symmetry_space_group_name_H-M   'P 1'
_cell_length_a   7.15481700
_cell_length_b   7.15481700
_cell_length_c   7.91353400
_cell_angle_alpha   90.00000000
_cell_angle_beta   90.00000000
_cell_angle_gamma   90.00000000
_symmetry_Int_Tables_number   1
_chemical_formula_structural   Er4Sc(GeB4)2
_chemical_formula_sum   'Er8 Sc2 Ge4 B16'
_cell_volume   405.10493429
_cell_formula_units_Z   2
loop_
 _symmetry_equiv_pos_site_id
 _symmetry_equiv_pos_as_xyz
  1  'x, y, z'
loop_
 _atom_site_type_symbol
 _atom_site_label
 _atom_site_symmetry_multiplicity
 _atom_site_fract_x
 _atom_site_fract_y
 _atom_site_fract_z
 _atom_site_occupancy
  Er  Er0  1  0.680380  0.180380  0.224603  1
  Er  Er1  1  0.319620  0.819620  0.775397  1
  Er  Er2  1  0.319620  0.819620  0.224603  1
  Er  Er3  1  0.819620  0.680380  0.224603  1
  Er  Er4  1  0.819620  0.680380  0.775397  1
  Er  Er5  1  0.680380  0.180380  0.775397  1
  Er  Er6  1  0.180380  0.319620  0.775397  1
  Er  Er7  1  0.180380  0.319620  0.224603  1
  Sc  Sc8  1  0.000000  0.000000  0.500000  1
  Sc  Sc9  1  0.500000  0.500000  0.500000  1
  Ge  Ge10  1  0.123570  0.623570  0.500000  1
  Ge  Ge11  1  0.876430  0.376430  0.500000  1
  Ge  Ge12  1  0.376430  0.123570  0.500000  1
  Ge  Ge13  1  0.623570  0.876430  0.500000  1
  B  B14  1  0.172606  0.039571  0.000000  1
  B  B15  1  0.827394  0.960429  0.000000  1
  B  B16  1  0.960429  0.172606  0.000000  1
  B  B17  1  0.327394  0.539571  0.000000  1
  B  B18  1  0.039571  0.827394  0.000000  1
  B  B19  1  0.672606  0.460429  0.000000  1
  B  B20  1  0.539571  0.672606  0.000000  1
  B  B21  1  0.460429  0.327394  0.000000  1
  B  B22  1  0.090056  0.590056  0.000000  1
  B  B23  1  0.909944  0.409944  0.000000  1
  B  B24  1  0.409944  0.090056  0.000000  1
  B  B25  1  0.590056  0.909944  0.000000  1
  B  B26  1  0.000000  0.000000  0.167050  1
  B  B27  1  0.000000  0.000000  0.832950  1
  B  B28  1  0.500000  0.500000  0.832950  1
  B  B29  1  0.500000  0.500000  0.167050  1
