# generated using pymatgen
data_Nd4Cd2CuPd3
_symmetry_space_group_name_H-M   'P 1'
_cell_length_a   7.81294623
_cell_length_b   7.81294623
_cell_length_c   3.92801100
_cell_angle_alpha   90.00000000
_cell_angle_beta   90.00000000
_cell_angle_gamma   90.41089357
_symmetry_Int_Tables_number   1
_chemical_formula_structural   Nd4Cd2CuPd3
_chemical_formula_sum   'Nd4 Cd2 Cu1 Pd3'
_cell_volume   239.76798746
_cell_formula_units_Z   1
loop_
 _symmetry_equiv_pos_site_id
 _symmetry_equiv_pos_as_xyz
  1  'x, y, z'
loop_
 _atom_site_type_symbol
 _atom_site_label
 _atom_site_symmetry_multiplicity
 _atom_site_fract_x
 _atom_site_fract_y
 _atom_site_fract_z
 _atom_site_occupancy
  Nd  Nd0  1  0.674044  0.174044  0.500000  1
  Nd  Nd1  1  0.327984  0.827984  0.500000  1
  Nd  Nd2  1  0.172742  0.324338  0.500000  1
  Nd  Nd3  1  0.824338  0.672742  0.500000  1
  Cd  Cd4  1  0.001001  0.998360  0.000000  1
  Cd  Cd5  1  0.498360  0.501001  0.000000  1
  Cu  Cu6  1  0.122455  0.622455  0.000000  1
  Pd  Pd7  1  0.878946  0.378946  0.000000  1
  Pd  Pd8  1  0.628130  0.872001  0.000000  1
  Pd  Pd9  1  0.372001  0.128130  0.000000  1
