# generated using pymatgen
data_Dy3Sc3Bi2Rh
_symmetry_space_group_name_H-M   'P 1'
_cell_length_a   8.02876011
_cell_length_b   8.02893263
_cell_length_c   4.16861200
_cell_angle_alpha   90.00000000
_cell_angle_beta   90.00000000
_cell_angle_gamma   119.99712371
_symmetry_Int_Tables_number   1
_chemical_formula_structural   Dy3Sc3Bi2Rh
_chemical_formula_sum   'Dy3 Sc3 Bi2 Rh1'
_cell_volume   232.72390123
_cell_formula_units_Z   1
loop_
 _symmetry_equiv_pos_site_id
 _symmetry_equiv_pos_as_xyz
  1  'x, y, z'
loop_
 _atom_site_type_symbol
 _atom_site_label
 _atom_site_symmetry_multiplicity
 _atom_site_fract_x
 _atom_site_fract_y
 _atom_site_fract_z
 _atom_site_occupancy
  Dy  Dy0  1  0.611918  0.999997  0.000000  1
  Dy  Dy1  1  0.999997  0.611900  0.000000  1
  Dy  Dy2  1  0.388043  0.388042  0.000000  1
  Sc  Sc3  1  0.227597  0.000012  0.500000  1
  Sc  Sc4  1  0.000020  0.227627  0.500000  1
  Sc  Sc5  1  0.772485  0.772479  0.500000  1
  Bi  Bi6  1  0.333357  0.666670  0.500000  1
  Bi  Bi7  1  0.666654  0.333355  0.500000  1
  Rh  Rh8  1  0.999930  0.999919  0.000000  1
