# generated using pymatgen
data_CrH2F7
_symmetry_space_group_name_H-M   'P 1'
_cell_length_a   5.01377526
_cell_length_b   5.13779774
_cell_length_c   6.28592793
_cell_angle_alpha   94.42956042
_cell_angle_beta   91.84661953
_cell_angle_gamma   112.53790880
_symmetry_Int_Tables_number   1
_chemical_formula_structural   CrH2F7
_chemical_formula_sum   'Cr1 H2 F7'
_cell_volume   148.77407039
_cell_formula_units_Z   1
loop_
 _symmetry_equiv_pos_site_id
 _symmetry_equiv_pos_as_xyz
  1  'x, y, z'
loop_
 _atom_site_type_symbol
 _atom_site_label
 _atom_site_symmetry_multiplicity
 _atom_site_fract_x
 _atom_site_fract_y
 _atom_site_fract_z
 _atom_site_occupancy
  Cr  Cr0  1  0.173432  0.915860  0.309342  1
  H  H1  1  0.401954  0.303827  0.973094  1
  H  H2  1  0.431781  0.233957  0.681094  1
  F  F3  1  0.387280  0.720954  0.270515  1
  F  F4  1  0.467543  0.092992  0.564603  1
  F  F5  1  0.433262  0.182269  0.144258  1
  F  F6  1  0.054501  0.181346  0.393745  1
  F  F7  1  0.388252  0.390456  0.832301  1
  F  F8  1  0.942954  0.681250  0.475846  1
  F  F9  1  0.937821  0.766563  0.083008  1
