# generated using pymatgen
data_Yb4Nb(TcO4)3
_symmetry_space_group_name_H-M   'P 1'
_cell_length_a   5.38405848
_cell_length_b   5.63861228
_cell_length_c   7.73829422
_cell_angle_alpha   89.68008335
_cell_angle_beta   89.76520853
_cell_angle_gamma   90.05994109
_symmetry_Int_Tables_number   1
_chemical_formula_structural   Yb4Nb(TcO4)3
_chemical_formula_sum   'Yb4 Nb1 Tc3 O12'
_cell_volume   234.91815149
_cell_formula_units_Z   1
loop_
 _symmetry_equiv_pos_site_id
 _symmetry_equiv_pos_as_xyz
  1  'x, y, z'
loop_
 _atom_site_type_symbol
 _atom_site_label
 _atom_site_symmetry_multiplicity
 _atom_site_fract_x
 _atom_site_fract_y
 _atom_site_fract_z
 _atom_site_occupancy
  Yb  Yb0  1  0.983715  0.433777  0.754952  1
  Yb  Yb1  1  0.519956  0.939113  0.756672  1
  Yb  Yb2  1  0.480044  0.060887  0.243328  1
  Yb  Yb3  1  0.016285  0.566223  0.245048  1
  Nb  Nb4  1  0.500000  0.500000  0.500000  1
  Tc  Tc5  1  0.000000  0.000000  0.000000  1
  Tc  Tc6  1  0.000000  0.000000  0.500000  1
  Tc  Tc7  1  0.500000  0.500000  0.000000  1
  O  O8  1  0.102975  0.031257  0.748868  1
  O  O9  1  0.195866  0.298172  0.051435  1
  O  O10  1  0.197968  0.301920  0.448324  1
  O  O11  1  0.304568  0.795287  0.445374  1
  O  O12  1  0.303722  0.797765  0.050418  1
  O  O13  1  0.398865  0.531999  0.749052  1
  O  O14  1  0.601135  0.468001  0.250948  1
  O  O15  1  0.696278  0.202235  0.949582  1
  O  O16  1  0.695432  0.204713  0.554626  1
  O  O17  1  0.802032  0.698080  0.551676  1
  O  O18  1  0.804134  0.701828  0.948565  1
  O  O19  1  0.897025  0.968743  0.251132  1
