# generated using pymatgen
data_Nd2GaSi2PRh6
_symmetry_space_group_name_H-M   'P 1'
_cell_length_a   6.70890696
_cell_length_b   6.69585379
_cell_length_c   6.70890556
_cell_angle_alpha   130.16117824
_cell_angle_beta   114.63530893
_cell_angle_gamma   86.52321161
_symmetry_Int_Tables_number   1
_chemical_formula_structural   Nd2GaSi2PRh6
_chemical_formula_sum   'Nd2 Ga1 Si2 P1 Rh6'
_cell_volume   199.73444432
_cell_formula_units_Z   1
loop_
 _symmetry_equiv_pos_site_id
 _symmetry_equiv_pos_as_xyz
  1  'x, y, z'
loop_
 _atom_site_type_symbol
 _atom_site_label
 _atom_site_symmetry_multiplicity
 _atom_site_fract_x
 _atom_site_fract_y
 _atom_site_fract_z
 _atom_site_occupancy
  Nd  Nd0  1  0.748325  0.041884  0.293559  1
  Nd  Nd1  1  0.251719  0.976425  0.724705  1
  Ga  Ga2  1  0.597384  0.393991  0.796606  1
  Si  Si3  1  0.065380  0.264338  0.198958  1
  Si  Si4  1  0.906764  0.703138  0.796374  1
  P  P5  1  0.434494  0.634554  0.200059  1
  Rh  Rh6  1  0.213714  0.504669  0.719936  1
  Rh  Rh7  1  0.719648  0.994684  0.720956  1
  Rh  Rh8  1  0.784732  0.504669  0.290956  1
  Rh  Rh9  1  0.273728  0.994684  0.275036  1
  Rh  Rh10  1  0.469910  0.493482  0.459282  1
  Rh  Rh11  1  0.034201  0.493482  0.023572  1
