# generated using pymatgen
data_Ho2UMnFeSi7
_symmetry_space_group_name_H-M   'P 1'
_cell_length_a   12.26851448
_cell_length_b   12.26851592
_cell_length_c   4.03580800
_cell_angle_alpha   90.00000000
_cell_angle_beta   90.00000000
_cell_angle_gamma   160.88467098
_symmetry_Int_Tables_number   1
_chemical_formula_structural   Ho2UMnFeSi7
_chemical_formula_sum   'Ho2 U1 Mn1 Fe1 Si7'
_cell_volume   198.92389600
_cell_formula_units_Z   1
loop_
 _symmetry_equiv_pos_site_id
 _symmetry_equiv_pos_as_xyz
  1  'x, y, z'
loop_
 _atom_site_type_symbol
 _atom_site_label
 _atom_site_symmetry_multiplicity
 _atom_site_fract_x
 _atom_site_fract_y
 _atom_site_fract_z
 _atom_site_occupancy
  Ho  Ho0  1  0.316357  0.683643  0.000000  1
  Ho  Ho1  1  0.684464  0.315536  0.000000  1
  U  U2  1  0.000113  0.999887  0.500000  1
  Mn  Mn3  1  0.125310  0.874690  0.500000  1
  Fe  Fe4  1  0.874493  0.125507  0.500000  1
  Si  Si5  1  0.223121  0.776879  0.500000  1
  Si  Si6  1  0.779444  0.220556  0.500000  1
  Si  Si7  1  0.084423  0.915577  0.000000  1
  Si  Si8  1  0.914007  0.085993  0.000000  1
  Si  Si9  1  0.413727  0.586273  0.500000  1
  Si  Si10  1  0.498709  0.501291  0.000000  1
  Si  Si11  1  0.585831  0.414169  0.500000  1
