# generated using pymatgen
data_CaTb3Er2(Si3Ru)8
_symmetry_space_group_name_H-M   'P 1'
_cell_length_a   10.13237328
_cell_length_b   10.13237356
_cell_length_c   8.14517630
_cell_angle_alpha   89.90574336
_cell_angle_beta   90.09426461
_cell_angle_gamma   132.60351567
_symmetry_Int_Tables_number   1
_chemical_formula_structural   CaTb3Er2(Si3Ru)8
_chemical_formula_sum   'Ca1 Tb3 Er2 Si24 Ru8'
_cell_volume   615.50665739
_cell_formula_units_Z   1
loop_
 _symmetry_equiv_pos_site_id
 _symmetry_equiv_pos_as_xyz
  1  'x, y, z'
loop_
 _atom_site_type_symbol
 _atom_site_label
 _atom_site_symmetry_multiplicity
 _atom_site_fract_x
 _atom_site_fract_y
 _atom_site_fract_z
 _atom_site_occupancy
  Ca  Ca0  1  0.498157  0.998157  0.250000  1
  Tb  Tb1  1  0.001369  0.501369  0.750000  1
  Tb  Tb2  1  0.502748  0.002748  0.750000  1
  Tb  Tb3  1  0.997262  0.497262  0.250000  1
  Er  Er4  1  0.499816  0.499676  0.499538  1
  Er  Er5  1  0.999676  0.999816  0.000462  1
  Si  Si6  1  0.388344  0.155286  0.002504  1
  Si  Si7  1  0.655286  0.888344  0.497496  1
  Si  Si8  1  0.111829  0.344632  0.505178  1
  Si  Si9  1  0.844632  0.611829  0.994822  1
  Si  Si10  1  0.612117  0.845577  0.993483  1
  Si  Si11  1  0.345577  0.112117  0.506517  1
  Si  Si12  1  0.888019  0.655639  0.494839  1
  Si  Si13  1  0.155639  0.388019  0.005161  1
  Si  Si14  1  0.614051  0.380013  0.228251  1
  Si  Si15  1  0.880013  0.114051  0.271749  1
  Si  Si16  1  0.888425  0.121665  0.727840  1
  Si  Si17  1  0.621665  0.388425  0.772160  1
  Si  Si18  1  0.388467  0.621535  0.771531  1
  Si  Si19  1  0.121535  0.888467  0.728469  1
  Si  Si20  1  0.704775  0.294188  0.000921  1
  Si  Si21  1  0.794188  0.204775  0.499079  1
  Si  Si22  1  0.295459  0.705790  0.000108  1
  Si  Si23  1  0.205790  0.795459  0.499892  1
  Si  Si24  1  0.166255  0.167403  0.333044  1
  Si  Si25  1  0.667403  0.666255  0.166956  1
  Si  Si26  1  0.332899  0.331641  0.833143  1
  Si  Si27  1  0.831641  0.832899  0.666857  1
  Si  Si28  1  0.376355  0.610055  0.228435  1
  Si  Si29  1  0.110055  0.876355  0.271565  1
  Ru  Ru30  1  0.625958  0.626405  0.873167  1
  Ru  Ru31  1  0.126405  0.125958  0.626833  1
  Ru  Ru32  1  0.873140  0.873474  0.372904  1
  Ru  Ru33  1  0.373474  0.373140  0.127096  1
  Ru  Ru34  1  0.329839  0.668408  0.500803  1
  Ru  Ru35  1  0.168408  0.829839  0.999197  1
  Ru  Ru36  1  0.670630  0.332700  0.501686  1
  Ru  Ru37  1  0.832700  0.170630  0.998314  1
