# generated using pymatgen
data_Yb3Er(GaPd5)2
_symmetry_space_group_name_H-M   'P 1'
_cell_length_a   4.19181600
_cell_length_b   5.75347848
_cell_length_c   11.27849580
_cell_angle_alpha   90.15838506
_cell_angle_beta   90.00000000
_cell_angle_gamma   90.00000000
_symmetry_Int_Tables_number   1
_chemical_formula_structural   Yb3Er(GaPd5)2
_chemical_formula_sum   'Yb3 Er1 Ga2 Pd10'
_cell_volume   272.00834434
_cell_formula_units_Z   1
loop_
 _symmetry_equiv_pos_site_id
 _symmetry_equiv_pos_as_xyz
  1  'x, y, z'
loop_
 _atom_site_type_symbol
 _atom_site_label
 _atom_site_symmetry_multiplicity
 _atom_site_fract_x
 _atom_site_fract_y
 _atom_site_fract_z
 _atom_site_occupancy
  Yb  Yb0  1  0.000000  0.310065  0.863133  1
  Yb  Yb1  1  0.000000  0.190339  0.359349  1
  Yb  Yb2  1  0.000000  0.689703  0.139084  1
  Er  Er3  1  0.000000  0.810002  0.638711  1
  Ga  Ga4  1  0.500000  0.498140  0.498063  1
  Ga  Ga5  1  0.500000  0.000183  0.001275  1
  Pd  Pd6  1  0.000000  0.808195  0.892587  1
  Pd  Pd7  1  0.000000  0.692467  0.393456  1
  Pd  Pd8  1  0.000000  0.307515  0.606931  1
  Pd  Pd9  1  0.500000  0.944037  0.242918  1
  Pd  Pd10  1  0.500000  0.444896  0.256924  1
  Pd  Pd11  1  0.500000  0.554926  0.744087  1
  Pd  Pd12  1  0.500000  0.056250  0.756796  1
  Pd  Pd13  1  0.500000  0.500152  0.000422  1
  Pd  Pd14  1  0.500000  0.001240  0.499304  1
  Pd  Pd15  1  0.000000  0.191889  0.106960  1
