# generated using pymatgen
data_Tm4Ge2B4Ru3Rh7
_symmetry_space_group_name_H-M   'P 1'
_cell_length_a   9.47656714
_cell_length_b   9.46749314
_cell_length_c   3.13693700
_cell_angle_alpha   90.00000000
_cell_angle_beta   90.00000000
_cell_angle_gamma   90.01951995
_symmetry_Int_Tables_number   1
_chemical_formula_structural   Tm4Ge2B4Ru3Rh7
_chemical_formula_sum   'Tm4 Ge2 B4 Ru3 Rh7'
_cell_volume   281.44388317
_cell_formula_units_Z   1
loop_
 _symmetry_equiv_pos_site_id
 _symmetry_equiv_pos_as_xyz
  1  'x, y, z'
loop_
 _atom_site_type_symbol
 _atom_site_label
 _atom_site_symmetry_multiplicity
 _atom_site_fract_x
 _atom_site_fract_y
 _atom_site_fract_z
 _atom_site_occupancy
  Tm  Tm0  1  0.829115  0.322873  0.000000  1
  Tm  Tm1  1  0.321774  0.175247  0.000000  1
  Tm  Tm2  1  0.674969  0.824436  0.000000  1
  Tm  Tm3  1  0.175469  0.673276  0.000000  1
  Ge  Ge4  1  0.001035  0.005987  0.000000  1
  Ge  Ge5  1  0.499549  0.500119  0.000000  1
  B  B6  1  0.619922  0.120979  0.000000  1
  B  B7  1  0.117085  0.374587  0.000000  1
  B  B8  1  0.881552  0.621293  0.000000  1
  B  B9  1  0.378989  0.880463  0.000000  1
  Ru  Ru10  1  0.069970  0.215913  0.500000  1
  Ru  Ru11  1  0.499758  0.999519  0.500000  1
  Ru  Ru12  1  0.000121  0.502242  0.500000  1
  Rh  Rh13  1  0.217714  0.927007  0.500000  1
  Rh  Rh14  1  0.781052  0.069257  0.500000  1
  Rh  Rh15  1  0.929197  0.785399  0.500000  1
  Rh  Rh16  1  0.430155  0.716358  0.500000  1
  Rh  Rh17  1  0.571183  0.283112  0.500000  1
  Rh  Rh18  1  0.717302  0.570945  0.500000  1
  Rh  Rh19  1  0.284090  0.430987  0.500000  1
