# generated using pymatgen
data_CeEr5SbO12
_symmetry_space_group_name_H-M   'P 1'
_cell_length_a   6.47344784
_cell_length_b   6.43878966
_cell_length_c   6.48040289
_cell_angle_alpha   98.94178954
_cell_angle_beta   99.02638117
_cell_angle_gamma   98.74084841
_symmetry_Int_Tables_number   1
_chemical_formula_structural   CeEr5SbO12
_chemical_formula_sum   'Ce1 Er5 Sb1 O12'
_cell_volume   259.18278691
_cell_formula_units_Z   1
loop_
 _symmetry_equiv_pos_site_id
 _symmetry_equiv_pos_as_xyz
  1  'x, y, z'
loop_
 _atom_site_type_symbol
 _atom_site_label
 _atom_site_symmetry_multiplicity
 _atom_site_fract_x
 _atom_site_fract_y
 _atom_site_fract_z
 _atom_site_occupancy
  Ce  Ce0  1  0.689230  0.858562  0.395280  1
  Er  Er1  1  0.387888  0.687709  0.856588  1
  Er  Er2  1  0.861764  0.393145  0.698237  1
  Er  Er3  1  0.307171  0.144601  0.612546  1
  Er  Er4  1  0.607745  0.305973  0.133729  1
  Er  Er5  1  0.141592  0.605652  0.309582  1
  Sb  Sb6  1  0.003218  0.000459  0.002906  1
  O  O7  1  0.431701  0.588768  0.177225  1
  O  O8  1  0.174950  0.433619  0.587285  1
  O  O9  1  0.590976  0.174379  0.430557  1
  O  O10  1  0.566479  0.409740  0.820148  1
  O  O11  1  0.818308  0.569348  0.411194  1
  O  O12  1  0.410753  0.822665  0.567486  1
  O  O13  1  0.932317  0.047773  0.697180  1
  O  O14  1  0.956844  0.306006  0.073676  1
  O  O15  1  0.306128  0.073698  0.958329  1
  O  O16  1  0.075406  0.955295  0.306022  1
  O  O17  1  0.042521  0.694976  0.925402  1
  O  O18  1  0.695010  0.927632  0.036629  1
