# generated using pymatgen
data_TbDy4(RhO6)2
_symmetry_space_group_name_H-M   'P 1'
_cell_length_a   6.86081766
_cell_length_b   6.86081744
_cell_length_c   7.29355435
_cell_angle_alpha   74.48959738
_cell_angle_beta   74.48959890
_cell_angle_gamma   51.20079814
_symmetry_Int_Tables_number   1
_chemical_formula_structural   TbDy4(RhO6)2
_chemical_formula_sum   'Tb1 Dy4 Rh2 O12'
_cell_volume   255.52694696
_cell_formula_units_Z   1
loop_
 _symmetry_equiv_pos_site_id
 _symmetry_equiv_pos_as_xyz
  1  'x, y, z'
loop_
 _atom_site_type_symbol
 _atom_site_label
 _atom_site_symmetry_multiplicity
 _atom_site_fract_x
 _atom_site_fract_y
 _atom_site_fract_z
 _atom_site_occupancy
  Tb  Tb0  1  0.000000  0.000000  0.500000  1
  Dy  Dy1  1  0.302295  0.302295  0.359814  1
  Dy  Dy2  1  0.697705  0.697705  0.640186  1
  Dy  Dy3  1  0.308936  0.308936  0.829707  1
  Dy  Dy4  1  0.691064  0.691064  0.170293  1
  Rh  Rh5  1  0.753186  0.246814  0.000000  1
  Rh  Rh6  1  0.246814  0.753186  0.000000  1
  O  O7  1  0.901463  0.431229  0.915569  1
  O  O8  1  0.431229  0.901463  0.915569  1
  O  O9  1  0.098537  0.568771  0.084431  1
  O  O10  1  0.568771  0.098537  0.084431  1
  O  O11  1  0.096933  0.596987  0.574193  1
  O  O12  1  0.596987  0.096933  0.574193  1
  O  O13  1  0.903067  0.403013  0.425807  1
  O  O14  1  0.403013  0.903067  0.425807  1
  O  O15  1  0.999905  0.999905  0.817642  1
  O  O16  1  0.000095  0.000095  0.182358  1
  O  O17  1  0.500223  0.500223  0.810082  1
  O  O18  1  0.499777  0.499777  0.189918  1
