# generated using pymatgen
data_CoSi4(Ni5B2)3
_symmetry_space_group_name_H-M   'P 1'
_cell_length_a   2.90390600
_cell_length_b   5.93874175
_cell_length_c   14.48004765
_cell_angle_alpha   89.81548902
_cell_angle_beta   90.00000000
_cell_angle_gamma   90.00000000
_symmetry_Int_Tables_number   1
_chemical_formula_structural   CoSi4(Ni5B2)3
_chemical_formula_sum   'Co1 Si4 Ni15 B6'
_cell_volume   249.71505898
_cell_formula_units_Z   1
loop_
 _symmetry_equiv_pos_site_id
 _symmetry_equiv_pos_as_xyz
  1  'x, y, z'
loop_
 _atom_site_type_symbol
 _atom_site_label
 _atom_site_symmetry_multiplicity
 _atom_site_fract_x
 _atom_site_fract_y
 _atom_site_fract_z
 _atom_site_occupancy
  Co  Co0  1  0.500000  0.638880  0.646076  1
  Si  Si1  1  0.000000  0.957443  0.624636  1
  Si  Si2  1  0.500000  0.037021  0.123441  1
  Si  Si3  1  0.000000  0.963252  0.376420  1
  Si  Si4  1  0.500000  0.038592  0.876012  1
  Ni  Ni5  1  0.000000  0.931840  0.999965  1
  Ni  Ni6  1  0.000000  0.357621  0.855131  1
  Ni  Ni7  1  0.500000  0.643537  0.355276  1
  Ni  Ni8  1  0.000000  0.706936  0.499309  1
  Ni  Ni9  1  0.500000  0.067678  0.500193  1
  Ni  Ni10  1  0.500000  0.292730  0.000209  1
  Ni  Ni11  1  0.000000  0.814778  0.226338  1
  Ni  Ni12  1  0.000000  0.817084  0.775146  1
  Ni  Ni13  1  0.500000  0.184831  0.725982  1
  Ni  Ni14  1  0.500000  0.663122  0.087931  1
  Ni  Ni15  1  0.500000  0.184933  0.273425  1
  Ni  Ni16  1  0.000000  0.333949  0.587348  1
  Ni  Ni17  1  0.500000  0.664003  0.911920  1
  Ni  Ni18  1  0.000000  0.336739  0.411982  1
  Ni  Ni19  1  0.000000  0.356269  0.144442  1
  B  B20  1  0.000000  0.542411  0.999394  1
  B  B21  1  0.500000  0.459413  0.501946  1
  B  B22  1  0.000000  0.460300  0.281852  1
  B  B23  1  0.500000  0.539393  0.218051  1
  B  B24  1  0.000000  0.466127  0.716897  1
  B  B25  1  0.500000  0.541117  0.780679  1
