# generated using pymatgen
data_Tm3LuCo18(P6Ru)2
_symmetry_space_group_name_H-M   'P 1'
_cell_length_a   3.65234100
_cell_length_b   10.28573634
_cell_length_c   11.71375139
_cell_angle_alpha   89.97038848
_cell_angle_beta   90.00000000
_cell_angle_gamma   90.00000000
_symmetry_Int_Tables_number   1
_chemical_formula_structural   Tm3LuCo18(P6Ru)2
_chemical_formula_sum   'Tm3 Lu1 Co18 P12 Ru2'
_cell_volume   440.05063375
_cell_formula_units_Z   1
loop_
 _symmetry_equiv_pos_site_id
 _symmetry_equiv_pos_as_xyz
  1  'x, y, z'
loop_
 _atom_site_type_symbol
 _atom_site_label
 _atom_site_symmetry_multiplicity
 _atom_site_fract_x
 _atom_site_fract_y
 _atom_site_fract_z
 _atom_site_occupancy
  Tm  Tm0  1  0.250000  0.581927  0.702283  1
  Tm  Tm1  1  0.250000  0.917960  0.202279  1
  Tm  Tm2  1  0.750000  0.086145  0.795226  1
  Lu  Lu3  1  0.750000  0.413975  0.295397  1
  Co  Co4  1  0.750000  0.282997  0.007975  1
  Co  Co5  1  0.750000  0.217115  0.507921  1
  Co  Co6  1  0.250000  0.405940  0.486416  1
  Co  Co7  1  0.250000  0.093897  0.987180  1
  Co  Co8  1  0.750000  0.589962  0.510951  1
  Co  Co9  1  0.750000  0.909786  0.011128  1
  Co  Co10  1  0.250000  0.221143  0.177072  1
  Co  Co11  1  0.250000  0.279343  0.676804  1
  Co  Co12  1  0.750000  0.778260  0.822827  1
  Co  Co13  1  0.750000  0.721583  0.322746  1
  Co  Co14  1  0.250000  0.886985  0.702102  1
  Co  Co15  1  0.250000  0.612444  0.202523  1
  Co  Co16  1  0.750000  0.116474  0.300360  1
  Co  Co17  1  0.750000  0.383950  0.800528  1
  Co  Co18  1  0.250000  0.464544  0.932474  1
  Co  Co19  1  0.250000  0.035715  0.431932  1
  Co  Co20  1  0.750000  0.532619  0.069936  1
  Co  Co21  1  0.750000  0.967153  0.569286  1
  P  P22  1  0.250000  0.417108  0.113336  1
  P  P23  1  0.250000  0.083002  0.612565  1
  P  P24  1  0.750000  0.578855  0.886703  1
  P  P25  1  0.750000  0.921196  0.386374  1
  P  P26  1  0.250000  0.269435  0.869196  1
  P  P27  1  0.250000  0.231264  0.368814  1
  P  P28  1  0.750000  0.730134  0.132832  1
  P  P29  1  0.750000  0.769820  0.632770  1
  P  P30  1  0.250000  0.593421  0.389820  1
  P  P31  1  0.250000  0.906041  0.889995  1
  P  P32  1  0.750000  0.397731  0.609010  1
  P  P33  1  0.750000  0.102255  0.108986  1
  Ru  Ru34  1  0.250000  0.716016  0.992317  1
  Ru  Ru35  1  0.250000  0.783806  0.491934  1
