# generated using pymatgen
data_Tm2Sc2MnCrB12
_symmetry_space_group_name_H-M   'P 1'
_cell_length_a   3.41894100
_cell_length_b   8.95136793
_cell_length_c   11.30524617
_cell_angle_alpha   89.94771916
_cell_angle_beta   90.00000000
_cell_angle_gamma   90.00000000
_symmetry_Int_Tables_number   1
_chemical_formula_structural   Tm2Sc2MnCrB12
_chemical_formula_sum   'Tm4 Sc4 Mn2 Cr2 B24'
_cell_volume   345.98785775
_cell_formula_units_Z   2
loop_
 _symmetry_equiv_pos_site_id
 _symmetry_equiv_pos_as_xyz
  1  'x, y, z'
loop_
 _atom_site_type_symbol
 _atom_site_label
 _atom_site_symmetry_multiplicity
 _atom_site_fract_x
 _atom_site_fract_y
 _atom_site_fract_z
 _atom_site_occupancy
  Tm  Tm0  1  0.000000  0.822029  0.085064  1
  Tm  Tm1  1  0.000000  0.177971  0.914936  1
  Tm  Tm2  1  0.000000  0.322136  0.414437  1
  Tm  Tm3  1  0.000000  0.677864  0.585563  1
  Sc  Sc4  1  0.000000  0.443153  0.129866  1
  Sc  Sc5  1  0.000000  0.556847  0.870134  1
  Sc  Sc6  1  0.000000  0.943901  0.369559  1
  Sc  Sc7  1  0.000000  0.056099  0.630441  1
  Mn  Mn8  1  0.000000  0.141002  0.181474  1
  Mn  Mn9  1  0.000000  0.858998  0.818526  1
  Cr  Cr10  1  0.000000  0.641178  0.318081  1
  Cr  Cr11  1  0.000000  0.358822  0.681919  1
  B  B12  1  0.500000  0.054768  0.067433  1
  B  B13  1  0.500000  0.945232  0.932567  1
  B  B14  1  0.500000  0.554385  0.432830  1
  B  B15  1  0.500000  0.445615  0.567170  1
  B  B16  1  0.500000  0.252110  0.082207  1
  B  B17  1  0.500000  0.747890  0.917793  1
  B  B18  1  0.500000  0.752666  0.418095  1
  B  B19  1  0.500000  0.247334  0.581905  1
  B  B20  1  0.500000  0.293613  0.235414  1
  B  B21  1  0.500000  0.706387  0.764586  1
  B  B22  1  0.500000  0.794988  0.264139  1
  B  B23  1  0.500000  0.205012  0.735861  1
  B  B24  1  0.500000  0.130010  0.316378  1
  B  B25  1  0.500000  0.869990  0.683622  1
  B  B26  1  0.500000  0.630225  0.182993  1
  B  B27  1  0.500000  0.369775  0.817007  1
  B  B28  1  0.500000  0.481678  0.286544  1
  B  B29  1  0.500000  0.518322  0.713456  1
  B  B30  1  0.500000  0.982778  0.212946  1
  B  B31  1  0.500000  0.017222  0.787054  1
  B  B32  1  0.500000  0.097368  0.473533  1
  B  B33  1  0.500000  0.902632  0.526467  1
  B  B34  1  0.500000  0.598004  0.026377  1
  B  B35  1  0.500000  0.401996  0.973623  1
