# generated using pymatgen
data_Zr6Zn21CuSiPt
_symmetry_space_group_name_H-M   'P 1'
_cell_length_a   8.77388182
_cell_length_b   8.80974592
_cell_length_c   8.77388039
_cell_angle_alpha   59.86770068
_cell_angle_beta   60.11915567
_cell_angle_gamma   59.86764214
_symmetry_Int_Tables_number   1
_chemical_formula_structural   Zr6Zn21CuSiPt
_chemical_formula_sum   'Zr6 Zn21 Cu1 Si1 Pt1'
_cell_volume   479.01411307
_cell_formula_units_Z   1
loop_
 _symmetry_equiv_pos_site_id
 _symmetry_equiv_pos_as_xyz
  1  'x, y, z'
loop_
 _atom_site_type_symbol
 _atom_site_label
 _atom_site_symmetry_multiplicity
 _atom_site_fract_x
 _atom_site_fract_y
 _atom_site_fract_z
 _atom_site_occupancy
  Zr  Zr0  1  0.713350  0.289303  0.286681  1
  Zr  Zr1  1  0.286650  0.710697  0.713319  1
  Zr  Zr2  1  0.285477  0.714553  0.285478  1
  Zr  Zr3  1  0.714523  0.285447  0.714522  1
  Zr  Zr4  1  0.286681  0.289304  0.713350  1
  Zr  Zr5  1  0.713319  0.710696  0.286650  1
  Zn  Zn6  1  0.122847  0.123203  0.122846  1
  Zn  Zn7  1  0.877153  0.876797  0.877154  1
  Zn  Zn8  1  0.130527  0.119487  0.630497  1
  Zn  Zn9  1  0.122840  0.631118  0.122841  1
  Zn  Zn10  1  0.869473  0.880513  0.369503  1
  Zn  Zn11  1  0.877160  0.368882  0.877159  1
  Zn  Zn12  1  0.630497  0.119487  0.130527  1
  Zn  Zn13  1  0.369503  0.880513  0.869473  1
  Zn  Zn14  1  0.500000  0.000000  0.000000  1
  Zn  Zn15  1  0.000000  0.500000  0.500000  1
  Zn  Zn16  1  0.000000  0.500000  0.000000  1
  Zn  Zn17  1  0.000000  0.000000  0.500000  1
  Zn  Zn18  1  0.500000  0.500000  0.000000  1
  Zn  Zn19  1  0.341606  0.334469  0.341606  1
  Zn  Zn20  1  0.658394  0.665531  0.658394  1
  Zn  Zn21  1  0.340304  0.337525  0.984671  1
  Zn  Zn22  1  0.341602  0.982356  0.341603  1
  Zn  Zn23  1  0.659696  0.662475  0.015329  1
  Zn  Zn24  1  0.658398  0.017644  0.658397  1
  Zn  Zn25  1  0.984671  0.337524  0.340304  1
  Zn  Zn26  1  0.015329  0.662476  0.659696  1
  Cu  Cu27  1  0.500000  0.000000  0.500000  1
  Si  Si28  1  0.500000  0.500000  0.500000  1
  Pt  Pt29  1  0.000000  0.000000  0.000000  1
