# generated using pymatgen
data_CsRbV2O6
_symmetry_space_group_name_H-M   'P 1'
_cell_length_a   8.36454541
_cell_length_b   8.36889934
_cell_length_c   5.91715234
_cell_angle_alpha   85.66373849
_cell_angle_beta   94.37383271
_cell_angle_gamma   87.69425684
_symmetry_Int_Tables_number   1
_chemical_formula_structural   CsRbV2O6
_chemical_formula_sum   'Cs2 Rb2 V4 O12'
_cell_volume   411.38318931
_cell_formula_units_Z   2
loop_
 _symmetry_equiv_pos_site_id
 _symmetry_equiv_pos_as_xyz
  1  'x, y, z'
loop_
 _atom_site_type_symbol
 _atom_site_label
 _atom_site_symmetry_multiplicity
 _atom_site_fract_x
 _atom_site_fract_y
 _atom_site_fract_z
 _atom_site_occupancy
  Cs  Cs0  1  0.317083  0.316851  0.249852  1
  Cs  Cs1  1  0.682916  0.683148  0.750147  1
  Rb  Rb2  1  0.891208  0.891432  0.249954  1
  Rb  Rb3  1  0.108792  0.108568  0.750046  1
  V  V4  1  0.360339  0.793963  0.229766  1
  V  V5  1  0.794718  0.360715  0.270245  1
  V  V6  1  0.639660  0.206037  0.770233  1
  V  V7  1  0.205281  0.639285  0.729755  1
  O  O8  1  0.338875  0.677711  0.978836  1
  O  O9  1  0.678327  0.339408  0.521106  1
  O  O10  1  0.661125  0.322288  0.021164  1
  O  O11  1  0.321672  0.660592  0.478894  1
  O  O12  1  0.549073  0.850924  0.264788  1
  O  O13  1  0.852151  0.549168  0.235316  1
  O  O14  1  0.450928  0.149076  0.735212  1
  O  O15  1  0.147850  0.450833  0.764684  1
  O  O16  1  0.230343  0.953803  0.200224  1
  O  O17  1  0.954307  0.230293  0.299852  1
  O  O18  1  0.769657  0.046197  0.799776  1
  O  O19  1  0.045693  0.769707  0.700146  1
