# generated using pymatgen
data_LaHo(ScIr)2
_symmetry_space_group_name_H-M   'P 1'
_cell_length_a   7.20719300
_cell_length_b   4.28680700
_cell_length_c   8.91652400
_cell_angle_alpha   90.00000000
_cell_angle_beta   90.00000000
_cell_angle_gamma   90.00000000
_symmetry_Int_Tables_number   1
_chemical_formula_structural   LaHo(ScIr)2
_chemical_formula_sum   'La2 Ho2 Sc4 Ir4'
_cell_volume   275.48354703
_cell_formula_units_Z   2
loop_
 _symmetry_equiv_pos_site_id
 _symmetry_equiv_pos_as_xyz
  1  'x, y, z'
loop_
 _atom_site_type_symbol
 _atom_site_label
 _atom_site_symmetry_multiplicity
 _atom_site_fract_x
 _atom_site_fract_y
 _atom_site_fract_z
 _atom_site_occupancy
  La  La0  1  0.013700  0.750000  0.824490  1
  La  La1  1  0.513700  0.750000  0.675510  1
  Ho  Ho2  1  0.977368  0.250000  0.178768  1
  Ho  Ho3  1  0.477368  0.250000  0.321232  1
  Sc  Sc4  1  0.864944  0.250000  0.552049  1
  Sc  Sc5  1  0.364944  0.250000  0.947951  1
  Sc  Sc6  1  0.141188  0.750000  0.426438  1
  Sc  Sc7  1  0.641188  0.750000  0.073562  1
  Ir  Ir8  1  0.737337  0.250000  0.905380  1
  Ir  Ir9  1  0.237337  0.250000  0.594620  1
  Ir  Ir10  1  0.265461  0.750000  0.113110  1
  Ir  Ir11  1  0.765461  0.750000  0.386890  1
