# generated using pymatgen
data_TiFe2P2W
_symmetry_space_group_name_H-M   'P 1'
_cell_length_a   3.57028600
_cell_length_b   6.00116600
_cell_length_c   6.80547500
_cell_angle_alpha   90.00000000
_cell_angle_beta   90.00000000
_cell_angle_gamma   90.00000000
_symmetry_Int_Tables_number   1
_chemical_formula_structural   TiFe2P2W
_chemical_formula_sum   'Ti2 Fe4 P4 W2'
_cell_volume   145.81328357
_cell_formula_units_Z   2
loop_
 _symmetry_equiv_pos_site_id
 _symmetry_equiv_pos_as_xyz
  1  'x, y, z'
loop_
 _atom_site_type_symbol
 _atom_site_label
 _atom_site_symmetry_multiplicity
 _atom_site_fract_x
 _atom_site_fract_y
 _atom_site_fract_z
 _atom_site_occupancy
  Ti  Ti0  1  0.750000  0.979004  0.178975  1
  Ti  Ti1  1  0.750000  0.479004  0.321025  1
  Fe  Fe2  1  0.250000  0.141595  0.438898  1
  Fe  Fe3  1  0.250000  0.641595  0.061102  1
  Fe  Fe4  1  0.750000  0.857843  0.565349  1
  Fe  Fe5  1  0.750000  0.357843  0.934651  1
  P  P6  1  0.250000  0.772039  0.377697  1
  P  P7  1  0.250000  0.272039  0.122303  1
  P  P8  1  0.750000  0.225986  0.618769  1
  P  P9  1  0.750000  0.725986  0.881231  1
  W  W10  1  0.250000  0.023533  0.826391  1
  W  W11  1  0.250000  0.523533  0.673609  1
