# generated using pymatgen
data_Mn5OsCl18
_symmetry_space_group_name_H-M   'P 1'
_cell_length_a   6.25625858
_cell_length_b   6.10427640
_cell_length_c   19.73274800
_cell_angle_alpha   88.25699902
_cell_angle_beta   90.85023811
_cell_angle_gamma   119.19960133
_symmetry_Int_Tables_number   1
_chemical_formula_structural   Mn5OsCl18
_chemical_formula_sum   'Mn5 Os1 Cl18'
_cell_volume   657.52554189
_cell_formula_units_Z   1
loop_
 _symmetry_equiv_pos_site_id
 _symmetry_equiv_pos_as_xyz
  1  'x, y, z'
loop_
 _atom_site_type_symbol
 _atom_site_label
 _atom_site_symmetry_multiplicity
 _atom_site_fract_x
 _atom_site_fract_y
 _atom_site_fract_z
 _atom_site_occupancy
  Mn  Mn0  1  0.882551  0.441276  0.000000  1
  Mn  Mn1  1  0.554718  0.114064  0.333776  1
  Mn  Mn2  1  0.891313  0.778811  0.332748  1
  Mn  Mn3  1  0.891314  0.112503  0.667253  1
  Mn  Mn4  1  0.554718  0.440657  0.666225  1
  Os  Os5  1  0.222325  0.111163  0.000000  1
  Cl  Cl6  1  0.537175  0.406629  0.067879  1
  Cl  Cl7  1  0.205278  0.779312  0.067502  1
  Cl  Cl8  1  0.920090  0.118236  0.067938  1
  Cl  Cl9  1  0.887755  0.076981  0.262394  1
  Cl  Cl10  1  0.269105  0.828847  0.263703  1
  Cl  Cl11  1  0.604019  0.456116  0.264807  1
  Cl  Cl12  1  0.842449  0.436815  0.401727  1
  Cl  Cl13  1  0.558511  0.816259  0.404077  1
  Cl  Cl14  1  0.177151  0.063669  0.402719  1
  Cl  Cl15  1  0.177152  0.113482  0.597282  1
  Cl  Cl16  1  0.558510  0.742253  0.595923  1
  Cl  Cl17  1  0.842450  0.405634  0.598273  1
  Cl  Cl18  1  0.604019  0.147903  0.735193  1
  Cl  Cl19  1  0.269103  0.440257  0.736297  1
  Cl  Cl20  1  0.887756  0.810774  0.737607  1
  Cl  Cl21  1  0.920089  0.801853  0.932062  1
  Cl  Cl22  1  0.205278  0.425965  0.932499  1
  Cl  Cl23  1  0.537176  0.130547  0.932121  1
