# generated using pymatgen
data_Zr3Sc(CuS4)2
_symmetry_space_group_name_H-M   'P 1'
_cell_length_a   7.41437645
_cell_length_b   7.41437642
_cell_length_c   7.41437728
_cell_angle_alpha   59.58107814
_cell_angle_beta   59.58107524
_cell_angle_gamma   59.58107582
_symmetry_Int_Tables_number   1
_chemical_formula_structural   Zr3Sc(CuS4)2
_chemical_formula_sum   'Zr3 Sc1 Cu2 S8'
_cell_volume   285.46538443
_cell_formula_units_Z   1
loop_
 _symmetry_equiv_pos_site_id
 _symmetry_equiv_pos_as_xyz
  1  'x, y, z'
loop_
 _atom_site_type_symbol
 _atom_site_label
 _atom_site_symmetry_multiplicity
 _atom_site_fract_x
 _atom_site_fract_y
 _atom_site_fract_z
 _atom_site_occupancy
  Zr  Zr0  1  0.000000  0.500000  0.500000  1
  Zr  Zr1  1  0.500000  0.500000  0.000000  1
  Zr  Zr2  1  0.500000  0.000000  0.500000  1
  Sc  Sc3  1  0.500000  0.500000  0.500000  1
  Cu  Cu4  1  0.122755  0.122755  0.122755  1
  Cu  Cu5  1  0.877245  0.877245  0.877245  1
  S  S6  1  0.749739  0.749739  0.749739  1
  S  S7  1  0.258111  0.747578  0.747578  1
  S  S8  1  0.747578  0.747578  0.258111  1
  S  S9  1  0.747578  0.258111  0.747578  1
  S  S10  1  0.250261  0.250261  0.250261  1
  S  S11  1  0.741889  0.252422  0.252422  1
  S  S12  1  0.252422  0.252422  0.741889  1
  S  S13  1  0.252422  0.741889  0.252422  1
