# generated using pymatgen
data_Sm3Dy2Y(Si3Ru)8
_symmetry_space_group_name_H-M   'P 1'
_cell_length_a   10.15000317
_cell_length_b   10.15015196
_cell_length_c   8.18780801
_cell_angle_alpha   90.06702472
_cell_angle_beta   89.93606320
_cell_angle_gamma   132.44549834
_symmetry_Int_Tables_number   1
_chemical_formula_structural   Sm3Dy2Y(Si3Ru)8
_chemical_formula_sum   'Sm3 Dy2 Y1 Si24 Ru8'
_cell_volume   622.46524322
_cell_formula_units_Z   1
loop_
 _symmetry_equiv_pos_site_id
 _symmetry_equiv_pos_as_xyz
  1  'x, y, z'
loop_
 _atom_site_type_symbol
 _atom_site_label
 _atom_site_symmetry_multiplicity
 _atom_site_fract_x
 _atom_site_fract_y
 _atom_site_fract_z
 _atom_site_occupancy
  Sm  Sm0  1  0.502478  0.002513  0.750058  1
  Sm  Sm1  1  0.997447  0.497487  0.249948  1
  Sm  Sm2  1  0.497100  0.997066  0.249942  1
  Dy  Dy3  1  0.999975  0.999988  0.999898  1
  Dy  Dy4  1  0.002440  0.502403  0.750054  1
  Y  Y5  1  0.499993  0.499976  0.500103  1
  Si  Si6  1  0.795424  0.206228  0.501157  1
  Si  Si7  1  0.293665  0.704390  0.998891  1
  Si  Si8  1  0.204378  0.793675  0.501121  1
  Si  Si9  1  0.706241  0.295415  0.998838  1
  Si  Si10  1  0.332369  0.332257  0.833200  1
  Si  Si11  1  0.667604  0.667681  0.166953  1
  Si  Si12  1  0.167452  0.167365  0.332972  1
  Si  Si13  1  0.832489  0.832606  0.666878  1
  Si  Si14  1  0.121148  0.887803  0.727822  1
  Si  Si15  1  0.112733  0.879055  0.271323  1
  Si  Si16  1  0.611476  0.377502  0.228255  1
  Si  Si17  1  0.622057  0.388342  0.771780  1
  Si  Si18  1  0.877488  0.111367  0.271628  1
  Si  Si19  1  0.888451  0.122058  0.728346  1
  Si  Si20  1  0.387694  0.621136  0.772299  1
  Si  Si21  1  0.379052  0.612840  0.228559  1
  Si  Si22  1  0.345628  0.112181  0.504915  1
  Si  Si23  1  0.888640  0.656278  0.496214  1
  Si  Si24  1  0.387598  0.154186  0.005005  1
  Si  Si25  1  0.844248  0.611498  0.994107  1
  Si  Si26  1  0.654229  0.887661  0.494952  1
  Si  Si27  1  0.111435  0.344203  0.505936  1
  Si  Si28  1  0.612245  0.845677  0.995119  1
  Si  Si29  1  0.156228  0.388572  0.003738  1
  Ru  Ru30  1  0.670261  0.333929  0.500696  1
  Ru  Ru31  1  0.166063  0.829929  0.998486  1
  Ru  Ru32  1  0.329838  0.666173  0.501506  1
  Ru  Ru33  1  0.834040  0.170162  0.999312  1
  Ru  Ru34  1  0.125817  0.125724  0.626588  1
  Ru  Ru35  1  0.874289  0.874562  0.373107  1
  Ru  Ru36  1  0.374477  0.374215  0.126581  1
  Ru  Ru37  1  0.625806  0.625897  0.873713  1
