# generated using pymatgen
data_La3PrNdSn3Br
_symmetry_space_group_name_H-M   'P 1'
_cell_length_a   9.67459500
_cell_length_b   9.67459521
_cell_length_c   6.93799300
_cell_angle_alpha   90.00000000
_cell_angle_beta   90.00000000
_cell_angle_gamma   120.00000269
_symmetry_Int_Tables_number   1
_chemical_formula_structural   La3PrNdSn3Br
_chemical_formula_sum   'La6 Pr2 Nd2 Sn6 Br2'
_cell_volume   562.38026748
_cell_formula_units_Z   2
loop_
 _symmetry_equiv_pos_site_id
 _symmetry_equiv_pos_as_xyz
  1  'x, y, z'
loop_
 _atom_site_type_symbol
 _atom_site_label
 _atom_site_symmetry_multiplicity
 _atom_site_fract_x
 _atom_site_fract_y
 _atom_site_fract_z
 _atom_site_occupancy
  La  La0  1  0.268797  0.268797  0.750063  1
  La  La1  1  0.000000  0.731203  0.750063  1
  La  La2  1  0.731203  0.000000  0.750063  1
  La  La3  1  0.000000  0.268797  0.249937  1
  La  La4  1  0.731203  0.731203  0.249937  1
  La  La5  1  0.268797  0.000000  0.249937  1
  Pr  Pr6  1  0.333333  0.666667  0.500000  1
  Pr  Pr7  1  0.666667  0.333333  0.500000  1
  Nd  Nd8  1  0.333333  0.666667  0.000000  1
  Nd  Nd9  1  0.666667  0.333333  0.000000  1
  Sn  Sn10  1  0.613068  0.000000  0.249827  1
  Sn  Sn11  1  0.000000  0.386932  0.750173  1
  Sn  Sn12  1  0.386932  0.000000  0.750173  1
  Sn  Sn13  1  0.613068  0.613068  0.750173  1
  Sn  Sn14  1  0.000000  0.613068  0.249827  1
  Sn  Sn15  1  0.386932  0.386932  0.249827  1
  Br  Br16  1  0.000000  0.000000  0.000000  1
  Br  Br17  1  0.000000  0.000000  0.500000  1
