# generated using pymatgen
data_Cs12Rb6AlGaBi8
_symmetry_space_group_name_H-M   'P 1'
_cell_length_a   11.57389400
_cell_length_b   11.57389331
_cell_length_c   12.11461200
_cell_angle_alpha   90.00000000
_cell_angle_beta   90.00000000
_cell_angle_gamma   119.99999627
_symmetry_Int_Tables_number   1
_chemical_formula_structural   Cs12Rb6AlGaBi8
_chemical_formula_sum   'Cs12 Rb6 Al1 Ga1 Bi8'
_cell_volume   1405.39735678
_cell_formula_units_Z   1
loop_
 _symmetry_equiv_pos_site_id
 _symmetry_equiv_pos_as_xyz
  1  'x, y, z'
loop_
 _atom_site_type_symbol
 _atom_site_label
 _atom_site_symmetry_multiplicity
 _atom_site_fract_x
 _atom_site_fract_y
 _atom_site_fract_z
 _atom_site_occupancy
  Cs  Cs0  1  0.208865  0.791135  0.957048  1
  Cs  Cs1  1  0.208865  0.417730  0.957048  1
  Cs  Cs2  1  0.582270  0.791135  0.957048  1
  Cs  Cs3  1  0.417629  0.208814  0.457035  1
  Cs  Cs4  1  0.791186  0.582371  0.042965  1
  Cs  Cs5  1  0.791186  0.208814  0.457035  1
  Cs  Cs6  1  0.791186  0.582371  0.457035  1
  Cs  Cs7  1  0.208865  0.791135  0.542952  1
  Cs  Cs8  1  0.582270  0.791135  0.542952  1
  Cs  Cs9  1  0.417629  0.208814  0.042965  1
  Cs  Cs10  1  0.791186  0.208814  0.042965  1
  Cs  Cs11  1  0.208865  0.417730  0.542952  1
  Rb  Rb12  1  0.238760  0.119380  0.750000  1
  Rb  Rb13  1  0.880620  0.119380  0.750000  1
  Rb  Rb14  1  0.761213  0.880606  0.250000  1
  Rb  Rb15  1  0.119394  0.238787  0.250000  1
  Rb  Rb16  1  0.119394  0.880606  0.250000  1
  Rb  Rb17  1  0.880620  0.761240  0.750000  1
  Al  Al18  1  0.666667  0.333333  0.750000  1
  Ga  Ga19  1  0.333333  0.666667  0.250000  1
  Bi  Bi20  1  0.000000  0.000000  0.999978  1
  Bi  Bi21  1  0.053214  0.526607  0.250000  1
  Bi  Bi22  1  0.473393  0.946786  0.250000  1
  Bi  Bi23  1  0.526988  0.053976  0.750000  1
  Bi  Bi24  1  0.526988  0.473012  0.750000  1
  Bi  Bi25  1  0.000000  0.000000  0.500022  1
  Bi  Bi26  1  0.473393  0.526607  0.250000  1
  Bi  Bi27  1  0.946024  0.473012  0.750000  1
