# generated using pymatgen
data_Cs11K5(TiBi4)2
_symmetry_space_group_name_H-M   'P 1'
_cell_length_a   12.37320677
_cell_length_b   12.37320670
_cell_length_c   12.28306400
_cell_angle_alpha   60.24070505
_cell_angle_beta   60.24070524
_cell_angle_gamma   60.32831083
_symmetry_Int_Tables_number   1
_chemical_formula_structural   Cs11K5(TiBi4)2
_chemical_formula_sum   'Cs11 K5 Ti2 Bi8'
_cell_volume   1337.82899378
_cell_formula_units_Z   1
loop_
 _symmetry_equiv_pos_site_id
 _symmetry_equiv_pos_as_xyz
  1  'x, y, z'
loop_
 _atom_site_type_symbol
 _atom_site_label
 _atom_site_symmetry_multiplicity
 _atom_site_fract_x
 _atom_site_fract_y
 _atom_site_fract_z
 _atom_site_occupancy
  Cs  Cs0  1  0.026766  0.026766  0.473234  1
  Cs  Cs1  1  0.776096  0.222797  0.221776  1
  Cs  Cs2  1  0.222797  0.776096  0.779331  1
  Cs  Cs3  1  0.776942  0.776942  0.223058  1
  Cs  Cs4  1  0.776096  0.222797  0.779331  1
  Cs  Cs5  1  0.222797  0.776096  0.221776  1
  Cs  Cs6  1  0.473498  0.026857  0.471071  1
  Cs  Cs7  1  0.473498  0.026857  0.028574  1
  Cs  Cs8  1  0.026857  0.473498  0.471071  1
  Cs  Cs9  1  0.026857  0.473498  0.028574  1
  Cs  Cs10  1  0.222990  0.222990  0.777010  1
  K  K11  1  0.625297  0.124526  0.625089  1
  K  K12  1  0.624175  0.624175  0.125064  1
  K  K13  1  0.124526  0.625297  0.625089  1
  K  K14  1  0.624175  0.624175  0.626585  1
  K  K15  1  0.483899  0.483899  0.016101  1
  Ti  Ti16  1  0.748457  0.748457  0.751543  1
  Ti  Ti17  1  0.500033  0.500033  0.499967  1
  Bi  Bi18  1  0.406826  0.779013  0.407081  1
  Bi  Bi19  1  0.843328  0.843328  0.469533  1
  Bi  Bi20  1  0.467697  0.841385  0.845458  1
  Bi  Bi21  1  0.843328  0.843328  0.843810  1
  Bi  Bi22  1  0.779013  0.406826  0.407081  1
  Bi  Bi23  1  0.406333  0.406333  0.402378  1
  Bi  Bi24  1  0.406333  0.406333  0.784956  1
  Bi  Bi25  1  0.841385  0.467697  0.845458  1
