# generated using pymatgen
data_Sr4CuAgO6
_symmetry_space_group_name_H-M   'P 1'
_cell_length_a   6.93642567
_cell_length_b   6.93642543
_cell_length_c   10.76444800
_cell_angle_alpha   90.00000000
_cell_angle_beta   90.00000000
_cell_angle_gamma   133.71460023
_symmetry_Int_Tables_number   1
_chemical_formula_structural   Sr4CuAgO6
_chemical_formula_sum   'Sr8 Cu2 Ag2 O12'
_cell_volume   374.34841676
_cell_formula_units_Z   2
loop_
 _symmetry_equiv_pos_site_id
 _symmetry_equiv_pos_as_xyz
  1  'x, y, z'
loop_
 _atom_site_type_symbol
 _atom_site_label
 _atom_site_symmetry_multiplicity
 _atom_site_fract_x
 _atom_site_fract_y
 _atom_site_fract_z
 _atom_site_occupancy
  Sr  Sr0  1  0.215442  0.925751  0.750000  1
  Sr  Sr1  1  0.647849  0.352151  0.500000  1
  Sr  Sr2  1  0.784558  0.074249  0.250000  1
  Sr  Sr3  1  0.925751  0.215442  0.750000  1
  Sr  Sr4  1  0.074249  0.784558  0.250000  1
  Sr  Sr5  1  0.352151  0.647849  0.000000  1
  Sr  Sr6  1  0.352151  0.647849  0.500000  1
  Sr  Sr7  1  0.647849  0.352151  0.000000  1
  Cu  Cu8  1  0.000000  0.000000  0.000000  1
  Cu  Cu9  1  0.000000  0.000000  0.500000  1
  Ag  Ag10  1  0.399991  0.399991  0.250000  1
  Ag  Ag11  1  0.600009  0.600009  0.750000  1
  O  O12  1  0.240120  0.571346  0.250000  1
  O  O13  1  0.151510  0.848490  0.500000  1
  O  O14  1  0.571346  0.240120  0.250000  1
  O  O15  1  0.734378  0.734378  0.393906  1
  O  O16  1  0.151510  0.848490  0.000000  1
  O  O17  1  0.848490  0.151510  0.000000  1
  O  O18  1  0.428654  0.759880  0.750000  1
  O  O19  1  0.759880  0.428654  0.750000  1
  O  O20  1  0.734378  0.734378  0.106094  1
  O  O21  1  0.848490  0.151510  0.500000  1
  O  O22  1  0.265622  0.265622  0.606094  1
  O  O23  1  0.265622  0.265622  0.893906  1
