# generated using pymatgen
data_TbDy5IrI10
_symmetry_space_group_name_H-M   'P 1'
_cell_length_a   7.76105894
_cell_length_b   9.76356360
_cell_length_c   9.75902061
_cell_angle_alpha   107.15956323
_cell_angle_beta   104.64547659
_cell_angle_gamma   96.86608819
_symmetry_Int_Tables_number   1
_chemical_formula_structural   TbDy5IrI10
_chemical_formula_sum   'Tb1 Dy5 Ir1 I10'
_cell_volume   668.37499097
_cell_formula_units_Z   1
loop_
 _symmetry_equiv_pos_site_id
 _symmetry_equiv_pos_as_xyz
  1  'x, y, z'
loop_
 _atom_site_type_symbol
 _atom_site_label
 _atom_site_symmetry_multiplicity
 _atom_site_fract_x
 _atom_site_fract_y
 _atom_site_fract_z
 _atom_site_occupancy
  Tb  Tb0  1  0.886320  0.237048  0.958328  1
  Dy  Dy1  1  0.652345  0.833781  0.875750  1
  Dy  Dy2  1  0.347627  0.166352  0.124308  1
  Dy  Dy3  1  0.028913  0.913305  0.712926  1
  Dy  Dy4  1  0.971149  0.086087  0.286902  1
  Dy  Dy5  1  0.113421  0.764429  0.041699  1
  Ir  Ir6  1  0.999857  0.000303  0.999843  1
  I  I7  1  0.645497  0.727769  0.548156  1
  I  I8  1  0.354342  0.272177  0.451856  1
  I  I9  1  0.219348  0.654445  0.744192  1
  I  I10  1  0.780339  0.345051  0.257330  1
  I  I11  1  0.454955  0.091660  0.818755  1
  I  I12  1  0.543960  0.907547  0.180691  1
  I  I13  1  0.256637  0.461238  0.087151  1
  I  I14  1  0.744906  0.539978  0.913454  1
  I  I15  1  0.085949  0.820771  0.371684  1
  I  I16  1  0.914434  0.178059  0.626974  1
