# generated using pymatgen
data_Ho2Zr3Sn(B2Ru5)2
_symmetry_space_group_name_H-M   'P 1'
_cell_length_a   9.62294951
_cell_length_b   9.67667045
_cell_length_c   3.14974500
_cell_angle_alpha   90.00000000
_cell_angle_beta   90.00000000
_cell_angle_gamma   91.00059958
_symmetry_Int_Tables_number   1
_chemical_formula_structural   Ho2Zr3Sn(B2Ru5)2
_chemical_formula_sum   'Ho2 Zr3 Sn1 B4 Ru10'
_cell_volume   293.25358067
_cell_formula_units_Z   1
loop_
 _symmetry_equiv_pos_site_id
 _symmetry_equiv_pos_as_xyz
  1  'x, y, z'
loop_
 _atom_site_type_symbol
 _atom_site_label
 _atom_site_symmetry_multiplicity
 _atom_site_fract_x
 _atom_site_fract_y
 _atom_site_fract_z
 _atom_site_occupancy
  Ho  Ho0  1  0.821487  0.672405  0.000000  1
  Ho  Ho1  1  0.178513  0.327595  0.000000  1
  Zr  Zr2  1  0.321587  0.830078  0.000000  1
  Zr  Zr3  1  0.678413  0.169922  0.000000  1
  Zr  Zr4  1  0.000000  0.000000  0.000000  1
  Sn  Sn5  1  0.500000  0.500000  0.000000  1
  B  B6  1  0.619573  0.878602  0.000000  1
  B  B7  1  0.380427  0.121398  0.000000  1
  B  B8  1  0.120672  0.623491  0.000000  1
  B  B9  1  0.879328  0.376509  0.000000  1
  Ru  Ru10  1  0.558950  0.725917  0.500000  1
  Ru  Ru11  1  0.441050  0.274083  0.500000  1
  Ru  Ru12  1  0.076988  0.780165  0.500000  1
  Ru  Ru13  1  0.923012  0.219835  0.500000  1
  Ru  Ru14  1  0.280719  0.581554  0.500000  1
  Ru  Ru15  1  0.719281  0.418446  0.500000  1
  Ru  Ru16  1  0.225486  0.066483  0.500000  1
  Ru  Ru17  1  0.774514  0.933517  0.500000  1
  Ru  Ru18  1  0.500000  0.000000  0.500000  1
  Ru  Ru19  1  0.000000  0.500000  0.500000  1
