# generated using pymatgen
data_HoCl30
_symmetry_space_group_name_H-M   'P 1'
_cell_length_a   13.43368171
_cell_length_b   13.43368173
_cell_length_c   15.94241352
_cell_angle_alpha   82.19654944
_cell_angle_beta   82.19655180
_cell_angle_gamma   119.14576735
_symmetry_Int_Tables_number   1
_chemical_formula_structural   HoCl30
_chemical_formula_sum   'Ho1 Cl30'
_cell_volume   2420.76275397
_cell_formula_units_Z   1
loop_
 _symmetry_equiv_pos_site_id
 _symmetry_equiv_pos_as_xyz
  1  'x, y, z'
loop_
 _atom_site_type_symbol
 _atom_site_label
 _atom_site_symmetry_multiplicity
 _atom_site_fract_x
 _atom_site_fract_y
 _atom_site_fract_z
 _atom_site_occupancy
  Ho  Ho0  1  0.000000  0.000000  0.000000  1
  Cl  Cl1  1  0.938667  0.938667  0.172668  1
  Cl  Cl2  1  0.061333  0.061333  0.827332  1
  Cl  Cl3  1  0.103068  0.221109  0.005978  1
  Cl  Cl4  1  0.896932  0.778891  0.994022  1
  Cl  Cl5  1  0.221109  0.103068  0.005978  1
  Cl  Cl6  1  0.778891  0.896932  0.994022  1
  Cl  Cl7  1  0.201088  0.742653  0.065122  1
  Cl  Cl8  1  0.798912  0.257347  0.934878  1
  Cl  Cl9  1  0.694948  0.082670  0.259981  1
  Cl  Cl10  1  0.257347  0.798912  0.934878  1
  Cl  Cl11  1  0.305052  0.917330  0.740019  1
  Cl  Cl12  1  0.742653  0.201088  0.065122  1
  Cl  Cl13  1  0.982306  0.199661  0.773819  1
  Cl  Cl14  1  0.917330  0.305052  0.740019  1
  Cl  Cl15  1  0.017694  0.800339  0.226181  1
  Cl  Cl16  1  0.082670  0.694948  0.259981  1
  Cl  Cl17  1  0.800339  0.017694  0.226181  1
  Cl  Cl18  1  0.199661  0.982306  0.773819  1
  Cl  Cl19  1  0.463932  0.549826  0.260858  1
  Cl  Cl20  1  0.536068  0.450174  0.739142  1
  Cl  Cl21  1  0.508824  0.205933  0.450220  1
  Cl  Cl22  1  0.450174  0.536068  0.739142  1
  Cl  Cl23  1  0.491176  0.794067  0.549780  1
  Cl  Cl24  1  0.549826  0.463932  0.260858  1
  Cl  Cl25  1  0.240579  0.428256  0.546145  1
  Cl  Cl26  1  0.794067  0.491176  0.549780  1
  Cl  Cl27  1  0.759421  0.571744  0.453855  1
  Cl  Cl28  1  0.205933  0.508824  0.450220  1
  Cl  Cl29  1  0.571744  0.759421  0.453855  1
  Cl  Cl30  1  0.428256  0.240579  0.546145  1
