# generated using pymatgen
data_TbNd2(ErPb2)2
_symmetry_space_group_name_H-M   'P 1'
_cell_length_a   8.25405400
_cell_length_b   8.37382500
_cell_length_c   15.80176200
_cell_angle_alpha   90.00000000
_cell_angle_beta   90.00000000
_cell_angle_gamma   90.00000000
_symmetry_Int_Tables_number   1
_chemical_formula_structural   TbNd2(ErPb2)2
_chemical_formula_sum   'Tb4 Nd8 Er8 Pb16'
_cell_volume   1092.18624496
_cell_formula_units_Z   4
loop_
 _symmetry_equiv_pos_site_id
 _symmetry_equiv_pos_as_xyz
  1  'x, y, z'
loop_
 _atom_site_type_symbol
 _atom_site_label
 _atom_site_symmetry_multiplicity
 _atom_site_fract_x
 _atom_site_fract_y
 _atom_site_fract_z
 _atom_site_occupancy
  Tb  Tb0  1  0.631766  0.159206  0.621913  1
  Tb  Tb1  1  0.131766  0.340794  0.878087  1
  Tb  Tb2  1  0.368234  0.840794  0.121913  1
  Tb  Tb3  1  0.868234  0.659206  0.378087  1
  Nd  Nd4  1  0.476213  0.677849  0.597341  1
  Nd  Nd5  1  0.976213  0.822151  0.902659  1
  Nd  Nd6  1  0.523787  0.322151  0.097341  1
  Nd  Nd7  1  0.023787  0.177849  0.402659  1
  Nd  Nd8  1  0.524838  0.321848  0.402435  1
  Nd  Nd9  1  0.024838  0.178152  0.097565  1
  Nd  Nd10  1  0.475162  0.678152  0.902435  1
  Nd  Nd11  1  0.975162  0.821848  0.597565  1
  Er  Er12  1  0.366345  0.841603  0.377714  1
  Er  Er13  1  0.866345  0.658397  0.122286  1
  Er  Er14  1  0.633655  0.158397  0.877714  1
  Er  Er15  1  0.133655  0.341603  0.622286  1
  Er  Er16  1  0.798697  0.494933  0.750454  1
  Er  Er17  1  0.298697  0.005067  0.749546  1
  Er  Er18  1  0.201303  0.505067  0.250454  1
  Er  Er19  1  0.701303  0.994933  0.249546  1
  Pb  Pb20  1  0.705273  0.960279  0.455990  1
  Pb  Pb21  1  0.205273  0.539721  0.044010  1
  Pb  Pb22  1  0.294727  0.039721  0.955990  1
  Pb  Pb23  1  0.794727  0.460279  0.544010  1
  Pb  Pb24  1  0.291143  0.039709  0.542808  1
  Pb  Pb25  1  0.791143  0.460291  0.957192  1
  Pb  Pb26  1  0.708857  0.960291  0.042808  1
  Pb  Pb27  1  0.208857  0.539709  0.457192  1
  Pb  Pb28  1  0.436474  0.372167  0.750319  1
  Pb  Pb29  1  0.936474  0.127833  0.749681  1
  Pb  Pb30  1  0.563526  0.627833  0.250319  1
  Pb  Pb31  1  0.063526  0.872167  0.249681  1
  Pb  Pb32  1  0.663746  0.849312  0.750247  1
  Pb  Pb33  1  0.163746  0.650688  0.749753  1
  Pb  Pb34  1  0.336254  0.150688  0.250247  1
  Pb  Pb35  1  0.836254  0.349312  0.249753  1
