# generated using pymatgen
data_Sc6Al6ZnGeAu4
_symmetry_space_group_name_H-M   'P 1'
_cell_length_a   6.86031600
_cell_length_b   6.86031606
_cell_length_c   8.19228100
_cell_angle_alpha   90.00000000
_cell_angle_beta   90.00000000
_cell_angle_gamma   119.99999972
_symmetry_Int_Tables_number   1
_chemical_formula_structural   Sc6Al6ZnGeAu4
_chemical_formula_sum   'Sc6 Al6 Zn1 Ge1 Au4'
_cell_volume   333.90561192
_cell_formula_units_Z   1
loop_
 _symmetry_equiv_pos_site_id
 _symmetry_equiv_pos_as_xyz
  1  'x, y, z'
loop_
 _atom_site_type_symbol
 _atom_site_label
 _atom_site_symmetry_multiplicity
 _atom_site_fract_x
 _atom_site_fract_y
 _atom_site_fract_z
 _atom_site_occupancy
  Sc  Sc0  1  0.579048  0.004328  0.752359  1
  Sc  Sc1  1  0.995672  0.574719  0.752359  1
  Sc  Sc2  1  0.425281  0.420952  0.752359  1
  Sc  Sc3  1  0.995444  0.574570  0.247641  1
  Sc  Sc4  1  0.579127  0.004556  0.247641  1
  Sc  Sc5  1  0.425430  0.420873  0.247641  1
  Al  Al6  1  0.753112  0.752665  0.999993  1
  Al  Al7  1  0.247335  0.000446  0.999993  1
  Al  Al8  1  0.999554  0.246888  0.999993  1
  Al  Al9  1  0.748626  0.758445  0.500004  1
  Al  Al10  1  0.241555  0.990180  0.500004  1
  Al  Al11  1  0.009820  0.251374  0.500004  1
  Zn  Zn12  1  0.666667  0.333333  0.999867  1
  Ge  Ge13  1  0.666667  0.333333  0.500140  1
  Au  Au14  1  0.000000  0.000000  0.747590  1
  Au  Au15  1  0.000000  0.000000  0.252414  1
  Au  Au16  1  0.333333  0.666667  0.499885  1
  Au  Au17  1  0.333333  0.666667  0.000114  1
