# generated using pymatgen
data_YbMnIO6
_symmetry_space_group_name_H-M   'P 1'
_cell_length_a   5.22430811
_cell_length_b   5.22061658
_cell_length_c   4.96984969
_cell_angle_alpha   89.91215603
_cell_angle_beta   90.07327124
_cell_angle_gamma   120.00814459
_symmetry_Int_Tables_number   1
_chemical_formula_structural   YbMnIO6
_chemical_formula_sum   'Yb1 Mn1 I1 O6'
_cell_volume   117.37841221
_cell_formula_units_Z   1
loop_
 _symmetry_equiv_pos_site_id
 _symmetry_equiv_pos_as_xyz
  1  'x, y, z'
loop_
 _atom_site_type_symbol
 _atom_site_label
 _atom_site_symmetry_multiplicity
 _atom_site_fract_x
 _atom_site_fract_y
 _atom_site_fract_z
 _atom_site_occupancy
  Yb  Yb0  1  0.666541  0.333261  0.500008  1
  Mn  Mn1  1  0.333683  0.666800  0.999963  1
  I  I2  1  0.000070  0.999995  0.000022  1
  O  O3  1  0.023977  0.312900  0.783226  1
  O  O4  1  0.288428  0.976569  0.782929  1
  O  O5  1  0.288413  0.311954  0.217138  1
  O  O6  1  0.687635  0.711582  0.783064  1
  O  O7  1  0.687374  0.975855  0.216721  1
  O  O8  1  0.023879  0.711083  0.216930  1
