# generated using pymatgen
data_Dy4Er2Al24Ru3Rh5
_symmetry_space_group_name_H-M   'P 1'
_cell_length_a   8.81921185
_cell_length_b   8.77407099
_cell_length_c   9.54926608
_cell_angle_alpha   89.99999899
_cell_angle_beta   90.14661338
_cell_angle_gamma   119.83082378
_symmetry_Int_Tables_number   1
_chemical_formula_structural   Dy4Er2Al24Ru3Rh5
_chemical_formula_sum   'Dy4 Er2 Al24 Ru3 Rh5'
_cell_volume   641.01396337
_cell_formula_units_Z   1
loop_
 _symmetry_equiv_pos_site_id
 _symmetry_equiv_pos_as_xyz
  1  'x, y, z'
loop_
 _atom_site_type_symbol
 _atom_site_label
 _atom_site_symmetry_multiplicity
 _atom_site_fract_x
 _atom_site_fract_y
 _atom_site_fract_z
 _atom_site_occupancy
  Dy  Dy0  1  0.616268  0.808134  0.249514  1
  Dy  Dy1  1  0.809561  0.194401  0.750463  1
  Dy  Dy2  1  0.809561  0.615159  0.750463  1
  Dy  Dy3  1  0.383299  0.191650  0.750490  1
  Er  Er4  1  0.191114  0.804306  0.249457  1
  Er  Er5  1  0.191114  0.386808  0.249457  1
  Al  Al6  1  0.560627  0.437300  0.250430  1
  Al  Al7  1  0.560627  0.123327  0.250430  1
  Al  Al8  1  0.875645  0.437822  0.249396  1
  Al  Al9  1  0.438642  0.562457  0.749535  1
  Al  Al10  1  0.438642  0.876185  0.749535  1
  Al  Al11  1  0.125252  0.562626  0.750757  1
  Al  Al12  1  0.325182  0.162590  0.422095  1
  Al  Al13  1  0.835978  0.162666  0.422416  1
  Al  Al14  1  0.835978  0.673312  0.422416  1
  Al  Al15  1  0.674193  0.837097  0.577036  1
  Al  Al16  1  0.164400  0.837475  0.576476  1
  Al  Al17  1  0.164400  0.326925  0.576476  1
  Al  Al18  1  0.674005  0.837003  0.922961  1
  Al  Al19  1  0.162579  0.835330  0.923799  1
  Al  Al20  1  0.162579  0.327249  0.923799  1
  Al  Al21  1  0.325395  0.162697  0.077892  1
  Al  Al22  1  0.837918  0.164874  0.077350  1
  Al  Al23  1  0.837918  0.673044  0.077350  1
  Al  Al24  1  0.666594  0.333297  0.527351  1
  Al  Al25  1  0.332941  0.666470  0.471330  1
  Al  Al26  1  0.331035  0.665518  0.027581  1
  Al  Al27  1  0.668700  0.334350  0.973711  1
  Al  Al28  1  0.999836  0.999918  0.249966  1
  Al  Al29  1  0.001328  0.000664  0.750050  1
  Ru  Ru30  1  0.999927  0.999964  0.499975  1
  Ru  Ru31  1  0.999921  0.999960  0.000007  1
  Ru  Ru32  1  0.000294  0.500147  0.000573  1
  Rh  Rh33  1  0.499554  0.499933  0.499662  1
  Rh  Rh34  1  0.499554  0.999621  0.499662  1
  Rh  Rh35  1  0.000260  0.500130  0.499470  1
  Rh  Rh36  1  0.499591  0.499912  0.000333  1
  Rh  Rh37  1  0.499591  0.999678  0.000333  1
