# generated using pymatgen
data_Na2Nb3Co2(NiAs)7
_symmetry_space_group_name_H-M   'P 1'
_cell_length_a   9.61703854
_cell_length_b   9.61928868
_cell_length_c   3.81309000
_cell_angle_alpha   90.00000000
_cell_angle_beta   90.00000000
_cell_angle_gamma   120.05715386
_symmetry_Int_Tables_number   1
_chemical_formula_structural   Na2Nb3Co2(NiAs)7
_chemical_formula_sum   'Na2 Nb3 Co2 Ni7 As7'
_cell_volume   305.31039822
_cell_formula_units_Z   1
loop_
 _symmetry_equiv_pos_site_id
 _symmetry_equiv_pos_as_xyz
  1  'x, y, z'
loop_
 _atom_site_type_symbol
 _atom_site_label
 _atom_site_symmetry_multiplicity
 _atom_site_fract_x
 _atom_site_fract_y
 _atom_site_fract_z
 _atom_site_occupancy
  Na  Na0  1  0.333915  0.666551  0.000000  1
  Na  Na1  1  0.667089  0.333557  0.500000  1
  Nb  Nb2  1  0.221492  0.122610  0.500000  1
  Nb  Nb3  1  0.875764  0.099377  0.500000  1
  Nb  Nb4  1  0.900327  0.777085  0.500000  1
  Co  Co5  1  0.121994  0.281838  0.000000  1
  Co  Co6  1  0.718859  0.840878  0.000000  1
  Ni  Ni7  1  0.158827  0.875633  0.000000  1
  Ni  Ni8  1  0.426670  0.369518  0.000000  1
  Ni  Ni9  1  0.632175  0.058166  0.000000  1
  Ni  Ni10  1  0.942630  0.572922  0.000000  1
  Ni  Ni11  1  0.050439  0.435782  0.500000  1
  Ni  Ni12  1  0.564375  0.615043  0.500000  1
  Ni  Ni13  1  0.385392  0.949498  0.500000  1
  As  As14  1  0.289802  0.417054  0.500000  1
  As  As15  1  0.581960  0.872451  0.500000  1
  As  As16  1  0.127034  0.709004  0.500000  1
  As  As17  1  0.420635  0.116292  0.000000  1
  As  As18  1  0.885947  0.304023  0.000000  1
  As  As19  1  0.695840  0.581632  0.000000  1
  As  As20  1  0.998835  0.001084  0.000000  1
