# generated using pymatgen
data_YTm3Al18Pd5W
_symmetry_space_group_name_H-M   'P 1'
_cell_length_a   7.62112927
_cell_length_b   7.62511376
_cell_length_c   9.51247346
_cell_angle_alpha   89.60973715
_cell_angle_beta   89.55719963
_cell_angle_gamma   118.74975623
_symmetry_Int_Tables_number   1
_chemical_formula_structural   YTm3Al18Pd5W
_chemical_formula_sum   'Y1 Tm3 Al18 Pd5 W1'
_cell_volume   484.59630494
_cell_formula_units_Z   1
loop_
 _symmetry_equiv_pos_site_id
 _symmetry_equiv_pos_as_xyz
  1  'x, y, z'
loop_
 _atom_site_type_symbol
 _atom_site_label
 _atom_site_symmetry_multiplicity
 _atom_site_fract_x
 _atom_site_fract_y
 _atom_site_fract_z
 _atom_site_occupancy
  Y  Y0  1  0.995116  0.679305  0.246963  1
  Tm  Tm1  1  0.004894  0.318793  0.754049  1
  Tm  Tm2  1  0.680670  0.995231  0.246076  1
  Tm  Tm3  1  0.319143  0.005257  0.753897  1
  Al  Al4  1  0.135790  0.136243  0.249125  1
  Al  Al5  1  0.864118  0.864330  0.750555  1
  Al  Al6  1  0.002558  0.335452  0.076783  1
  Al  Al7  1  0.997578  0.664085  0.921712  1
  Al  Al8  1  0.998934  0.660153  0.579892  1
  Al  Al9  1  0.340258  0.001675  0.421646  1
  Al  Al10  1  0.001104  0.338749  0.421769  1
  Al  Al11  1  0.660348  0.999056  0.579095  1
  Al  Al12  1  0.663761  0.997595  0.922478  1
  Al  Al13  1  0.336761  0.003361  0.076688  1
  Al  Al14  1  0.332744  0.332759  0.555324  1
  Al  Al15  1  0.666644  0.667352  0.445740  1
  Al  Al16  1  0.666998  0.667725  0.052092  1
  Al  Al17  1  0.332711  0.332764  0.946944  1
  Al  Al18  1  0.343659  0.552428  0.250257  1
  Al  Al19  1  0.656791  0.447141  0.749737  1
  Al  Al20  1  0.551766  0.342206  0.250272  1
  Al  Al21  1  0.447172  0.657036  0.749689  1
  Pd  Pd22  1  0.672898  0.327302  0.999940  1
  Pd  Pd23  1  0.327239  0.672862  0.999931  1
  Pd  Pd24  1  0.327636  0.672447  0.500069  1
  Pd  Pd25  1  0.672417  0.327570  0.500040  1
  Pd  Pd26  1  0.000021  0.000241  0.500227  1
  W  W27  1  0.000271  0.000883  0.999013  1
