# generated using pymatgen
data_Er3Lu5In3Rh
_symmetry_space_group_name_H-M   'P 1'
_cell_length_a   10.28004900
_cell_length_b   10.28004824
_cell_length_c   6.93672700
_cell_angle_alpha   90.00000000
_cell_angle_beta   90.00000000
_cell_angle_gamma   119.99999922
_symmetry_Int_Tables_number   1
_chemical_formula_structural   Er3Lu5In3Rh
_chemical_formula_sum   'Er6 Lu10 In6 Rh2'
_cell_volume   634.85650722
_cell_formula_units_Z   2
loop_
 _symmetry_equiv_pos_site_id
 _symmetry_equiv_pos_as_xyz
  1  'x, y, z'
loop_
 _atom_site_type_symbol
 _atom_site_label
 _atom_site_symmetry_multiplicity
 _atom_site_fract_x
 _atom_site_fract_y
 _atom_site_fract_z
 _atom_site_occupancy
  Er  Er0  1  0.531985  0.063969  0.524596  1
  Er  Er1  1  0.936031  0.468015  0.524596  1
  Er  Er2  1  0.531985  0.468015  0.524596  1
  Er  Er3  1  0.468015  0.936031  0.024596  1
  Er  Er4  1  0.063969  0.531985  0.024596  1
  Er  Er5  1  0.468015  0.531985  0.024596  1
  Lu  Lu6  1  0.176842  0.353682  0.728991  1
  Lu  Lu7  1  0.646318  0.823158  0.728991  1
  Lu  Lu8  1  0.176842  0.823158  0.728991  1
  Lu  Lu9  1  0.823158  0.646318  0.228991  1
  Lu  Lu10  1  0.353682  0.176842  0.228991  1
  Lu  Lu11  1  0.823158  0.176842  0.228991  1
  Lu  Lu12  1  0.666667  0.333333  0.904345  1
  Lu  Lu13  1  0.333333  0.666667  0.404345  1
  Lu  Lu14  1  0.000000  0.000000  0.507255  1
  Lu  Lu15  1  0.000000  0.000000  0.007255  1
  In  In16  1  0.837464  0.674929  0.769916  1
  In  In17  1  0.325071  0.162536  0.769916  1
  In  In18  1  0.837464  0.162536  0.769916  1
  In  In19  1  0.162536  0.325071  0.269916  1
  In  In20  1  0.674929  0.837464  0.269916  1
  In  In21  1  0.162536  0.837464  0.269916  1
  Rh  Rh22  1  0.666667  0.333333  0.295732  1
  Rh  Rh23  1  0.333333  0.666667  0.795732  1
