# generated using pymatgen
data_CeTm3Ru4F28
_symmetry_space_group_name_H-M   'P 1'
_cell_length_a   5.53994717
_cell_length_b   8.80245784
_cell_length_c   11.86700100
_cell_angle_alpha   63.77761553
_cell_angle_beta   89.94932274
_cell_angle_gamma   89.97234210
_symmetry_Int_Tables_number   1
_chemical_formula_structural   CeTm3Ru4F28
_chemical_formula_sum   'Ce1 Tm3 Ru4 F28'
_cell_volume   519.13985524
_cell_formula_units_Z   1
loop_
 _symmetry_equiv_pos_site_id
 _symmetry_equiv_pos_as_xyz
  1  'x, y, z'
loop_
 _atom_site_type_symbol
 _atom_site_label
 _atom_site_symmetry_multiplicity
 _atom_site_fract_x
 _atom_site_fract_y
 _atom_site_fract_z
 _atom_site_occupancy
  Ce  Ce0  1  0.241402  0.809176  0.769652  1
  Tm  Tm1  1  0.258370  0.814616  0.267594  1
  Tm  Tm2  1  0.742077  0.200822  0.727484  1
  Tm  Tm3  1  0.759008  0.188462  0.231508  1
  Ru  Ru4  1  0.754013  0.725895  0.050426  1
  Ru  Ru5  1  0.245257  0.267453  0.957413  1
  Ru  Ru6  1  0.255266  0.275580  0.452893  1
  Ru  Ru7  1  0.747214  0.728781  0.539092  1
  F  F8  1  0.952249  0.702847  0.414835  1
  F  F9  1  0.046749  0.294893  0.580924  1
  F  F10  1  0.454872  0.295801  0.079008  1
  F  F11  1  0.552918  0.702659  0.922055  1
  F  F12  1  0.466121  0.728773  0.146233  1
  F  F13  1  0.531115  0.266768  0.857685  1
  F  F14  1  0.971106  0.269689  0.355516  1
  F  F15  1  0.035769  0.731031  0.635639  1
  F  F16  1  0.954517  0.748954  0.178233  1
  F  F17  1  0.041041  0.244416  0.829229  1
  F  F18  1  0.459573  0.250763  0.325601  1
  F  F19  1  0.553091  0.751170  0.670903  1
  F  F20  1  0.764583  0.483209  0.144588  1
  F  F21  1  0.231384  0.511984  0.858271  1
  F  F22  1  0.266839  0.516056  0.357203  1
  F  F23  1  0.733638  0.485350  0.639746  1
  F  F24  1  0.953251  0.279828  0.049389  1
  F  F25  1  0.048304  0.715839  0.959347  1
  F  F26  1  0.450248  0.718733  0.449883  1
  F  F27  1  0.546904  0.282913  0.547526  1
  F  F28  1  0.747114  0.970338  0.447876  1
  F  F29  1  0.254658  0.034209  0.546662  1
  F  F30  1  0.244103  0.024886  0.051334  1
  F  F31  1  0.752768  0.965433  0.955372  1
  F  F32  1  0.570901  0.976555  0.233341  1
  F  F33  1  0.428123  0.033259  0.767064  1
  F  F34  1  0.071694  0.026370  0.266597  1
  F  F35  1  0.913762  0.976487  0.733877  1
