# generated using pymatgen
data_LaPr3SiI5
_symmetry_space_group_name_H-M   'P 1'
_cell_length_a   10.16349875
_cell_length_b   10.16349770
_cell_length_c   9.20735786
_cell_angle_alpha   77.64257639
_cell_angle_beta   77.64258347
_cell_angle_gamma   24.96532904
_symmetry_Int_Tables_number   1
_chemical_formula_structural   LaPr3SiI5
_chemical_formula_sum   'La1 Pr3 Si1 I5'
_cell_volume   391.66430091
_cell_formula_units_Z   1
loop_
 _symmetry_equiv_pos_site_id
 _symmetry_equiv_pos_as_xyz
  1  'x, y, z'
loop_
 _atom_site_type_symbol
 _atom_site_label
 _atom_site_symmetry_multiplicity
 _atom_site_fract_x
 _atom_site_fract_y
 _atom_site_fract_z
 _atom_site_occupancy
  La  La0  1  0.499227  0.499227  0.780360  1
  Pr  Pr1  1  0.853474  0.853474  0.077176  1
  Pr  Pr2  1  0.145941  0.145941  0.928383  1
  Pr  Pr3  1  0.500768  0.500768  0.210587  1
  Si  Si4  1  0.999609  0.999609  0.997180  1
  I  I5  1  0.670824  0.670824  0.171292  1
  I  I6  1  0.326251  0.326251  0.836676  1
  I  I7  1  0.668185  0.668185  0.668647  1
  I  I8  1  0.334676  0.334676  0.335863  1
  I  I9  1  0.001045  0.001045  0.493836  1
