# generated using pymatgen
data_Zr8Ti2BeSiSn6
_symmetry_space_group_name_H-M   'P 1'
_cell_length_a   8.60497500
_cell_length_b   8.60497393
_cell_length_c   5.76895900
_cell_angle_alpha   90.00000000
_cell_angle_beta   90.00000000
_cell_angle_gamma   120.00000028
_symmetry_Int_Tables_number   1
_chemical_formula_structural   Zr8Ti2BeSiSn6
_chemical_formula_sum   'Zr8 Ti2 Be1 Si1 Sn6'
_cell_volume   369.93656074
_cell_formula_units_Z   1
loop_
 _symmetry_equiv_pos_site_id
 _symmetry_equiv_pos_as_xyz
  1  'x, y, z'
loop_
 _atom_site_type_symbol
 _atom_site_label
 _atom_site_symmetry_multiplicity
 _atom_site_fract_x
 _atom_site_fract_y
 _atom_site_fract_z
 _atom_site_occupancy
  Zr  Zr0  1  0.333333  0.666667  0.500000  1
  Zr  Zr1  1  0.666667  0.333333  0.500000  1
  Zr  Zr2  1  0.743807  0.743807  0.752506  1
  Zr  Zr3  1  0.256193  0.000000  0.752506  1
  Zr  Zr4  1  0.000000  0.256193  0.752506  1
  Zr  Zr5  1  0.256193  0.256193  0.247494  1
  Zr  Zr6  1  0.743807  0.000000  0.247494  1
  Zr  Zr7  1  0.000000  0.743807  0.247494  1
  Ti  Ti8  1  0.666667  0.333333  0.000000  1
  Ti  Ti9  1  0.333333  0.666667  0.000000  1
  Be  Be10  1  0.000000  0.000000  0.000000  1
  Si  Si11  1  0.000000  0.000000  0.500000  1
  Sn  Sn12  1  0.394312  0.394312  0.758323  1
  Sn  Sn13  1  0.605688  0.000000  0.758323  1
  Sn  Sn14  1  0.000000  0.605688  0.758323  1
  Sn  Sn15  1  0.605688  0.605688  0.241677  1
  Sn  Sn16  1  0.394312  0.000000  0.241677  1
  Sn  Sn17  1  0.000000  0.394312  0.241677  1
