# generated using pymatgen
data_Tb3Y13MgHg3Pd4
_symmetry_space_group_name_H-M   'P 1'
_cell_length_a   9.71263232
_cell_length_b   9.73142722
_cell_length_c   9.73142800
_cell_angle_alpha   60.00000415
_cell_angle_beta   59.93597095
_cell_angle_gamma   59.93597131
_symmetry_Int_Tables_number   1
_chemical_formula_structural   Tb3Y13MgHg3Pd4
_chemical_formula_sum   'Tb3 Y13 Mg1 Hg3 Pd4'
_cell_volume   649.76167252
_cell_formula_units_Z   1
loop_
 _symmetry_equiv_pos_site_id
 _symmetry_equiv_pos_as_xyz
  1  'x, y, z'
loop_
 _atom_site_type_symbol
 _atom_site_label
 _atom_site_symmetry_multiplicity
 _atom_site_fract_x
 _atom_site_fract_y
 _atom_site_fract_z
 _atom_site_occupancy
  Tb  Tb0  1  0.356808  0.353089  0.353089  1
  Tb  Tb1  1  0.356808  0.353089  0.937015  1
  Tb  Tb2  1  0.356808  0.937015  0.353089  1
  Y  Y3  1  0.924499  0.358500  0.358500  1
  Y  Y4  1  0.809587  0.189771  0.189771  1
  Y  Y5  1  0.185926  0.812788  0.812788  1
  Y  Y6  1  0.185926  0.812788  0.188497  1
  Y  Y7  1  0.809587  0.189771  0.810872  1
  Y  Y8  1  0.185926  0.188497  0.812788  1
  Y  Y9  1  0.809587  0.810872  0.189771  1
  Y  Y10  1  0.933088  0.566126  0.566126  1
  Y  Y11  1  0.564946  0.934613  0.934613  1
  Y  Y12  1  0.564946  0.934613  0.565828  1
  Y  Y13  1  0.933088  0.566126  0.934661  1
  Y  Y14  1  0.564946  0.565828  0.934613  1
  Y  Y15  1  0.933088  0.934661  0.566126  1
  Mg  Mg16  1  0.279341  0.573552  0.573552  1
  Hg  Hg17  1  0.583259  0.589233  0.589233  1
  Hg  Hg18  1  0.583259  0.589233  0.238275  1
  Hg  Hg19  1  0.583259  0.238275  0.589233  1
  Pd  Pd20  1  0.143502  0.146459  0.146459  1
  Pd  Pd21  1  0.143502  0.146459  0.563579  1
  Pd  Pd22  1  0.143502  0.563579  0.146459  1
  Pd  Pd23  1  0.564808  0.145064  0.145064  1
