# generated using pymatgen
data_Pr10Os2RuRh
_symmetry_space_group_name_H-M   'P 1'
_cell_length_a   8.99215054
_cell_length_b   9.00703777
_cell_length_c   7.46338254
_cell_angle_alpha   83.71064456
_cell_angle_beta   83.69013375
_cell_angle_gamma   43.58965067
_symmetry_Int_Tables_number   1
_chemical_formula_structural   Pr10Os2RuRh
_chemical_formula_sum   'Pr10 Os2 Ru1 Rh1'
_cell_volume   413.86097693
_cell_formula_units_Z   1
loop_
 _symmetry_equiv_pos_site_id
 _symmetry_equiv_pos_as_xyz
  1  'x, y, z'
loop_
 _atom_site_type_symbol
 _atom_site_label
 _atom_site_symmetry_multiplicity
 _atom_site_fract_x
 _atom_site_fract_y
 _atom_site_fract_z
 _atom_site_occupancy
  Pr  Pr0  1  0.017692  0.799066  0.913973  1
  Pr  Pr1  1  0.203802  0.978481  0.587447  1
  Pr  Pr2  1  0.984115  0.199977  0.083358  1
  Pr  Pr3  1  0.797836  0.015537  0.414305  1
  Pr  Pr4  1  0.357136  0.208910  0.814639  1
  Pr  Pr5  1  0.792511  0.643388  0.685790  1
  Pr  Pr6  1  0.639211  0.795244  0.182780  1
  Pr  Pr7  1  0.211016  0.358557  0.315490  1
  Pr  Pr8  1  0.571503  0.426520  0.752643  1
  Pr  Pr9  1  0.426065  0.573340  0.249421  1
  Os  Os10  1  0.176845  0.601856  0.573816  1
  Os  Os11  1  0.399361  0.822157  0.925614  1
  Ru  Ru12  1  0.600924  0.176307  0.075772  1
  Rh  Rh13  1  0.821984  0.400659  0.424953  1
