# generated using pymatgen
data_Hf18TiCoRe7Au
_symmetry_space_group_name_H-M   'P 1'
_cell_length_a   8.67207300
_cell_length_b   8.67207330
_cell_length_c   8.49400400
_cell_angle_alpha   90.00000000
_cell_angle_beta   90.00000000
_cell_angle_gamma   120.00001031
_symmetry_Int_Tables_number   1
_chemical_formula_structural   Hf18TiCoRe7Au
_chemical_formula_sum   'Hf18 Ti1 Co1 Re7 Au1'
_cell_volume   553.20858710
_cell_formula_units_Z   1
loop_
 _symmetry_equiv_pos_site_id
 _symmetry_equiv_pos_as_xyz
  1  'x, y, z'
loop_
 _atom_site_type_symbol
 _atom_site_label
 _atom_site_symmetry_multiplicity
 _atom_site_fract_x
 _atom_site_fract_y
 _atom_site_fract_z
 _atom_site_occupancy
  Hf  Hf0  1  0.191911  0.808089  0.449763  1
  Hf  Hf1  1  0.191911  0.383822  0.449763  1
  Hf  Hf2  1  0.616178  0.808089  0.449763  1
  Hf  Hf3  1  0.799826  0.200174  0.557992  1
  Hf  Hf4  1  0.799826  0.599653  0.557992  1
  Hf  Hf5  1  0.400347  0.200174  0.557992  1
  Hf  Hf6  1  0.799688  0.200312  0.939544  1
  Hf  Hf7  1  0.799688  0.599377  0.939544  1
  Hf  Hf8  1  0.400623  0.200312  0.939544  1
  Hf  Hf9  1  0.190190  0.809810  0.051279  1
  Hf  Hf10  1  0.190190  0.380379  0.051279  1
  Hf  Hf11  1  0.619621  0.809810  0.051279  1
  Hf  Hf12  1  0.542815  0.457185  0.248381  1
  Hf  Hf13  1  0.542815  0.085629  0.248381  1
  Hf  Hf14  1  0.914371  0.457185  0.248381  1
  Hf  Hf15  1  0.458805  0.541195  0.751308  1
  Hf  Hf16  1  0.458805  0.917612  0.751308  1
  Hf  Hf17  1  0.082388  0.541195  0.751308  1
  Ti  Ti18  1  0.000000  0.000000  0.501571  1
  Co  Co19  1  0.666667  0.333333  0.751108  1
  Re  Re20  1  0.887847  0.112153  0.251998  1
  Re  Re21  1  0.887847  0.775694  0.251998  1
  Re  Re22  1  0.224306  0.112153  0.251998  1
  Re  Re23  1  0.111157  0.888843  0.749347  1
  Re  Re24  1  0.111157  0.222312  0.749347  1
  Re  Re25  1  0.777688  0.888843  0.749347  1
  Re  Re26  1  0.000000  0.000000  0.000472  1
  Au  Au27  1  0.333333  0.666667  0.248015  1
