# generated using pymatgen
data_Dy18Lu2Ir7Au5
_symmetry_space_group_name_H-M   'P 1'
_cell_length_a   11.18164425
_cell_length_b   11.18164508
_cell_length_c   6.30543300
_cell_angle_alpha   89.96368556
_cell_angle_beta   89.96368555
_cell_angle_gamma   89.62943600
_symmetry_Int_Tables_number   1
_chemical_formula_structural   Dy18Lu2Ir7Au5
_chemical_formula_sum   'Dy18 Lu2 Ir7 Au5'
_cell_volume   788.34629775
_cell_formula_units_Z   1
loop_
 _symmetry_equiv_pos_site_id
 _symmetry_equiv_pos_as_xyz
  1  'x, y, z'
loop_
 _atom_site_type_symbol
 _atom_site_label
 _atom_site_symmetry_multiplicity
 _atom_site_fract_x
 _atom_site_fract_y
 _atom_site_fract_z
 _atom_site_occupancy
  Dy  Dy0  1  0.299882  0.090985  0.364113  1
  Dy  Dy1  1  0.301444  0.907139  0.862671  1
  Dy  Dy2  1  0.698003  0.081153  0.859071  1
  Dy  Dy3  1  0.698114  0.905648  0.360914  1
  Dy  Dy4  1  0.580851  0.783238  0.876249  1
  Dy  Dy5  1  0.576033  0.207681  0.363743  1
  Dy  Dy6  1  0.417846  0.787000  0.376567  1
  Dy  Dy7  1  0.411096  0.209120  0.877824  1
  Dy  Dy8  1  0.216762  0.419149  0.623751  1
  Dy  Dy9  1  0.213000  0.582154  0.123433  1
  Dy  Dy10  1  0.792319  0.423967  0.136257  1
  Dy  Dy11  1  0.790880  0.588904  0.622176  1
  Dy  Dy12  1  0.909015  0.700118  0.135887  1
  Dy  Dy13  1  0.918847  0.301997  0.640929  1
  Dy  Dy14  1  0.092861  0.698556  0.637329  1
  Dy  Dy15  1  0.094352  0.301886  0.139086  1
  Dy  Dy16  1  0.998680  0.000749  0.499171  1
  Dy  Dy17  1  0.999251  0.001320  0.000829  1
  Lu  Lu18  1  0.495684  0.502253  0.001664  1
  Lu  Lu19  1  0.497747  0.504316  0.498336  1
  Ir  Ir20  1  0.650815  0.649135  0.250324  1
  Ir  Ir21  1  0.350865  0.349185  0.249676  1
  Ir  Ir22  1  0.347796  0.652204  0.750000  1
  Ir  Ir23  1  0.499393  0.999019  0.111384  1
  Ir  Ir24  1  0.499092  0.000197  0.611892  1
  Ir  Ir25  1  0.999803  0.500908  0.888108  1
  Ir  Ir26  1  0.000981  0.500607  0.388616  1
  Au  Au27  1  0.840946  0.159054  0.250000  1
  Au  Au28  1  0.843217  0.845241  0.750707  1
  Au  Au29  1  0.154759  0.156783  0.749293  1
  Au  Au30  1  0.156425  0.843575  0.250000  1
  Au  Au31  1  0.653242  0.346758  0.750000  1
