# generated using pymatgen
data_Nd10PPb6Br
_symmetry_space_group_name_H-M   'P 1'
_cell_length_a   9.51427100
_cell_length_b   9.51427128
_cell_length_c   7.04320900
_cell_angle_alpha   90.00000000
_cell_angle_beta   90.00000000
_cell_angle_gamma   119.99999554
_symmetry_Int_Tables_number   1
_chemical_formula_structural   Nd10PPb6Br
_chemical_formula_sum   'Nd10 P1 Pb6 Br1'
_cell_volume   552.14389549
_cell_formula_units_Z   1
loop_
 _symmetry_equiv_pos_site_id
 _symmetry_equiv_pos_as_xyz
  1  'x, y, z'
loop_
 _atom_site_type_symbol
 _atom_site_label
 _atom_site_symmetry_multiplicity
 _atom_site_fract_x
 _atom_site_fract_y
 _atom_site_fract_z
 _atom_site_occupancy
  Nd  Nd0  1  0.751115  0.751115  0.232250  1
  Nd  Nd1  1  0.248885  0.000000  0.232250  1
  Nd  Nd2  1  0.000000  0.248885  0.232250  1
  Nd  Nd3  1  0.248885  0.248885  0.767750  1
  Nd  Nd4  1  0.751115  0.000000  0.767750  1
  Nd  Nd5  1  0.000000  0.751115  0.767750  1
  Nd  Nd6  1  0.666667  0.333333  0.500000  1
  Nd  Nd7  1  0.333333  0.666667  0.500000  1
  Nd  Nd8  1  0.333333  0.666667  0.000000  1
  Nd  Nd9  1  0.666667  0.333333  0.000000  1
  P  P10  1  0.000000  0.000000  0.000000  1
  Pb  Pb11  1  0.396003  0.396003  0.249691  1
  Pb  Pb12  1  0.603997  0.000000  0.249691  1
  Pb  Pb13  1  0.000000  0.603997  0.249691  1
  Pb  Pb14  1  0.603997  0.603997  0.750309  1
  Pb  Pb15  1  0.396003  0.000000  0.750309  1
  Pb  Pb16  1  0.000000  0.396003  0.750309  1
  Br  Br17  1  0.000000  0.000000  0.500000  1
