# generated using pymatgen
data_AlCdInTe4
_symmetry_space_group_name_H-M   'P 1'
_cell_length_a   7.67130383
_cell_length_b   7.67130386
_cell_length_c   7.67130451
_cell_angle_alpha   131.53651179
_cell_angle_beta   131.53651552
_cell_angle_gamma   70.96205532
_symmetry_Int_Tables_number   1
_chemical_formula_structural   AlCdInTe4
_chemical_formula_sum   'Al1 Cd1 In1 Te4'
_cell_volume   247.70271590
_cell_formula_units_Z   1
loop_
 _symmetry_equiv_pos_site_id
 _symmetry_equiv_pos_as_xyz
  1  'x, y, z'
loop_
 _atom_site_type_symbol
 _atom_site_label
 _atom_site_symmetry_multiplicity
 _atom_site_fract_x
 _atom_site_fract_y
 _atom_site_fract_z
 _atom_site_occupancy
  Al  Al0  1  0.500000  0.500000  0.000000  1
  Cd  Cd1  1  0.000000  0.000000  0.000000  1
  In  In2  1  0.250000  0.750000  0.500000  1
  Te  Te3  1  0.419154  0.888514  0.045262  1
  Te  Te4  1  0.111486  0.156748  0.530640  1
  Te  Te5  1  0.626108  0.580846  0.469360  1
  Te  Te6  1  0.843252  0.373892  0.954738  1
