# generated using pymatgen
data_AlV12GaPt2
_symmetry_space_group_name_H-M   'P 1'
_cell_length_a   4.79742800
_cell_length_b   4.79741900
_cell_length_c   9.63983200
_cell_angle_alpha   90.00000000
_cell_angle_beta   90.00000000
_cell_angle_gamma   90.00000000
_symmetry_Int_Tables_number   1
_chemical_formula_structural   AlV12GaPt2
_chemical_formula_sum   'Al1 V12 Ga1 Pt2'
_cell_volume   221.86335781
_cell_formula_units_Z   1
loop_
 _symmetry_equiv_pos_site_id
 _symmetry_equiv_pos_as_xyz
  1  'x, y, z'
loop_
 _atom_site_type_symbol
 _atom_site_label
 _atom_site_symmetry_multiplicity
 _atom_site_fract_x
 _atom_site_fract_y
 _atom_site_fract_z
 _atom_site_occupancy
  Al  Al0  1  0.500000  0.500000  0.000445  1
  V  V1  1  0.000000  0.500000  0.125315  1
  V  V2  1  0.000000  0.500000  0.624871  1
  V  V3  1  0.500000  0.249927  0.752340  1
  V  V4  1  0.500000  0.251244  0.249550  1
  V  V5  1  0.749934  0.000000  0.999901  1
  V  V6  1  0.750294  0.000000  0.498169  1
  V  V7  1  0.000000  0.500000  0.867945  1
  V  V8  1  0.000000  0.500000  0.382082  1
  V  V9  1  0.500000  0.750073  0.752340  1
  V  V10  1  0.500000  0.748756  0.249550  1
  V  V11  1  0.250066  0.000000  0.999901  1
  V  V12  1  0.249706  0.000000  0.498169  1
  Ga  Ga13  1  0.000000  0.000000  0.249358  1
  Pt  Pt14  1  0.500000  0.500000  0.501412  1
  Pt  Pt15  1  0.000000  0.000000  0.748653  1
