# generated using pymatgen
data_CuMo12Pd7N4
_symmetry_space_group_name_H-M   'P 1'
_cell_length_a   6.85914541
_cell_length_b   6.85914541
_cell_length_c   6.85914541
_cell_angle_alpha   90.06795813
_cell_angle_beta   90.06795813
_cell_angle_gamma   90.06795813
_symmetry_Int_Tables_number   1
_chemical_formula_structural   CuMo12Pd7N4
_chemical_formula_sum   'Cu1 Mo12 Pd7 N4'
_cell_volume   322.70754005
_cell_formula_units_Z   1
loop_
 _symmetry_equiv_pos_site_id
 _symmetry_equiv_pos_as_xyz
  1  'x, y, z'
loop_
 _atom_site_type_symbol
 _atom_site_label
 _atom_site_symmetry_multiplicity
 _atom_site_fract_x
 _atom_site_fract_y
 _atom_site_fract_z
 _atom_site_occupancy
  Cu  Cu0  1  0.187337  0.187337  0.187337  1
  Mo  Mo1  1  0.798450  0.047000  0.123141  1
  Mo  Mo2  1  0.047000  0.123141  0.798450  1
  Mo  Mo3  1  0.544140  0.372885  0.202163  1
  Mo  Mo4  1  0.875538  0.300457  0.455579  1
  Mo  Mo5  1  0.123141  0.798450  0.047000  1
  Mo  Mo6  1  0.202163  0.544140  0.372885  1
  Mo  Mo7  1  0.300457  0.455579  0.875538  1
  Mo  Mo8  1  0.455579  0.875538  0.300457  1
  Mo  Mo9  1  0.623702  0.703657  0.951874  1
  Mo  Mo10  1  0.951874  0.623702  0.703657  1
  Mo  Mo11  1  0.372885  0.202163  0.544140  1
  Mo  Mo12  1  0.703657  0.951874  0.623702  1
  Pd  Pd13  1  0.430961  0.064631  0.946021  1
  Pd  Pd14  1  0.946021  0.430961  0.064631  1
  Pd  Pd15  1  0.064631  0.946021  0.430961  1
  Pd  Pd16  1  0.309623  0.812885  0.688116  1
  Pd  Pd17  1  0.688116  0.309623  0.812885  1
  Pd  Pd18  1  0.812885  0.688116  0.309623  1
  Pd  Pd19  1  0.560248  0.560248  0.560248  1
  N  N20  1  0.874161  0.874161  0.874161  1
  N  N21  1  0.124937  0.375710  0.626784  1
  N  N22  1  0.626784  0.124937  0.375710  1
  N  N23  1  0.375710  0.626784  0.124937  1
