# generated using pymatgen
data_Gd7Sc8Al7Os8
_symmetry_space_group_name_H-M   'P 1'
_cell_length_a   9.38126599
_cell_length_b   9.38126630
_cell_length_c   9.38126500
_cell_angle_alpha   60.08575522
_cell_angle_beta   60.08575414
_cell_angle_gamma   60.08575478
_symmetry_Int_Tables_number   1
_chemical_formula_structural   Gd7Sc8Al7Os8
_chemical_formula_sum   'Gd7 Sc8 Al7 Os8'
_cell_volume   584.94149548
_cell_formula_units_Z   1
loop_
 _symmetry_equiv_pos_site_id
 _symmetry_equiv_pos_as_xyz
  1  'x, y, z'
loop_
 _atom_site_type_symbol
 _atom_site_label
 _atom_site_symmetry_multiplicity
 _atom_site_fract_x
 _atom_site_fract_y
 _atom_site_fract_z
 _atom_site_occupancy
  Gd  Gd0  1  0.151887  0.151887  0.151887  1
  Gd  Gd1  1  0.210331  0.760727  0.210331  1
  Gd  Gd2  1  0.198401  0.805161  0.805161  1
  Gd  Gd3  1  0.760727  0.210331  0.210331  1
  Gd  Gd4  1  0.805161  0.805161  0.198401  1
  Gd  Gd5  1  0.210331  0.210331  0.760727  1
  Gd  Gd6  1  0.805161  0.198401  0.805161  1
  Sc  Sc7  1  0.372816  0.372816  0.372816  1
  Sc  Sc8  1  0.132069  0.623793  0.623793  1
  Sc  Sc9  1  0.623793  0.132069  0.623793  1
  Sc  Sc10  1  0.623793  0.623793  0.132069  1
  Sc  Sc11  1  0.385737  0.858911  0.385737  1
  Sc  Sc12  1  0.385737  0.385737  0.858911  1
  Sc  Sc13  1  0.858911  0.385737  0.385737  1
  Sc  Sc14  1  0.627941  0.627941  0.627941  1
  Al  Al15  1  0.831657  0.831657  0.831657  1
  Al  Al16  1  0.484462  0.168226  0.168226  1
  Al  Al17  1  0.168226  0.168226  0.484462  1
  Al  Al18  1  0.168226  0.484462  0.168226  1
  Al  Al19  1  0.837005  0.837005  0.498276  1
  Al  Al20  1  0.837005  0.498276  0.837005  1
  Al  Al21  1  0.498276  0.837005  0.837005  1
  Os  Os22  1  0.501515  0.501515  0.998962  1
  Os  Os23  1  0.994737  0.994737  0.518017  1
  Os  Os24  1  0.501515  0.998962  0.501515  1
  Os  Os25  1  0.998962  0.501515  0.501515  1
  Os  Os26  1  0.518017  0.994737  0.994737  1
  Os  Os27  1  0.994737  0.518017  0.994737  1
  Os  Os28  1  0.499471  0.499471  0.499471  1
  Os  Os29  1  0.013394  0.013394  0.013394  1
