# generated using pymatgen
data_SmTh3(CdPd2)2
_symmetry_space_group_name_H-M   'P 1'
_cell_length_a   7.92285002
_cell_length_b   7.92285002
_cell_length_c   3.83005400
_cell_angle_alpha   90.00000000
_cell_angle_beta   90.00000000
_cell_angle_gamma   89.09878907
_symmetry_Int_Tables_number   1
_chemical_formula_structural   SmTh3(CdPd2)2
_chemical_formula_sum   'Sm1 Th3 Cd2 Pd4'
_cell_volume   240.38869566
_cell_formula_units_Z   1
loop_
 _symmetry_equiv_pos_site_id
 _symmetry_equiv_pos_as_xyz
  1  'x, y, z'
loop_
 _atom_site_type_symbol
 _atom_site_label
 _atom_site_symmetry_multiplicity
 _atom_site_fract_x
 _atom_site_fract_y
 _atom_site_fract_z
 _atom_site_occupancy
  Sm  Sm0  1  0.674716  0.174716  0.500000  1
  Th  Th1  1  0.327966  0.827966  0.500000  1
  Th  Th2  1  0.824825  0.672482  0.500000  1
  Th  Th3  1  0.172482  0.324825  0.500000  1
  Cd  Cd4  1  0.996638  0.000999  0.000000  1
  Cd  Cd5  1  0.500999  0.496638  0.000000  1
  Pd  Pd6  1  0.368071  0.126320  0.000000  1
  Pd  Pd7  1  0.877765  0.377765  0.000000  1
  Pd  Pd8  1  0.130217  0.630217  0.000000  1
  Pd  Pd9  1  0.626320  0.868071  0.000000  1
