# generated using pymatgen
data_Tm16Cd4Co3Ir
_symmetry_space_group_name_H-M   'P 1'
_cell_length_a   9.44234644
_cell_length_b   9.40131594
_cell_length_c   9.40131700
_cell_angle_alpha   59.99999979
_cell_angle_beta   60.14363971
_cell_angle_gamma   60.14363181
_symmetry_Int_Tables_number   1
_chemical_formula_structural   Tm16Cd4Co3Ir
_chemical_formula_sum   'Tm16 Cd4 Co3 Ir1'
_cell_volume   591.40058463
_cell_formula_units_Z   1
loop_
 _symmetry_equiv_pos_site_id
 _symmetry_equiv_pos_as_xyz
  1  'x, y, z'
loop_
 _atom_site_type_symbol
 _atom_site_label
 _atom_site_symmetry_multiplicity
 _atom_site_fract_x
 _atom_site_fract_y
 _atom_site_fract_z
 _atom_site_occupancy
  Tm  Tm0  1  0.591286  0.600121  0.600121  1
  Tm  Tm1  1  0.591286  0.600121  0.208474  1
  Tm  Tm2  1  0.591286  0.208474  0.600121  1
  Tm  Tm3  1  0.212449  0.595851  0.595851  1
  Tm  Tm4  1  0.066006  0.438797  0.438797  1
  Tm  Tm5  1  0.438800  0.061748  0.061748  1
  Tm  Tm6  1  0.438800  0.061748  0.437704  1
  Tm  Tm7  1  0.066006  0.438797  0.056400  1
  Tm  Tm8  1  0.438800  0.437704  0.061748  1
  Tm  Tm9  1  0.066006  0.056400  0.438797  1
  Tm  Tm10  1  0.186898  0.812566  0.812566  1
  Tm  Tm11  1  0.811776  0.189235  0.189235  1
  Tm  Tm12  1  0.811776  0.189235  0.809754  1
  Tm  Tm13  1  0.186898  0.812566  0.187969  1
  Tm  Tm14  1  0.811776  0.809754  0.189235  1
  Tm  Tm15  1  0.186898  0.187969  0.812566  1
  Cd  Cd16  1  0.831840  0.830380  0.830380  1
  Cd  Cd17  1  0.831840  0.830380  0.507398  1
  Cd  Cd18  1  0.831840  0.507398  0.830380  1
  Cd  Cd19  1  0.507251  0.830916  0.830916  1
  Co  Co20  1  0.391438  0.390940  0.390940  1
  Co  Co21  1  0.391438  0.390940  0.826681  1
  Co  Co22  1  0.391438  0.826681  0.390940  1
  Ir  Ir23  1  0.826168  0.391277  0.391277  1
