# generated using pymatgen
data_DyNbB6Ru
_symmetry_space_group_name_H-M   'P 1'
_cell_length_a   3.48904500
_cell_length_b   9.01275000
_cell_length_c   11.30004600
_cell_angle_alpha   90.00000000
_cell_angle_beta   90.00000000
_cell_angle_gamma   90.00000000
_symmetry_Int_Tables_number   1
_chemical_formula_structural   DyNbB6Ru
_chemical_formula_sum   'Dy4 Nb4 B24 Ru4'
_cell_volume   355.34000717
_cell_formula_units_Z   4
loop_
 _symmetry_equiv_pos_site_id
 _symmetry_equiv_pos_as_xyz
  1  'x, y, z'
loop_
 _atom_site_type_symbol
 _atom_site_label
 _atom_site_symmetry_multiplicity
 _atom_site_fract_x
 _atom_site_fract_y
 _atom_site_fract_z
 _atom_site_occupancy
  Dy  Dy0  1  0.000000  0.323089  0.413172  1
  Dy  Dy1  1  0.000000  0.676911  0.586828  1
  Dy  Dy2  1  0.000000  0.823089  0.086828  1
  Dy  Dy3  1  0.000000  0.176911  0.913172  1
  Nb  Nb4  1  0.000000  0.946048  0.375102  1
  Nb  Nb5  1  0.000000  0.053952  0.624898  1
  Nb  Nb6  1  0.000000  0.446048  0.124898  1
  Nb  Nb7  1  0.000000  0.553952  0.875102  1
  B  B8  1  0.500000  0.554456  0.434128  1
  B  B9  1  0.500000  0.445544  0.565872  1
  B  B10  1  0.500000  0.054456  0.065872  1
  B  B11  1  0.500000  0.945544  0.934128  1
  B  B12  1  0.500000  0.754134  0.418679  1
  B  B13  1  0.500000  0.245866  0.581321  1
  B  B14  1  0.500000  0.254134  0.081321  1
  B  B15  1  0.500000  0.745866  0.918679  1
  B  B16  1  0.500000  0.798094  0.263125  1
  B  B17  1  0.500000  0.201906  0.736875  1
  B  B18  1  0.500000  0.298094  0.236875  1
  B  B19  1  0.500000  0.701906  0.763125  1
  B  B20  1  0.500000  0.629505  0.181513  1
  B  B21  1  0.500000  0.370495  0.818487  1
  B  B22  1  0.500000  0.129505  0.318487  1
  B  B23  1  0.500000  0.870495  0.681513  1
  B  B24  1  0.500000  0.980886  0.213803  1
  B  B25  1  0.500000  0.019114  0.786197  1
  B  B26  1  0.500000  0.480886  0.286197  1
  B  B27  1  0.500000  0.519114  0.713803  1
  B  B28  1  0.500000  0.600020  0.026571  1
  B  B29  1  0.500000  0.399980  0.973429  1
  B  B30  1  0.500000  0.100020  0.473429  1
  B  B31  1  0.500000  0.899980  0.526571  1
  Ru  Ru32  1  0.000000  0.643375  0.317681  1
  Ru  Ru33  1  0.000000  0.356625  0.682319  1
  Ru  Ru34  1  0.000000  0.143375  0.182319  1
  Ru  Ru35  1  0.000000  0.856625  0.817681  1
