# generated using pymatgen
data_Y2ThMg2AlRh3
_symmetry_space_group_name_H-M   'P 1'
_cell_length_a   7.35626756
_cell_length_b   7.35626800
_cell_length_c   3.99155900
_cell_angle_alpha   90.00000000
_cell_angle_beta   90.00000000
_cell_angle_gamma   118.50398054
_symmetry_Int_Tables_number   1
_chemical_formula_structural   Y2ThMg2AlRh3
_chemical_formula_sum   'Y2 Th1 Mg2 Al1 Rh3'
_cell_volume   189.81902317
_cell_formula_units_Z   1
loop_
 _symmetry_equiv_pos_site_id
 _symmetry_equiv_pos_as_xyz
  1  'x, y, z'
loop_
 _atom_site_type_symbol
 _atom_site_label
 _atom_site_symmetry_multiplicity
 _atom_site_fract_x
 _atom_site_fract_y
 _atom_site_fract_z
 _atom_site_occupancy
  Y  Y0  1  0.410150  0.009225  0.500000  1
  Y  Y1  1  0.009225  0.410150  0.500000  1
  Th  Th2  1  0.566839  0.566839  0.500000  1
  Mg  Mg3  1  0.756762  0.007170  0.000000  1
  Mg  Mg4  1  0.007170  0.756762  0.000000  1
  Al  Al5  1  0.230925  0.230925  0.000000  1
  Rh  Rh6  1  0.344714  0.653513  0.000000  1
  Rh  Rh7  1  0.653513  0.344714  0.000000  1
  Rh  Rh8  1  0.020702  0.020702  0.500000  1
