# generated using pymatgen
data_Tb6DyTm(InRh)2
_symmetry_space_group_name_H-M   'P 1'
_cell_length_a   9.67667343
_cell_length_b   9.67215916
_cell_length_c   9.68510139
_cell_angle_alpha   60.04419341
_cell_angle_beta   60.23595971
_cell_angle_gamma   60.01543886
_symmetry_Int_Tables_number   1
_chemical_formula_structural   Tb6DyTm(InRh)2
_chemical_formula_sum   'Tb12 Dy2 Tm2 In4 Rh4'
_cell_volume   642.39684243
_cell_formula_units_Z   2
loop_
 _symmetry_equiv_pos_site_id
 _symmetry_equiv_pos_as_xyz
  1  'x, y, z'
loop_
 _atom_site_type_symbol
 _atom_site_label
 _atom_site_symmetry_multiplicity
 _atom_site_fract_x
 _atom_site_fract_y
 _atom_site_fract_z
 _atom_site_occupancy
  Tb  Tb0  1  0.312791  0.688638  0.309933  1
  Tb  Tb1  1  0.935634  0.939470  0.561579  1
  Tb  Tb2  1  0.148094  0.151232  0.549441  1
  Tb  Tb3  1  0.560881  0.939987  0.559145  1
  Tb  Tb4  1  0.149193  0.152432  0.151371  1
  Tb  Tb5  1  0.312291  0.309539  0.689373  1
  Tb  Tb6  1  0.935634  0.563319  0.561579  1
  Tb  Tb7  1  0.561233  0.561233  0.938841  1
  Tb  Tb8  1  0.561233  0.938693  0.938841  1
  Tb  Tb9  1  0.934933  0.563141  0.938785  1
  Tb  Tb10  1  0.149193  0.547002  0.151371  1
  Tb  Tb11  1  0.312291  0.688797  0.689373  1
  Dy  Dy12  1  0.689338  0.311205  0.688252  1
  Dy  Dy13  1  0.552113  0.149777  0.148334  1
  Tm  Tm14  1  0.690048  0.310763  0.310776  1
  Tm  Tm15  1  0.690048  0.688413  0.310776  1
  In  In16  1  0.917833  0.917054  0.248058  1
  In  In17  1  0.247409  0.917295  0.918001  1
  In  In18  1  0.917426  0.247829  0.917755  1
  In  In19  1  0.917426  0.916990  0.917755  1
  Rh  Rh20  1  0.361294  0.355005  0.357464  1
  Rh  Rh21  1  0.923330  0.359221  0.358230  1
  Rh  Rh22  1  0.359038  0.356729  0.927504  1
  Rh  Rh23  1  0.361294  0.926238  0.357464  1
