# generated using pymatgen
data_Tb5YAl20(SiOs2)4
_symmetry_space_group_name_H-M   'P 1'
_cell_length_a   8.70021700
_cell_length_b   8.70046399
_cell_length_c   9.64247400
_cell_angle_alpha   90.00000000
_cell_angle_beta   90.00000000
_cell_angle_gamma   119.99904954
_symmetry_Int_Tables_number   1
_chemical_formula_structural   Tb5YAl20(SiOs2)4
_chemical_formula_sum   'Tb5 Y1 Al20 Si4 Os8'
_cell_volume   632.11451957
_cell_formula_units_Z   1
loop_
 _symmetry_equiv_pos_site_id
 _symmetry_equiv_pos_as_xyz
  1  'x, y, z'
loop_
 _atom_site_type_symbol
 _atom_site_label
 _atom_site_symmetry_multiplicity
 _atom_site_fract_x
 _atom_site_fract_y
 _atom_site_fract_z
 _atom_site_occupancy
  Tb  Tb0  1  0.804855  0.609709  0.750000  1
  Tb  Tb1  1  0.609712  0.804842  0.250000  1
  Tb  Tb2  1  0.390283  0.195151  0.750000  1
  Tb  Tb3  1  0.195130  0.804842  0.250000  1
  Tb  Tb4  1  0.804868  0.195151  0.750000  1
  Y  Y5  1  0.195227  0.390453  0.250000  1
  Al  Al6  1  0.164940  0.329879  0.576770  1
  Al  Al7  1  0.835066  0.670132  0.423230  1
  Al  Al8  1  0.670128  0.835059  0.576769  1
  Al  Al9  1  0.835066  0.670132  0.076770  1
  Al  Al10  1  0.329871  0.164945  0.423241  1
  Al  Al11  1  0.164940  0.329879  0.923230  1
  Al  Al12  1  0.164932  0.835059  0.576769  1
  Al  Al13  1  0.329871  0.164945  0.076759  1
  Al  Al14  1  0.835073  0.164945  0.423241  1
  Al  Al15  1  0.670128  0.835059  0.923231  1
  Al  Al16  1  0.835073  0.164945  0.076759  1
  Al  Al17  1  0.164932  0.835059  0.923231  1
  Al  Al18  1  0.563861  0.127724  0.250000  1
  Al  Al19  1  0.436139  0.872278  0.750000  1
  Al  Al20  1  0.872329  0.436148  0.250000  1
  Al  Al21  1  0.127717  0.563854  0.750000  1
  Al  Al22  1  0.563819  0.436148  0.250000  1
  Al  Al23  1  0.436138  0.563854  0.750000  1
  Al  Al24  1  0.999983  0.999965  0.250000  1
  Al  Al25  1  0.000000  0.999999  0.750000  1
  Si  Si26  1  0.333303  0.666608  0.037175  1
  Si  Si27  1  0.666667  0.333334  0.962838  1
  Si  Si28  1  0.666667  0.333334  0.537162  1
  Si  Si29  1  0.333303  0.666608  0.462825  1
  Os  Os30  1  0.499996  0.999991  0.000012  1
  Os  Os31  1  0.000007  0.499981  0.000009  1
  Os  Os32  1  0.499996  0.999991  0.499988  1
  Os  Os33  1  0.499974  0.499981  0.000009  1
  Os  Os34  1  0.000007  0.499981  0.499991  1
  Os  Os35  1  0.499974  0.499981  0.499991  1
  Os  Os36  1  0.000014  0.000027  0.000034  1
  Os  Os37  1  0.000014  0.000027  0.499966  1
