# generated using pymatgen
data_Hf6MnAl16(Cu2Ir)2
_symmetry_space_group_name_H-M   'P 1'
_cell_length_a   8.65101617
_cell_length_b   8.65101662
_cell_length_c   8.59125500
_cell_angle_alpha   60.22825063
_cell_angle_beta   60.22824890
_cell_angle_gamma   59.54348711
_symmetry_Int_Tables_number   1
_chemical_formula_structural   Hf6MnAl16(Cu2Ir)2
_chemical_formula_sum   'Hf6 Mn1 Al16 Cu4 Ir2'
_cell_volume   454.60548388
_cell_formula_units_Z   1
loop_
 _symmetry_equiv_pos_site_id
 _symmetry_equiv_pos_as_xyz
  1  'x, y, z'
loop_
 _atom_site_type_symbol
 _atom_site_label
 _atom_site_symmetry_multiplicity
 _atom_site_fract_x
 _atom_site_fract_y
 _atom_site_fract_z
 _atom_site_occupancy
  Hf  Hf0  1  0.686691  0.313309  0.313309  1
  Hf  Hf1  1  0.313309  0.686691  0.686691  1
  Hf  Hf2  1  0.313309  0.686691  0.313309  1
  Hf  Hf3  1  0.686691  0.313309  0.686691  1
  Hf  Hf4  1  0.306499  0.306499  0.693501  1
  Hf  Hf5  1  0.693501  0.693501  0.306499  1
  Mn  Mn6  1  0.000000  0.000000  0.000000  1
  Al  Al7  1  0.332286  0.332286  0.336662  1
  Al  Al8  1  0.667714  0.667714  0.663338  1
  Al  Al9  1  0.332286  0.332286  0.998765  1
  Al  Al10  1  0.336662  0.998765  0.332286  1
  Al  Al11  1  0.667714  0.667714  0.001235  1
  Al  Al12  1  0.663338  0.001235  0.667714  1
  Al  Al13  1  0.998765  0.336662  0.332286  1
  Al  Al14  1  0.001235  0.663338  0.667714  1
  Al  Al15  1  0.113205  0.113205  0.121634  1
  Al  Al16  1  0.886795  0.886795  0.878366  1
  Al  Al17  1  0.113205  0.113205  0.651954  1
  Al  Al18  1  0.121634  0.651954  0.113205  1
  Al  Al19  1  0.886795  0.886795  0.348046  1
  Al  Al20  1  0.878366  0.348046  0.886795  1
  Al  Al21  1  0.651954  0.121634  0.113205  1
  Al  Al22  1  0.348046  0.878366  0.886795  1
  Cu  Cu23  1  0.500000  0.000000  0.000000  1
  Cu  Cu24  1  0.000000  0.500000  0.500000  1
  Cu  Cu25  1  0.000000  0.500000  0.000000  1
  Cu  Cu26  1  0.500000  0.000000  0.500000  1
  Ir  Ir27  1  0.000000  0.000000  0.500000  1
  Ir  Ir28  1  0.500000  0.500000  0.000000  1
