# generated using pymatgen
data_Nd6Ir15Pt2Rh
_symmetry_space_group_name_H-M   'P 1'
_cell_length_a   5.39058500
_cell_length_b   5.39054767
_cell_length_c   17.66119800
_cell_angle_alpha   90.00000000
_cell_angle_beta   90.00000000
_cell_angle_gamma   120.00037670
_symmetry_Int_Tables_number   1
_chemical_formula_structural   Nd6Ir15Pt2Rh
_chemical_formula_sum   'Nd6 Ir15 Pt2 Rh1'
_cell_volume   444.44490495
_cell_formula_units_Z   1
loop_
 _symmetry_equiv_pos_site_id
 _symmetry_equiv_pos_as_xyz
  1  'x, y, z'
loop_
 _atom_site_type_symbol
 _atom_site_label
 _atom_site_symmetry_multiplicity
 _atom_site_fract_x
 _atom_site_fract_y
 _atom_site_fract_z
 _atom_site_occupancy
  Nd  Nd0  1  0.333332  0.666665  0.539443  1
  Nd  Nd1  1  0.666668  0.333335  0.041520  1
  Nd  Nd2  1  0.666668  0.333335  0.458480  1
  Nd  Nd3  1  0.333332  0.666665  0.960557  1
  Nd  Nd4  1  0.333331  0.666668  0.750000  1
  Nd  Nd5  1  0.666672  0.333333  0.250000  1
  Ir  Ir6  1  0.167047  0.334089  0.127565  1
  Ir  Ir7  1  0.832582  0.665166  0.624885  1
  Ir  Ir8  1  0.665911  0.832953  0.127565  1
  Ir  Ir9  1  0.167044  0.832954  0.127561  1
  Ir  Ir10  1  0.832583  0.167421  0.624884  1
  Ir  Ir11  1  0.334837  0.167421  0.624885  1
  Ir  Ir12  1  0.832582  0.665166  0.875115  1
  Ir  Ir13  1  0.832583  0.167421  0.875116  1
  Ir  Ir14  1  0.334837  0.167421  0.875115  1
  Ir  Ir15  1  0.665911  0.832953  0.372435  1
  Ir  Ir16  1  0.167044  0.832954  0.372439  1
  Ir  Ir17  1  0.167047  0.334089  0.372435  1
  Ir  Ir18  1  0.000011  0.999995  0.250000  1
  Ir  Ir19  1  0.999998  0.999999  0.000168  1
  Ir  Ir20  1  0.999998  0.999999  0.499832  1
  Pt  Pt21  1  0.999995  0.999999  0.750000  1
  Pt  Pt22  1  0.666669  0.333336  0.750000  1
  Rh  Rh23  1  0.333323  0.666666  0.250000  1
