# generated using pymatgen
data_PaTiBr6
_symmetry_space_group_name_H-M   'P 1'
_cell_length_a   8.08951495
_cell_length_b   8.08951500
_cell_length_c   8.08951451
_cell_angle_alpha   49.52642359
_cell_angle_beta   49.52642149
_cell_angle_gamma   49.52642153
_symmetry_Int_Tables_number   1
_chemical_formula_structural   PaTiBr6
_chemical_formula_sum   'Pa1 Ti1 Br6'
_cell_volume   281.60964103
_cell_formula_units_Z   1
loop_
 _symmetry_equiv_pos_site_id
 _symmetry_equiv_pos_as_xyz
  1  'x, y, z'
loop_
 _atom_site_type_symbol
 _atom_site_label
 _atom_site_symmetry_multiplicity
 _atom_site_fract_x
 _atom_site_fract_y
 _atom_site_fract_z
 _atom_site_occupancy
  Pa  Pa0  1  0.333395  0.333395  0.333395  1
  Ti  Ti1  1  0.666635  0.666635  0.666635  1
  Br  Br2  1  0.429407  0.741850  0.056962  1
  Br  Br3  1  0.277284  0.905027  0.589440  1
  Br  Br4  1  0.589440  0.277284  0.905027  1
  Br  Br5  1  0.056962  0.429407  0.741850  1
  Br  Br6  1  0.905027  0.589440  0.277284  1
  Br  Br7  1  0.741850  0.056962  0.429407  1
