# generated using pymatgen
data_Gd4InGePd4
_symmetry_space_group_name_H-M   'P 1'
_cell_length_a   7.69220858
_cell_length_b   7.68302559
_cell_length_c   3.78505900
_cell_angle_alpha   90.00000000
_cell_angle_beta   90.00000000
_cell_angle_gamma   89.85005306
_symmetry_Int_Tables_number   1
_chemical_formula_structural   Gd4InGePd4
_chemical_formula_sum   'Gd4 In1 Ge1 Pd4'
_cell_volume   223.69408347
_cell_formula_units_Z   1
loop_
 _symmetry_equiv_pos_site_id
 _symmetry_equiv_pos_as_xyz
  1  'x, y, z'
loop_
 _atom_site_type_symbol
 _atom_site_label
 _atom_site_symmetry_multiplicity
 _atom_site_fract_x
 _atom_site_fract_y
 _atom_site_fract_z
 _atom_site_occupancy
  Gd  Gd0  1  0.308050  0.840367  0.500000  1
  Gd  Gd1  1  0.839985  0.692396  0.500000  1
  Gd  Gd2  1  0.160015  0.307604  0.500000  1
  Gd  Gd3  1  0.691950  0.159633  0.500000  1
  In  In4  1  0.500000  0.500000  0.000000  1
  Ge  Ge5  1  0.000000  0.000000  0.000000  1
  Pd  Pd6  1  0.381390  0.135577  0.000000  1
  Pd  Pd7  1  0.864384  0.381623  0.000000  1
  Pd  Pd8  1  0.135616  0.618377  0.000000  1
  Pd  Pd9  1  0.618610  0.864423  0.000000  1
