# generated using pymatgen
data_CsHfScSe4
_symmetry_space_group_name_H-M   'P 1'
_cell_length_a   9.50405391
_cell_length_b   9.50405463
_cell_length_c   6.63642195
_cell_angle_alpha   71.60541525
_cell_angle_beta   71.60541330
_cell_angle_gamma   24.10606561
_symmetry_Int_Tables_number   1
_chemical_formula_structural   CsHfScSe4
_chemical_formula_sum   'Cs1 Hf1 Sc1 Se4'
_cell_volume   231.73510287
_cell_formula_units_Z   1
loop_
 _symmetry_equiv_pos_site_id
 _symmetry_equiv_pos_as_xyz
  1  'x, y, z'
loop_
 _atom_site_type_symbol
 _atom_site_label
 _atom_site_symmetry_multiplicity
 _atom_site_fract_x
 _atom_site_fract_y
 _atom_site_fract_z
 _atom_site_occupancy
  Cs  Cs0  1  0.499356  0.499356  0.479385  1
  Hf  Hf1  1  0.753052  0.753052  0.246125  1
  Sc  Sc2  1  0.246836  0.246836  0.758878  1
  Se  Se3  1  0.338703  0.338703  0.010901  1
  Se  Se4  1  0.663134  0.663134  0.004271  1
  Se  Se5  1  0.834443  0.834443  0.510771  1
  Se  Se6  1  0.164476  0.164476  0.489668  1
