# generated using pymatgen
data_Dy4Er4Tc3B24Ru
_symmetry_space_group_name_H-M   'P 1'
_cell_length_a   3.66486900
_cell_length_b   9.12890713
_cell_length_c   11.51697400
_cell_angle_alpha   89.91873412
_cell_angle_beta   90.00000000
_cell_angle_gamma   90.00000000
_symmetry_Int_Tables_number   1
_chemical_formula_structural   Dy4Er4Tc3B24Ru
_chemical_formula_sum   'Dy4 Er4 Tc3 B24 Ru1'
_cell_volume   385.31435930
_cell_formula_units_Z   1
loop_
 _symmetry_equiv_pos_site_id
 _symmetry_equiv_pos_as_xyz
  1  'x, y, z'
loop_
 _atom_site_type_symbol
 _atom_site_label
 _atom_site_symmetry_multiplicity
 _atom_site_fract_x
 _atom_site_fract_y
 _atom_site_fract_z
 _atom_site_occupancy
  Dy  Dy0  1  0.000000  0.323381  0.413973  1
  Dy  Dy1  1  0.000000  0.675306  0.584168  1
  Dy  Dy2  1  0.000000  0.822930  0.087244  1
  Dy  Dy3  1  0.000000  0.178065  0.914515  1
  Er  Er4  1  0.000000  0.942699  0.370296  1
  Er  Er5  1  0.000000  0.057679  0.630609  1
  Er  Er6  1  0.000000  0.443146  0.129979  1
  Er  Er7  1  0.000000  0.557693  0.869222  1
  Tc  Tc8  1  0.000000  0.638876  0.320047  1
  Tc  Tc9  1  0.000000  0.361314  0.680412  1
  Tc  Tc10  1  0.000000  0.138380  0.178692  1
  B  B11  1  0.500000  0.553155  0.432654  1
  B  B12  1  0.500000  0.446533  0.567010  1
  B  B13  1  0.500000  0.053193  0.067025  1
  B  B14  1  0.500000  0.945970  0.932580  1
  B  B15  1  0.500000  0.749014  0.418586  1
  B  B16  1  0.500000  0.250300  0.581600  1
  B  B17  1  0.500000  0.249687  0.081374  1
  B  B18  1  0.500000  0.750997  0.918228  1
  B  B19  1  0.500000  0.792082  0.265551  1
  B  B20  1  0.500000  0.208117  0.735175  1
  B  B21  1  0.500000  0.292033  0.234624  1
  B  B22  1  0.500000  0.708947  0.765224  1
  B  B23  1  0.500000  0.630792  0.185313  1
  B  B24  1  0.500000  0.369312  0.815232  1
  B  B25  1  0.500000  0.130219  0.314352  1
  B  B26  1  0.500000  0.869130  0.685447  1
  B  B27  1  0.500000  0.981756  0.212085  1
  B  B28  1  0.500000  0.016740  0.788094  1
  B  B29  1  0.500000  0.482114  0.287691  1
  B  B30  1  0.500000  0.517778  0.711931  1
  B  B31  1  0.500000  0.601370  0.027753  1
  B  B32  1  0.500000  0.400315  0.971900  1
  B  B33  1  0.500000  0.100596  0.472382  1
  B  B34  1  0.500000  0.899095  0.528473  1
  Ru  Ru35  1  0.000000  0.861288  0.820559  1
