# generated using pymatgen
data_EuHoSn5Rh3
_symmetry_space_group_name_H-M   'P 1'
_cell_length_a   13.63848375
_cell_length_b   13.63848386
_cell_length_c   7.22484300
_cell_angle_alpha   90.00000000
_cell_angle_beta   90.00000000
_cell_angle_gamma   160.96850686
_symmetry_Int_Tables_number   1
_chemical_formula_structural   EuHoSn5Rh3
_chemical_formula_sum   'Eu2 Ho2 Sn10 Rh6'
_cell_volume   438.22300603
_cell_formula_units_Z   2
loop_
 _symmetry_equiv_pos_site_id
 _symmetry_equiv_pos_as_xyz
  1  'x, y, z'
loop_
 _atom_site_type_symbol
 _atom_site_label
 _atom_site_symmetry_multiplicity
 _atom_site_fract_x
 _atom_site_fract_y
 _atom_site_fract_z
 _atom_site_occupancy
  Eu  Eu0  1  0.171606  0.828394  0.746927  1
  Eu  Eu1  1  0.828394  0.171606  0.246927  1
  Ho  Ho2  1  0.476212  0.523788  0.761026  1
  Ho  Ho3  1  0.523788  0.476212  0.261026  1
  Sn  Sn4  1  0.879371  0.120629  0.763720  1
  Sn  Sn5  1  0.120629  0.879371  0.263720  1
  Sn  Sn6  1  0.703997  0.296003  0.452552  1
  Sn  Sn7  1  0.296003  0.703997  0.952552  1
  Sn  Sn8  1  0.595184  0.404816  0.889542  1
  Sn  Sn9  1  0.404816  0.595184  0.389542  1
  Sn  Sn10  1  0.952689  0.047311  0.100989  1
  Sn  Sn11  1  0.047311  0.952689  0.600989  1
  Sn  Sn12  1  0.289550  0.710450  0.524213  1
  Sn  Sn13  1  0.710450  0.289550  0.024213  1
  Rh  Rh14  1  0.049089  0.950911  0.985661  1
  Rh  Rh15  1  0.950911  0.049089  0.485661  1
  Rh  Rh16  1  0.777906  0.222094  0.736427  1
  Rh  Rh17  1  0.222094  0.777906  0.236427  1
  Rh  Rh18  1  0.397058  0.602942  0.010943  1
  Rh  Rh19  1  0.602942  0.397058  0.510943  1
