# generated using pymatgen
data_Ho16In6PtRh
_symmetry_space_group_name_H-M   'P 1'
_cell_length_a   10.44371100
_cell_length_b   10.44371209
_cell_length_c   6.98986300
_cell_angle_alpha   90.00000000
_cell_angle_beta   90.00000000
_cell_angle_gamma   119.99999973
_symmetry_Int_Tables_number   1
_chemical_formula_structural   Ho16In6PtRh
_chemical_formula_sum   'Ho16 In6 Pt1 Rh1'
_cell_volume   660.25094677
_cell_formula_units_Z   1
loop_
 _symmetry_equiv_pos_site_id
 _symmetry_equiv_pos_as_xyz
  1  'x, y, z'
loop_
 _atom_site_type_symbol
 _atom_site_label
 _atom_site_symmetry_multiplicity
 _atom_site_fract_x
 _atom_site_fract_y
 _atom_site_fract_z
 _atom_site_occupancy
  Ho  Ho0  1  0.530511  0.061020  0.508080  1
  Ho  Ho1  1  0.938980  0.469489  0.508080  1
  Ho  Ho2  1  0.530511  0.469489  0.508080  1
  Ho  Ho3  1  0.466812  0.933625  0.007668  1
  Ho  Ho4  1  0.066375  0.533188  0.007668  1
  Ho  Ho5  1  0.466812  0.533188  0.007668  1
  Ho  Ho6  1  0.176260  0.352518  0.713846  1
  Ho  Ho7  1  0.647482  0.823740  0.713846  1
  Ho  Ho8  1  0.176260  0.823740  0.713846  1
  Ho  Ho9  1  0.824571  0.649142  0.213712  1
  Ho  Ho10  1  0.350858  0.175429  0.213712  1
  Ho  Ho11  1  0.824571  0.175429  0.213712  1
  Ho  Ho12  1  0.666667  0.333333  0.883839  1
  Ho  Ho13  1  0.333333  0.666667  0.387536  1
  Ho  Ho14  1  0.000000  0.000000  0.490220  1
  Ho  Ho15  1  0.000000  0.000000  0.990903  1
  In  In16  1  0.837320  0.674642  0.751405  1
  In  In17  1  0.325358  0.162680  0.751405  1
  In  In18  1  0.837320  0.162680  0.751405  1
  In  In19  1  0.162574  0.325148  0.252425  1
  In  In20  1  0.674852  0.837426  0.252425  1
  In  In21  1  0.162574  0.837426  0.252425  1
  Pt  Pt22  1  0.666667  0.333333  0.281848  1
  Rh  Rh23  1  0.333333  0.666667  0.782289  1
