# generated using pymatgen
data_Li8Er8Sn5Sb3
_symmetry_space_group_name_H-M   'P 1'
_cell_length_a   9.35446538
_cell_length_b   9.35265253
_cell_length_c   7.12314618
_cell_angle_alpha   90.09207222
_cell_angle_beta   89.90388390
_cell_angle_gamma   120.08257242
_symmetry_Int_Tables_number   1
_chemical_formula_structural   Li8Er8Sn5Sb3
_chemical_formula_sum   'Li8 Er8 Sn5 Sb3'
_cell_volume   539.25418067
_cell_formula_units_Z   1
loop_
 _symmetry_equiv_pos_site_id
 _symmetry_equiv_pos_as_xyz
  1  'x, y, z'
loop_
 _atom_site_type_symbol
 _atom_site_label
 _atom_site_symmetry_multiplicity
 _atom_site_fract_x
 _atom_site_fract_y
 _atom_site_fract_z
 _atom_site_occupancy
  Li  Li0  1  0.165489  0.333002  0.212837  1
  Li  Li1  1  0.166859  0.833381  0.212529  1
  Li  Li2  1  0.667155  0.834698  0.212912  1
  Li  Li3  1  0.667460  0.332690  0.327804  1
  Li  Li4  1  0.832994  0.666346  0.714274  1
  Li  Li5  1  0.333655  0.167036  0.714258  1
  Li  Li6  1  0.833138  0.166936  0.713464  1
  Li  Li7  1  0.333378  0.666573  0.825729  1
  Er  Er8  1  0.998987  0.000928  0.995607  1
  Er  Er9  1  0.512961  0.024028  0.004641  1
  Er  Er10  1  0.511175  0.488753  0.004366  1
  Er  Er11  1  0.976048  0.487209  0.004779  1
  Er  Er12  1  0.999262  0.000713  0.501113  1
  Er  Er13  1  0.491165  0.978236  0.510088  1
  Er  Er14  1  0.021854  0.509138  0.509980  1
  Er  Er15  1  0.488678  0.511309  0.511190  1
  Sn  Sn16  1  0.833195  0.166803  0.267912  1
  Sn  Sn17  1  0.666198  0.333805  0.741463  1
  Sn  Sn18  1  0.167219  0.333941  0.766199  1
  Sn  Sn19  1  0.167029  0.832890  0.766638  1
  Sn  Sn20  1  0.665924  0.832553  0.766321  1
  Sb  Sb21  1  0.333840  0.665792  0.242231  1
  Sb  Sb22  1  0.831770  0.665233  0.265769  1
  Sb  Sb23  1  0.334566  0.168005  0.265882  1
