# generated using pymatgen
data_CeY7(Si3Pd)4
_symmetry_space_group_name_H-M   'P 1'
_cell_length_a   8.17345400
_cell_length_b   8.17345367
_cell_length_c   8.20084400
_cell_angle_alpha   90.00000000
_cell_angle_beta   90.00000000
_cell_angle_gamma   119.99999323
_symmetry_Int_Tables_number   1
_chemical_formula_structural   CeY7(Si3Pd)4
_chemical_formula_sum   'Ce1 Y7 Si12 Pd4'
_cell_volume   474.46091286
_cell_formula_units_Z   1
loop_
 _symmetry_equiv_pos_site_id
 _symmetry_equiv_pos_as_xyz
  1  'x, y, z'
loop_
 _atom_site_type_symbol
 _atom_site_label
 _atom_site_symmetry_multiplicity
 _atom_site_fract_x
 _atom_site_fract_y
 _atom_site_fract_z
 _atom_site_occupancy
  Ce  Ce0  1  0.000000  0.000000  0.250000  1
  Y  Y1  1  0.499430  0.500570  0.750000  1
  Y  Y2  1  0.500565  0.499435  0.250000  1
  Y  Y3  1  0.001141  0.500570  0.750000  1
  Y  Y4  1  0.998869  0.499435  0.250000  1
  Y  Y5  1  0.499430  0.998859  0.750000  1
  Y  Y6  1  0.500565  0.001131  0.250000  1
  Y  Y7  1  0.000000  0.000000  0.750000  1
  Si  Si8  1  0.834375  0.165625  0.999177  1
  Si  Si9  1  0.165604  0.834396  0.999863  1
  Si  Si10  1  0.331251  0.165625  0.999177  1
  Si  Si11  1  0.165604  0.834396  0.500137  1
  Si  Si12  1  0.668792  0.834396  0.999863  1
  Si  Si13  1  0.834375  0.165625  0.500823  1
  Si  Si14  1  0.834375  0.668749  0.999177  1
  Si  Si15  1  0.668792  0.834396  0.500137  1
  Si  Si16  1  0.165604  0.331208  0.999863  1
  Si  Si17  1  0.331251  0.165625  0.500823  1
  Si  Si18  1  0.165604  0.331208  0.500137  1
  Si  Si19  1  0.834375  0.668749  0.500823  1
  Pd  Pd20  1  0.666667  0.333333  0.997753  1
  Pd  Pd21  1  0.333333  0.666667  0.000561  1
  Pd  Pd22  1  0.333333  0.666667  0.499439  1
  Pd  Pd23  1  0.666667  0.333333  0.502247  1
