# generated using pymatgen
data_TbEu7Cu3Si12Pd
_symmetry_space_group_name_H-M   'P 1'
_cell_length_a   8.21168200
_cell_length_b   8.21168094
_cell_length_c   8.69275400
_cell_angle_alpha   90.00000000
_cell_angle_beta   90.00000000
_cell_angle_gamma   120.00000426
_symmetry_Int_Tables_number   1
_chemical_formula_structural   TbEu7Cu3Si12Pd
_chemical_formula_sum   'Tb1 Eu7 Cu3 Si12 Pd1'
_cell_volume   507.63574170
_cell_formula_units_Z   1
loop_
 _symmetry_equiv_pos_site_id
 _symmetry_equiv_pos_as_xyz
  1  'x, y, z'
loop_
 _atom_site_type_symbol
 _atom_site_label
 _atom_site_symmetry_multiplicity
 _atom_site_fract_x
 _atom_site_fract_y
 _atom_site_fract_z
 _atom_site_occupancy
  Tb  Tb0  1  0.000000  0.000000  0.749757  1
  Eu  Eu1  1  0.499856  0.999710  0.251325  1
  Eu  Eu2  1  0.499949  0.999899  0.748829  1
  Eu  Eu3  1  0.000290  0.500144  0.251325  1
  Eu  Eu4  1  0.000101  0.500051  0.748829  1
  Eu  Eu5  1  0.499856  0.500144  0.251325  1
  Eu  Eu6  1  0.499949  0.500051  0.748829  1
  Eu  Eu7  1  0.000000  0.000000  0.249363  1
  Cu  Cu8  1  0.333333  0.666667  0.998829  1
  Cu  Cu9  1  0.666667  0.333333  0.998387  1
  Cu  Cu10  1  0.666667  0.333333  0.501372  1
  Si  Si11  1  0.167298  0.334596  0.997279  1
  Si  Si12  1  0.833008  0.666016  0.997758  1
  Si  Si13  1  0.665404  0.832702  0.997279  1
  Si  Si14  1  0.833917  0.667832  0.502102  1
  Si  Si15  1  0.333984  0.166992  0.997758  1
  Si  Si16  1  0.164658  0.329317  0.503174  1
  Si  Si17  1  0.167298  0.832702  0.997279  1
  Si  Si18  1  0.332168  0.166083  0.502102  1
  Si  Si19  1  0.833008  0.166992  0.997758  1
  Si  Si20  1  0.670683  0.835342  0.503174  1
  Si  Si21  1  0.833917  0.166083  0.502102  1
  Si  Si22  1  0.164658  0.835342  0.503174  1
  Pd  Pd23  1  0.333333  0.666667  0.500891  1
