# generated using pymatgen
data_PrEr2(ZnPt)4
_symmetry_space_group_name_H-M   'P 1'
_cell_length_a   8.23692570
_cell_length_b   8.23692560
_cell_length_c   8.23692508
_cell_angle_alpha   151.77740256
_cell_angle_beta   125.18709853
_cell_angle_gamma   62.78277769
_symmetry_Int_Tables_number   1
_chemical_formula_structural   PrEr2(ZnPt)4
_chemical_formula_sum   'Pr1 Er2 Zn4 Pt4'
_cell_volume   214.14611326
_cell_formula_units_Z   1
loop_
 _symmetry_equiv_pos_site_id
 _symmetry_equiv_pos_as_xyz
  1  'x, y, z'
loop_
 _atom_site_type_symbol
 _atom_site_label
 _atom_site_symmetry_multiplicity
 _atom_site_fract_x
 _atom_site_fract_y
 _atom_site_fract_z
 _atom_site_occupancy
  Pr  Pr0  1  0.500000  0.000000  0.500000  1
  Er  Er1  1  0.875925  0.875925  0.000000  1
  Er  Er2  1  0.124075  0.124075  0.000000  1
  Zn  Zn3  1  0.477096  0.674389  0.802707  1
  Zn  Zn4  1  0.871681  0.674389  0.197293  1
  Zn  Zn5  1  0.128319  0.325611  0.802707  1
  Zn  Zn6  1  0.522904  0.325611  0.197293  1
  Pt  Pt7  1  0.274660  0.774660  0.500000  1
  Pt  Pt8  1  0.725340  0.225340  0.500000  1
  Pt  Pt9  1  0.812205  0.500000  0.312205  1
  Pt  Pt10  1  0.187795  0.500000  0.687795  1
