# generated using pymatgen
data_Tb2Dy3Y3(Sc3Tl4)4
_symmetry_space_group_name_H-M   'P 1'
_cell_length_a   7.70397706
_cell_length_b   8.03825701
_cell_length_c   15.14878651
_cell_angle_alpha   90.00481676
_cell_angle_beta   90.03062448
_cell_angle_gamma   89.99928849
_symmetry_Int_Tables_number   1
_chemical_formula_structural   Tb2Dy3Y3(Sc3Tl4)4
_chemical_formula_sum   'Tb2 Dy3 Y3 Sc12 Tl16'
_cell_volume   938.11191128
_cell_formula_units_Z   1
loop_
 _symmetry_equiv_pos_site_id
 _symmetry_equiv_pos_as_xyz
  1  'x, y, z'
loop_
 _atom_site_type_symbol
 _atom_site_label
 _atom_site_symmetry_multiplicity
 _atom_site_fract_x
 _atom_site_fract_y
 _atom_site_fract_z
 _atom_site_occupancy
  Tb  Tb0  1  0.999946  0.817211  0.592947  1
  Tb  Tb1  1  0.499833  0.317421  0.093210  1
  Dy  Dy2  1  0.999671  0.183231  0.406783  1
  Dy  Dy3  1  0.499621  0.316800  0.406768  1
  Dy  Dy4  1  0.500150  0.682975  0.593077  1
  Y  Y5  1  0.999637  0.182512  0.093234  1
  Y  Y6  1  0.000491  0.817368  0.906673  1
  Y  Y7  1  0.500545  0.682720  0.906819  1
  Sc  Sc8  1  0.162858  0.497131  0.749928  1
  Sc  Sc9  1  0.837090  0.502683  0.250145  1
  Sc  Sc10  1  0.337166  0.997217  0.250101  1
  Sc  Sc11  1  0.662956  0.002790  0.749989  1
  Sc  Sc12  1  0.332382  0.159848  0.625566  1
  Sc  Sc13  1  0.667981  0.840160  0.374669  1
  Sc  Sc14  1  0.168233  0.659870  0.374469  1
  Sc  Sc15  1  0.668140  0.840318  0.125581  1
  Sc  Sc16  1  0.831992  0.340181  0.625484  1
  Sc  Sc17  1  0.332053  0.159807  0.874411  1
  Sc  Sc18  1  0.832075  0.340357  0.874481  1
  Sc  Sc19  1  0.167605  0.659806  0.125613  1
  Tl  Tl20  1  0.023399  0.124096  0.749878  1
  Tl  Tl21  1  0.976667  0.875970  0.250329  1
  Tl  Tl22  1  0.476734  0.623966  0.250166  1
  Tl  Tl23  1  0.523321  0.376032  0.749867  1
  Tl  Tl24  1  0.298213  0.855158  0.749819  1
  Tl  Tl25  1  0.702233  0.144688  0.250284  1
  Tl  Tl26  1  0.202001  0.355170  0.250391  1
  Tl  Tl27  1  0.797662  0.644653  0.749778  1
  Tl  Tl28  1  0.181422  0.458929  0.542234  1
  Tl  Tl29  1  0.818480  0.540433  0.457528  1
  Tl  Tl30  1  0.318677  0.959329  0.457597  1
  Tl  Tl31  1  0.819118  0.541072  0.042456  1
  Tl  Tl32  1  0.680749  0.041176  0.542273  1
  Tl  Tl33  1  0.180837  0.459033  0.957538  1
  Tl  Tl34  1  0.681047  0.041077  0.957478  1
  Tl  Tl35  1  0.319014  0.958812  0.042435  1
