# generated using pymatgen
data_Dy2PaTiSb5
_symmetry_space_group_name_H-M   'P 1'
_cell_length_a   9.20350500
_cell_length_b   9.19680534
_cell_length_c   6.19971300
_cell_angle_alpha   90.00000000
_cell_angle_beta   90.00000000
_cell_angle_gamma   120.02403960
_symmetry_Int_Tables_number   1
_chemical_formula_structural   Dy2PaTiSb5
_chemical_formula_sum   'Dy4 Pa2 Ti2 Sb10'
_cell_volume   454.34652390
_cell_formula_units_Z   2
loop_
 _symmetry_equiv_pos_site_id
 _symmetry_equiv_pos_as_xyz
  1  'x, y, z'
loop_
 _atom_site_type_symbol
 _atom_site_label
 _atom_site_symmetry_multiplicity
 _atom_site_fract_x
 _atom_site_fract_y
 _atom_site_fract_z
 _atom_site_occupancy
  Dy  Dy0  1  0.999867  0.615925  0.250000  1
  Dy  Dy1  1  0.000133  0.384075  0.750000  1
  Dy  Dy2  1  0.383942  0.384075  0.250000  1
  Dy  Dy3  1  0.616058  0.615925  0.750000  1
  Pa  Pa4  1  0.611843  0.000000  0.250000  1
  Pa  Pa5  1  0.388157  0.000000  0.750000  1
  Ti  Ti6  1  0.000000  0.000000  0.000000  1
  Ti  Ti7  1  0.000000  0.000000  0.500000  1
  Sb  Sb8  1  0.263833  0.000000  0.250000  1
  Sb  Sb9  1  0.736167  0.000000  0.750000  1
  Sb  Sb10  1  0.998987  0.259185  0.250000  1
  Sb  Sb11  1  0.001013  0.740815  0.750000  1
  Sb  Sb12  1  0.739802  0.740815  0.250000  1
  Sb  Sb13  1  0.260198  0.259185  0.750000  1
  Sb  Sb14  1  0.332857  0.665715  0.000000  1
  Sb  Sb15  1  0.667143  0.334285  0.000000  1
  Sb  Sb16  1  0.667143  0.334285  0.500000  1
  Sb  Sb17  1  0.332857  0.665715  0.500000  1
