# generated using pymatgen
data_Ho10InPb5
_symmetry_space_group_name_H-M   'P 1'
_cell_length_a   9.01181500
_cell_length_b   9.01401095
_cell_length_c   6.64803000
_cell_angle_alpha   90.00000000
_cell_angle_beta   90.00000000
_cell_angle_gamma   119.99194526
_symmetry_Int_Tables_number   1
_chemical_formula_structural   Ho10InPb5
_chemical_formula_sum   'Ho10 In1 Pb5'
_cell_volume   467.72350457
_cell_formula_units_Z   1
loop_
 _symmetry_equiv_pos_site_id
 _symmetry_equiv_pos_as_xyz
  1  'x, y, z'
loop_
 _atom_site_type_symbol
 _atom_site_label
 _atom_site_symmetry_multiplicity
 _atom_site_fract_x
 _atom_site_fract_y
 _atom_site_fract_z
 _atom_site_occupancy
  Ho  Ho0  1  0.335090  0.668770  0.001611  1
  Ho  Ho1  1  0.666320  0.331230  0.498389  1
  Ho  Ho2  1  0.666320  0.331230  0.001611  1
  Ho  Ho3  1  0.335090  0.668770  0.498389  1
  Ho  Ho4  1  0.238280  0.000000  0.250000  1
  Ho  Ho5  1  0.236958  0.236717  0.750000  1
  Ho  Ho6  1  0.000241  0.763283  0.750000  1
  Ho  Ho7  1  0.996740  0.234730  0.250000  1
  Ho  Ho8  1  0.762010  0.765270  0.250000  1
  Ho  Ho9  1  0.762727  0.000000  0.750000  1
  In  In10  1  0.604544  0.000000  0.250000  1
  Pb  Pb11  1  0.605286  0.604734  0.750000  1
  Pb  Pb12  1  0.000552  0.395266  0.750000  1
  Pb  Pb13  1  0.000097  0.605501  0.250000  1
  Pb  Pb14  1  0.394596  0.394499  0.250000  1
  Pb  Pb15  1  0.395150  0.000000  0.750000  1
