# generated using pymatgen
data_Er3Sc2Sn3
_symmetry_space_group_name_H-M   'P 1'
_cell_length_a   8.75503900
_cell_length_b   8.75503996
_cell_length_c   6.25159500
_cell_angle_alpha   90.00000000
_cell_angle_beta   90.00000000
_cell_angle_gamma   120.00000017
_symmetry_Int_Tables_number   1
_chemical_formula_structural   Er3Sc2Sn3
_chemical_formula_sum   'Er6 Sc4 Sn6'
_cell_volume   414.99004961
_cell_formula_units_Z   2
loop_
 _symmetry_equiv_pos_site_id
 _symmetry_equiv_pos_as_xyz
  1  'x, y, z'
loop_
 _atom_site_type_symbol
 _atom_site_label
 _atom_site_symmetry_multiplicity
 _atom_site_fract_x
 _atom_site_fract_y
 _atom_site_fract_z
 _atom_site_occupancy
  Er  Er0  1  0.000000  0.761041  0.750000  1
  Er  Er1  1  0.000000  0.238959  0.250000  1
  Er  Er2  1  0.761041  0.761041  0.250000  1
  Er  Er3  1  0.761041  0.000000  0.750000  1
  Er  Er4  1  0.238959  0.238959  0.750000  1
  Er  Er5  1  0.238959  0.000000  0.250000  1
  Sc  Sc6  1  0.333333  0.666667  0.500000  1
  Sc  Sc7  1  0.666667  0.333333  0.000000  1
  Sc  Sc8  1  0.666667  0.333333  0.500000  1
  Sc  Sc9  1  0.333333  0.666667  0.000000  1
  Sn  Sn10  1  0.399094  0.000000  0.750000  1
  Sn  Sn11  1  0.399094  0.399094  0.250000  1
  Sn  Sn12  1  0.000000  0.600906  0.250000  1
  Sn  Sn13  1  0.000000  0.399094  0.750000  1
  Sn  Sn14  1  0.600906  0.600906  0.750000  1
  Sn  Sn15  1  0.600906  0.000000  0.250000  1
