# generated using pymatgen
data_Tb6Y2Ti5Si16Mo7
_symmetry_space_group_name_H-M   'P 1'
_cell_length_a   6.95686524
_cell_length_b   6.94875296
_cell_length_c   12.87160302
_cell_angle_alpha   89.87971228
_cell_angle_beta   90.01829082
_cell_angle_gamma   90.03554457
_symmetry_Int_Tables_number   1
_chemical_formula_structural   Tb6Y2Ti5Si16Mo7
_chemical_formula_sum   'Tb6 Y2 Ti5 Si16 Mo7'
_cell_volume   622.23156356
_cell_formula_units_Z   1
loop_
 _symmetry_equiv_pos_site_id
 _symmetry_equiv_pos_as_xyz
  1  'x, y, z'
loop_
 _atom_site_type_symbol
 _atom_site_label
 _atom_site_symmetry_multiplicity
 _atom_site_fract_x
 _atom_site_fract_y
 _atom_site_fract_z
 _atom_site_occupancy
  Tb  Tb0  1  0.503080  0.159926  0.218347  1
  Tb  Tb1  1  0.840081  0.495826  0.281002  1
  Tb  Tb2  1  0.159556  0.502826  0.782955  1
  Tb  Tb3  1  0.659511  0.996552  0.968300  1
  Tb  Tb4  1  0.003408  0.340135  0.531898  1
  Tb  Tb5  1  0.995768  0.660622  0.031314  1
  Y  Y6  1  0.341002  0.003955  0.467107  1
  Y  Y7  1  0.496616  0.840570  0.718621  1
  Ti  Ti8  1  0.328855  0.329108  0.999455  1
  Ti  Ti9  1  0.170591  0.828399  0.250059  1
  Ti  Ti10  1  0.826995  0.172565  0.750414  1
  Ti  Ti11  1  0.670414  0.668676  0.499241  1
  Ti  Ti12  1  0.993462  0.841251  0.625388  1
  Si  Si13  1  0.201568  0.129078  0.684830  1
  Si  Si14  1  0.371960  0.700452  0.934782  1
  Si  Si15  1  0.629611  0.300611  0.434814  1
  Si  Si16  1  0.698787  0.371163  0.065312  1
  Si  Si17  1  0.301383  0.628809  0.564551  1
  Si  Si18  1  0.800262  0.871702  0.184613  1
  Si  Si19  1  0.127433  0.199821  0.315534  1
  Si  Si20  1  0.872446  0.800341  0.815195  1
  Si  Si21  1  0.288236  0.958148  0.062890  1
  Si  Si22  1  0.541939  0.788056  0.312775  1
  Si  Si23  1  0.457484  0.211514  0.812828  1
  Si  Si24  1  0.788412  0.543261  0.687435  1
  Si  Si25  1  0.211835  0.457827  0.186806  1
  Si  Si26  1  0.711122  0.043563  0.563395  1
  Si  Si27  1  0.957794  0.288430  0.937352  1
  Si  Si28  1  0.043947  0.711540  0.436960  1
  Mo  Mo29  1  0.159992  0.008876  0.875642  1
  Mo  Mo30  1  0.492122  0.658744  0.124631  1
  Mo  Mo31  1  0.507374  0.341176  0.623937  1
  Mo  Mo32  1  0.657483  0.491031  0.877223  1
  Mo  Mo33  1  0.342381  0.505397  0.374400  1
  Mo  Mo34  1  0.839894  0.991005  0.373818  1
  Mo  Mo35  1  0.007194  0.159043  0.126175  1
