# generated using pymatgen
data_Y2ErCoSn3Rh2
_symmetry_space_group_name_H-M   'P 1'
_cell_length_a   7.56531300
_cell_length_b   7.52570885
_cell_length_c   3.79372100
_cell_angle_alpha   90.00000000
_cell_angle_beta   90.00000000
_cell_angle_gamma   120.17422260
_symmetry_Int_Tables_number   1
_chemical_formula_structural   Y2ErCoSn3Rh2
_chemical_formula_sum   'Y2 Er1 Co1 Sn3 Rh2'
_cell_volume   186.72618041
_cell_formula_units_Z   1
loop_
 _symmetry_equiv_pos_site_id
 _symmetry_equiv_pos_as_xyz
  1  'x, y, z'
loop_
 _atom_site_type_symbol
 _atom_site_label
 _atom_site_symmetry_multiplicity
 _atom_site_fract_x
 _atom_site_fract_y
 _atom_site_fract_z
 _atom_site_occupancy
  Y  Y0  1  0.402914  0.403474  0.000000  1
  Y  Y1  1  0.999440  0.596526  0.000000  1
  Er  Er2  1  0.596768  0.000000  0.000000  1
  Co  Co3  1  0.998423  0.000000  0.000000  1
  Sn  Sn4  1  0.747078  0.747552  0.500000  1
  Sn  Sn5  1  0.999526  0.252448  0.500000  1
  Sn  Sn6  1  0.252607  0.000000  0.500000  1
  Rh  Rh7  1  0.665757  0.328267  0.500000  1
  Rh  Rh8  1  0.337489  0.671733  0.500000  1
