# generated using pymatgen
data_Y2HoTh11Os6
_symmetry_space_group_name_H-M   'P 1'
_cell_length_a   9.89390113
_cell_length_b   9.98392751
_cell_length_c   6.37219708
_cell_angle_alpha   90.01052075
_cell_angle_beta   90.05848477
_cell_angle_gamma   120.24267074
_symmetry_Int_Tables_number   1
_chemical_formula_structural   Y2HoTh11Os6
_chemical_formula_sum   'Y2 Ho1 Th11 Os6'
_cell_volume   543.77753375
_cell_formula_units_Z   1
loop_
 _symmetry_equiv_pos_site_id
 _symmetry_equiv_pos_as_xyz
  1  'x, y, z'
loop_
 _atom_site_type_symbol
 _atom_site_label
 _atom_site_symmetry_multiplicity
 _atom_site_fract_x
 _atom_site_fract_y
 _atom_site_fract_z
 _atom_site_occupancy
  Y  Y0  1  0.073764  0.535829  0.298758  1
  Y  Y1  1  0.927376  0.462913  0.797882  1
  Ho  Ho2  1  0.460556  0.536331  0.298905  1
  Th  Th3  1  0.251944  0.128167  0.510177  1
  Th  Th4  1  0.540918  0.081379  0.795717  1
  Th  Th5  1  0.745799  0.871776  0.013951  1
  Th  Th6  1  0.666276  0.333708  0.274335  1
  Th  Th7  1  0.126630  0.870290  0.008584  1
  Th  Th8  1  0.461119  0.918077  0.296163  1
  Th  Th9  1  0.537201  0.466191  0.800707  1
  Th  Th10  1  0.874838  0.129124  0.512121  1
  Th  Th11  1  0.124843  0.254061  0.014708  1
  Th  Th12  1  0.873840  0.746586  0.509008  1
  Th  Th13  1  0.333259  0.665960  0.770883  1
  Os  Os14  1  0.811770  0.628944  0.048025  1
  Os  Os15  1  0.812304  0.181567  0.047368  1
  Os  Os16  1  0.630101  0.813177  0.545914  1
  Os  Os17  1  0.371207  0.187768  0.041974  1
  Os  Os18  1  0.187296  0.369393  0.555250  1
  Os  Os19  1  0.188958  0.818758  0.543566  1
