# generated using pymatgen
data_Zr2Ti2Ge4Mo
_symmetry_space_group_name_H-M   'P 1'
_cell_length_a   6.74898400
_cell_length_b   6.88071800
_cell_length_c   13.17875000
_cell_angle_alpha   90.00000000
_cell_angle_beta   90.00000000
_cell_angle_gamma   90.00000000
_symmetry_Int_Tables_number   1
_chemical_formula_structural   Zr2Ti2Ge4Mo
_chemical_formula_sum   'Zr8 Ti8 Ge16 Mo4'
_cell_volume   611.99289068
_cell_formula_units_Z   4
loop_
 _symmetry_equiv_pos_site_id
 _symmetry_equiv_pos_as_xyz
  1  'x, y, z'
loop_
 _atom_site_type_symbol
 _atom_site_label
 _atom_site_symmetry_multiplicity
 _atom_site_fract_x
 _atom_site_fract_y
 _atom_site_fract_z
 _atom_site_occupancy
  Zr  Zr0  1  0.489748  0.674493  0.091647  1
  Zr  Zr1  1  0.989748  0.825507  0.408353  1
  Zr  Zr2  1  0.510252  0.325507  0.591647  1
  Zr  Zr3  1  0.010252  0.174493  0.908353  1
  Zr  Zr4  1  0.510252  0.325507  0.908353  1
  Zr  Zr5  1  0.010252  0.174493  0.591647  1
  Zr  Zr6  1  0.489748  0.674493  0.408353  1
  Zr  Zr7  1  0.989748  0.825507  0.091647  1
  Ti  Ti8  1  0.661594  0.165217  0.125193  1
  Ti  Ti9  1  0.161594  0.334783  0.374807  1
  Ti  Ti10  1  0.338406  0.834783  0.625193  1
  Ti  Ti11  1  0.838406  0.665217  0.874807  1
  Ti  Ti12  1  0.338406  0.834783  0.874807  1
  Ti  Ti13  1  0.838406  0.665217  0.625193  1
  Ti  Ti14  1  0.661594  0.165217  0.374807  1
  Ti  Ti15  1  0.161594  0.334783  0.125193  1
  Ge  Ge16  1  0.693470  0.853463  0.250000  1
  Ge  Ge17  1  0.193470  0.646537  0.250000  1
  Ge  Ge18  1  0.306530  0.146537  0.750000  1
  Ge  Ge19  1  0.806530  0.353463  0.750000  1
  Ge  Ge20  1  0.680690  0.957963  0.959689  1
  Ge  Ge21  1  0.180690  0.542037  0.540311  1
  Ge  Ge22  1  0.319310  0.042037  0.459689  1
  Ge  Ge23  1  0.819310  0.457963  0.040311  1
  Ge  Ge24  1  0.319310  0.042037  0.040311  1
  Ge  Ge25  1  0.819310  0.457963  0.459689  1
  Ge  Ge26  1  0.680690  0.957963  0.540311  1
  Ge  Ge27  1  0.180690  0.542037  0.959689  1
  Ge  Ge28  1  0.464096  0.380799  0.250000  1
  Ge  Ge29  1  0.964096  0.119201  0.250000  1
  Ge  Ge30  1  0.535904  0.619201  0.750000  1
  Ge  Ge31  1  0.035904  0.880799  0.750000  1
  Mo  Mo32  1  0.335079  0.008835  0.250000  1
  Mo  Mo33  1  0.835079  0.491165  0.250000  1
  Mo  Mo34  1  0.664921  0.991165  0.750000  1
  Mo  Mo35  1  0.164921  0.508835  0.750000  1
