# generated using pymatgen
data_Sr7La8Yb5Pd16
_symmetry_space_group_name_H-M   'P 1'
_cell_length_a   7.88013357
_cell_length_b   7.97399943
_cell_length_c   15.22220700
_cell_angle_alpha   89.85474131
_cell_angle_beta   89.82543961
_cell_angle_gamma   89.92471543
_symmetry_Int_Tables_number   1
_chemical_formula_structural   Sr7La8Yb5Pd16
_chemical_formula_sum   'Sr7 La8 Yb5 Pd16'
_cell_volume   956.49701912
_cell_formula_units_Z   1
loop_
 _symmetry_equiv_pos_site_id
 _symmetry_equiv_pos_as_xyz
  1  'x, y, z'
loop_
 _atom_site_type_symbol
 _atom_site_label
 _atom_site_symmetry_multiplicity
 _atom_site_fract_x
 _atom_site_fract_y
 _atom_site_fract_z
 _atom_site_occupancy
  Sr  Sr0  1  0.996073  0.179820  0.600457  1
  Sr  Sr1  1  0.503317  0.679490  0.401288  1
  Sr  Sr2  1  0.005044  0.821424  0.098451  1
  Sr  Sr3  1  0.504569  0.678481  0.096896  1
  Sr  Sr4  1  0.003308  0.821008  0.401343  1
  Sr  Sr5  1  0.496422  0.320531  0.599161  1
  Sr  Sr6  1  0.996338  0.179634  0.901443  1
  La  La7  1  0.338765  0.834143  0.877888  1
  La  La8  1  0.838953  0.664616  0.623777  1
  La  La9  1  0.660792  0.164530  0.377087  1
  La  La10  1  0.162226  0.336788  0.121123  1
  La  La11  1  0.659818  0.167265  0.120150  1
  La  La12  1  0.160159  0.334800  0.377755  1
  La  La13  1  0.339318  0.835342  0.623822  1
  La  La14  1  0.836217  0.661910  0.879408  1
  Yb  Yb15  1  0.491232  0.313943  0.897339  1
  Yb  Yb16  1  0.179788  0.485931  0.751629  1
  Yb  Yb17  1  0.678873  0.013964  0.751812  1
  Yb  Yb18  1  0.821125  0.513298  0.249462  1
  Yb  Yb19  1  0.321529  0.987598  0.249203  1
  Pd  Pd20  1  0.332555  0.045611  0.041069  1
  Pd  Pd21  1  0.830551  0.459843  0.456024  1
  Pd  Pd22  1  0.668682  0.959642  0.545074  1
  Pd  Pd23  1  0.180463  0.531090  0.952269  1
  Pd  Pd24  1  0.664283  0.969349  0.952226  1
  Pd  Pd25  1  0.168713  0.540280  0.545127  1
  Pd  Pd26  1  0.331248  0.039372  0.455746  1
  Pd  Pd27  1  0.832530  0.461027  0.044479  1
  Pd  Pd28  1  0.537451  0.622132  0.752468  1
  Pd  Pd29  1  0.039962  0.872805  0.751057  1
  Pd  Pd30  1  0.459890  0.373092  0.249758  1
  Pd  Pd31  1  0.960065  0.127900  0.249466  1
  Pd  Pd32  1  0.309093  0.127314  0.754163  1
  Pd  Pd33  1  0.797654  0.374889  0.752917  1
  Pd  Pd34  1  0.696003  0.876906  0.248951  1
  Pd  Pd35  1  0.196989  0.624231  0.249714  1
