# generated using pymatgen
data_La2PrNd5(MoO6)4
_symmetry_space_group_name_H-M   'P 1'
_cell_length_a   10.27557221
_cell_length_b   10.28573899
_cell_length_c   5.61510606
_cell_angle_alpha   75.25087149
_cell_angle_beta   75.28364860
_cell_angle_gamma   68.73225649
_symmetry_Int_Tables_number   1
_chemical_formula_structural   La2PrNd5(MoO6)4
_chemical_formula_sum   'La2 Pr1 Nd5 Mo4 O24'
_cell_volume   526.15118593
_cell_formula_units_Z   1
loop_
 _symmetry_equiv_pos_site_id
 _symmetry_equiv_pos_as_xyz
  1  'x, y, z'
loop_
 _atom_site_type_symbol
 _atom_site_label
 _atom_site_symmetry_multiplicity
 _atom_site_fract_x
 _atom_site_fract_y
 _atom_site_fract_z
 _atom_site_occupancy
  La  La0  1  0.635119  0.364595  0.750256  1
  La  La1  1  0.364758  0.635380  0.249515  1
  Pr  Pr2  1  0.943242  0.712223  0.382304  1
  Nd  Nd3  1  0.108596  0.892040  0.750132  1
  Nd  Nd4  1  0.891423  0.108818  0.250312  1
  Nd  Nd5  1  0.712536  0.944218  0.881012  1
  Nd  Nd6  1  0.287262  0.056691  0.119306  1
  Nd  Nd7  1  0.056867  0.286769  0.619581  1
  Mo  Mo8  1  0.507391  0.800124  0.558631  1
  Mo  Mo9  1  0.492107  0.200147  0.441453  1
  Mo  Mo10  1  0.200401  0.491837  0.940581  1
  Mo  Mo11  1  0.799776  0.507237  0.059174  1
  O  O12  1  0.687364  0.161294  0.583447  1
  O  O13  1  0.312313  0.839078  0.416133  1
  O  O14  1  0.838809  0.312285  0.916820  1
  O  O15  1  0.161833  0.687183  0.081390  1
  O  O16  1  0.384077  0.830192  0.857371  1
  O  O17  1  0.615316  0.170095  0.142568  1
  O  O18  1  0.170355  0.615152  0.641376  1
  O  O19  1  0.829815  0.384615  0.358412  1
  O  O20  1  0.674074  0.789902  0.636893  1
  O  O21  1  0.325217  0.210268  0.364294  1
  O  O22  1  0.211059  0.324980  0.863275  1
  O  O23  1  0.788736  0.674788  0.134098  1
  O  O24  1  0.473746  0.071209  0.737042  1
  O  O25  1  0.526099  0.929134  0.263344  1
  O  O26  1  0.930035  0.524613  0.765443  1
  O  O27  1  0.071863  0.472820  0.236279  1
  O  O28  1  0.544537  0.619754  0.518346  1
  O  O29  1  0.455278  0.380501  0.481437  1
  O  O30  1  0.380726  0.454896  0.981639  1
  O  O31  1  0.619354  0.544024  0.018247  1
  O  O32  1  0.891292  0.925091  0.076613  1
  O  O33  1  0.108734  0.076406  0.922624  1
  O  O34  1  0.076435  0.108813  0.422379  1
  O  O35  1  0.923453  0.892826  0.578268  1
