# generated using pymatgen
data_U6Fe3Ni3Sb8
_symmetry_space_group_name_H-M   'P 1'
_cell_length_a   8.15100470
_cell_length_b   8.16563706
_cell_length_c   8.16563674
_cell_angle_alpha   109.48711367
_cell_angle_beta   109.17171152
_cell_angle_gamma   109.82821271
_symmetry_Int_Tables_number   1
_chemical_formula_structural   U6Fe3Ni3Sb8
_chemical_formula_sum   'U6 Fe3 Ni3 Sb8'
_cell_volume   417.98893396
_cell_formula_units_Z   1
loop_
 _symmetry_equiv_pos_site_id
 _symmetry_equiv_pos_as_xyz
  1  'x, y, z'
loop_
 _atom_site_type_symbol
 _atom_site_label
 _atom_site_symmetry_multiplicity
 _atom_site_fract_x
 _atom_site_fract_y
 _atom_site_fract_z
 _atom_site_occupancy
  U  U0  1  0.881484  0.257204  0.130501  1
  U  U1  1  0.618516  0.749017  0.375720  1
  U  U2  1  0.250000  0.120354  0.870354  1
  U  U3  1  0.750000  0.379925  0.629925  1
  U  U4  1  0.131610  0.874756  0.251920  1
  U  U5  1  0.368390  0.620310  0.743147  1
  Fe  Fe6  1  0.376429  0.249183  0.626705  1
  Fe  Fe7  1  0.123571  0.750276  0.872754  1
  Fe  Fe8  1  0.250000  0.621425  0.371425  1
  Ni  Ni9  1  0.750000  0.876803  0.126803  1
  Ni  Ni10  1  0.625940  0.375773  0.250177  1
  Ni  Ni11  1  0.874060  0.124237  0.749832  1
  Sb  Sb12  1  0.664488  0.502576  0.001227  1
  Sb  Sb13  1  0.500279  0.999633  0.666148  1
  Sb  Sb14  1  0.999721  0.665869  0.499353  1
  Sb  Sb15  1  0.835512  0.836739  0.838088  1
  Sb  Sb16  1  0.500671  0.000763  0.163704  1
  Sb  Sb17  1  0.164617  0.499473  0.997267  1
  Sb  Sb18  1  0.999329  0.163034  0.500093  1
  Sb  Sb19  1  0.335383  0.332650  0.334856  1
