# generated using pymatgen
data_Y6Cd22PAu
_symmetry_space_group_name_H-M   'P 1'
_cell_length_a   9.92510073
_cell_length_b   9.92510126
_cell_length_c   9.92510000
_cell_angle_alpha   59.99999754
_cell_angle_beta   59.99999577
_cell_angle_gamma   59.99999703
_symmetry_Int_Tables_number   1
_chemical_formula_structural   Y6Cd22PAu
_chemical_formula_sum   'Y6 Cd22 P1 Au1'
_cell_volume   691.33688922
_cell_formula_units_Z   1
loop_
 _symmetry_equiv_pos_site_id
 _symmetry_equiv_pos_as_xyz
  1  'x, y, z'
loop_
 _atom_site_type_symbol
 _atom_site_label
 _atom_site_symmetry_multiplicity
 _atom_site_fract_x
 _atom_site_fract_y
 _atom_site_fract_z
 _atom_site_occupancy
  Y  Y0  1  0.802243  0.802243  0.197757  1
  Y  Y1  1  0.197757  0.802243  0.197757  1
  Y  Y2  1  0.802243  0.197757  0.197757  1
  Y  Y3  1  0.197757  0.197757  0.802243  1
  Y  Y4  1  0.802243  0.197757  0.802243  1
  Y  Y5  1  0.197757  0.802243  0.802243  1
  Cd  Cd6  1  0.835748  0.835748  0.492752  1
  Cd  Cd7  1  0.835748  0.492752  0.835748  1
  Cd  Cd8  1  0.492752  0.835748  0.835748  1
  Cd  Cd9  1  0.835748  0.835748  0.835748  1
  Cd  Cd10  1  0.164252  0.164252  0.507248  1
  Cd  Cd11  1  0.164252  0.507248  0.164252  1
  Cd  Cd12  1  0.507248  0.164252  0.164252  1
  Cd  Cd13  1  0.164252  0.164252  0.164252  1
  Cd  Cd14  1  0.618874  0.618874  0.143377  1
  Cd  Cd15  1  0.618874  0.143377  0.618874  1
  Cd  Cd16  1  0.143377  0.618874  0.618874  1
  Cd  Cd17  1  0.618874  0.618874  0.618874  1
  Cd  Cd18  1  0.381126  0.381126  0.856623  1
  Cd  Cd19  1  0.381126  0.856623  0.381126  1
  Cd  Cd20  1  0.856623  0.381126  0.381126  1
  Cd  Cd21  1  0.381126  0.381126  0.381126  1
  Cd  Cd22  1  0.000000  0.000000  0.500000  1
  Cd  Cd23  1  0.500000  0.000000  0.500000  1
  Cd  Cd24  1  0.000000  0.500000  0.500000  1
  Cd  Cd25  1  0.500000  0.500000  0.000000  1
  Cd  Cd26  1  0.000000  0.500000  0.000000  1
  Cd  Cd27  1  0.500000  0.000000  0.000000  1
  P  P28  1  0.000000  0.000000  0.000000  1
  Au  Au29  1  0.500000  0.500000  0.500000  1
