# generated using pymatgen
data_CaEr4(In2Pt)2
_symmetry_space_group_name_H-M   'P 1'
_cell_length_a   3.59559000
_cell_length_b   8.17040500
_cell_length_c   18.30282100
_cell_angle_alpha   90.00000000
_cell_angle_beta   90.00000000
_cell_angle_gamma   90.00000000
_symmetry_Int_Tables_number   1
_chemical_formula_structural   CaEr4(In2Pt)2
_chemical_formula_sum   'Ca2 Er8 In8 Pt4'
_cell_volume   537.68977893
_cell_formula_units_Z   2
loop_
 _symmetry_equiv_pos_site_id
 _symmetry_equiv_pos_as_xyz
  1  'x, y, z'
loop_
 _atom_site_type_symbol
 _atom_site_label
 _atom_site_symmetry_multiplicity
 _atom_site_fract_x
 _atom_site_fract_y
 _atom_site_fract_z
 _atom_site_occupancy
  Ca  Ca0  1  0.000000  0.000000  0.000000  1
  Ca  Ca1  1  0.000000  0.500000  0.500000  1
  Er  Er2  1  0.000000  0.117613  0.413616  1
  Er  Er3  1  0.000000  0.882387  0.586384  1
  Er  Er4  1  0.000000  0.382387  0.913616  1
  Er  Er5  1  0.000000  0.617613  0.086384  1
  Er  Er6  1  0.000000  0.243539  0.220532  1
  Er  Er7  1  0.000000  0.756461  0.779468  1
  Er  Er8  1  0.000000  0.256461  0.720532  1
  Er  Er9  1  0.000000  0.743539  0.279468  1
  In  In10  1  0.500000  0.424573  0.350630  1
  In  In11  1  0.500000  0.575427  0.649370  1
  In  In12  1  0.500000  0.075427  0.850630  1
  In  In13  1  0.500000  0.924573  0.149370  1
  In  In14  1  0.500000  0.294378  0.066698  1
  In  In15  1  0.500000  0.705622  0.933302  1
  In  In16  1  0.500000  0.205622  0.566698  1
  In  In17  1  0.500000  0.794378  0.433302  1
  Pt  Pt18  1  0.500000  0.023989  0.303373  1
  Pt  Pt19  1  0.500000  0.976011  0.696627  1
  Pt  Pt20  1  0.500000  0.476011  0.803373  1
  Pt  Pt21  1  0.500000  0.523989  0.196627  1
