# generated using pymatgen
data_Pr2Zn2Ge2IrRh3
_symmetry_space_group_name_H-M   'P 1'
_cell_length_a   4.17384600
_cell_length_b   4.17384600
_cell_length_c   10.75568700
_cell_angle_alpha   90.00000000
_cell_angle_beta   90.00000000
_cell_angle_gamma   90.00000000
_symmetry_Int_Tables_number   1
_chemical_formula_structural   Pr2Zn2Ge2IrRh3
_chemical_formula_sum   'Pr2 Zn2 Ge2 Ir1 Rh3'
_cell_volume   187.37472031
_cell_formula_units_Z   1
loop_
 _symmetry_equiv_pos_site_id
 _symmetry_equiv_pos_as_xyz
  1  'x, y, z'
loop_
 _atom_site_type_symbol
 _atom_site_label
 _atom_site_symmetry_multiplicity
 _atom_site_fract_x
 _atom_site_fract_y
 _atom_site_fract_z
 _atom_site_occupancy
  Pr  Pr0  1  0.000000  0.500000  0.250371  1
  Pr  Pr1  1  0.500000  0.000000  0.749050  1
  Zn  Zn2  1  0.000000  0.000000  0.500222  1
  Zn  Zn3  1  0.500000  0.500000  0.500222  1
  Ge  Ge4  1  0.000000  0.500000  0.875022  1
  Ge  Ge5  1  0.500000  0.000000  0.125261  1
  Ir  Ir6  1  0.000000  0.500000  0.643900  1
  Rh  Rh7  1  0.000000  0.000000  0.000001  1
  Rh  Rh8  1  0.500000  0.500000  0.000001  1
  Rh  Rh9  1  0.500000  0.000000  0.355950  1
