# generated using pymatgen
data_LaEuZn14Ni3
_symmetry_space_group_name_H-M   'P 1'
_cell_length_a   6.75280516
_cell_length_b   6.75280473
_cell_length_c   6.75280489
_cell_angle_alpha   83.41569621
_cell_angle_beta   96.58429946
_cell_angle_gamma   96.58430602
_symmetry_Int_Tables_number   1
_chemical_formula_structural   LaEuZn14Ni3
_chemical_formula_sum   'La1 Eu1 Zn14 Ni3'
_cell_volume   302.26961017
_cell_formula_units_Z   1
loop_
 _symmetry_equiv_pos_site_id
 _symmetry_equiv_pos_as_xyz
  1  'x, y, z'
loop_
 _atom_site_type_symbol
 _atom_site_label
 _atom_site_symmetry_multiplicity
 _atom_site_fract_x
 _atom_site_fract_y
 _atom_site_fract_z
 _atom_site_occupancy
  La  La0  1  0.343558  0.656441  0.656441  1
  Eu  Eu1  1  0.654977  0.345022  0.345023  1
  Zn  Zn2  1  0.291472  0.289794  0.000390  1
  Zn  Zn3  1  0.710206  0.708528  0.000390  1
  Zn  Zn4  1  0.892893  0.107105  0.107106  1
  Zn  Zn5  1  0.343498  0.656503  0.142100  1
  Zn  Zn6  1  0.999610  0.708528  0.289793  1
  Zn  Zn7  1  0.291472  0.000390  0.289794  1
  Zn  Zn8  1  0.657698  0.861514  0.342301  1
  Zn  Zn9  1  0.138486  0.342302  0.342303  1
  Zn  Zn10  1  0.857900  0.656503  0.656502  1
  Zn  Zn11  1  0.343497  0.142099  0.656503  1
  Zn  Zn12  1  0.999610  0.289794  0.708527  1
  Zn  Zn13  1  0.710206  0.000390  0.708528  1
  Zn  Zn14  1  0.657698  0.342302  0.861514  1
  Zn  Zn15  1  0.104706  0.895294  0.895293  1
  Ni  Ni16  1  0.498476  0.997983  0.997983  1
  Ni  Ni17  1  0.002017  0.501523  0.997983  1
  Ni  Ni18  1  0.002017  0.997983  0.501524  1
