# generated using pymatgen
data_Th6NpFe22
_symmetry_space_group_name_H-M   'P 1'
_cell_length_a   8.63385602
_cell_length_b   8.63438821
_cell_length_c   8.63385600
_cell_angle_alpha   119.99884221
_cell_angle_beta   90.00344417
_cell_angle_gamma   119.99883826
_symmetry_Int_Tables_number   1
_chemical_formula_structural   Th6NpFe22
_chemical_formula_sum   'Th6 Np1 Fe22'
_cell_volume   455.12254358
_cell_formula_units_Z   1
loop_
 _symmetry_equiv_pos_site_id
 _symmetry_equiv_pos_as_xyz
  1  'x, y, z'
loop_
 _atom_site_type_symbol
 _atom_site_label
 _atom_site_symmetry_multiplicity
 _atom_site_fract_x
 _atom_site_fract_y
 _atom_site_fract_z
 _atom_site_occupancy
  Th  Th0  1  0.708453  0.000043  0.291604  1
  Th  Th1  1  0.291603  0.999984  0.291603  1
  Th  Th2  1  0.291541  0.583115  0.291541  1
  Th  Th3  1  0.708499  0.000105  0.708499  1
  Th  Th4  1  0.291604  0.000043  0.708453  1
  Th  Th5  1  0.708457  0.416829  0.708457  1
  Np  Np6  1  0.000212  0.000221  0.000212  1
  Fe  Fe7  1  0.499981  0.999992  0.999976  1
  Fe  Fe8  1  0.999982  0.499975  0.999982  1
  Fe  Fe9  1  0.500003  0.499985  0.000031  1
  Fe  Fe10  1  0.675921  0.351848  0.027748  1
  Fe  Fe11  1  0.372878  0.248590  0.124302  1
  Fe  Fe12  1  0.875692  0.248518  0.124264  1
  Fe  Fe13  1  0.875685  0.751438  0.124255  1
  Fe  Fe14  1  0.675893  0.351800  0.324085  1
  Fe  Fe15  1  0.675888  0.648167  0.324066  1
  Fe  Fe16  1  0.972246  0.648152  0.324049  1
  Fe  Fe17  1  0.124302  0.248590  0.372878  1
  Fe  Fe18  1  0.999976  0.999992  0.499981  1
  Fe  Fe19  1  0.000031  0.499985  0.500003  1
  Fe  Fe20  1  0.499967  0.499989  0.499967  1
  Fe  Fe21  1  0.875648  0.751352  0.627066  1
  Fe  Fe22  1  0.027748  0.351848  0.675921  1
  Fe  Fe23  1  0.324085  0.351800  0.675893  1
  Fe  Fe24  1  0.324066  0.648167  0.675888  1
  Fe  Fe25  1  0.124264  0.248518  0.875692  1
  Fe  Fe26  1  0.124255  0.751438  0.875685  1
  Fe  Fe27  1  0.627066  0.751352  0.875648  1
  Fe  Fe28  1  0.324049  0.648152  0.972246  1
