# generated using pymatgen
data_KRb3CaI6
_symmetry_space_group_name_H-M   'P 1'
_cell_length_a   10.14963613
_cell_length_b   10.14963651
_cell_length_c   10.14963640
_cell_angle_alpha   91.02263966
_cell_angle_beta   91.02263591
_cell_angle_gamma   91.02263588
_symmetry_Int_Tables_number   1
_chemical_formula_structural   KRb3CaI6
_chemical_formula_sum   'K2 Rb6 Ca2 I12'
_cell_volume   1045.06035220
_cell_formula_units_Z   2
loop_
 _symmetry_equiv_pos_site_id
 _symmetry_equiv_pos_as_xyz
  1  'x, y, z'
loop_
 _atom_site_type_symbol
 _atom_site_label
 _atom_site_symmetry_multiplicity
 _atom_site_fract_x
 _atom_site_fract_y
 _atom_site_fract_z
 _atom_site_occupancy
  K  K0  1  0.250000  0.250000  0.250000  1
  K  K1  1  0.750000  0.750000  0.750000  1
  Rb  Rb2  1  0.372089  0.127911  0.750000  1
  Rb  Rb3  1  0.127911  0.750000  0.372089  1
  Rb  Rb4  1  0.750000  0.372089  0.127911  1
  Rb  Rb5  1  0.627911  0.872089  0.250000  1
  Rb  Rb6  1  0.250000  0.627911  0.872089  1
  Rb  Rb7  1  0.872089  0.250000  0.627911  1
  Ca  Ca8  1  0.000000  0.000000  0.000000  1
  Ca  Ca9  1  0.500000  0.500000  0.500000  1
  I  I10  1  0.947049  0.076696  0.295975  1
  I  I11  1  0.076696  0.295975  0.947049  1
  I  I12  1  0.295975  0.947049  0.076696  1
  I  I13  1  0.576696  0.447049  0.795975  1
  I  I14  1  0.795975  0.576696  0.447049  1
  I  I15  1  0.447049  0.795975  0.576696  1
  I  I16  1  0.204025  0.423304  0.552951  1
  I  I17  1  0.423304  0.552951  0.204025  1
  I  I18  1  0.552951  0.204025  0.423304  1
  I  I19  1  0.923304  0.704025  0.052951  1
  I  I20  1  0.052951  0.923304  0.704025  1
  I  I21  1  0.704025  0.052951  0.923304  1
