# generated using pymatgen
data_La2Nd3Si2Ir
_symmetry_space_group_name_H-M   'P 1'
_cell_length_a   8.04278601
_cell_length_b   8.89975800
_cell_length_c   12.56501800
_cell_angle_alpha   90.00000000
_cell_angle_beta   89.99710058
_cell_angle_gamma   90.00000000
_symmetry_Int_Tables_number   1
_chemical_formula_structural   La2Nd3Si2Ir
_chemical_formula_sum   'La8 Nd12 Si8 Ir4'
_cell_volume   899.38952668
_cell_formula_units_Z   4
loop_
 _symmetry_equiv_pos_site_id
 _symmetry_equiv_pos_as_xyz
  1  'x, y, z'
loop_
 _atom_site_type_symbol
 _atom_site_label
 _atom_site_symmetry_multiplicity
 _atom_site_fract_x
 _atom_site_fract_y
 _atom_site_fract_z
 _atom_site_occupancy
  La  La0  1  0.819846  0.465504  0.926977  1
  La  La1  1  0.180154  0.534496  0.073023  1
  La  La2  1  0.319825  0.534510  0.572992  1
  La  La3  1  0.180154  0.965504  0.073023  1
  La  La4  1  0.680175  0.465490  0.427008  1
  La  La5  1  0.819846  0.034496  0.926977  1
  La  La6  1  0.680175  0.034510  0.427008  1
  La  La7  1  0.319825  0.965490  0.572992  1
  Nd  Nd8  1  0.674933  0.750000  0.718941  1
  Nd  Nd9  1  0.325067  0.250000  0.281059  1
  Nd  Nd10  1  0.174941  0.250000  0.780965  1
  Nd  Nd11  1  0.825059  0.750000  0.219035  1
  Nd  Nd12  1  0.151116  0.750000  0.793024  1
  Nd  Nd13  1  0.848884  0.250000  0.206976  1
  Nd  Nd14  1  0.651071  0.250000  0.706880  1
  Nd  Nd15  1  0.348929  0.750000  0.293120  1
  Nd  Nd16  1  0.538534  0.750000  0.001071  1
  Nd  Nd17  1  0.461466  0.250000  0.998929  1
  Nd  Nd18  1  0.038600  0.250000  0.498920  1
  Nd  Nd19  1  0.961400  0.750000  0.501080  1
  Si  Si20  1  0.943710  0.005379  0.671385  1
  Si  Si21  1  0.056290  0.994621  0.328615  1
  Si  Si22  1  0.443730  0.994615  0.828625  1
  Si  Si23  1  0.056290  0.505379  0.328615  1
  Si  Si24  1  0.556270  0.005385  0.171375  1
  Si  Si25  1  0.943710  0.494621  0.671385  1
  Si  Si26  1  0.556270  0.494615  0.171375  1
  Si  Si27  1  0.443730  0.505385  0.828625  1
  Ir  Ir28  1  0.924040  0.750000  0.983146  1
  Ir  Ir29  1  0.075960  0.250000  0.016854  1
  Ir  Ir30  1  0.424047  0.250000  0.516833  1
  Ir  Ir31  1  0.575953  0.750000  0.483167  1
