# generated using pymatgen
data_La3Ho3(Ir7Rh2)2
_symmetry_space_group_name_H-M   'P 1'
_cell_length_a   5.35548800
_cell_length_b   5.35548693
_cell_length_c   17.55483300
_cell_angle_alpha   90.00000000
_cell_angle_beta   90.00000000
_cell_angle_gamma   119.99999425
_symmetry_Int_Tables_number   1
_chemical_formula_structural   La3Ho3(Ir7Rh2)2
_chemical_formula_sum   'La3 Ho3 Ir14 Rh4'
_cell_volume   436.03903871
_cell_formula_units_Z   1
loop_
 _symmetry_equiv_pos_site_id
 _symmetry_equiv_pos_as_xyz
  1  'x, y, z'
loop_
 _atom_site_type_symbol
 _atom_site_label
 _atom_site_symmetry_multiplicity
 _atom_site_fract_x
 _atom_site_fract_y
 _atom_site_fract_z
 _atom_site_occupancy
  La  La0  1  0.333333  0.666667  0.959869  1
  La  La1  1  0.333333  0.666667  0.749447  1
  La  La2  1  0.666667  0.333333  0.249988  1
  Ho  Ho3  1  0.333333  0.666667  0.540858  1
  Ho  Ho4  1  0.666667  0.333333  0.042359  1
  Ho  Ho5  1  0.666667  0.333333  0.459258  1
  Ir  Ir6  1  0.167069  0.334138  0.126012  1
  Ir  Ir7  1  0.832183  0.664366  0.624009  1
  Ir  Ir8  1  0.665862  0.832931  0.126012  1
  Ir  Ir9  1  0.167069  0.832931  0.126012  1
  Ir  Ir10  1  0.832183  0.167817  0.624009  1
  Ir  Ir11  1  0.335634  0.167817  0.624009  1
  Ir  Ir12  1  0.832703  0.665406  0.873432  1
  Ir  Ir13  1  0.832703  0.167297  0.873432  1
  Ir  Ir14  1  0.334594  0.167297  0.873432  1
  Ir  Ir15  1  0.664338  0.832169  0.375890  1
  Ir  Ir16  1  0.167831  0.832169  0.375890  1
  Ir  Ir17  1  0.167831  0.335662  0.375890  1
  Ir  Ir18  1  0.000000  0.000000  0.000729  1
  Ir  Ir19  1  0.000000  0.000000  0.500031  1
  Rh  Rh20  1  0.000000  0.000000  0.251020  1
  Rh  Rh21  1  0.000000  0.000000  0.748917  1
  Rh  Rh22  1  0.333333  0.666667  0.250219  1
  Rh  Rh23  1  0.666667  0.333333  0.749276  1
