# generated using pymatgen
data_La16Sm3YPb16
_symmetry_space_group_name_H-M   'P 1'
_cell_length_a   8.61976800
_cell_length_b   8.73803512
_cell_length_c   16.66145700
_cell_angle_alpha   90.00000000
_cell_angle_beta   90.00000000
_cell_angle_gamma   89.99031523
_symmetry_Int_Tables_number   1
_chemical_formula_structural   La16Sm3YPb16
_chemical_formula_sum   'La16 Sm3 Y1 Pb16'
_cell_volume   1254.93818337
_cell_formula_units_Z   1
loop_
 _symmetry_equiv_pos_site_id
 _symmetry_equiv_pos_as_xyz
  1  'x, y, z'
loop_
 _atom_site_type_symbol
 _atom_site_label
 _atom_site_symmetry_multiplicity
 _atom_site_fract_x
 _atom_site_fract_y
 _atom_site_fract_z
 _atom_site_occupancy
  La  La0  1  0.377338  0.841817  0.881720  1
  La  La1  1  0.877825  0.657808  0.618323  1
  La  La2  1  0.622931  0.157747  0.381196  1
  La  La3  1  0.122695  0.342128  0.119251  1
  La  La4  1  0.622931  0.157747  0.118804  1
  La  La5  1  0.122695  0.342128  0.380749  1
  La  La6  1  0.377338  0.841817  0.618280  1
  La  La7  1  0.877825  0.657808  0.881677  1
  La  La8  1  0.532598  0.321657  0.899611  1
  La  La9  1  0.032934  0.177626  0.600409  1
  La  La10  1  0.466838  0.677903  0.398934  1
  La  La11  1  0.966938  0.822076  0.100680  1
  La  La12  1  0.466838  0.677903  0.101066  1
  La  La13  1  0.966938  0.822076  0.399320  1
  La  La14  1  0.532598  0.321657  0.600389  1
  La  La15  1  0.032934  0.177626  0.899591  1
  Sm  Sm16  1  0.709888  0.996874  0.750000  1
  Sm  Sm17  1  0.789625  0.497213  0.250000  1
  Sm  Sm18  1  0.289854  0.003000  0.250000  1
  Y  Y19  1  0.210455  0.502644  0.750000  1
  Pb  Pb20  1  0.280990  0.030613  0.046408  1
  Pb  Pb21  1  0.781098  0.469672  0.453572  1
  Pb  Pb22  1  0.719239  0.969914  0.545878  1
  Pb  Pb23  1  0.218949  0.531210  0.954915  1
  Pb  Pb24  1  0.719239  0.969914  0.954122  1
  Pb  Pb25  1  0.218949  0.531210  0.545085  1
  Pb  Pb26  1  0.280990  0.030613  0.453592  1
  Pb  Pb27  1  0.781098  0.469672  0.046428  1
  Pb  Pb28  1  0.573479  0.625714  0.750000  1
  Pb  Pb29  1  0.071736  0.876928  0.750000  1
  Pb  Pb30  1  0.428118  0.375473  0.250000  1
  Pb  Pb31  1  0.927597  0.123934  0.250000  1
  Pb  Pb32  1  0.343610  0.150267  0.750000  1
  Pb  Pb33  1  0.840546  0.347037  0.750000  1
  Pb  Pb34  1  0.657045  0.847979  0.250000  1
  Pb  Pb35  1  0.157306  0.652593  0.250000  1
