# generated using pymatgen
data_Dy4Ho15MgIr12
_symmetry_space_group_name_H-M   'P 1'
_cell_length_a   10.82716101
_cell_length_b   10.82430801
_cell_length_c   6.30258700
_cell_angle_alpha   90.00000000
_cell_angle_beta   90.00000000
_cell_angle_gamma   89.99535314
_symmetry_Int_Tables_number   1
_chemical_formula_structural   Dy4Ho15MgIr12
_chemical_formula_sum   'Dy4 Ho15 Mg1 Ir12'
_cell_volume   738.64129640
_cell_formula_units_Z   1
loop_
 _symmetry_equiv_pos_site_id
 _symmetry_equiv_pos_as_xyz
  1  'x, y, z'
loop_
 _atom_site_type_symbol
 _atom_site_label
 _atom_site_symmetry_multiplicity
 _atom_site_fract_x
 _atom_site_fract_y
 _atom_site_fract_z
 _atom_site_occupancy
  Dy  Dy0  1  0.284382  0.085058  0.378843  1
  Dy  Dy1  1  0.290221  0.911764  0.879057  1
  Dy  Dy2  1  0.709779  0.088236  0.879057  1
  Dy  Dy3  1  0.715618  0.914942  0.378843  1
  Ho  Ho4  1  0.588846  0.791595  0.879331  1
  Ho  Ho5  1  0.587915  0.208242  0.377705  1
  Ho  Ho6  1  0.412085  0.791758  0.377705  1
  Ho  Ho7  1  0.411154  0.208405  0.879331  1
  Ho  Ho8  1  0.208022  0.412121  0.622323  1
  Ho  Ho9  1  0.208180  0.588771  0.120681  1
  Ho  Ho10  1  0.791820  0.411229  0.120681  1
  Ho  Ho11  1  0.791978  0.587879  0.622323  1
  Ho  Ho12  1  0.911921  0.709409  0.120653  1
  Ho  Ho13  1  0.915108  0.284681  0.620890  1
  Ho  Ho14  1  0.084892  0.715319  0.620890  1
  Ho  Ho15  1  0.088079  0.290591  0.120653  1
  Ho  Ho16  1  0.000000  0.000000  0.000120  1
  Ho  Ho17  1  0.500000  0.500000  0.000050  1
  Ho  Ho18  1  0.500000  0.500000  0.500045  1
  Mg  Mg19  1  0.000000  0.000000  0.500051  1
  Ir  Ir20  1  0.846531  0.154289  0.248322  1
  Ir  Ir21  1  0.846145  0.846059  0.752241  1
  Ir  Ir22  1  0.153855  0.153941  0.752241  1
  Ir  Ir23  1  0.153469  0.845711  0.248322  1
  Ir  Ir24  1  0.654227  0.346336  0.748409  1
  Ir  Ir25  1  0.653791  0.654102  0.251378  1
  Ir  Ir26  1  0.346209  0.345898  0.251378  1
  Ir  Ir27  1  0.345773  0.653664  0.748409  1
  Ir  Ir28  1  0.500000  0.000000  0.123753  1
  Ir  Ir29  1  0.500000  0.000000  0.620439  1
  Ir  Ir30  1  0.000000  0.500000  0.876298  1
  Ir  Ir31  1  0.000000  0.500000  0.379583  1
