# generated using pymatgen
data_YbY(Ni2As)4
_symmetry_space_group_name_H-M   'P 1'
_cell_length_a   7.25464189
_cell_length_b   7.25464189
_cell_length_c   3.75947800
_cell_angle_alpha   90.00000000
_cell_angle_beta   90.00000000
_cell_angle_gamma   90.10237142
_symmetry_Int_Tables_number   1
_chemical_formula_structural   YbY(Ni2As)4
_chemical_formula_sum   'Yb1 Y1 Ni8 As4'
_cell_volume   197.86036854
_cell_formula_units_Z   1
loop_
 _symmetry_equiv_pos_site_id
 _symmetry_equiv_pos_as_xyz
  1  'x, y, z'
loop_
 _atom_site_type_symbol
 _atom_site_label
 _atom_site_symmetry_multiplicity
 _atom_site_fract_x
 _atom_site_fract_y
 _atom_site_fract_z
 _atom_site_occupancy
  Yb  Yb0  1  0.000000  0.000000  0.500000  1
  Y  Y1  1  0.500000  0.500000  0.000000  1
  Ni  Ni2  1  0.588819  0.153076  0.500000  1
  Ni  Ni3  1  0.411181  0.846924  0.500000  1
  Ni  Ni4  1  0.087362  0.344757  0.000000  1
  Ni  Ni5  1  0.912638  0.655243  0.000000  1
  Ni  Ni6  1  0.153076  0.588819  0.500000  1
  Ni  Ni7  1  0.846924  0.411181  0.500000  1
  Ni  Ni8  1  0.344757  0.087362  0.000000  1
  Ni  Ni9  1  0.655243  0.912638  0.000000  1
  As  As10  1  0.718370  0.718370  0.500000  1
  As  As11  1  0.281630  0.281630  0.500000  1
  As  As12  1  0.218745  0.781255  0.000000  1
  As  As13  1  0.781255  0.218745  0.000000  1
