# generated using pymatgen
data_Pr5Th3(PbAu2)4
_symmetry_space_group_name_H-M   'P 1'
_cell_length_a   8.18420468
_cell_length_b   8.18420595
_cell_length_c   8.02501600
_cell_angle_alpha   90.00000000
_cell_angle_beta   90.00000000
_cell_angle_gamma   90.26271142
_symmetry_Int_Tables_number   1
_chemical_formula_structural   Pr5Th3(PbAu2)4
_chemical_formula_sum   'Pr5 Th3 Pb4 Au8'
_cell_volume   537.51968475
_cell_formula_units_Z   1
loop_
 _symmetry_equiv_pos_site_id
 _symmetry_equiv_pos_as_xyz
  1  'x, y, z'
loop_
 _atom_site_type_symbol
 _atom_site_label
 _atom_site_symmetry_multiplicity
 _atom_site_fract_x
 _atom_site_fract_y
 _atom_site_fract_z
 _atom_site_occupancy
  Pr  Pr0  1  0.319606  0.680394  0.000000  1
  Pr  Pr1  1  0.164131  0.164680  0.000000  1
  Pr  Pr2  1  0.663385  0.336615  0.500000  1
  Pr  Pr3  1  0.334492  0.665508  0.500000  1
  Pr  Pr4  1  0.835320  0.835869  0.000000  1
  Th  Th5  1  0.679709  0.320291  0.000000  1
  Th  Th6  1  0.820110  0.819307  0.500000  1
  Th  Th7  1  0.180693  0.179890  0.500000  1
  Pb  Pb8  1  0.500532  0.999129  0.248919  1
  Pb  Pb9  1  0.500532  0.999129  0.751081  1
  Pb  Pb10  1  0.000871  0.499468  0.248919  1
  Pb  Pb11  1  0.000871  0.499468  0.751081  1
  Au  Au12  1  0.376402  0.373571  0.234176  1
  Au  Au13  1  0.874446  0.125554  0.729671  1
  Au  Au14  1  0.122596  0.877404  0.728882  1
  Au  Au15  1  0.626429  0.623598  0.234176  1
  Au  Au16  1  0.122596  0.877404  0.271118  1
  Au  Au17  1  0.874446  0.125554  0.270329  1
  Au  Au18  1  0.376402  0.373571  0.765824  1
  Au  Au19  1  0.626429  0.623598  0.765824  1
