# generated using pymatgen
data_CuBi3Ir3RhO14
_symmetry_space_group_name_H-M   'P 1'
_cell_length_a   7.18671270
_cell_length_b   7.35024150
_cell_length_c   7.35024100
_cell_angle_alpha   59.99999776
_cell_angle_beta   59.24439222
_cell_angle_gamma   59.24439315
_symmetry_Int_Tables_number   1
_chemical_formula_structural   CuBi3Ir3RhO14
_chemical_formula_sum   'Cu1 Bi3 Ir3 Rh1 O14'
_cell_volume   271.37060364
_cell_formula_units_Z   1
loop_
 _symmetry_equiv_pos_site_id
 _symmetry_equiv_pos_as_xyz
  1  'x, y, z'
loop_
 _atom_site_type_symbol
 _atom_site_label
 _atom_site_symmetry_multiplicity
 _atom_site_fract_x
 _atom_site_fract_y
 _atom_site_fract_z
 _atom_site_occupancy
  Cu  Cu0  1  0.625000  0.125000  0.125000  1
  Bi  Bi1  1  0.125000  0.125000  0.125000  1
  Bi  Bi2  1  0.125000  0.625000  0.125000  1
  Bi  Bi3  1  0.125000  0.125000  0.625000  1
  Ir  Ir4  1  0.625000  0.625000  0.625000  1
  Ir  Ir5  1  0.625000  0.625000  0.125000  1
  Ir  Ir6  1  0.625000  0.125000  0.625000  1
  Rh  Rh7  1  0.125000  0.625000  0.625000  1
  O  O8  1  0.295147  0.234951  0.234951  1
  O  O9  1  0.288928  0.710927  0.289217  1
  O  O10  1  0.961072  0.960783  0.539073  1
  O  O11  1  0.547726  0.950469  0.551336  1
  O  O12  1  0.702274  0.698664  0.299531  1
  O  O13  1  0.961072  0.539073  0.539073  1
  O  O14  1  0.702274  0.299531  0.698664  1
  O  O15  1  0.288928  0.289217  0.710927  1
  O  O16  1  0.702274  0.299531  0.299531  1
  O  O17  1  0.288928  0.710927  0.710927  1
  O  O18  1  0.961072  0.539073  0.960783  1
  O  O19  1  0.547726  0.551336  0.950469  1
  O  O20  1  0.954853  0.015049  0.015049  1
  O  O21  1  0.547726  0.950469  0.950469  1
