# generated using pymatgen
data_ZnMo3IrN
_symmetry_space_group_name_H-M   'P 1'
_cell_length_a   6.83691354
_cell_length_b   6.83345301
_cell_length_c   6.85647613
_cell_angle_alpha   90.26995109
_cell_angle_beta   89.40457304
_cell_angle_gamma   89.97283030
_symmetry_Int_Tables_number   1
_chemical_formula_structural   ZnMo3IrN
_chemical_formula_sum   'Zn4 Mo12 Ir4 N4'
_cell_volume   320.31179905
_cell_formula_units_Z   4
loop_
 _symmetry_equiv_pos_site_id
 _symmetry_equiv_pos_as_xyz
  1  'x, y, z'
loop_
 _atom_site_type_symbol
 _atom_site_label
 _atom_site_symmetry_multiplicity
 _atom_site_fract_x
 _atom_site_fract_y
 _atom_site_fract_z
 _atom_site_occupancy
  Zn  Zn0  1  0.185355  0.182495  0.179976  1
  Zn  Zn1  1  0.313543  0.823843  0.685264  1
  Zn  Zn2  1  0.428751  0.064908  0.932738  1
  Zn  Zn3  1  0.815635  0.685232  0.314511  1
  Mo  Mo4  1  0.624820  0.693536  0.955560  1
  Mo  Mo5  1  0.459254  0.877138  0.302103  1
  Mo  Mo6  1  0.709771  0.957472  0.620542  1
  Mo  Mo7  1  0.543727  0.368237  0.204169  1
  Mo  Mo8  1  0.376327  0.208363  0.545215  1
  Mo  Mo9  1  0.197300  0.544418  0.376289  1
  Mo  Mo10  1  0.878836  0.300742  0.460385  1
  Mo  Mo11  1  0.035211  0.125584  0.799754  1
  Mo  Mo12  1  0.302423  0.460291  0.869843  1
  Mo  Mo13  1  0.127174  0.791689  0.044365  1
  Mo  Mo14  1  0.801003  0.046330  0.123322  1
  Mo  Mo15  1  0.946317  0.620248  0.704652  1
  Ir  Ir16  1  0.681006  0.312405  0.813408  1
  Ir  Ir17  1  0.561482  0.572103  0.561100  1
  Ir  Ir18  1  0.067692  0.931743  0.428898  1
  Ir  Ir19  1  0.938780  0.438210  0.065872  1
  N  N20  1  0.376116  0.621496  0.129690  1
  N  N21  1  0.874513  0.871214  0.876779  1
  N  N22  1  0.125106  0.375456  0.629138  1
  N  N23  1  0.629857  0.126848  0.376428  1
