# generated using pymatgen
data_Gd2Ho4AuO12
_symmetry_space_group_name_H-M   'P 1'
_cell_length_a   6.49070457
_cell_length_b   6.51807239
_cell_length_c   6.49503189
_cell_angle_alpha   99.02684047
_cell_angle_beta   98.61752132
_cell_angle_gamma   98.83117244
_symmetry_Int_Tables_number   1
_chemical_formula_structural   Gd2Ho4AuO12
_chemical_formula_sum   'Gd2 Ho4 Au1 O12'
_cell_volume   263.87102553
_cell_formula_units_Z   1
loop_
 _symmetry_equiv_pos_site_id
 _symmetry_equiv_pos_as_xyz
  1  'x, y, z'
loop_
 _atom_site_type_symbol
 _atom_site_label
 _atom_site_symmetry_multiplicity
 _atom_site_fract_x
 _atom_site_fract_y
 _atom_site_fract_z
 _atom_site_occupancy
  Gd  Gd0  1  0.392080  0.695154  0.856791  1
  Gd  Gd1  1  0.138689  0.607410  0.304403  1
  Ho  Ho2  1  0.857742  0.387408  0.695484  1
  Ho  Ho3  1  0.611170  0.299377  0.140757  1
  Ho  Ho4  1  0.305055  0.142773  0.611212  1
  Ho  Ho5  1  0.700768  0.864079  0.391143  1
  Au  Au6  1  0.999955  0.000512  0.999543  1
  O  O7  1  0.940274  0.046017  0.690302  1
  O  O8  1  0.951163  0.307353  0.056617  1
  O  O9  1  0.589775  0.178247  0.438418  1
  O  O10  1  0.818515  0.562239  0.410312  1
  O  O11  1  0.308363  0.063227  0.952729  1
  O  O12  1  0.562646  0.406909  0.824873  1
  O  O13  1  0.440337  0.589838  0.178832  1
  O  O14  1  0.692791  0.942997  0.050227  1
  O  O15  1  0.174946  0.433687  0.588873  1
  O  O16  1  0.413682  0.824319  0.562269  1
  O  O17  1  0.042779  0.691485  0.937543  1
  O  O18  1  0.059270  0.956970  0.309670  1
