# generated using pymatgen
data_Tb3TmHf3O12
_symmetry_space_group_name_H-M   'P 1'
_cell_length_a   6.32305706
_cell_length_b   6.37090965
_cell_length_c   6.59168390
_cell_angle_alpha   99.96881741
_cell_angle_beta   98.01592463
_cell_angle_gamma   99.84517065
_symmetry_Int_Tables_number   1
_chemical_formula_structural   Tb3TmHf3O12
_chemical_formula_sum   'Tb3 Tm1 Hf3 O12'
_cell_volume   253.73643705
_cell_formula_units_Z   1
loop_
 _symmetry_equiv_pos_site_id
 _symmetry_equiv_pos_as_xyz
  1  'x, y, z'
loop_
 _atom_site_type_symbol
 _atom_site_label
 _atom_site_symmetry_multiplicity
 _atom_site_fract_x
 _atom_site_fract_y
 _atom_site_fract_z
 _atom_site_occupancy
  Tb  Tb0  1  0.384635  0.698289  0.865674  1
  Tb  Tb1  1  0.697520  0.865698  0.390535  1
  Tb  Tb2  1  0.613832  0.299692  0.133011  1
  Tm  Tm3  1  0.304304  0.135083  0.609835  1
  Hf  Hf4  1  0.001515  0.001141  0.000618  1
  Hf  Hf5  1  0.848657  0.396700  0.668643  1
  Hf  Hf6  1  0.151651  0.602519  0.333540  1
  O  O7  1  0.017437  0.678364  0.879181  1
  O  O8  1  0.687491  0.934289  0.059002  1
  O  O9  1  0.921152  0.089770  0.700049  1
  O  O10  1  0.981760  0.321582  0.120573  1
  O  O11  1  0.312332  0.066417  0.935701  1
  O  O12  1  0.082706  0.913912  0.301450  1
  O  O13  1  0.588431  0.190853  0.438230  1
  O  O14  1  0.170660  0.424927  0.571668  1
  O  O15  1  0.412683  0.583089  0.182378  1
  O  O16  1  0.404961  0.812768  0.563987  1
  O  O17  1  0.832977  0.570530  0.428596  1
  O  O18  1  0.585294  0.414376  0.817330  1
