# generated using pymatgen
data_BaAcAu4
_symmetry_space_group_name_H-M   'P 1'
_cell_length_a   4.88321700
_cell_length_b   4.88321764
_cell_length_c   8.24822400
_cell_angle_alpha   90.00000000
_cell_angle_beta   90.00000000
_cell_angle_gamma   119.99998890
_symmetry_Int_Tables_number   1
_chemical_formula_structural   BaAcAu4
_chemical_formula_sum   'Ba1 Ac1 Au4'
_cell_volume   170.33473982
_cell_formula_units_Z   1
loop_
 _symmetry_equiv_pos_site_id
 _symmetry_equiv_pos_as_xyz
  1  'x, y, z'
loop_
 _atom_site_type_symbol
 _atom_site_label
 _atom_site_symmetry_multiplicity
 _atom_site_fract_x
 _atom_site_fract_y
 _atom_site_fract_z
 _atom_site_occupancy
  Ba  Ba0  1  0.000000  0.000000  0.702265  1
  Ac  Ac1  1  0.000000  0.000000  0.202151  1
  Au  Au2  1  0.333333  0.666667  0.424143  1
  Au  Au3  1  0.666667  0.333333  0.977740  1
  Au  Au4  1  0.666667  0.333333  0.425975  1
  Au  Au5  1  0.333333  0.666667  0.981386  1
