# generated using pymatgen
data_Al11Tc3Pd
_symmetry_space_group_name_H-M   'P 1'
_cell_length_a   5.19128638
_cell_length_b   5.19451095
_cell_length_c   9.01227285
_cell_angle_alpha   105.27160610
_cell_angle_beta   88.55126901
_cell_angle_gamma   100.06449282
_symmetry_Int_Tables_number   1
_chemical_formula_structural   Al11Tc3Pd
_chemical_formula_sum   'Al11 Tc3 Pd1'
_cell_volume   230.78216257
_cell_formula_units_Z   1
loop_
 _symmetry_equiv_pos_site_id
 _symmetry_equiv_pos_as_xyz
  1  'x, y, z'
loop_
 _atom_site_type_symbol
 _atom_site_label
 _atom_site_symmetry_multiplicity
 _atom_site_fract_x
 _atom_site_fract_y
 _atom_site_fract_z
 _atom_site_occupancy
  Al  Al0  1  0.003912  0.002228  0.989147  1
  Al  Al1  1  0.934397  0.803643  0.656975  1
  Al  Al2  1  0.048040  0.164377  0.315599  1
  Al  Al3  1  0.828255  0.273735  0.627673  1
  Al  Al4  1  0.845947  0.545226  0.131853  1
  Al  Al5  1  0.156352  0.478523  0.880070  1
  Al  Al6  1  0.486441  0.897659  0.130771  1
  Al  Al7  1  0.524573  0.105497  0.880682  1
  Al  Al8  1  0.571721  0.329721  0.371852  1
  Al  Al9  1  0.422321  0.672729  0.627561  1
  Al  Al10  1  0.172895  0.716956  0.376998  1
  Tc  Tc11  1  0.689533  0.853588  0.398281  1
  Tc  Tc12  1  0.670500  0.612311  0.867074  1
  Tc  Tc13  1  0.330345  0.386398  0.133272  1
  Pd  Pd14  1  0.314768  0.157408  0.612193  1
