# generated using pymatgen
data_La5Y3(IrBr6)2
_symmetry_space_group_name_H-M   'P 1'
_cell_length_a   4.21768300
_cell_length_b   13.71615529
_cell_length_c   14.59023900
_cell_angle_alpha   89.47705980
_cell_angle_beta   90.00000000
_cell_angle_gamma   90.00000000
_symmetry_Int_Tables_number   1
_chemical_formula_structural   La5Y3(IrBr6)2
_chemical_formula_sum   'La5 Y3 Ir2 Br12'
_cell_volume   844.01593370
_cell_formula_units_Z   1
loop_
 _symmetry_equiv_pos_site_id
 _symmetry_equiv_pos_as_xyz
  1  'x, y, z'
loop_
 _atom_site_type_symbol
 _atom_site_label
 _atom_site_symmetry_multiplicity
 _atom_site_fract_x
 _atom_site_fract_y
 _atom_site_fract_z
 _atom_site_occupancy
  La  La0  1  0.500000  0.108364  0.346725  1
  La  La1  1  0.500000  0.882458  0.647243  1
  La  La2  1  0.500000  0.611733  0.149147  1
  La  La3  1  0.500000  0.392256  0.855058  1
  La  La4  1  0.000000  0.128248  0.585310  1
  Y  Y5  1  0.000000  0.876159  0.417330  1
  Y  Y6  1  0.000000  0.625759  0.919339  1
  Y  Y7  1  0.000000  0.376592  0.084680  1
  Ir  Ir8  1  0.500000  0.998350  0.499017  1
  Ir  Ir9  1  0.500000  0.501428  0.002403  1
  Br  Br10  1  0.500000  0.243278  0.166637  1
  Br  Br11  1  0.500000  0.754188  0.831579  1
  Br  Br12  1  0.500000  0.746227  0.330029  1
  Br  Br13  1  0.500000  0.268645  0.673591  1
  Br  Br14  1  0.000000  0.255035  0.410917  1
  Br  Br15  1  0.000000  0.740517  0.573626  1
  Br  Br16  1  0.000000  0.755564  0.075808  1
  Br  Br17  1  0.000000  0.247676  0.926468  1
  Br  Br18  1  0.000000  0.988134  0.245442  1
  Br  Br19  1  0.000000  0.995882  0.755805  1
  Br  Br20  1  0.000000  0.490651  0.252056  1
  Br  Br21  1  0.000000  0.512859  0.751787  1
