# generated using pymatgen
data_RbCdAsO4
_symmetry_space_group_name_H-M   'P 1'
_cell_length_a   5.50172300
_cell_length_b   9.44168400
_cell_length_c   10.39694000
_cell_angle_alpha   90.00000000
_cell_angle_beta   90.00000000
_cell_angle_gamma   90.00000000
_symmetry_Int_Tables_number   1
_chemical_formula_structural   RbCdAsO4
_chemical_formula_sum   'Rb4 Cd4 As4 O16'
_cell_volume   540.07455890
_cell_formula_units_Z   4
loop_
 _symmetry_equiv_pos_site_id
 _symmetry_equiv_pos_as_xyz
  1  'x, y, z'
loop_
 _atom_site_type_symbol
 _atom_site_label
 _atom_site_symmetry_multiplicity
 _atom_site_fract_x
 _atom_site_fract_y
 _atom_site_fract_z
 _atom_site_occupancy
  Rb  Rb0  1  0.498306  0.495319  0.185174  1
  Rb  Rb1  1  0.498306  0.995320  0.314826  1
  Rb  Rb2  1  0.998307  0.004681  0.685174  1
  Rb  Rb3  1  0.998307  0.504683  0.814825  1
  Cd  Cd4  1  0.991805  0.162450  0.044439  1
  Cd  Cd5  1  0.991805  0.662451  0.455560  1
  Cd  Cd6  1  0.491808  0.337549  0.544438  1
  Cd  Cd7  1  0.491808  0.837549  0.955561  1
  As  As8  1  0.049187  0.788388  0.125843  1
  As  As9  1  0.049187  0.288387  0.374157  1
  As  As10  1  0.549188  0.711612  0.625844  1
  As  As11  1  0.549188  0.211613  0.874156  1
  O  O12  1  0.193519  0.676222  0.018631  1
  O  O13  1  0.172022  0.951729  0.079956  1
  O  O14  1  0.737841  0.780657  0.122358  1
  O  O15  1  0.149319  0.257045  0.219959  1
  O  O16  1  0.149319  0.757045  0.280041  1
  O  O17  1  0.737841  0.280658  0.377643  1
  O  O18  1  0.172022  0.451729  0.420045  1
  O  O19  1  0.193519  0.176223  0.481369  1
  O  O20  1  0.693518  0.823777  0.518631  1
  O  O21  1  0.672021  0.548271  0.579956  1
  O  O22  1  0.237842  0.719343  0.622358  1
  O  O23  1  0.649320  0.242955  0.719958  1
  O  O24  1  0.649320  0.742955  0.780041  1
  O  O25  1  0.237842  0.219343  0.877644  1
  O  O26  1  0.672021  0.048271  0.920044  1
  O  O27  1  0.693518  0.323777  0.981368  1
