# generated using pymatgen
data_TbErMgB2Rh5
_symmetry_space_group_name_H-M   'P 1'
_cell_length_a   9.64098915
_cell_length_b   9.64098915
_cell_length_c   3.18314900
_cell_angle_alpha   90.00000000
_cell_angle_beta   90.00000000
_cell_angle_gamma   89.59858952
_symmetry_Int_Tables_number   1
_chemical_formula_structural   TbErMgB2Rh5
_chemical_formula_sum   'Tb2 Er2 Mg2 B4 Rh10'
_cell_volume   295.86221066
_cell_formula_units_Z   2
loop_
 _symmetry_equiv_pos_site_id
 _symmetry_equiv_pos_as_xyz
  1  'x, y, z'
loop_
 _atom_site_type_symbol
 _atom_site_label
 _atom_site_symmetry_multiplicity
 _atom_site_fract_x
 _atom_site_fract_y
 _atom_site_fract_z
 _atom_site_occupancy
  Tb  Tb0  1  0.675802  0.175802  0.000000  1
  Tb  Tb1  1  0.324198  0.824198  0.000000  1
  Er  Er2  1  0.175324  0.324676  0.000000  1
  Er  Er3  1  0.824676  0.675324  0.000000  1
  Mg  Mg4  1  0.000000  0.000000  0.000000  1
  Mg  Mg5  1  0.500000  0.500000  0.000000  1
  B  B6  1  0.122136  0.622136  0.000000  1
  B  B7  1  0.877864  0.377864  0.000000  1
  B  B8  1  0.622857  0.877143  0.000000  1
  B  B9  1  0.377143  0.122857  0.000000  1
  Rh  Rh10  1  0.500000  0.000000  0.500000  1
  Rh  Rh11  1  0.000000  0.500000  0.500000  1
  Rh  Rh12  1  0.223599  0.072171  0.500000  1
  Rh  Rh13  1  0.776401  0.927829  0.500000  1
  Rh  Rh14  1  0.068777  0.774768  0.500000  1
  Rh  Rh15  1  0.725232  0.431223  0.500000  1
  Rh  Rh16  1  0.931223  0.225232  0.500000  1
  Rh  Rh17  1  0.274768  0.568777  0.500000  1
  Rh  Rh18  1  0.572171  0.723599  0.500000  1
  Rh  Rh19  1  0.427829  0.276401  0.500000  1
