# generated using pymatgen
data_Er13Tm7(IrPt2)4
_symmetry_space_group_name_H-M   'P 1'
_cell_length_a   10.95288303
_cell_length_b   10.95057902
_cell_length_c   6.30709302
_cell_angle_alpha   90.00475320
_cell_angle_beta   89.99260666
_cell_angle_gamma   90.00462495
_symmetry_Int_Tables_number   1
_chemical_formula_structural   Er13Tm7(IrPt2)4
_chemical_formula_sum   'Er13 Tm7 Ir4 Pt8'
_cell_volume   756.47531824
_cell_formula_units_Z   1
loop_
 _symmetry_equiv_pos_site_id
 _symmetry_equiv_pos_as_xyz
  1  'x, y, z'
loop_
 _atom_site_type_symbol
 _atom_site_label
 _atom_site_symmetry_multiplicity
 _atom_site_fract_x
 _atom_site_fract_y
 _atom_site_fract_z
 _atom_site_occupancy
  Er  Er0  1  0.294751  0.087190  0.374129  1
  Er  Er1  1  0.294776  0.912832  0.874148  1
  Er  Er2  1  0.705245  0.087169  0.874156  1
  Er  Er3  1  0.705167  0.912969  0.374294  1
  Er  Er4  1  0.587039  0.794930  0.874229  1
  Er  Er5  1  0.587017  0.205062  0.374337  1
  Er  Er6  1  0.412940  0.794921  0.374237  1
  Er  Er7  1  0.412945  0.205061  0.874274  1
  Er  Er8  1  0.204725  0.412953  0.625708  1
  Er  Er9  1  0.204909  0.586943  0.125694  1
  Er  Er10  1  0.795220  0.412742  0.125640  1
  Er  Er11  1  0.795211  0.586911  0.625739  1
  Er  Er12  1  0.913196  0.705124  0.125681  1
  Tm  Tm13  1  0.913272  0.295255  0.625392  1
  Tm  Tm14  1  0.086869  0.704739  0.625482  1
  Tm  Tm15  1  0.086754  0.295244  0.125464  1
  Tm  Tm16  1  0.000039  0.000025  0.500125  1
  Tm  Tm17  1  0.000079  0.000224  0.000025  1
  Tm  Tm18  1  0.500006  0.499964  0.000058  1
  Tm  Tm19  1  0.499984  0.499964  0.500124  1
  Ir  Ir20  1  0.499968  0.000010  0.120299  1
  Ir  Ir21  1  0.499983  0.999993  0.620306  1
  Ir  Ir22  1  0.000138  0.499717  0.879388  1
  Ir  Ir23  1  0.000135  0.499711  0.379879  1
  Pt  Pt24  1  0.847168  0.153651  0.250601  1
  Pt  Pt25  1  0.847030  0.846613  0.749858  1
  Pt  Pt26  1  0.152837  0.153696  0.750564  1
  Pt  Pt27  1  0.153049  0.846492  0.250720  1
  Pt  Pt28  1  0.653643  0.346709  0.749839  1
  Pt  Pt29  1  0.653233  0.653221  0.250063  1
  Pt  Pt30  1  0.346347  0.346690  0.249733  1
  Pt  Pt31  1  0.346325  0.653275  0.749813  1
