# generated using pymatgen
data_LiEr4Co17(ReP6)2
_symmetry_space_group_name_H-M   'P 1'
_cell_length_a   3.68109100
_cell_length_b   10.30572607
_cell_length_c   11.75194207
_cell_angle_alpha   90.01296332
_cell_angle_beta   90.00000000
_cell_angle_gamma   90.00000000
_symmetry_Int_Tables_number   1
_chemical_formula_structural   LiEr4Co17(ReP6)2
_chemical_formula_sum   'Li1 Er4 Co17 Re2 P12'
_cell_volume   445.82537054
_cell_formula_units_Z   1
loop_
 _symmetry_equiv_pos_site_id
 _symmetry_equiv_pos_as_xyz
  1  'x, y, z'
loop_
 _atom_site_type_symbol
 _atom_site_label
 _atom_site_symmetry_multiplicity
 _atom_site_fract_x
 _atom_site_fract_y
 _atom_site_fract_z
 _atom_site_occupancy
  Li  Li0  1  0.750000  0.295917  0.009639  1
  Er  Er1  1  0.250000  0.582741  0.703299  1
  Er  Er2  1  0.250000  0.918073  0.202808  1
  Er  Er3  1  0.750000  0.415278  0.295481  1
  Er  Er4  1  0.750000  0.083620  0.795124  1
  Co  Co5  1  0.750000  0.215510  0.509168  1
  Co  Co6  1  0.250000  0.406888  0.487208  1
  Co  Co7  1  0.250000  0.091400  0.988539  1
  Co  Co8  1  0.750000  0.593402  0.511136  1
  Co  Co9  1  0.750000  0.905333  0.011604  1
  Co  Co10  1  0.250000  0.218709  0.179899  1
  Co  Co11  1  0.250000  0.280388  0.674036  1
  Co  Co12  1  0.750000  0.776586  0.822720  1
  Co  Co13  1  0.750000  0.722499  0.322599  1
  Co  Co14  1  0.250000  0.886426  0.701761  1
  Co  Co15  1  0.250000  0.614321  0.201732  1
  Co  Co16  1  0.750000  0.114493  0.302023  1
  Co  Co17  1  0.750000  0.382489  0.798974  1
  Co  Co18  1  0.250000  0.463922  0.932443  1
  Co  Co19  1  0.250000  0.034724  0.433410  1
  Co  Co20  1  0.750000  0.533754  0.069615  1
  Co  Co21  1  0.750000  0.966957  0.568994  1
  Re  Re22  1  0.250000  0.708910  0.989595  1
  Re  Re23  1  0.250000  0.789682  0.489037  1
  P  P24  1  0.250000  0.417230  0.115221  1
  P  P25  1  0.250000  0.083433  0.613228  1
  P  P26  1  0.750000  0.576385  0.886176  1
  P  P27  1  0.750000  0.921436  0.386402  1
  P  P28  1  0.250000  0.268630  0.864338  1
  P  P29  1  0.250000  0.230630  0.369135  1
  P  P30  1  0.750000  0.731150  0.132955  1
  P  P31  1  0.750000  0.769519  0.633689  1
  P  P32  1  0.250000  0.594361  0.390204  1
  P  P33  1  0.250000  0.904943  0.891422  1
  P  P34  1  0.750000  0.398940  0.607272  1
  P  P35  1  0.750000  0.101322  0.109115  1
