# generated using pymatgen
data_La5Pr11CdHg3Pt4
_symmetry_space_group_name_H-M   'P 1'
_cell_length_a   10.10032679
_cell_length_b   10.13480462
_cell_length_c   10.13480394
_cell_angle_alpha   59.93197371
_cell_angle_beta   59.97388312
_cell_angle_gamma   59.97388283
_symmetry_Int_Tables_number   1
_chemical_formula_structural   La5Pr11CdHg3Pt4
_chemical_formula_sum   'La5 Pr11 Cd1 Hg3 Pt4'
_cell_volume   732.91904938
_cell_formula_units_Z   1
loop_
 _symmetry_equiv_pos_site_id
 _symmetry_equiv_pos_as_xyz
  1  'x, y, z'
loop_
 _atom_site_type_symbol
 _atom_site_label
 _atom_site_symmetry_multiplicity
 _atom_site_fract_x
 _atom_site_fract_y
 _atom_site_fract_z
 _atom_site_occupancy
  La  La0  1  0.349293  0.350232  0.350232  1
  La  La1  1  0.352104  0.351307  0.946160  1
  La  La2  1  0.352104  0.946160  0.351307  1
  La  La3  1  0.942676  0.353375  0.353375  1
  La  La4  1  0.810022  0.190940  0.190940  1
  Pr  Pr5  1  0.190629  0.809071  0.809071  1
  Pr  Pr6  1  0.191061  0.808928  0.191279  1
  Pr  Pr7  1  0.807729  0.192540  0.806986  1
  Pr  Pr8  1  0.191061  0.191279  0.808928  1
  Pr  Pr9  1  0.807729  0.806986  0.192540  1
  Pr  Pr10  1  0.937923  0.564718  0.564718  1
  Pr  Pr11  1  0.562720  0.935325  0.935325  1
  Pr  Pr12  1  0.562459  0.938110  0.565163  1
  Pr  Pr13  1  0.936270  0.564313  0.934076  1
  Pr  Pr14  1  0.562459  0.565163  0.938110  1
  Pr  Pr15  1  0.936270  0.934076  0.564313  1
  Cd  Cd16  1  0.260087  0.579947  0.579947  1
  Hg  Hg17  1  0.583840  0.586130  0.586130  1
  Hg  Hg18  1  0.582869  0.587316  0.243504  1
  Hg  Hg19  1  0.582869  0.243504  0.587316  1
  Pt  Pt20  1  0.141001  0.144681  0.144681  1
  Pt  Pt21  1  0.142788  0.142325  0.569924  1
  Pt  Pt22  1  0.142788  0.569924  0.142325  1
  Pt  Pt23  1  0.571252  0.143644  0.143644  1
