# generated using pymatgen
data_Zn5NiMo12(IrN2)2
_symmetry_space_group_name_H-M   'P 1'
_cell_length_a   6.83054149
_cell_length_b   6.81646674
_cell_length_c   6.79935875
_cell_angle_alpha   90.01507617
_cell_angle_beta   90.05689555
_cell_angle_gamma   90.33237387
_symmetry_Int_Tables_number   1
_chemical_formula_structural   Zn5NiMo12(IrN2)2
_chemical_formula_sum   'Zn5 Ni1 Mo12 Ir2 N4'
_cell_volume   316.57372948
_cell_formula_units_Z   1
loop_
 _symmetry_equiv_pos_site_id
 _symmetry_equiv_pos_as_xyz
  1  'x, y, z'
loop_
 _atom_site_type_symbol
 _atom_site_label
 _atom_site_symmetry_multiplicity
 _atom_site_fract_x
 _atom_site_fract_y
 _atom_site_fract_z
 _atom_site_occupancy
  Zn  Zn0  1  0.178396  0.317436  0.569731  1
  Zn  Zn1  1  0.681220  0.678624  0.432704  1
  Zn  Zn2  1  0.931152  0.436051  0.323597  1
  Zn  Zn3  1  0.566179  0.927846  0.188873  1
  Zn  Zn4  1  0.432563  0.566246  0.676665  1
  Ni  Ni5  1  0.063748  0.068325  0.806574  1
  Mo  Mo6  1  0.369497  0.959392  0.546827  1
  Mo  Mo7  1  0.871035  0.043955  0.458618  1
  Mo  Mo8  1  0.120562  0.443313  0.960221  1
  Mo  Mo9  1  0.621814  0.551114  0.037743  1
  Mo  Mo10  1  0.796799  0.373291  0.713108  1
  Mo  Mo11  1  0.713354  0.874896  0.805752  1
  Mo  Mo12  1  0.206430  0.124272  0.191241  1
  Mo  Mo13  1  0.291686  0.623669  0.290238  1
  Mo  Mo14  1  0.957960  0.800832  0.120472  1
  Mo  Mo15  1  0.052818  0.714448  0.628808  1
  Mo  Mo16  1  0.451246  0.205153  0.871469  1
  Mo  Mo17  1  0.547721  0.287514  0.375283  1
  Ir  Ir18  1  0.312077  0.819582  0.931645  1
  Ir  Ir19  1  0.817728  0.181062  0.066597  1
  N  N20  1  0.629252  0.123832  0.630033  1
  N  N21  1  0.126498  0.878661  0.373662  1
  N  N22  1  0.881461  0.625238  0.877534  1
  N  N23  1  0.378807  0.375248  0.122605  1
