# generated using pymatgen
data_La7NdSnPd24
_symmetry_space_group_name_H-M   'P 1'
_cell_length_a   8.60333300
_cell_length_b   8.60333300
_cell_length_c   8.60333300
_cell_angle_alpha   89.99921415
_cell_angle_beta   89.99921415
_cell_angle_gamma   89.99921415
_symmetry_Int_Tables_number   1
_chemical_formula_structural   La7NdSnPd24
_chemical_formula_sum   'La7 Nd1 Sn1 Pd24'
_cell_volume   636.79581260
_cell_formula_units_Z   1
loop_
 _symmetry_equiv_pos_site_id
 _symmetry_equiv_pos_as_xyz
  1  'x, y, z'
loop_
 _atom_site_type_symbol
 _atom_site_label
 _atom_site_symmetry_multiplicity
 _atom_site_fract_x
 _atom_site_fract_y
 _atom_site_fract_z
 _atom_site_occupancy
  La  La0  1  0.747930  0.747930  0.747930  1
  La  La1  1  0.747857  0.747857  0.252105  1
  La  La2  1  0.747857  0.252105  0.747857  1
  La  La3  1  0.252313  0.252313  0.747620  1
  La  La4  1  0.252313  0.747620  0.252313  1
  La  La5  1  0.252105  0.747857  0.747857  1
  La  La6  1  0.747620  0.252313  0.252313  1
  Nd  Nd7  1  0.251468  0.251468  0.251468  1
  Sn  Sn8  1  0.000316  0.000316  0.000316  1
  Pd  Pd9  1  0.267097  0.499614  0.000590  1
  Pd  Pd10  1  0.732963  0.499874  0.000077  1
  Pd  Pd11  1  0.000590  0.267097  0.499614  1
  Pd  Pd12  1  0.499614  0.267097  0.000590  1
  Pd  Pd13  1  0.000077  0.732963  0.499874  1
  Pd  Pd14  1  0.499874  0.732963  0.000077  1
  Pd  Pd15  1  0.499614  0.000590  0.267097  1
  Pd  Pd16  1  0.267097  0.000590  0.499614  1
  Pd  Pd17  1  0.499874  0.000077  0.732963  1
  Pd  Pd18  1  0.732963  0.000077  0.499874  1
  Pd  Pd19  1  0.000590  0.499614  0.267097  1
  Pd  Pd20  1  0.000077  0.499874  0.732963  1
  Pd  Pd21  1  0.255522  0.499301  0.499301  1
  Pd  Pd22  1  0.744451  0.499972  0.499972  1
  Pd  Pd23  1  0.499301  0.255522  0.499301  1
  Pd  Pd24  1  0.499972  0.744451  0.499972  1
  Pd  Pd25  1  0.499301  0.499301  0.255522  1
  Pd  Pd26  1  0.499972  0.499972  0.744451  1
  Pd  Pd27  1  0.313607  0.000557  0.000557  1
  Pd  Pd28  1  0.686358  0.000095  0.000095  1
  Pd  Pd29  1  0.000557  0.313607  0.000557  1
  Pd  Pd30  1  0.000095  0.686358  0.000095  1
  Pd  Pd31  1  0.000557  0.000557  0.313607  1
  Pd  Pd32  1  0.000095  0.000095  0.686358  1
