# generated using pymatgen
data_Be8Fe3Co(Mo6C)2
_symmetry_space_group_name_H-M   'P 1'
_cell_length_a   7.55434603
_cell_length_b   7.55434680
_cell_length_c   7.54437130
_cell_angle_alpha   59.95624507
_cell_angle_beta   59.95624423
_cell_angle_gamma   59.99999512
_symmetry_Int_Tables_number   1
_chemical_formula_structural   Be8Fe3Co(Mo6C)2
_chemical_formula_sum   'Be8 Fe3 Co1 Mo12 C2'
_cell_volume   304.23858337
_cell_formula_units_Z   1
loop_
 _symmetry_equiv_pos_site_id
 _symmetry_equiv_pos_as_xyz
  1  'x, y, z'
loop_
 _atom_site_type_symbol
 _atom_site_label
 _atom_site_symmetry_multiplicity
 _atom_site_fract_x
 _atom_site_fract_y
 _atom_site_fract_z
 _atom_site_occupancy
  Be  Be0  1  0.421660  0.421660  0.735020  1
  Be  Be1  1  0.422315  0.735788  0.419582  1
  Be  Be2  1  0.735788  0.422315  0.419582  1
  Be  Be3  1  0.422315  0.422315  0.419582  1
  Be  Be4  1  0.828340  0.828340  0.514980  1
  Be  Be5  1  0.827685  0.514212  0.830418  1
  Be  Be6  1  0.514212  0.827685  0.830418  1
  Be  Be7  1  0.827685  0.827685  0.830418  1
  Fe  Fe8  1  0.625000  0.125000  0.625000  1
  Fe  Fe9  1  0.125000  0.625000  0.625000  1
  Fe  Fe10  1  0.625000  0.625000  0.625000  1
  Co  Co11  1  0.625000  0.625000  0.125000  1
  Mo  Mo12  1  0.048290  0.048290  0.451568  1
  Mo  Mo13  1  0.451853  0.048290  0.451568  1
  Mo  Mo14  1  0.048290  0.451853  0.451568  1
  Mo  Mo15  1  0.450972  0.450972  0.048332  1
  Mo  Mo16  1  0.049724  0.450972  0.048332  1
  Mo  Mo17  1  0.450972  0.049724  0.048332  1
  Mo  Mo18  1  0.201710  0.201710  0.798432  1
  Mo  Mo19  1  0.798147  0.201710  0.798432  1
  Mo  Mo20  1  0.201710  0.798147  0.798432  1
  Mo  Mo21  1  0.799028  0.799028  0.201668  1
  Mo  Mo22  1  0.200276  0.799028  0.201668  1
  Mo  Mo23  1  0.799028  0.200276  0.201668  1
  C  C24  1  0.249937  0.249937  0.250188  1
  C  C25  1  0.000063  0.000063  0.999812  1
