# generated using pymatgen
data_Ce2Gd2S3N2
_symmetry_space_group_name_H-M   'P 1'
_cell_length_a   6.75444379
_cell_length_b   6.75444470
_cell_length_c   10.61436700
_cell_angle_alpha   47.97434265
_cell_angle_beta   47.97433569
_cell_angle_gamma   33.44353448
_symmetry_Int_Tables_number   1
_chemical_formula_structural   Ce2Gd2S3N2
_chemical_formula_sum   'Ce2 Gd2 S3 N2'
_cell_volume   190.84550241
_cell_formula_units_Z   1
loop_
 _symmetry_equiv_pos_site_id
 _symmetry_equiv_pos_as_xyz
  1  'x, y, z'
loop_
 _atom_site_type_symbol
 _atom_site_label
 _atom_site_symmetry_multiplicity
 _atom_site_fract_x
 _atom_site_fract_y
 _atom_site_fract_z
 _atom_site_occupancy
  Ce  Ce0  1  0.272363  0.272363  0.623431  1
  Ce  Ce1  1  0.727636  0.727637  0.376569  1
  Gd  Gd2  1  0.570666  0.570666  0.118957  1
  Gd  Gd3  1  0.429334  0.429334  0.881043  1
  S  S4  1  0.000000  0.000000  0.000000  1
  S  S5  1  0.861911  0.861911  0.757421  1
  S  S6  1  0.138089  0.138089  0.242579  1
  N  N7  1  0.335296  0.335296  0.360866  1
  N  N8  1  0.664704  0.664704  0.639134  1
