# generated using pymatgen
data_Y6Al24Os5Rh3
_symmetry_space_group_name_H-M   'P 1'
_cell_length_a   8.82250664
_cell_length_b   8.81157113
_cell_length_c   9.55066593
_cell_angle_alpha   90.28139610
_cell_angle_beta   89.94528715
_cell_angle_gamma   119.47792015
_symmetry_Int_Tables_number   1
_chemical_formula_structural   Y6Al24Os5Rh3
_chemical_formula_sum   'Y6 Al24 Os5 Rh3'
_cell_volume   646.34526492
_cell_formula_units_Z   1
loop_
 _symmetry_equiv_pos_site_id
 _symmetry_equiv_pos_as_xyz
  1  'x, y, z'
loop_
 _atom_site_type_symbol
 _atom_site_label
 _atom_site_symmetry_multiplicity
 _atom_site_fract_x
 _atom_site_fract_y
 _atom_site_fract_z
 _atom_site_occupancy
  Y  Y0  1  0.186803  0.386292  0.251360  1
  Y  Y1  1  0.813197  0.613708  0.748640  1
  Y  Y2  1  0.615008  0.811133  0.251877  1
  Y  Y3  1  0.384992  0.188867  0.748123  1
  Y  Y4  1  0.191803  0.803704  0.251244  1
  Y  Y5  1  0.808197  0.196296  0.748756  1
  Al  Al6  1  0.332314  0.666237  0.021843  1
  Al  Al7  1  0.667686  0.333763  0.978157  1
  Al  Al8  1  0.667317  0.332213  0.519831  1
  Al  Al9  1  0.332683  0.667787  0.480169  1
  Al  Al10  1  0.161914  0.325610  0.576597  1
  Al  Al11  1  0.838086  0.674390  0.423403  1
  Al  Al12  1  0.675400  0.839314  0.577801  1
  Al  Al13  1  0.838637  0.674691  0.076419  1
  Al  Al14  1  0.324600  0.160686  0.422199  1
  Al  Al15  1  0.161363  0.325309  0.923581  1
  Al  Al16  1  0.164601  0.836299  0.575354  1
  Al  Al17  1  0.324274  0.163141  0.077963  1
  Al  Al18  1  0.835399  0.163701  0.424646  1
  Al  Al19  1  0.675726  0.836859  0.922037  1
  Al  Al20  1  0.838256  0.166033  0.075593  1
  Al  Al21  1  0.161744  0.833967  0.924407  1
  Al  Al22  1  0.560728  0.123115  0.250132  1
  Al  Al23  1  0.439272  0.876885  0.749868  1
  Al  Al24  1  0.875122  0.438122  0.249513  1
  Al  Al25  1  0.124878  0.561878  0.750487  1
  Al  Al26  1  0.560004  0.439280  0.249124  1
  Al  Al27  1  0.439996  0.560720  0.750876  1
  Al  Al28  1  0.998718  0.000601  0.250104  1
  Al  Al29  1  0.001282  0.999399  0.749896  1
  Os  Os30  1  0.000000  0.500000  0.000000  1
  Os  Os31  1  0.500000  0.000000  0.500000  1
  Os  Os32  1  0.000000  0.500000  0.500000  1
  Os  Os33  1  0.000000  0.000000  0.000000  1
  Os  Os34  1  0.000000  0.000000  0.500000  1
  Rh  Rh35  1  0.500000  0.000000  0.000000  1
  Rh  Rh36  1  0.500000  0.500000  0.000000  1
  Rh  Rh37  1  0.500000  0.500000  0.500000  1
