# generated using pymatgen
data_KP4(WO7)2
_symmetry_space_group_name_H-M   'P 1'
_cell_length_a   5.01424244
_cell_length_b   7.41716270
_cell_length_c   8.37731900
_cell_angle_alpha   90.45869962
_cell_angle_beta   93.25931659
_cell_angle_gamma   104.87667434
_symmetry_Int_Tables_number   1
_chemical_formula_structural   KP4(WO7)2
_chemical_formula_sum   'K1 P4 W2 O14'
_cell_volume   300.55164874
_cell_formula_units_Z   1
loop_
 _symmetry_equiv_pos_site_id
 _symmetry_equiv_pos_as_xyz
  1  'x, y, z'
loop_
 _atom_site_type_symbol
 _atom_site_label
 _atom_site_symmetry_multiplicity
 _atom_site_fract_x
 _atom_site_fract_y
 _atom_site_fract_z
 _atom_site_occupancy
  K  K0  1  0.000000  0.500000  0.000000  1
  P  P1  1  0.373858  0.261293  0.299837  1
  P  P2  1  0.626142  0.738707  0.700163  1
  P  P3  1  0.004733  0.114634  0.751405  1
  P  P4  1  0.995267  0.885366  0.248595  1
  W  W5  1  0.000000  0.500000  0.500000  1
  W  W6  1  0.500000  0.000000  0.000000  1
  O  O7  1  0.260510  0.050097  0.809373  1
  O  O8  1  0.739490  0.949903  0.190627  1
  O  O9  1  0.155366  0.849117  0.101890  1
  O  O10  1  0.844634  0.150883  0.898110  1
  O  O11  1  0.197873  0.052232  0.351236  1
  O  O12  1  0.802127  0.947768  0.648764  1
  O  O13  1  0.179919  0.390255  0.300814  1
  O  O14  1  0.820081  0.609745  0.699186  1
  O  O15  1  0.614222  0.308485  0.422168  1
  O  O16  1  0.385778  0.691515  0.577832  1
  O  O17  1  0.082013  0.286467  0.653788  1
  O  O18  1  0.917987  0.713533  0.346212  1
  O  O19  1  0.453661  0.240001  0.125215  1
  O  O20  1  0.546339  0.759999  0.874785  1
