# generated using pymatgen
data_Ca2Mg(Si3Pd10)2
_symmetry_space_group_name_H-M   'P 1'
_cell_length_a   8.69890206
_cell_length_b   8.69892279
_cell_length_c   8.69885300
_cell_angle_alpha   60.00011749
_cell_angle_beta   60.00007024
_cell_angle_gamma   60.00043909
_symmetry_Int_Tables_number   1
_chemical_formula_structural   Ca2Mg(Si3Pd10)2
_chemical_formula_sum   'Ca2 Mg1 Si6 Pd20'
_cell_volume   465.45635961
_cell_formula_units_Z   1
loop_
 _symmetry_equiv_pos_site_id
 _symmetry_equiv_pos_as_xyz
  1  'x, y, z'
loop_
 _atom_site_type_symbol
 _atom_site_label
 _atom_site_symmetry_multiplicity
 _atom_site_fract_x
 _atom_site_fract_y
 _atom_site_fract_z
 _atom_site_occupancy
  Ca  Ca0  1  0.250001  0.250002  0.249998  1
  Ca  Ca1  1  0.749999  0.749998  0.750002  1
  Mg  Mg2  1  0.000000  0.000000  0.000000  1
  Si  Si3  1  0.731633  0.268366  0.268369  1
  Si  Si4  1  0.268367  0.731634  0.731631  1
  Si  Si5  1  0.268367  0.731633  0.268369  1
  Si  Si6  1  0.731633  0.268367  0.731631  1
  Si  Si7  1  0.268368  0.268368  0.731632  1
  Si  Si8  1  0.731632  0.731632  0.268368  1
  Pd  Pd9  1  0.384330  0.384329  0.384332  1
  Pd  Pd10  1  0.615670  0.615671  0.615668  1
  Pd  Pd11  1  0.384330  0.384330  0.847008  1
  Pd  Pd12  1  0.384328  0.847015  0.384329  1
  Pd  Pd13  1  0.615670  0.615670  0.152992  1
  Pd  Pd14  1  0.615672  0.152985  0.615671  1
  Pd  Pd15  1  0.847014  0.384328  0.384330  1
  Pd  Pd16  1  0.152986  0.615672  0.615670  1
  Pd  Pd17  1  0.341979  0.000001  0.000001  1
  Pd  Pd18  1  0.658021  0.999999  0.999999  1
  Pd  Pd19  1  0.000003  0.341978  0.658017  1
  Pd  Pd20  1  0.999997  0.658022  0.341983  1
  Pd  Pd21  1  0.000002  0.341979  0.000001  1
  Pd  Pd22  1  0.658020  0.999998  0.341984  1
  Pd  Pd23  1  0.999998  0.658021  0.999999  1
  Pd  Pd24  1  0.341980  0.000002  0.658016  1
  Pd  Pd25  1  0.999999  0.999999  0.341983  1
  Pd  Pd26  1  0.000001  0.000001  0.658017  1
  Pd  Pd27  1  0.658022  0.341977  0.000001  1
  Pd  Pd28  1  0.341978  0.658023  0.999999  1
