# generated using pymatgen
data_Ho2LuGa5Co
_symmetry_space_group_name_H-M   'P 1'
_cell_length_a   6.84283583
_cell_length_b   6.84283735
_cell_length_c   4.18763000
_cell_angle_alpha   90.00000000
_cell_angle_beta   90.00000000
_cell_angle_gamma   119.82663808
_symmetry_Int_Tables_number   1
_chemical_formula_structural   Ho2LuGa5Co
_chemical_formula_sum   'Ho2 Lu1 Ga5 Co1'
_cell_volume   170.10900234
_cell_formula_units_Z   1
loop_
 _symmetry_equiv_pos_site_id
 _symmetry_equiv_pos_as_xyz
  1  'x, y, z'
loop_
 _atom_site_type_symbol
 _atom_site_label
 _atom_site_symmetry_multiplicity
 _atom_site_fract_x
 _atom_site_fract_y
 _atom_site_fract_z
 _atom_site_occupancy
  Ho  Ho0  1  0.596769  0.999484  0.000000  1
  Ho  Ho1  1  0.999484  0.596769  0.000000  1
  Lu  Lu2  1  0.399791  0.399791  0.000000  1
  Ga  Ga3  1  0.231789  0.000458  0.500000  1
  Ga  Ga4  1  0.000458  0.231789  0.500000  1
  Ga  Ga5  1  0.768837  0.768837  0.500000  1
  Ga  Ga6  1  0.334320  0.665070  0.500000  1
  Ga  Ga7  1  0.665070  0.334320  0.500000  1
  Co  Co8  1  0.003483  0.003483  0.000000  1
