# generated using pymatgen
data_Gd3Mg3SiHg2
_symmetry_space_group_name_H-M   'P 1'
_cell_length_a   7.58061700
_cell_length_b   7.58061597
_cell_length_c   4.35098900
_cell_angle_alpha   90.00000000
_cell_angle_beta   90.00000000
_cell_angle_gamma   120.00000012
_symmetry_Int_Tables_number   1
_chemical_formula_structural   Gd3Mg3SiHg2
_chemical_formula_sum   'Gd3 Mg3 Si1 Hg2'
_cell_volume   216.53478235
_cell_formula_units_Z   1
loop_
 _symmetry_equiv_pos_site_id
 _symmetry_equiv_pos_as_xyz
  1  'x, y, z'
loop_
 _atom_site_type_symbol
 _atom_site_label
 _atom_site_symmetry_multiplicity
 _atom_site_fract_x
 _atom_site_fract_y
 _atom_site_fract_z
 _atom_site_occupancy
  Gd  Gd0  1  0.583867  0.012036  0.000000  1
  Gd  Gd1  1  0.987964  0.571828  0.000000  1
  Gd  Gd2  1  0.428172  0.416133  0.000000  1
  Mg  Mg3  1  0.249230  0.002122  0.500000  1
  Mg  Mg4  1  0.997878  0.247107  0.500000  1
  Mg  Mg5  1  0.752893  0.750770  0.500000  1
  Si  Si6  1  0.666667  0.333333  0.500000  1
  Hg  Hg7  1  0.333333  0.666667  0.500000  1
  Hg  Hg8  1  0.000000  0.000000  0.000000  1
