# generated using pymatgen
data_Sc(Zn2Co)4
_symmetry_space_group_name_H-M   'P 1'
_cell_length_a   6.53512733
_cell_length_b   6.53523172
_cell_length_c   6.53512834
_cell_angle_alpha   98.24273951
_cell_angle_beta   98.24416989
_cell_angle_gamma   135.49809584
_symmetry_Int_Tables_number   1
_chemical_formula_structural   Sc(Zn2Co)4
_chemical_formula_sum   'Sc1 Zn8 Co4'
_cell_volume   181.06795886
_cell_formula_units_Z   1
loop_
 _symmetry_equiv_pos_site_id
 _symmetry_equiv_pos_as_xyz
  1  'x, y, z'
loop_
 _atom_site_type_symbol
 _atom_site_label
 _atom_site_symmetry_multiplicity
 _atom_site_fract_x
 _atom_site_fract_y
 _atom_site_fract_z
 _atom_site_occupancy
  Sc  Sc0  1  0.000000  0.000000  0.000000  1
  Zn  Zn1  1  0.334635  0.000000  0.334635  1
  Zn  Zn2  1  0.999992  0.665358  0.665366  1
  Zn  Zn3  1  0.000008  0.334642  0.334634  1
  Zn  Zn4  1  0.665365  0.000000  0.665365  1
  Zn  Zn5  1  0.278764  0.500000  0.778764  1
  Zn  Zn6  1  0.499990  0.721226  0.221236  1
  Zn  Zn7  1  0.500010  0.278774  0.778764  1
  Zn  Zn8  1  0.721236  0.500000  0.221236  1
  Co  Co9  1  0.000000  0.500000  0.000000  1
  Co  Co10  1  0.500000  0.500000  0.500000  1
  Co  Co11  1  0.000000  0.000000  0.500000  1
  Co  Co12  1  0.500000  0.000000  0.000000  1
