# generated using pymatgen
data_Tb3Dy3Hg10
_symmetry_space_group_name_H-M   'P 1'
_cell_length_a   6.39716524
_cell_length_b   6.39716539
_cell_length_c   10.18882415
_cell_angle_alpha   89.98824440
_cell_angle_beta   89.98824600
_cell_angle_gamma   105.15174511
_symmetry_Int_Tables_number   1
_chemical_formula_structural   Tb3Dy3Hg10
_chemical_formula_sum   'Tb3 Dy3 Hg10'
_cell_volume   402.46965077
_cell_formula_units_Z   1
loop_
 _symmetry_equiv_pos_site_id
 _symmetry_equiv_pos_as_xyz
  1  'x, y, z'
loop_
 _atom_site_type_symbol
 _atom_site_label
 _atom_site_symmetry_multiplicity
 _atom_site_fract_x
 _atom_site_fract_y
 _atom_site_fract_z
 _atom_site_occupancy
  Tb  Tb0  1  0.787683  0.212317  0.000000  1
  Tb  Tb1  1  0.212209  0.787791  0.000000  1
  Tb  Tb2  1  0.212466  0.787534  0.500000  1
  Dy  Dy3  1  0.787433  0.212567  0.500000  1
  Dy  Dy4  1  0.568939  0.568426  0.250101  1
  Dy  Dy5  1  0.431574  0.431061  0.749899  1
  Hg  Hg6  1  0.036981  0.476595  0.250306  1
  Hg  Hg7  1  0.962438  0.522645  0.749709  1
  Hg  Hg8  1  0.477355  0.037562  0.250291  1
  Hg  Hg9  1  0.523405  0.963019  0.749694  1
  Hg  Hg10  1  0.970368  0.970513  0.250219  1
  Hg  Hg11  1  0.029487  0.029632  0.749781  1
  Hg  Hg12  1  0.293365  0.293405  0.029506  1
  Hg  Hg13  1  0.706595  0.706635  0.970494  1
  Hg  Hg14  1  0.706884  0.707181  0.529374  1
  Hg  Hg15  1  0.292819  0.293116  0.470626  1
