# generated using pymatgen
data_Hf18FeRe8Si
_symmetry_space_group_name_H-M   'P 1'
_cell_length_a   8.61826400
_cell_length_b   8.55838993
_cell_length_c   8.55838907
_cell_angle_alpha   119.99769125
_cell_angle_beta   90.00000000
_cell_angle_gamma   90.00000000
_symmetry_Int_Tables_number   1
_chemical_formula_structural   Hf18FeRe8Si
_chemical_formula_sum   'Hf18 Fe1 Re8 Si1'
_cell_volume   546.69439815
_cell_formula_units_Z   1
loop_
 _symmetry_equiv_pos_site_id
 _symmetry_equiv_pos_as_xyz
  1  'x, y, z'
loop_
 _atom_site_type_symbol
 _atom_site_label
 _atom_site_symmetry_multiplicity
 _atom_site_fract_x
 _atom_site_fract_y
 _atom_site_fract_z
 _atom_site_occupancy
  Hf  Hf0  1  0.547560  0.806223  0.612438  1
  Hf  Hf1  1  0.547571  0.806206  0.193794  1
  Hf  Hf2  1  0.547560  0.387562  0.193777  1
  Hf  Hf3  1  0.442609  0.200763  0.401519  1
  Hf  Hf4  1  0.442588  0.200774  0.799226  1
  Hf  Hf5  1  0.442609  0.598481  0.799237  1
  Hf  Hf6  1  0.057391  0.200763  0.401519  1
  Hf  Hf7  1  0.057412  0.200774  0.799226  1
  Hf  Hf8  1  0.057391  0.598481  0.799237  1
  Hf  Hf9  1  0.952440  0.806223  0.612438  1
  Hf  Hf10  1  0.952429  0.806206  0.193794  1
  Hf  Hf11  1  0.952440  0.387562  0.193777  1
  Hf  Hf12  1  0.750000  0.460594  0.921228  1
  Hf  Hf13  1  0.750000  0.460594  0.539406  1
  Hf  Hf14  1  0.750000  0.078772  0.539405  1
  Hf  Hf15  1  0.250000  0.540191  0.080354  1
  Hf  Hf16  1  0.250000  0.540179  0.459821  1
  Hf  Hf17  1  0.250000  0.919646  0.459808  1
  Fe  Fe18  1  0.250000  0.333371  0.666629  1
  Re  Re19  1  0.750000  0.109962  0.219940  1
  Re  Re20  1  0.750000  0.109963  0.890037  1
  Re  Re21  1  0.750000  0.780060  0.890038  1
  Re  Re22  1  0.250000  0.889463  0.778893  1
  Re  Re23  1  0.250000  0.889448  0.110552  1
  Re  Re24  1  0.250000  0.221107  0.110537  1
  Re  Re25  1  0.498463  0.999997  0.000003  1
  Re  Re26  1  0.001537  0.999997  0.000003  1
  Si  Si27  1  0.750000  0.666635  0.333365  1
