# generated using pymatgen
data_Tb2Ho14CdHg3Rh4
_symmetry_space_group_name_H-M   'P 1'
_cell_length_a   9.57512174
_cell_length_b   9.57488973
_cell_length_c   9.57333900
_cell_angle_alpha   60.00578382
_cell_angle_beta   60.00764958
_cell_angle_gamma   59.97911639
_symmetry_Int_Tables_number   1
_chemical_formula_structural   Tb2Ho14CdHg3Rh4
_chemical_formula_sum   'Tb2 Ho14 Cd1 Hg3 Rh4'
_cell_volume   620.58604303
_cell_formula_units_Z   1
loop_
 _symmetry_equiv_pos_site_id
 _symmetry_equiv_pos_as_xyz
  1  'x, y, z'
loop_
 _atom_site_type_symbol
 _atom_site_label
 _atom_site_symmetry_multiplicity
 _atom_site_fract_x
 _atom_site_fract_y
 _atom_site_fract_z
 _atom_site_occupancy
  Tb  Tb0  1  0.936231  0.936855  0.563455  1
  Tb  Tb1  1  0.562941  0.564564  0.936249  1
  Ho  Ho2  1  0.689196  0.689250  0.310782  1
  Ho  Ho3  1  0.148385  0.554584  0.148515  1
  Ho  Ho4  1  0.688466  0.311884  0.688468  1
  Ho  Ho5  1  0.149624  0.148948  0.149422  1
  Ho  Ho6  1  0.551975  0.148773  0.149626  1
  Ho  Ho7  1  0.688461  0.311883  0.311187  1
  Ho  Ho8  1  0.149620  0.148944  0.552010  1
  Ho  Ho9  1  0.310864  0.689165  0.310853  1
  Ho  Ho10  1  0.310872  0.689163  0.689112  1
  Ho  Ho11  1  0.936585  0.564320  0.562515  1
  Ho  Ho12  1  0.936582  0.564318  0.936584  1
  Ho  Ho13  1  0.563127  0.937171  0.563140  1
  Ho  Ho14  1  0.563130  0.937174  0.936557  1
  Ho  Ho15  1  0.311090  0.311805  0.688555  1
  Cd  Cd16  1  0.919900  0.240911  0.919595  1
  Hg  Hg17  1  0.914721  0.916372  0.253765  1
  Hg  Hg18  1  0.253773  0.916766  0.914733  1
  Hg  Hg19  1  0.914723  0.916368  0.915142  1
  Rh  Rh20  1  0.356828  0.357332  0.928677  1
  Rh  Rh21  1  0.357382  0.928475  0.357072  1
  Rh  Rh22  1  0.928690  0.357652  0.356825  1
  Rh  Rh23  1  0.356834  0.357325  0.357159  1
