# generated using pymatgen
data_Lu7Zr13Si16
_symmetry_space_group_name_H-M   'P 1'
_cell_length_a   7.26532585
_cell_length_b   7.26408442
_cell_length_c   13.35103134
_cell_angle_alpha   89.95157303
_cell_angle_beta   90.01813002
_cell_angle_gamma   90.05234111
_symmetry_Int_Tables_number   1
_chemical_formula_structural   Lu7Zr13Si16
_chemical_formula_sum   'Lu7 Zr13 Si16'
_cell_volume   704.61265186
_cell_formula_units_Z   1
loop_
 _symmetry_equiv_pos_site_id
 _symmetry_equiv_pos_as_xyz
  1  'x, y, z'
loop_
 _atom_site_type_symbol
 _atom_site_label
 _atom_site_symmetry_multiplicity
 _atom_site_fract_x
 _atom_site_fract_y
 _atom_site_fract_z
 _atom_site_occupancy
  Lu  Lu0  1  0.995267  0.348269  0.214410  1
  Lu  Lu1  1  0.004437  0.652470  0.714221  1
  Lu  Lu2  1  0.494777  0.153178  0.534236  1
  Lu  Lu3  1  0.503944  0.847989  0.037350  1
  Lu  Lu4  1  0.651589  0.004513  0.287015  1
  Lu  Lu5  1  0.348585  0.995359  0.785271  1
  Lu  Lu6  1  0.847391  0.505055  0.963733  1
  Zr  Zr7  1  0.177260  0.176970  0.000008  1
  Zr  Zr8  1  0.825035  0.822599  0.500022  1
  Zr  Zr9  1  0.676819  0.323223  0.749649  1
  Zr  Zr10  1  0.321834  0.674903  0.251100  1
  Zr  Zr11  1  0.146730  0.499515  0.461773  1
  Zr  Zr12  1  0.999730  0.144270  0.623519  1
  Zr  Zr13  1  0.002226  0.855109  0.125004  1
  Zr  Zr14  1  0.497450  0.354636  0.126623  1
  Zr  Zr15  1  0.503191  0.642637  0.623981  1
  Zr  Zr16  1  0.854585  0.002295  0.875405  1
  Zr  Zr17  1  0.144973  0.997755  0.376462  1
  Zr  Zr18  1  0.646037  0.501732  0.374987  1
  Zr  Zr19  1  0.355386  0.497876  0.874159  1
  Si  Si20  1  0.293576  0.356602  0.679395  1
  Si  Si21  1  0.705831  0.643545  0.183545  1
  Si  Si22  1  0.795069  0.143927  0.067414  1
  Si  Si23  1  0.203777  0.851362  0.566889  1
  Si  Si24  1  0.644106  0.705228  0.816516  1
  Si  Si25  1  0.352956  0.297423  0.320806  1
  Si  Si26  1  0.858548  0.207787  0.432210  1
  Si  Si27  1  0.144732  0.795989  0.932638  1
  Si  Si28  1  0.052038  0.297108  0.812333  1
  Si  Si29  1  0.949875  0.700733  0.314268  1
  Si  Si30  1  0.551629  0.202914  0.937221  1
  Si  Si31  1  0.446459  0.795498  0.437351  1
  Si  Si32  1  0.702696  0.948299  0.686538  1
  Si  Si33  1  0.296811  0.052209  0.188272  1
  Si  Si34  1  0.801611  0.449061  0.562762  1
  Si  Si35  1  0.203042  0.551963  0.062914  1
