# generated using pymatgen
data_TbY4Pd13Au2
_symmetry_space_group_name_H-M   'P 1'
_cell_length_a   4.19136700
_cell_length_b   4.15002800
_cell_length_c   20.63869900
_cell_angle_alpha   90.00000000
_cell_angle_beta   90.00000000
_cell_angle_gamma   90.00000000
_symmetry_Int_Tables_number   1
_chemical_formula_structural   TbY4Pd13Au2
_chemical_formula_sum   'Tb1 Y4 Pd13 Au2'
_cell_volume   358.99552405
_cell_formula_units_Z   1
loop_
 _symmetry_equiv_pos_site_id
 _symmetry_equiv_pos_as_xyz
  1  'x, y, z'
loop_
 _atom_site_type_symbol
 _atom_site_label
 _atom_site_symmetry_multiplicity
 _atom_site_fract_x
 _atom_site_fract_y
 _atom_site_fract_z
 _atom_site_occupancy
  Tb  Tb0  1  0.000000  0.000000  0.998734  1
  Y  Y1  1  0.000000  0.000000  0.198412  1
  Y  Y2  1  0.000000  0.000000  0.396947  1
  Y  Y3  1  0.000000  0.000000  0.604722  1
  Y  Y4  1  0.000000  0.000000  0.801290  1
  Pd  Pd5  1  0.500000  0.500000  0.000736  1
  Pd  Pd6  1  0.500000  0.500000  0.398205  1
  Pd  Pd7  1  0.500000  0.500000  0.600839  1
  Pd  Pd8  1  0.500000  0.500000  0.800823  1
  Pd  Pd9  1  0.500000  0.000000  0.099965  1
  Pd  Pd10  1  0.500000  0.000000  0.298937  1
  Pd  Pd11  1  0.500000  0.000000  0.700701  1
  Pd  Pd12  1  0.500000  0.000000  0.900565  1
  Pd  Pd13  1  0.000000  0.500000  0.099902  1
  Pd  Pd14  1  0.000000  0.500000  0.298886  1
  Pd  Pd15  1  0.000000  0.500000  0.499692  1
  Pd  Pd16  1  0.000000  0.500000  0.700924  1
  Pd  Pd17  1  0.000000  0.500000  0.900519  1
  Au  Au18  1  0.500000  0.500000  0.199013  1
  Au  Au19  1  0.500000  0.000000  0.500185  1
