# generated using pymatgen
data_LaCo4(Ni4B3)2
_symmetry_space_group_name_H-M   'P 1'
_cell_length_a   6.03268304
_cell_length_b   6.03516405
_cell_length_c   6.03268372
_cell_angle_alpha   104.44451418
_cell_angle_beta   104.43198833
_cell_angle_gamma   104.44451128
_symmetry_Int_Tables_number   1
_chemical_formula_structural   LaCo4(Ni4B3)2
_chemical_formula_sum   'La1 Co4 Ni8 B6'
_cell_volume   194.28167387
_cell_formula_units_Z   1
loop_
 _symmetry_equiv_pos_site_id
 _symmetry_equiv_pos_as_xyz
  1  'x, y, z'
loop_
 _atom_site_type_symbol
 _atom_site_label
 _atom_site_symmetry_multiplicity
 _atom_site_fract_x
 _atom_site_fract_y
 _atom_site_fract_z
 _atom_site_occupancy
  La  La0  1  0.999817  0.000000  0.000183  1
  Co  Co1  1  0.865899  0.500000  0.134101  1
  Co  Co2  1  0.498697  0.866324  0.135605  1
  Co  Co3  1  0.134871  0.500000  0.865129  1
  Co  Co4  1  0.864395  0.133676  0.501303  1
  Ni  Ni5  1  0.542619  0.810167  0.543147  1
  Ni  Ni6  1  0.544074  0.543415  0.813275  1
  Ni  Ni7  1  0.811443  0.546419  0.543900  1
  Ni  Ni8  1  0.456853  0.189833  0.457381  1
  Ni  Ni9  1  0.456100  0.453581  0.188557  1
  Ni  Ni10  1  0.186725  0.456585  0.455926  1
  Ni  Ni11  1  0.133314  0.867898  0.500060  1
  Ni  Ni12  1  0.499940  0.132102  0.866686  1
  B  B13  1  0.775669  0.341584  0.772019  1
  B  B14  1  0.766651  0.770049  0.328734  1
  B  B15  1  0.336942  0.766791  0.773253  1
  B  B16  1  0.227981  0.658416  0.224331  1
  B  B17  1  0.226747  0.233209  0.663058  1
  B  B18  1  0.671266  0.229951  0.233349  1
