# generated using pymatgen
data_Li2LaDySi2Pb
_symmetry_space_group_name_H-M   'P 1'
_cell_length_a   9.79439391
_cell_length_b   9.79439212
_cell_length_c   6.95823400
_cell_angle_alpha   90.00000000
_cell_angle_beta   90.00000000
_cell_angle_gamma   153.38525065
_symmetry_Int_Tables_number   1
_chemical_formula_structural   Li2LaDySi2Pb
_chemical_formula_sum   'Li4 La2 Dy2 Si4 Pb2'
_cell_volume   299.03476163
_cell_formula_units_Z   2
loop_
 _symmetry_equiv_pos_site_id
 _symmetry_equiv_pos_as_xyz
  1  'x, y, z'
loop_
 _atom_site_type_symbol
 _atom_site_label
 _atom_site_symmetry_multiplicity
 _atom_site_fract_x
 _atom_site_fract_y
 _atom_site_fract_z
 _atom_site_occupancy
  Li  Li0  1  0.183135  0.816865  0.053179  1
  Li  Li1  1  0.183135  0.816865  0.446821  1
  Li  Li2  1  0.816865  0.183135  0.946821  1
  Li  Li3  1  0.816865  0.183135  0.553179  1
  La  La4  1  0.549557  0.450443  0.250000  1
  La  La5  1  0.450443  0.549557  0.750000  1
  Dy  Dy6  1  0.353956  0.646044  0.250000  1
  Dy  Dy7  1  0.646044  0.353956  0.750000  1
  Si  Si8  1  0.057552  0.942448  0.923730  1
  Si  Si9  1  0.942448  0.057552  0.076270  1
  Si  Si10  1  0.942448  0.057552  0.423730  1
  Si  Si11  1  0.057552  0.942448  0.576270  1
  Pb  Pb12  1  0.722811  0.277189  0.250000  1
  Pb  Pb13  1  0.277189  0.722811  0.750000  1
