# generated using pymatgen
data_Dy12Si12PtAu3
_symmetry_space_group_name_H-M   'P 1'
_cell_length_a   4.24066800
_cell_length_b   10.91119407
_cell_length_c   12.42825572
_cell_angle_alpha   89.95551197
_cell_angle_beta   90.00000000
_cell_angle_gamma   90.00000000
_symmetry_Int_Tables_number   1
_chemical_formula_structural   Dy12Si12PtAu3
_chemical_formula_sum   'Dy12 Si12 Pt1 Au3'
_cell_volume   575.06455922
_cell_formula_units_Z   1
loop_
 _symmetry_equiv_pos_site_id
 _symmetry_equiv_pos_as_xyz
  1  'x, y, z'
loop_
 _atom_site_type_symbol
 _atom_site_label
 _atom_site_symmetry_multiplicity
 _atom_site_fract_x
 _atom_site_fract_y
 _atom_site_fract_z
 _atom_site_occupancy
  Dy  Dy0  1  0.250000  0.876686  0.020196  1
  Dy  Dy1  1  0.250000  0.625371  0.521082  1
  Dy  Dy2  1  0.750000  0.121433  0.978758  1
  Dy  Dy3  1  0.750000  0.375991  0.481051  1
  Dy  Dy4  1  0.250000  0.922921  0.602171  1
  Dy  Dy5  1  0.250000  0.577972  0.099689  1
  Dy  Dy6  1  0.750000  0.078024  0.398243  1
  Dy  Dy7  1  0.750000  0.421858  0.896441  1
  Dy  Dy8  1  0.250000  0.668497  0.802408  1
  Dy  Dy9  1  0.250000  0.834165  0.303003  1
  Dy  Dy10  1  0.750000  0.334957  0.196706  1
  Dy  Dy11  1  0.750000  0.158620  0.698729  1
  Si  Si12  1  0.250000  0.016118  0.825368  1
  Si  Si13  1  0.250000  0.474581  0.325786  1
  Si  Si14  1  0.750000  0.973714  0.175529  1
  Si  Si15  1  0.750000  0.528517  0.673887  1
  Si  Si16  1  0.250000  0.242167  0.846541  1
  Si  Si17  1  0.250000  0.253471  0.347812  1
  Si  Si18  1  0.750000  0.752758  0.152253  1
  Si  Si19  1  0.750000  0.752385  0.657504  1
  Si  Si20  1  0.250000  0.185969  0.536165  1
  Si  Si21  1  0.250000  0.314366  0.033825  1
  Si  Si22  1  0.750000  0.816305  0.466622  1
  Si  Si23  1  0.750000  0.694576  0.960070  1
  Pt  Pt24  1  0.750000  0.891985  0.817149  1
  Au  Au25  1  0.250000  0.391117  0.683838  1
  Au  Au26  1  0.250000  0.108357  0.183606  1
  Au  Au27  1  0.750000  0.607121  0.315569  1
