# generated using pymatgen
data_CaCe(Si7Ir3)2
_symmetry_space_group_name_H-M   'P 1'
_cell_length_a   8.05992845
_cell_length_b   8.05992897
_cell_length_c   8.05992909
_cell_angle_alpha   56.73135541
_cell_angle_beta   56.73135128
_cell_angle_gamma   56.73135642
_symmetry_Int_Tables_number   1
_chemical_formula_structural   CaCe(Si7Ir3)2
_chemical_formula_sum   'Ca1 Ce1 Si14 Ir6'
_cell_volume   342.29555569
_cell_formula_units_Z   1
loop_
 _symmetry_equiv_pos_site_id
 _symmetry_equiv_pos_as_xyz
  1  'x, y, z'
loop_
 _atom_site_type_symbol
 _atom_site_label
 _atom_site_symmetry_multiplicity
 _atom_site_fract_x
 _atom_site_fract_y
 _atom_site_fract_z
 _atom_site_occupancy
  Ca  Ca0  1  0.500000  0.500000  0.500000  1
  Ce  Ce1  1  0.000000  0.000000  0.000000  1
  Si  Si2  1  0.066234  0.847732  0.671430  1
  Si  Si3  1  0.671430  0.066234  0.847732  1
  Si  Si4  1  0.847732  0.671430  0.066234  1
  Si  Si5  1  0.173706  0.353118  0.564287  1
  Si  Si6  1  0.564287  0.173706  0.353118  1
  Si  Si7  1  0.353118  0.564287  0.173706  1
  Si  Si8  1  0.933766  0.152268  0.328570  1
  Si  Si9  1  0.328570  0.933766  0.152268  1
  Si  Si10  1  0.152268  0.328570  0.933766  1
  Si  Si11  1  0.826294  0.646882  0.435713  1
  Si  Si12  1  0.435713  0.826294  0.646882  1
  Si  Si13  1  0.646882  0.435713  0.826294  1
  Si  Si14  1  0.750323  0.750323  0.750323  1
  Si  Si15  1  0.249677  0.249677  0.249677  1
  Ir  Ir16  1  0.067355  0.752088  0.428366  1
  Ir  Ir17  1  0.428366  0.067355  0.752088  1
  Ir  Ir18  1  0.752088  0.428366  0.067355  1
  Ir  Ir19  1  0.932645  0.247912  0.571634  1
  Ir  Ir20  1  0.571634  0.932645  0.247912  1
  Ir  Ir21  1  0.247912  0.571634  0.932645  1
