# generated using pymatgen
data_LaTm3(Si5Os3)2
_symmetry_space_group_name_H-M   'P 1'
_cell_length_a   8.14155429
_cell_length_b   8.16702331
_cell_length_c   5.79612817
_cell_angle_alpha   70.44443620
_cell_angle_beta   70.56932296
_cell_angle_gamma   94.08104652
_symmetry_Int_Tables_number   1
_chemical_formula_structural   LaTm3(Si5Os3)2
_chemical_formula_sum   'La1 Tm3 Si10 Os6'
_cell_volume   335.18109110
_cell_formula_units_Z   1
loop_
 _symmetry_equiv_pos_site_id
 _symmetry_equiv_pos_as_xyz
  1  'x, y, z'
loop_
 _atom_site_type_symbol
 _atom_site_label
 _atom_site_symmetry_multiplicity
 _atom_site_fract_x
 _atom_site_fract_y
 _atom_site_fract_z
 _atom_site_occupancy
  La  La0  1  0.601336  0.868246  0.255951  1
  Tm  Tm1  1  0.867379  0.602295  0.753117  1
  Tm  Tm2  1  0.399672  0.131373  0.745076  1
  Tm  Tm3  1  0.130414  0.398686  0.247504  1
  Si  Si4  1  0.067706  0.258561  0.834359  1
  Si  Si5  1  0.738674  0.933614  0.666518  1
  Si  Si6  1  0.938381  0.737806  0.164212  1
  Si  Si7  1  0.262655  0.071003  0.332130  1
  Si  Si8  1  0.207317  0.793765  0.745092  1
  Si  Si9  1  0.796113  0.209505  0.252680  1
  Si  Si10  1  0.510973  0.485517  0.749668  1
  Si  Si11  1  0.483795  0.507459  0.255633  1
  Si  Si12  1  0.774180  0.228983  0.744685  1
  Si  Si13  1  0.221566  0.773555  0.252418  1
  Os  Os14  1  0.250719  0.540146  0.634008  1
  Os  Os15  1  0.452824  0.741631  0.873824  1
  Os  Os16  1  0.745644  0.458277  0.365106  1
  Os  Os17  1  0.546202  0.258856  0.129895  1
  Os  Os18  1  0.004653  0.997472  0.748186  1
  Os  Os19  1  0.999798  0.003249  0.249937  1
