# generated using pymatgen
data_Zr7ScSi16Mo5W7
_symmetry_space_group_name_H-M   'P 1'
_cell_length_a   6.61646569
_cell_length_b   6.77648619
_cell_length_c   12.69107116
_cell_angle_alpha   89.97548583
_cell_angle_beta   90.01689375
_cell_angle_gamma   89.95039789
_symmetry_Int_Tables_number   1
_chemical_formula_structural   Zr7ScSi16Mo5W7
_chemical_formula_sum   'Zr7 Sc1 Si16 Mo5 W7'
_cell_volume   569.02150508
_cell_formula_units_Z   1
loop_
 _symmetry_equiv_pos_site_id
 _symmetry_equiv_pos_as_xyz
  1  'x, y, z'
loop_
 _atom_site_type_symbol
 _atom_site_label
 _atom_site_symmetry_multiplicity
 _atom_site_fract_x
 _atom_site_fract_y
 _atom_site_fract_z
 _atom_site_occupancy
  Zr  Zr0  1  0.496043  0.670797  0.593352  1
  Zr  Zr1  1  0.995345  0.828263  0.907771  1
  Zr  Zr2  1  0.505655  0.328472  0.092855  1
  Zr  Zr3  1  0.004749  0.173439  0.406847  1
  Zr  Zr4  1  0.503814  0.327359  0.406909  1
  Zr  Zr5  1  0.004329  0.171914  0.093516  1
  Zr  Zr6  1  0.495330  0.672559  0.907068  1
  Sc  Sc7  1  0.994836  0.829465  0.591873  1
  Si  Si8  1  0.667434  0.958294  0.457226  1
  Si  Si9  1  0.167614  0.541731  0.042920  1
  Si  Si10  1  0.332144  0.042366  0.957420  1
  Si  Si11  1  0.833542  0.460038  0.543388  1
  Si  Si12  1  0.331538  0.039286  0.542796  1
  Si  Si13  1  0.833242  0.458048  0.957496  1
  Si  Si14  1  0.666800  0.958174  0.042557  1
  Si  Si15  1  0.166350  0.543070  0.457011  1
  Si  Si16  1  0.465441  0.378523  0.749937  1
  Si  Si17  1  0.966458  0.120516  0.749663  1
  Si  Si18  1  0.533488  0.621615  0.249920  1
  Si  Si19  1  0.035094  0.877537  0.251390  1
  Si  Si20  1  0.701157  0.859621  0.748573  1
  Si  Si21  1  0.197315  0.641573  0.749363  1
  Si  Si22  1  0.300780  0.138555  0.249689  1
  Si  Si23  1  0.800085  0.360655  0.250667  1
  Mo  Mo24  1  0.667072  0.164024  0.623802  1
  Mo  Mo25  1  0.168087  0.337208  0.876121  1
  Mo  Mo26  1  0.332037  0.836370  0.124091  1
  Mo  Mo27  1  0.831174  0.663904  0.376321  1
  Mo  Mo28  1  0.334759  0.835426  0.375352  1
  W  W29  1  0.833113  0.664380  0.124779  1
  W  W30  1  0.666411  0.163572  0.875110  1
  W  W31  1  0.167030  0.335692  0.624929  1
  W  W32  1  0.833811  0.506641  0.750203  1
  W  W33  1  0.334000  0.992330  0.749977  1
  W  W34  1  0.166268  0.489907  0.249880  1
  W  W35  1  0.667654  0.008674  0.249226  1
