# generated using pymatgen
data_Hf8Ta2Si7Ge
_symmetry_space_group_name_H-M   'P 1'
_cell_length_a   7.01911423
_cell_length_b   7.00674823
_cell_length_c   12.81656100
_cell_angle_alpha   90.00000000
_cell_angle_beta   90.00000000
_cell_angle_gamma   90.02946932
_symmetry_Int_Tables_number   1
_chemical_formula_structural   Hf8Ta2Si7Ge
_chemical_formula_sum   'Hf16 Ta4 Si14 Ge2'
_cell_volume   630.33333371
_cell_formula_units_Z   2
loop_
 _symmetry_equiv_pos_site_id
 _symmetry_equiv_pos_as_xyz
  1  'x, y, z'
loop_
 _atom_site_type_symbol
 _atom_site_label
 _atom_site_symmetry_multiplicity
 _atom_site_fract_x
 _atom_site_fract_y
 _atom_site_fract_z
 _atom_site_occupancy
  Hf  Hf0  1  0.499543  0.154848  0.530919  1
  Hf  Hf1  1  0.500457  0.845152  0.030919  1
  Hf  Hf2  1  0.652371  0.001522  0.282517  1
  Hf  Hf3  1  0.347629  0.998478  0.782517  1
  Hf  Hf4  1  0.847188  0.505054  0.967720  1
  Hf  Hf5  1  0.152812  0.494946  0.467720  1
  Hf  Hf6  1  0.999809  0.651015  0.720011  1
  Hf  Hf7  1  0.000191  0.348985  0.220011  1
  Hf  Hf8  1  0.495661  0.355643  0.125673  1
  Hf  Hf9  1  0.504339  0.644357  0.625673  1
  Hf  Hf10  1  0.854248  0.002307  0.874953  1
  Hf  Hf11  1  0.145752  0.997693  0.374953  1
  Hf  Hf12  1  0.645871  0.502016  0.373908  1
  Hf  Hf13  1  0.354129  0.497984  0.873908  1
  Hf  Hf14  1  0.004528  0.851668  0.124563  1
  Hf  Hf15  1  0.995472  0.148332  0.624563  1
  Ta  Ta16  1  0.675180  0.325106  0.750025  1
  Ta  Ta17  1  0.324820  0.674894  0.250025  1
  Ta  Ta18  1  0.822285  0.825474  0.499441  1
  Ta  Ta19  1  0.177715  0.174526  0.999441  1
  Si  Si20  1  0.646270  0.702242  0.821885  1
  Si  Si21  1  0.353730  0.297758  0.321885  1
  Si  Si22  1  0.853497  0.201948  0.427891  1
  Si  Si23  1  0.146503  0.798052  0.927891  1
  Si  Si24  1  0.702020  0.647000  0.177925  1
  Si  Si25  1  0.297980  0.353000  0.677925  1
  Si  Si26  1  0.544901  0.197568  0.933609  1
  Si  Si27  1  0.455099  0.802432  0.433609  1
  Si  Si28  1  0.697443  0.952689  0.684629  1
  Si  Si29  1  0.302557  0.047311  0.184629  1
  Si  Si30  1  0.802693  0.453491  0.564726  1
  Si  Si31  1  0.197307  0.546509  0.064726  1
  Si  Si32  1  0.952687  0.698056  0.315542  1
  Si  Si33  1  0.047313  0.301944  0.815542  1
  Ge  Ge34  1  0.799102  0.146881  0.074060  1
  Ge  Ge35  1  0.200898  0.853119  0.574060  1
