# generated using pymatgen
data_Li3Dy3Lu2(P3Ir4)4
_symmetry_space_group_name_H-M   'P 1'
_cell_length_a   12.69034100
_cell_length_b   12.69034102
_cell_length_c   3.96626800
_cell_angle_alpha   90.00000000
_cell_angle_beta   90.00000000
_cell_angle_gamma   119.99999734
_symmetry_Int_Tables_number   1
_chemical_formula_structural   Li3Dy3Lu2(P3Ir4)4
_chemical_formula_sum   'Li3 Dy3 Lu2 P12 Ir16'
_cell_volume   553.17084732
_cell_formula_units_Z   1
loop_
 _symmetry_equiv_pos_site_id
 _symmetry_equiv_pos_as_xyz
  1  'x, y, z'
loop_
 _atom_site_type_symbol
 _atom_site_label
 _atom_site_symmetry_multiplicity
 _atom_site_fract_x
 _atom_site_fract_y
 _atom_site_fract_z
 _atom_site_occupancy
  Li  Li0  1  0.000000  0.441985  0.500000  1
  Li  Li1  1  0.558015  0.558015  0.500000  1
  Li  Li2  1  0.441985  0.000000  0.500000  1
  Dy  Dy3  1  0.000000  0.809165  0.000000  1
  Dy  Dy4  1  0.190835  0.190835  0.000000  1
  Dy  Dy5  1  0.809165  0.000000  0.000000  1
  Lu  Lu6  1  0.333333  0.666667  0.500000  1
  Lu  Lu7  1  0.666667  0.333333  0.500000  1
  P  P8  1  0.000000  0.630120  0.500000  1
  P  P9  1  0.369880  0.369880  0.500000  1
  P  P10  1  0.630120  0.000000  0.500000  1
  P  P11  1  0.515572  0.687279  0.000000  1
  P  P12  1  0.312721  0.828293  0.000000  1
  P  P13  1  0.171707  0.484428  0.000000  1
  P  P14  1  0.484428  0.171707  0.000000  1
  P  P15  1  0.687279  0.515572  0.000000  1
  P  P16  1  0.828293  0.312721  0.000000  1
  P  P17  1  0.000000  0.179708  0.500000  1
  P  P18  1  0.820292  0.820292  0.500000  1
  P  P19  1  0.179708  0.000000  0.500000  1
  Ir  Ir20  1  0.508651  0.867373  0.000000  1
  Ir  Ir21  1  0.132627  0.641279  0.000000  1
  Ir  Ir22  1  0.358721  0.491349  0.000000  1
  Ir  Ir23  1  0.491349  0.358721  0.000000  1
  Ir  Ir24  1  0.867373  0.508651  0.000000  1
  Ir  Ir25  1  0.641279  0.132627  0.000000  1
  Ir  Ir26  1  0.000000  0.280508  0.000000  1
  Ir  Ir27  1  0.719492  0.719492  0.000000  1
  Ir  Ir28  1  0.280508  0.000000  0.000000  1
  Ir  Ir29  1  0.626430  0.806917  0.500000  1
  Ir  Ir30  1  0.193083  0.819513  0.500000  1
  Ir  Ir31  1  0.180487  0.373570  0.500000  1
  Ir  Ir32  1  0.373570  0.180487  0.500000  1
  Ir  Ir33  1  0.806917  0.626430  0.500000  1
  Ir  Ir34  1  0.819513  0.193083  0.500000  1
  Ir  Ir35  1  0.000000  0.000000  0.500000  1
