# generated using pymatgen
data_Dy24CuRu13
_symmetry_space_group_name_H-M   'P 1'
_cell_length_a   11.34364504
_cell_length_b   8.39028326
_cell_length_c   11.26090845
_cell_angle_alpha   56.30113912
_cell_angle_beta   89.89026500
_cell_angle_gamma   89.76191475
_symmetry_Int_Tables_number   1
_chemical_formula_structural   Dy24CuRu13
_chemical_formula_sum   'Dy24 Cu1 Ru13'
_cell_volume   891.66971814
_cell_formula_units_Z   1
loop_
 _symmetry_equiv_pos_site_id
 _symmetry_equiv_pos_as_xyz
  1  'x, y, z'
loop_
 _atom_site_type_symbol
 _atom_site_label
 _atom_site_symmetry_multiplicity
 _atom_site_fract_x
 _atom_site_fract_y
 _atom_site_fract_z
 _atom_site_occupancy
  Dy  Dy0  1  0.847296  0.508372  0.654616  1
  Dy  Dy1  1  0.496357  0.848737  0.861273  1
  Dy  Dy2  1  0.654576  0.507917  0.156233  1
  Dy  Dy3  1  0.801632  0.759492  0.823505  1
  Dy  Dy4  1  0.569478  0.778373  0.588733  1
  Dy  Dy5  1  0.925724  0.279889  0.293058  1
  Dy  Dy6  1  0.576982  0.279925  0.794674  1
  Dy  Dy7  1  0.293482  0.758321  0.467773  1
  Dy  Dy8  1  0.301059  0.246888  0.664750  1
  Dy  Dy9  1  0.422693  0.717202  0.209508  1
  Dy  Dy10  1  0.432712  0.220559  0.409590  1
  Dy  Dy11  1  0.509043  0.149674  0.142345  1
  Dy  Dy12  1  0.346707  0.506798  0.839396  1
  Dy  Dy13  1  0.006276  0.850693  0.360036  1
  Dy  Dy14  1  0.074001  0.720059  0.707355  1
  Dy  Dy15  1  0.928629  0.776695  0.089578  1
  Dy  Dy16  1  0.202054  0.750854  0.971566  1
  Dy  Dy17  1  0.794806  0.244385  0.031131  1
  Dy  Dy18  1  0.706153  0.243405  0.531276  1
  Dy  Dy19  1  0.993766  0.148270  0.639412  1
  Dy  Dy20  1  0.696825  0.757369  0.324877  1
  Dy  Dy21  1  0.199866  0.238681  0.176707  1
  Dy  Dy22  1  0.152095  0.492812  0.342943  1
  Dy  Dy23  1  0.068719  0.219839  0.911791  1
  Cu  Cu24  1  0.344950  0.086499  0.962099  1
  Ru  Ru25  1  0.498504  0.496323  0.502777  1
  Ru  Ru26  1  0.186092  0.899412  0.149887  1
  Ru  Ru27  1  0.855077  0.923846  0.535171  1
  Ru  Ru28  1  0.397302  0.487524  0.100841  1
  Ru  Ru29  1  0.105989  0.479929  0.606902  1
  Ru  Ru30  1  0.649818  0.918258  0.036979  1
  Ru  Ru31  1  0.600572  0.513412  0.896960  1
  Ru  Ru32  1  0.000092  0.498054  0.001103  1
  Ru  Ru33  1  0.682468  0.096911  0.350168  1
  Ru  Ru34  1  0.145562  0.073164  0.465488  1
  Ru  Ru35  1  0.317636  0.904800  0.652911  1
  Ru  Ru36  1  0.897612  0.515514  0.397649  1
  Ru  Ru37  1  0.817393  0.101142  0.848938  1
