# generated using pymatgen
data_TbDy9(Ir2Rh)2
_symmetry_space_group_name_H-M   'P 1'
_cell_length_a   10.88621901
_cell_length_b   10.88636000
_cell_length_c   6.39126101
_cell_angle_alpha   90.00000000
_cell_angle_beta   90.00505436
_cell_angle_gamma   90.00000000
_symmetry_Int_Tables_number   1
_chemical_formula_structural   TbDy9(Ir2Rh)2
_chemical_formula_sum   'Tb2 Dy18 Ir8 Rh4'
_cell_volume   757.43664235
_cell_formula_units_Z   2
loop_
 _symmetry_equiv_pos_site_id
 _symmetry_equiv_pos_as_xyz
  1  'x, y, z'
loop_
 _atom_site_type_symbol
 _atom_site_label
 _atom_site_symmetry_multiplicity
 _atom_site_fract_x
 _atom_site_fract_y
 _atom_site_fract_z
 _atom_site_occupancy
  Tb  Tb0  1  0.290546  0.089083  0.379102  1
  Tb  Tb1  1  0.290546  0.910917  0.879102  1
  Dy  Dy2  1  0.709400  0.089047  0.879183  1
  Dy  Dy3  1  0.709400  0.910953  0.379183  1
  Dy  Dy4  1  0.589097  0.790578  0.879164  1
  Dy  Dy5  1  0.589097  0.209422  0.379164  1
  Dy  Dy6  1  0.410999  0.790528  0.379178  1
  Dy  Dy7  1  0.410999  0.209472  0.879178  1
  Dy  Dy8  1  0.209402  0.410970  0.620840  1
  Dy  Dy9  1  0.209402  0.589030  0.120840  1
  Dy  Dy10  1  0.790595  0.410958  0.120818  1
  Dy  Dy11  1  0.790595  0.589042  0.620818  1
  Dy  Dy12  1  0.910950  0.709406  0.120824  1
  Dy  Dy13  1  0.910950  0.290594  0.620824  1
  Dy  Dy14  1  0.089008  0.709379  0.620784  1
  Dy  Dy15  1  0.089008  0.290621  0.120784  1
  Dy  Dy16  1  0.999939  0.999979  0.500022  1
  Dy  Dy17  1  0.999939  0.000021  0.000022  1
  Dy  Dy18  1  0.500006  0.499992  0.000014  1
  Dy  Dy19  1  0.500006  0.500008  0.500014  1
  Ir  Ir20  1  0.846096  0.153897  0.249997  1
  Ir  Ir21  1  0.846096  0.846103  0.749997  1
  Ir  Ir22  1  0.153832  0.153996  0.750115  1
  Ir  Ir23  1  0.153832  0.846004  0.250115  1
  Ir  Ir24  1  0.653898  0.346094  0.749997  1
  Ir  Ir25  1  0.653898  0.653906  0.249997  1
  Ir  Ir26  1  0.346120  0.346174  0.249953  1
  Ir  Ir27  1  0.346120  0.653826  0.749953  1
  Rh  Rh28  1  0.500106  0.000001  0.123946  1
  Rh  Rh29  1  0.500106  0.999999  0.623946  1
  Rh  Rh30  1  0.000005  0.499992  0.876063  1
  Rh  Rh31  1  0.000005  0.500008  0.376063  1
