# generated using pymatgen
data_YEr2ZnIn3Pt2
_symmetry_space_group_name_H-M   'P 1'
_cell_length_a   7.66223300
_cell_length_b   7.70470051
_cell_length_c   3.84307400
_cell_angle_alpha   90.00000000
_cell_angle_beta   90.00000000
_cell_angle_gamma   119.81783056
_symmetry_Int_Tables_number   1
_chemical_formula_structural   YEr2ZnIn3Pt2
_chemical_formula_sum   'Y1 Er2 Zn1 In3 Pt2'
_cell_volume   196.84064907
_cell_formula_units_Z   1
loop_
 _symmetry_equiv_pos_site_id
 _symmetry_equiv_pos_as_xyz
  1  'x, y, z'
loop_
 _atom_site_type_symbol
 _atom_site_label
 _atom_site_symmetry_multiplicity
 _atom_site_fract_x
 _atom_site_fract_y
 _atom_site_fract_z
 _atom_site_occupancy
  Y  Y0  1  0.593320  0.000000  0.500000  1
  Er  Er1  1  0.407226  0.407388  0.500000  1
  Er  Er2  1  0.999837  0.592612  0.500000  1
  Zn  Zn3  1  0.000448  0.000000  0.500000  1
  In  In4  1  0.740229  0.739167  0.000000  1
  In  In5  1  0.001063  0.260833  0.000000  1
  In  In6  1  0.259526  0.000000  0.000000  1
  Pt  Pt7  1  0.331196  0.664043  0.000000  1
  Pt  Pt8  1  0.667154  0.335957  0.000000  1
