# generated using pymatgen
data_CsTb2DyS5
_symmetry_space_group_name_H-M   'P 1'
_cell_length_a   4.02923800
_cell_length_b   12.08781200
_cell_length_c   21.48881800
_cell_angle_alpha   90.00000000
_cell_angle_beta   90.00000000
_cell_angle_gamma   90.00000000
_symmetry_Int_Tables_number   1
_chemical_formula_structural   CsTb2DyS5
_chemical_formula_sum   'Cs4 Tb8 Dy4 S20'
_cell_volume   1046.60582048
_cell_formula_units_Z   4
loop_
 _symmetry_equiv_pos_site_id
 _symmetry_equiv_pos_as_xyz
  1  'x, y, z'
loop_
 _atom_site_type_symbol
 _atom_site_label
 _atom_site_symmetry_multiplicity
 _atom_site_fract_x
 _atom_site_fract_y
 _atom_site_fract_z
 _atom_site_occupancy
  Cs  Cs0  1  0.250000  0.853829  0.093528  1
  Cs  Cs1  1  0.750000  0.146171  0.906472  1
  Cs  Cs2  1  0.750000  0.353829  0.406472  1
  Cs  Cs3  1  0.250000  0.646171  0.593528  1
  Tb  Tb4  1  0.750000  0.797474  0.825727  1
  Tb  Tb5  1  0.250000  0.202526  0.174273  1
  Tb  Tb6  1  0.250000  0.297474  0.674273  1
  Tb  Tb7  1  0.750000  0.702526  0.325727  1
  Tb  Tb8  1  0.250000  0.958436  0.697181  1
  Tb  Tb9  1  0.750000  0.041564  0.302819  1
  Tb  Tb10  1  0.750000  0.458436  0.802819  1
  Tb  Tb11  1  0.250000  0.541564  0.197181  1
  Dy  Dy12  1  0.750000  0.390895  0.052466  1
  Dy  Dy13  1  0.250000  0.609105  0.947534  1
  Dy  Dy14  1  0.250000  0.890895  0.447534  1
  Dy  Dy15  1  0.750000  0.109105  0.552466  1
  S  S16  1  0.250000  0.952520  0.568338  1
  S  S17  1  0.750000  0.047480  0.431662  1
  S  S18  1  0.750000  0.452520  0.931662  1
  S  S19  1  0.250000  0.547480  0.068338  1
  S  S20  1  0.750000  0.760570  0.951961  1
  S  S21  1  0.250000  0.239430  0.048039  1
  S  S22  1  0.250000  0.260570  0.548039  1
  S  S23  1  0.750000  0.739430  0.451961  1
  S  S24  1  0.250000  0.946604  0.824373  1
  S  S25  1  0.750000  0.053396  0.175627  1
  S  S26  1  0.750000  0.446604  0.675627  1
  S  S27  1  0.250000  0.553396  0.324373  1
  S  S28  1  0.750000  0.126322  0.681938  1
  S  S29  1  0.250000  0.873678  0.318062  1
  S  S30  1  0.250000  0.626322  0.818062  1
  S  S31  1  0.750000  0.373678  0.181938  1
  S  S32  1  0.750000  0.689270  0.198556  1
  S  S33  1  0.250000  0.310730  0.801444  1
  S  S34  1  0.250000  0.189270  0.301444  1
  S  S35  1  0.750000  0.810730  0.698556  1
