# generated using pymatgen
data_CsNb2Br9
_symmetry_space_group_name_H-M   'P 1'
_cell_length_a   7.26695400
_cell_length_b   10.33218216
_cell_length_c   13.45388108
_cell_angle_alpha   62.94610942
_cell_angle_beta   90.00000000
_cell_angle_gamma   90.00000000
_symmetry_Int_Tables_number   1
_chemical_formula_structural   CsNb2Br9
_chemical_formula_sum   'Cs2 Nb4 Br18'
_cell_volume   899.63130457
_cell_formula_units_Z   2
loop_
 _symmetry_equiv_pos_site_id
 _symmetry_equiv_pos_as_xyz
  1  'x, y, z'
loop_
 _atom_site_type_symbol
 _atom_site_label
 _atom_site_symmetry_multiplicity
 _atom_site_fract_x
 _atom_site_fract_y
 _atom_site_fract_z
 _atom_site_occupancy
  Cs  Cs0  1  0.588306  0.500000  0.750000  1
  Cs  Cs1  1  0.411694  0.500000  0.250000  1
  Nb  Nb2  1  0.254224  0.852775  0.847215  1
  Nb  Nb3  1  0.745776  0.147225  0.152785  1
  Nb  Nb4  1  0.254224  0.147225  0.652785  1
  Nb  Nb5  1  0.745776  0.852775  0.347215  1
  Br  Br6  1  0.111589  0.796049  0.033294  1
  Br  Br7  1  0.888411  0.203951  0.966706  1
  Br  Br8  1  0.111589  0.203951  0.466706  1
  Br  Br9  1  0.888411  0.796049  0.533294  1
  Br  Br10  1  0.118636  0.629353  0.843766  1
  Br  Br11  1  0.881364  0.370647  0.156234  1
  Br  Br12  1  0.118636  0.370647  0.656234  1
  Br  Br13  1  0.881364  0.629353  0.343766  1
  Br  Br14  1  0.954051  0.000000  0.750000  1
  Br  Br15  1  0.045949  0.000000  0.250000  1
  Br  Br16  1  0.413833  0.085021  0.847452  1
  Br  Br17  1  0.586167  0.914979  0.152548  1
  Br  Br18  1  0.413833  0.914979  0.652548  1
  Br  Br19  1  0.586167  0.085021  0.347452  1
  Br  Br20  1  0.547005  0.713320  0.940888  1
  Br  Br21  1  0.452995  0.286680  0.059112  1
  Br  Br22  1  0.547005  0.286680  0.559112  1
  Br  Br23  1  0.452995  0.713320  0.440888  1
