# generated using pymatgen
data_CaYbHo4(Si3Ru)8
_symmetry_space_group_name_H-M   'P 1'
_cell_length_a   10.13386018
_cell_length_b   10.13519962
_cell_length_c   8.13182698
_cell_angle_alpha   89.96645774
_cell_angle_beta   90.03942136
_cell_angle_gamma   132.71109430
_symmetry_Int_Tables_number   1
_chemical_formula_structural   CaYbHo4(Si3Ru)8
_chemical_formula_sum   'Ca1 Yb1 Ho4 Si24 Ru8'
_cell_volume   613.69769830
_cell_formula_units_Z   1
loop_
 _symmetry_equiv_pos_site_id
 _symmetry_equiv_pos_as_xyz
  1  'x, y, z'
loop_
 _atom_site_type_symbol
 _atom_site_label
 _atom_site_symmetry_multiplicity
 _atom_site_fract_x
 _atom_site_fract_y
 _atom_site_fract_z
 _atom_site_occupancy
  Ca  Ca0  1  0.501433  0.001444  0.749833  1
  Yb  Yb1  1  0.500227  0.500314  0.500481  1
  Ho  Ho2  1  0.000344  0.000208  0.999330  1
  Ho  Ho3  1  0.999213  0.499406  0.250344  1
  Ho  Ho4  1  0.496727  0.996852  0.250445  1
  Ho  Ho5  1  0.002951  0.502830  0.749462  1
  Si  Si6  1  0.794572  0.203885  0.500421  1
  Si  Si7  1  0.295643  0.705846  0.998831  1
  Si  Si8  1  0.205795  0.795824  0.501088  1
  Si  Si9  1  0.704158  0.294529  0.999708  1
  Si  Si10  1  0.333565  0.335378  0.831187  1
  Si  Si11  1  0.664976  0.668114  0.168701  1
  Si  Si12  1  0.171127  0.167482  0.334184  1
  Si  Si13  1  0.832639  0.830639  0.665866  1
  Si  Si14  1  0.120769  0.886597  0.727854  1
  Si  Si15  1  0.110936  0.877624  0.272732  1
  Si  Si16  1  0.609352  0.377482  0.229822  1
  Si  Si17  1  0.624266  0.391660  0.769887  1
  Si  Si18  1  0.876793  0.109659  0.272035  1
  Si  Si19  1  0.891352  0.124928  0.728409  1
  Si  Si20  1  0.386831  0.620191  0.770141  1
  Si  Si21  1  0.378290  0.610659  0.229145  1
  Si  Si22  1  0.345943  0.113331  0.502551  1
  Si  Si23  1  0.886570  0.654730  0.495434  1
  Si  Si24  1  0.387943  0.154344  0.007487  1
  Si  Si25  1  0.843819  0.611689  0.994117  1
  Si  Si26  1  0.653148  0.885968  0.492457  1
  Si  Si27  1  0.113796  0.345128  0.506035  1
  Si  Si28  1  0.611309  0.844728  0.997136  1
  Si  Si29  1  0.156066  0.388722  0.004728  1
  Ru  Ru30  1  0.672851  0.330813  0.498011  1
  Ru  Ru31  1  0.166993  0.827926  0.002432  1
  Ru  Ru32  1  0.327008  0.667743  0.497504  1
  Ru  Ru33  1  0.831640  0.172009  0.002120  1
  Ru  Ru34  1  0.125172  0.124704  0.627661  1
  Ru  Ru35  1  0.875473  0.875790  0.372713  1
  Ru  Ru36  1  0.373010  0.372820  0.124719  1
  Ru  Ru37  1  0.627297  0.628003  0.874992  1
