# generated using pymatgen
data_Y2Ho4Ir13Rh5
_symmetry_space_group_name_H-M   'P 1'
_cell_length_a   5.30757174
_cell_length_b   5.29752319
_cell_length_c   17.45361752
_cell_angle_alpha   90.00000009
_cell_angle_beta   90.05323427
_cell_angle_gamma   119.93738823
_symmetry_Int_Tables_number   1
_chemical_formula_structural   Y2Ho4Ir13Rh5
_chemical_formula_sum   'Y2 Ho4 Ir13 Rh5'
_cell_volume   425.26362251
_cell_formula_units_Z   1
loop_
 _symmetry_equiv_pos_site_id
 _symmetry_equiv_pos_as_xyz
  1  'x, y, z'
loop_
 _atom_site_type_symbol
 _atom_site_label
 _atom_site_symmetry_multiplicity
 _atom_site_fract_x
 _atom_site_fract_y
 _atom_site_fract_z
 _atom_site_occupancy
  Y  Y0  1  0.333187  0.666594  0.749888  1
  Y  Y1  1  0.667195  0.333597  0.250921  1
  Ho  Ho2  1  0.333511  0.666756  0.959166  1
  Ho  Ho3  1  0.667718  0.333859  0.041020  1
  Ho  Ho4  1  0.667175  0.333587  0.459316  1
  Ho  Ho5  1  0.333083  0.666542  0.540755  1
  Ir  Ir6  1  0.168793  0.832849  0.374809  1
  Ir  Ir7  1  0.168793  0.335945  0.374809  1
  Ir  Ir8  1  0.666220  0.833110  0.373712  1
  Ir  Ir9  1  0.832867  0.168078  0.625370  1
  Ir  Ir10  1  0.832867  0.664789  0.625370  1
  Ir  Ir11  1  0.335436  0.167718  0.625284  1
  Ir  Ir12  1  0.831470  0.166825  0.874732  1
  Ir  Ir13  1  0.831470  0.664645  0.874732  1
  Ir  Ir14  1  0.335127  0.167564  0.875102  1
  Ir  Ir15  1  0.164106  0.830262  0.125119  1
  Ir  Ir16  1  0.164106  0.333844  0.125119  1
  Ir  Ir17  1  0.997914  0.998957  0.499967  1
  Ir  Ir18  1  0.004541  0.002271  0.000136  1
  Rh  Rh19  1  0.662203  0.831101  0.124819  1
  Rh  Rh20  1  0.331174  0.665588  0.249725  1
  Rh  Rh21  1  0.667134  0.333567  0.750160  1
  Rh  Rh22  1  0.004240  0.002120  0.249878  1
  Rh  Rh23  1  0.999668  0.999834  0.750093  1
