# generated using pymatgen
data_Tb4Al4Ir3Pt
_symmetry_space_group_name_H-M   'P 1'
_cell_length_a   4.31006500
_cell_length_b   6.89653326
_cell_length_c   7.90299827
_cell_angle_alpha   89.96934896
_cell_angle_beta   90.00000000
_cell_angle_gamma   90.00000000
_symmetry_Int_Tables_number   1
_chemical_formula_structural   Tb4Al4Ir3Pt
_chemical_formula_sum   'Tb4 Al4 Ir3 Pt1'
_cell_volume   234.91269075
_cell_formula_units_Z   1
loop_
 _symmetry_equiv_pos_site_id
 _symmetry_equiv_pos_as_xyz
  1  'x, y, z'
loop_
 _atom_site_type_symbol
 _atom_site_label
 _atom_site_symmetry_multiplicity
 _atom_site_fract_x
 _atom_site_fract_y
 _atom_site_fract_z
 _atom_site_occupancy
  Tb  Tb0  1  0.250000  0.026845  0.678744  1
  Tb  Tb1  1  0.250000  0.533677  0.817633  1
  Tb  Tb2  1  0.750000  0.970783  0.318992  1
  Tb  Tb3  1  0.750000  0.473343  0.184173  1
  Al  Al4  1  0.250000  0.140741  0.065703  1
  Al  Al5  1  0.250000  0.641757  0.436396  1
  Al  Al6  1  0.750000  0.854497  0.936719  1
  Al  Al7  1  0.750000  0.359618  0.561310  1
  Ir  Ir8  1  0.250000  0.269610  0.383187  1
  Ir  Ir9  1  0.250000  0.769763  0.115953  1
  Ir  Ir10  1  0.750000  0.730948  0.617701  1
  Pt  Pt11  1  0.750000  0.228417  0.883490  1
