# generated using pymatgen
data_NaGd6AuI12
_symmetry_space_group_name_H-M   'P 1'
_cell_length_a   9.93064717
_cell_length_b   9.93064678
_cell_length_c   9.93064800
_cell_angle_alpha   107.18182626
_cell_angle_beta   107.18181348
_cell_angle_gamma   107.18181342
_symmetry_Int_Tables_number   1
_chemical_formula_structural   NaGd6AuI12
_chemical_formula_sum   'Na1 Gd6 Au1 I12'
_cell_volume   811.52299923
_cell_formula_units_Z   1
loop_
 _symmetry_equiv_pos_site_id
 _symmetry_equiv_pos_as_xyz
  1  'x, y, z'
loop_
 _atom_site_type_symbol
 _atom_site_label
 _atom_site_symmetry_multiplicity
 _atom_site_fract_x
 _atom_site_fract_y
 _atom_site_fract_z
 _atom_site_occupancy
  Na  Na0  1  0.500000  0.500000  0.500000  1
  Gd  Gd1  1  0.106142  0.316805  0.034233  1
  Gd  Gd2  1  0.316805  0.034234  0.106142  1
  Gd  Gd3  1  0.034234  0.106142  0.316805  1
  Gd  Gd4  1  0.965766  0.893859  0.683195  1
  Gd  Gd5  1  0.683195  0.965767  0.893858  1
  Gd  Gd6  1  0.893858  0.683195  0.965767  1
  Au  Au7  1  0.000000  0.000000  0.000000  1
  I  I8  1  0.224162  0.681297  0.072742  1
  I  I9  1  0.455991  0.378297  0.147261  1
  I  I10  1  0.681297  0.072742  0.224162  1
  I  I11  1  0.927258  0.775838  0.318704  1
  I  I12  1  0.147261  0.455991  0.378297  1
  I  I13  1  0.378297  0.147261  0.455992  1
  I  I14  1  0.621703  0.852739  0.544009  1
  I  I15  1  0.852739  0.544009  0.621703  1
  I  I16  1  0.072742  0.224162  0.681297  1
  I  I17  1  0.318703  0.927258  0.775838  1
  I  I18  1  0.544009  0.621703  0.852740  1
  I  I19  1  0.775838  0.318704  0.927258  1
