# generated using pymatgen
data_TbSmHo(AgGe)3
_symmetry_space_group_name_H-M   'P 1'
_cell_length_a   7.25232473
_cell_length_b   7.25813439
_cell_length_c   4.22667900
_cell_angle_alpha   90.00000000
_cell_angle_beta   90.00000000
_cell_angle_gamma   120.24665473
_symmetry_Int_Tables_number   1
_chemical_formula_structural   TbSmHo(AgGe)3
_chemical_formula_sum   'Tb1 Sm1 Ho1 Ag3 Ge3'
_cell_volume   192.19733004
_cell_formula_units_Z   1
loop_
 _symmetry_equiv_pos_site_id
 _symmetry_equiv_pos_as_xyz
  1  'x, y, z'
loop_
 _atom_site_type_symbol
 _atom_site_label
 _atom_site_symmetry_multiplicity
 _atom_site_fract_x
 _atom_site_fract_y
 _atom_site_fract_z
 _atom_site_occupancy
  Tb  Tb0  1  0.586613  0.000734  0.000000  1
  Sm  Sm1  1  0.414785  0.414907  0.000000  1
  Ho  Ho2  1  0.000628  0.586802  0.000000  1
  Ag  Ag3  1  0.251505  0.998732  0.500000  1
  Ag  Ag4  1  0.999054  0.252108  0.500000  1
  Ag  Ag5  1  0.749325  0.749013  0.500000  1
  Ge  Ge6  1  0.331295  0.668614  0.500000  1
  Ge  Ge7  1  0.669750  0.332643  0.500000  1
  Ge  Ge8  1  0.997047  0.996448  0.000000  1
