# generated using pymatgen
data_Dy4Ho8CdCo5
_symmetry_space_group_name_H-M   'P 1'
_cell_length_a   8.26734066
_cell_length_b   8.26733969
_cell_length_c   8.26734026
_cell_angle_alpha   107.47246459
_cell_angle_beta   110.15909348
_cell_angle_gamma   110.80108447
_symmetry_Int_Tables_number   1
_chemical_formula_structural   Dy4Ho8CdCo5
_chemical_formula_sum   'Dy4 Ho8 Cd1 Co5'
_cell_volume   434.57674506
_cell_formula_units_Z   1
loop_
 _symmetry_equiv_pos_site_id
 _symmetry_equiv_pos_as_xyz
  1  'x, y, z'
loop_
 _atom_site_type_symbol
 _atom_site_label
 _atom_site_symmetry_multiplicity
 _atom_site_fract_x
 _atom_site_fract_y
 _atom_site_fract_z
 _atom_site_occupancy
  Dy  Dy0  1  0.193352  0.209224  0.402575  1
  Dy  Dy1  1  0.806648  0.790776  0.597425  1
  Dy  Dy2  1  0.193352  0.790776  0.984128  1
  Dy  Dy3  1  0.806648  0.209224  0.015872  1
  Ho  Ho4  1  0.474832  0.290995  0.183837  1
  Ho  Ho5  1  0.107158  0.290995  0.816163  1
  Ho  Ho6  1  0.892842  0.709005  0.183837  1
  Ho  Ho7  1  0.525168  0.709005  0.816163  1
  Ho  Ho8  1  0.304323  0.619912  0.315588  1
  Ho  Ho9  1  0.304323  0.988736  0.684412  1
  Ho  Ho10  1  0.695677  0.380088  0.684412  1
  Ho  Ho11  1  0.695677  0.011264  0.315588  1
  Cd  Cd12  1  0.000000  0.500000  0.500000  1
  Co  Co13  1  0.500000  0.613281  0.113281  1
  Co  Co14  1  0.500000  0.386719  0.886719  1
  Co  Co15  1  0.377669  0.000000  0.377669  1
  Co  Co16  1  0.622331  0.000000  0.622331  1
  Co  Co17  1  0.000000  0.000000  0.000000  1
