# generated using pymatgen
data_ErTm19(NiBi5)2
_symmetry_space_group_name_H-M   'P 1'
_cell_length_a   7.97511001
_cell_length_b   9.29229000
_cell_length_c   11.93895001
_cell_angle_alpha   90.00002193
_cell_angle_beta   89.99499954
_cell_angle_gamma   89.99997330
_symmetry_Int_Tables_number   1
_chemical_formula_structural   ErTm19(NiBi5)2
_chemical_formula_sum   'Er1 Tm19 Ni2 Bi10'
_cell_volume   884.76018266
_cell_formula_units_Z   1
loop_
 _symmetry_equiv_pos_site_id
 _symmetry_equiv_pos_as_xyz
  1  'x, y, z'
loop_
 _atom_site_type_symbol
 _atom_site_label
 _atom_site_symmetry_multiplicity
 _atom_site_fract_x
 _atom_site_fract_y
 _atom_site_fract_z
 _atom_site_occupancy
  Er  Er0  1  0.910129  0.500000  0.217320  1
  Tm  Tm1  1  0.431794  0.177174  0.562854  1
  Tm  Tm2  1  0.568242  0.822788  0.062853  1
  Tm  Tm3  1  0.070583  0.723963  0.436174  1
  Tm  Tm4  1  0.929438  0.276106  0.936083  1
  Tm  Tm5  1  0.070583  0.276038  0.436174  1
  Tm  Tm6  1  0.929439  0.723893  0.936084  1
  Tm  Tm7  1  0.431794  0.822826  0.562854  1
  Tm  Tm8  1  0.568241  0.177213  0.062853  1
  Tm  Tm9  1  0.573954  0.500001  0.773901  1
  Tm  Tm10  1  0.426025  0.500000  0.273899  1
  Tm  Tm11  1  0.907163  0.000000  0.202411  1
  Tm  Tm12  1  0.092789  0.000000  0.702423  1
  Tm  Tm13  1  0.260305  0.500001  0.993527  1
  Tm  Tm14  1  0.739682  0.500000  0.493717  1
  Tm  Tm15  1  0.199961  0.000000  0.998778  1
  Tm  Tm16  1  0.800026  0.000000  0.498808  1
  Tm  Tm17  1  0.089767  0.500001  0.717454  1
  Tm  Tm18  1  0.376945  0.000000  0.305490  1
  Tm  Tm19  1  0.623105  0.000000  0.805503  1
  Ni  Ni20  1  0.168775  0.999999  0.485712  1
  Ni  Ni21  1  0.831269  0.000000  0.985714  1
  Bi  Bi22  1  0.814786  0.741574  0.672838  1
  Bi  Bi23  1  0.185399  0.258311  0.172841  1
  Bi  Bi24  1  0.680841  0.241554  0.325169  1
  Bi  Bi25  1  0.319070  0.758350  0.825079  1
  Bi  Bi26  1  0.680840  0.758446  0.325169  1
  Bi  Bi27  1  0.319070  0.241650  0.825079  1
  Bi  Bi28  1  0.814786  0.258427  0.672838  1
  Bi  Bi29  1  0.185399  0.741689  0.172842  1
  Bi  Bi30  1  0.347636  0.500000  0.528891  1
  Bi  Bi31  1  0.652164  0.500000  0.028668  1
