# generated using pymatgen
data_Pr2GaSnRh2
_symmetry_space_group_name_H-M   'P 1'
_cell_length_a   4.28351800
_cell_length_b   7.45265500
_cell_length_c   16.53275900
_cell_angle_alpha   90.00000000
_cell_angle_beta   90.00000000
_cell_angle_gamma   90.00000000
_symmetry_Int_Tables_number   1
_chemical_formula_structural   Pr2GaSnRh2
_chemical_formula_sum   'Pr8 Ga4 Sn4 Rh8'
_cell_volume   527.78488498
_cell_formula_units_Z   4
loop_
 _symmetry_equiv_pos_site_id
 _symmetry_equiv_pos_as_xyz
  1  'x, y, z'
loop_
 _atom_site_type_symbol
 _atom_site_label
 _atom_site_symmetry_multiplicity
 _atom_site_fract_x
 _atom_site_fract_y
 _atom_site_fract_z
 _atom_site_occupancy
  Pr  Pr0  1  0.250000  0.175692  0.559164  1
  Pr  Pr1  1  0.750000  0.824308  0.440836  1
  Pr  Pr2  1  0.250000  0.675692  0.940836  1
  Pr  Pr3  1  0.750000  0.324308  0.059164  1
  Pr  Pr4  1  0.250000  0.043303  0.783037  1
  Pr  Pr5  1  0.750000  0.956697  0.216963  1
  Pr  Pr6  1  0.250000  0.543303  0.716963  1
  Pr  Pr7  1  0.750000  0.456697  0.283037  1
  Ga  Ga8  1  0.250000  0.005735  0.062830  1
  Ga  Ga9  1  0.750000  0.994265  0.937170  1
  Ga  Ga10  1  0.250000  0.505735  0.437170  1
  Ga  Ga11  1  0.750000  0.494265  0.562830  1
  Sn  Sn12  1  0.250000  0.124675  0.349958  1
  Sn  Sn13  1  0.750000  0.875325  0.650042  1
  Sn  Sn14  1  0.250000  0.624675  0.150042  1
  Sn  Sn15  1  0.750000  0.375325  0.849958  1
  Rh  Rh16  1  0.750000  0.276640  0.433268  1
  Rh  Rh17  1  0.250000  0.723360  0.566732  1
  Rh  Rh18  1  0.750000  0.776640  0.066732  1
  Rh  Rh19  1  0.250000  0.223360  0.933268  1
  Rh  Rh20  1  0.750000  0.753247  0.818052  1
  Rh  Rh21  1  0.250000  0.246753  0.181948  1
  Rh  Rh22  1  0.750000  0.253247  0.681948  1
  Rh  Rh23  1  0.250000  0.746753  0.318052  1
