# generated using pymatgen
data_Pr3NdAl4IrPt3
_symmetry_space_group_name_H-M   'P 1'
_cell_length_a   4.52546300
_cell_length_b   7.12351310
_cell_length_c   7.94428559
_cell_angle_alpha   89.96809384
_cell_angle_beta   90.00000000
_cell_angle_gamma   90.00000000
_symmetry_Int_Tables_number   1
_chemical_formula_structural   Pr3NdAl4IrPt3
_chemical_formula_sum   'Pr3 Nd1 Al4 Ir1 Pt3'
_cell_volume   256.10144386
_cell_formula_units_Z   1
loop_
 _symmetry_equiv_pos_site_id
 _symmetry_equiv_pos_as_xyz
  1  'x, y, z'
loop_
 _atom_site_type_symbol
 _atom_site_label
 _atom_site_symmetry_multiplicity
 _atom_site_fract_x
 _atom_site_fract_y
 _atom_site_fract_z
 _atom_site_occupancy
  Pr  Pr0  1  0.750000  0.468101  0.181116  1
  Pr  Pr1  1  0.250000  0.026507  0.681412  1
  Pr  Pr2  1  0.750000  0.964721  0.320502  1
  Nd  Nd3  1  0.250000  0.534323  0.815466  1
  Al  Al4  1  0.750000  0.852881  0.932319  1
  Al  Al5  1  0.250000  0.645883  0.437460  1
  Al  Al6  1  0.750000  0.360446  0.565949  1
  Al  Al7  1  0.250000  0.145185  0.064183  1
  Ir  Ir8  1  0.750000  0.720443  0.614864  1
  Pt  Pt9  1  0.750000  0.217606  0.886533  1
  Pt  Pt10  1  0.250000  0.281680  0.385960  1
  Pt  Pt11  1  0.250000  0.782223  0.114233  1
