# generated using pymatgen
data_Eu3MnFeC6
_symmetry_space_group_name_H-M   'P 1'
_cell_length_a   8.16053900
_cell_length_b   8.16053904
_cell_length_c   5.13289900
_cell_angle_alpha   90.00000000
_cell_angle_beta   90.00000000
_cell_angle_gamma   119.99998766
_symmetry_Int_Tables_number   1
_chemical_formula_structural   Eu3MnFeC6
_chemical_formula_sum   'Eu6 Mn2 Fe2 C12'
_cell_volume   296.02684471
_cell_formula_units_Z   2
loop_
 _symmetry_equiv_pos_site_id
 _symmetry_equiv_pos_as_xyz
  1  'x, y, z'
loop_
 _atom_site_type_symbol
 _atom_site_label
 _atom_site_symmetry_multiplicity
 _atom_site_fract_x
 _atom_site_fract_y
 _atom_site_fract_z
 _atom_site_occupancy
  Eu  Eu0  1  0.606378  0.685286  0.750000  1
  Eu  Eu1  1  0.921093  0.606378  0.250000  1
  Eu  Eu2  1  0.685286  0.078907  0.250000  1
  Eu  Eu3  1  0.314714  0.921093  0.750000  1
  Eu  Eu4  1  0.078907  0.393622  0.750000  1
  Eu  Eu5  1  0.393622  0.314714  0.250000  1
  Mn  Mn6  1  0.000000  0.000000  0.500000  1
  Mn  Mn7  1  0.000000  0.000000  0.000000  1
  Fe  Fe8  1  0.666667  0.333333  0.750000  1
  Fe  Fe9  1  0.333333  0.666667  0.250000  1
  C  C10  1  0.950346  0.770637  0.750000  1
  C  C11  1  0.179709  0.950346  0.250000  1
  C  C12  1  0.770637  0.820291  0.250000  1
  C  C13  1  0.229363  0.179709  0.750000  1
  C  C14  1  0.820291  0.049654  0.750000  1
  C  C15  1  0.049654  0.229363  0.250000  1
  C  C16  1  0.854829  0.578850  0.750000  1
  C  C17  1  0.275977  0.854829  0.250000  1
  C  C18  1  0.578850  0.724023  0.250000  1
  C  C19  1  0.421150  0.275977  0.750000  1
  C  C20  1  0.145171  0.421150  0.250000  1
  C  C21  1  0.724023  0.145171  0.750000  1
