# generated using pymatgen
data_Hf18Re8BP
_symmetry_space_group_name_H-M   'P 1'
_cell_length_a   8.49821200
_cell_length_b   8.49821245
_cell_length_c   8.59831700
_cell_angle_alpha   90.00000000
_cell_angle_beta   90.00000000
_cell_angle_gamma   119.99999824
_symmetry_Int_Tables_number   1
_chemical_formula_structural   Hf18Re8BP
_chemical_formula_sum   'Hf18 Re8 B1 P1'
_cell_volume   537.77330107
_cell_formula_units_Z   1
loop_
 _symmetry_equiv_pos_site_id
 _symmetry_equiv_pos_as_xyz
  1  'x, y, z'
loop_
 _atom_site_type_symbol
 _atom_site_label
 _atom_site_symmetry_multiplicity
 _atom_site_fract_x
 _atom_site_fract_y
 _atom_site_fract_z
 _atom_site_occupancy
  Hf  Hf0  1  0.195692  0.804308  0.451816  1
  Hf  Hf1  1  0.195692  0.391385  0.451816  1
  Hf  Hf2  1  0.608615  0.804308  0.451816  1
  Hf  Hf3  1  0.799283  0.200717  0.555545  1
  Hf  Hf4  1  0.799283  0.598567  0.555545  1
  Hf  Hf5  1  0.401433  0.200717  0.555545  1
  Hf  Hf6  1  0.799283  0.200717  0.944455  1
  Hf  Hf7  1  0.799283  0.598567  0.944455  1
  Hf  Hf8  1  0.401433  0.200717  0.944455  1
  Hf  Hf9  1  0.195692  0.804308  0.048184  1
  Hf  Hf10  1  0.195692  0.391385  0.048184  1
  Hf  Hf11  1  0.608615  0.804308  0.048184  1
  Hf  Hf12  1  0.541133  0.458867  0.250000  1
  Hf  Hf13  1  0.541133  0.082266  0.250000  1
  Hf  Hf14  1  0.917734  0.458867  0.250000  1
  Hf  Hf15  1  0.460147  0.539853  0.750000  1
  Hf  Hf16  1  0.460147  0.920294  0.750000  1
  Hf  Hf17  1  0.079706  0.539853  0.750000  1
  Re  Re18  1  0.889804  0.110196  0.250000  1
  Re  Re19  1  0.889804  0.779609  0.250000  1
  Re  Re20  1  0.220391  0.110196  0.250000  1
  Re  Re21  1  0.109723  0.890277  0.750000  1
  Re  Re22  1  0.109723  0.219445  0.750000  1
  Re  Re23  1  0.780555  0.890277  0.750000  1
  Re  Re24  1  0.000000  0.000000  0.500261  1
  Re  Re25  1  0.000000  0.000000  0.999739  1
  B  B26  1  0.666667  0.333333  0.750000  1
  P  P27  1  0.333333  0.666667  0.250000  1
