# generated using pymatgen
data_TmLu7B24(OsW)2
_symmetry_space_group_name_H-M   'P 1'
_cell_length_a   3.57607600
_cell_length_b   9.12363571
_cell_length_c   11.50783000
_cell_angle_alpha   89.82770144
_cell_angle_beta   90.00000000
_cell_angle_gamma   90.00000000
_symmetry_Int_Tables_number   1
_chemical_formula_structural   TmLu7B24(OsW)2
_chemical_formula_sum   'Tm1 Lu7 B24 Os2 W2'
_cell_volume   375.46213920
_cell_formula_units_Z   1
loop_
 _symmetry_equiv_pos_site_id
 _symmetry_equiv_pos_as_xyz
  1  'x, y, z'
loop_
 _atom_site_type_symbol
 _atom_site_label
 _atom_site_symmetry_multiplicity
 _atom_site_fract_x
 _atom_site_fract_y
 _atom_site_fract_z
 _atom_site_occupancy
  Tm  Tm0  1  0.000000  0.321465  0.413945  1
  Lu  Lu1  1  0.000000  0.678519  0.586009  1
  Lu  Lu2  1  0.000000  0.820715  0.086452  1
  Lu  Lu3  1  0.000000  0.179286  0.913547  1
  Lu  Lu4  1  0.000000  0.945114  0.371726  1
  Lu  Lu5  1  0.000000  0.054794  0.628316  1
  Lu  Lu6  1  0.000000  0.442752  0.127090  1
  Lu  Lu7  1  0.000000  0.557263  0.872874  1
  B  B8  1  0.500000  0.551193  0.434869  1
  B  B9  1  0.500000  0.449002  0.565229  1
  B  B10  1  0.500000  0.053805  0.065870  1
  B  B11  1  0.500000  0.946194  0.934132  1
  B  B12  1  0.500000  0.752280  0.422241  1
  B  B13  1  0.500000  0.247680  0.577961  1
  B  B14  1  0.500000  0.249579  0.080024  1
  B  B15  1  0.500000  0.750424  0.919973  1
  B  B16  1  0.500000  0.796884  0.262514  1
  B  B17  1  0.500000  0.203112  0.737492  1
  B  B18  1  0.500000  0.290931  0.233657  1
  B  B19  1  0.500000  0.709015  0.766225  1
  B  B20  1  0.500000  0.631549  0.180923  1
  B  B21  1  0.500000  0.368447  0.819082  1
  B  B22  1  0.500000  0.130186  0.314035  1
  B  B23  1  0.500000  0.869686  0.685874  1
  B  B24  1  0.500000  0.982327  0.211554  1
  B  B25  1  0.500000  0.017669  0.788446  1
  B  B26  1  0.500000  0.476649  0.286023  1
  B  B27  1  0.500000  0.523568  0.713876  1
  B  B28  1  0.500000  0.602948  0.027422  1
  B  B29  1  0.500000  0.397057  0.972574  1
  B  B30  1  0.500000  0.102058  0.470822  1
  B  B31  1  0.500000  0.897763  0.529230  1
  Os  Os32  1  0.000000  0.137737  0.177892  1
  Os  Os33  1  0.000000  0.862210  0.822045  1
  W  W34  1  0.000000  0.639046  0.319250  1
  W  W35  1  0.000000  0.361094  0.680804  1
