# generated using pymatgen
data_Lu3CuNi8
_symmetry_space_group_name_H-M   'P 1'
_cell_length_a   4.93628000
_cell_length_b   4.93628010
_cell_length_c   16.04706300
_cell_angle_alpha   90.00000000
_cell_angle_beta   90.00000000
_cell_angle_gamma   119.99999930
_symmetry_Int_Tables_number   1
_chemical_formula_structural   Lu3CuNi8
_chemical_formula_sum   'Lu6 Cu2 Ni16'
_cell_volume   338.63026761
_cell_formula_units_Z   2
loop_
 _symmetry_equiv_pos_site_id
 _symmetry_equiv_pos_as_xyz
  1  'x, y, z'
loop_
 _atom_site_type_symbol
 _atom_site_label
 _atom_site_symmetry_multiplicity
 _atom_site_fract_x
 _atom_site_fract_y
 _atom_site_fract_z
 _atom_site_occupancy
  Lu  Lu0  1  0.333333  0.666667  0.958583  1
  Lu  Lu1  1  0.666667  0.333333  0.041417  1
  Lu  Lu2  1  0.666667  0.333333  0.458583  1
  Lu  Lu3  1  0.333333  0.666667  0.541417  1
  Lu  Lu4  1  0.333333  0.666667  0.750000  1
  Lu  Lu5  1  0.666667  0.333333  0.250000  1
  Cu  Cu6  1  0.333333  0.666667  0.250000  1
  Cu  Cu7  1  0.666667  0.333333  0.750000  1
  Ni  Ni8  1  0.167194  0.832806  0.375259  1
  Ni  Ni9  1  0.167194  0.334388  0.375259  1
  Ni  Ni10  1  0.665612  0.832806  0.375259  1
  Ni  Ni11  1  0.832806  0.167194  0.624741  1
  Ni  Ni12  1  0.832806  0.665612  0.624741  1
  Ni  Ni13  1  0.334388  0.167194  0.624741  1
  Ni  Ni14  1  0.832806  0.167194  0.875259  1
  Ni  Ni15  1  0.832806  0.665612  0.875259  1
  Ni  Ni16  1  0.334388  0.167194  0.875259  1
  Ni  Ni17  1  0.167194  0.832806  0.124741  1
  Ni  Ni18  1  0.167194  0.334388  0.124741  1
  Ni  Ni19  1  0.665612  0.832806  0.124741  1
  Ni  Ni20  1  0.000000  0.000000  0.250000  1
  Ni  Ni21  1  0.000000  0.000000  0.750000  1
  Ni  Ni22  1  0.000000  0.000000  0.500000  1
  Ni  Ni23  1  0.000000  0.000000  0.000000  1
