# generated using pymatgen
data_Mn(NiSb4)3
_symmetry_space_group_name_H-M   'P 1'
_cell_length_a   7.97672202
_cell_length_b   7.97672181
_cell_length_c   7.97672201
_cell_angle_alpha   109.46775030
_cell_angle_beta   109.46775019
_cell_angle_gamma   109.46774884
_symmetry_Int_Tables_number   1
_chemical_formula_structural   Mn(NiSb4)3
_chemical_formula_sum   'Mn1 Ni3 Sb12'
_cell_volume   390.75744974
_cell_formula_units_Z   1
loop_
 _symmetry_equiv_pos_site_id
 _symmetry_equiv_pos_as_xyz
  1  'x, y, z'
loop_
 _atom_site_type_symbol
 _atom_site_label
 _atom_site_symmetry_multiplicity
 _atom_site_fract_x
 _atom_site_fract_y
 _atom_site_fract_z
 _atom_site_occupancy
  Mn  Mn0  1  0.500000  0.500000  0.500000  1
  Ni  Ni1  1  0.000000  0.000000  0.500000  1
  Ni  Ni2  1  0.500000  0.000000  0.000000  1
  Ni  Ni3  1  0.000000  0.500000  0.000000  1
  Sb  Sb4  1  0.158432  0.822152  0.661879  1
  Sb  Sb5  1  0.841568  0.177848  0.338121  1
  Sb  Sb6  1  0.837960  0.507556  0.662291  1
  Sb  Sb7  1  0.162040  0.492444  0.337709  1
  Sb  Sb8  1  0.822152  0.661879  0.158432  1
  Sb  Sb9  1  0.177848  0.338121  0.841568  1
  Sb  Sb10  1  0.507556  0.662291  0.837960  1
  Sb  Sb11  1  0.492444  0.337709  0.162040  1
  Sb  Sb12  1  0.661879  0.158432  0.822152  1
  Sb  Sb13  1  0.338121  0.841568  0.177848  1
  Sb  Sb14  1  0.662291  0.837960  0.507556  1
  Sb  Sb15  1  0.337709  0.162040  0.492444  1
