# generated using pymatgen
data_Er10Tm10(Ir3Rh)3
_symmetry_space_group_name_H-M   'P 1'
_cell_length_a   10.74875901
_cell_length_b   10.74768900
_cell_length_c   6.32547501
_cell_angle_alpha   90.00074458
_cell_angle_beta   90.00479907
_cell_angle_gamma   89.99820886
_symmetry_Int_Tables_number   1
_chemical_formula_structural   Er10Tm10(Ir3Rh)3
_chemical_formula_sum   'Er10 Tm10 Ir9 Rh3'
_cell_volume   730.74618940
_cell_formula_units_Z   1
loop_
 _symmetry_equiv_pos_site_id
 _symmetry_equiv_pos_as_xyz
  1  'x, y, z'
loop_
 _atom_site_type_symbol
 _atom_site_label
 _atom_site_symmetry_multiplicity
 _atom_site_fract_x
 _atom_site_fract_y
 _atom_site_fract_z
 _atom_site_occupancy
  Er  Er0  1  0.290309  0.088128  0.377697  1
  Er  Er1  1  0.290241  0.911643  0.877531  1
  Er  Er2  1  0.709788  0.088361  0.877610  1
  Er  Er3  1  0.709724  0.911884  0.377735  1
  Er  Er4  1  0.588375  0.790212  0.877586  1
  Er  Er5  1  0.588151  0.209724  0.377747  1
  Er  Er6  1  0.411974  0.790357  0.377824  1
  Er  Er7  1  0.411744  0.209682  0.877679  1
  Er  Er8  1  0.208808  0.412052  0.621202  1
  Er  Er9  1  0.209093  0.588146  0.123301  1
  Tm  Tm10  1  0.791049  0.411920  0.123116  1
  Tm  Tm11  1  0.791323  0.587880  0.620971  1
  Tm  Tm12  1  0.911809  0.708992  0.123164  1
  Tm  Tm13  1  0.912007  0.291272  0.620994  1
  Tm  Tm14  1  0.087758  0.708811  0.620973  1
  Tm  Tm15  1  0.087957  0.290930  0.123149  1
  Tm  Tm16  1  0.999973  0.999991  0.500530  1
  Tm  Tm17  1  0.999969  0.000009  0.000360  1
  Tm  Tm18  1  0.500148  0.499958  0.000352  1
  Tm  Tm19  1  0.500147  0.500043  0.500520  1
  Ir  Ir20  1  0.846064  0.153478  0.249891  1
  Ir  Ir21  1  0.846221  0.846271  0.750137  1
  Ir  Ir22  1  0.153751  0.153530  0.750222  1
  Ir  Ir23  1  0.153905  0.846737  0.249982  1
  Ir  Ir24  1  0.653728  0.346199  0.750128  1
  Ir  Ir25  1  0.653472  0.653944  0.249891  1
  Ir  Ir26  1  0.346712  0.345830  0.249633  1
  Ir  Ir27  1  0.346459  0.654022  0.749865  1
  Ir  Ir28  1  0.999652  0.499989  0.376785  1
  Rh  Rh29  1  0.500011  0.000016  0.122932  1
  Rh  Rh30  1  0.500012  0.999980  0.623003  1
  Rh  Rh31  1  0.999663  0.500008  0.877490  1
