# generated using pymatgen
data_DyHo5GaNiOs
_symmetry_space_group_name_H-M   'P 1'
_cell_length_a   8.32632930
_cell_length_b   8.32406079
_cell_length_c   8.32405972
_cell_angle_alpha   113.16512872
_cell_angle_beta   110.20545145
_cell_angle_gamma   105.13324284
_symmetry_Int_Tables_number   1
_chemical_formula_structural   DyHo5GaNiOs
_chemical_formula_sum   'Dy2 Ho10 Ga2 Ni2 Os2'
_cell_volume   441.96906296
_cell_formula_units_Z   2
loop_
 _symmetry_equiv_pos_site_id
 _symmetry_equiv_pos_as_xyz
  1  'x, y, z'
loop_
 _atom_site_type_symbol
 _atom_site_label
 _atom_site_symmetry_multiplicity
 _atom_site_fract_x
 _atom_site_fract_y
 _atom_site_fract_z
 _atom_site_occupancy
  Dy  Dy0  1  0.435072  0.242507  0.192565  1
  Dy  Dy1  1  0.564928  0.757493  0.807435  1
  Ho  Ho2  1  0.049127  0.242124  0.807002  1
  Ho  Ho3  1  0.950873  0.757876  0.192998  1
  Ho  Ho4  1  0.179510  0.277932  0.458180  1
  Ho  Ho5  1  0.820490  0.722068  0.541820  1
  Ho  Ho6  1  0.179510  0.721329  0.901578  1
  Ho  Ho7  1  0.820490  0.278671  0.098422  1
  Ho  Ho8  1  0.330036  0.642795  0.311832  1
  Ho  Ho9  1  0.669964  0.357205  0.688168  1
  Ho  Ho10  1  0.330036  0.018203  0.687240  1
  Ho  Ho11  1  0.669964  0.981797  0.312760  1
  Ga  Ga12  1  0.500000  0.500000  0.000000  1
  Ga  Ga13  1  0.000000  0.000000  0.000000  1
  Ni  Ni14  1  0.116455  0.616774  0.499682  1
  Ni  Ni15  1  0.883545  0.383226  0.500318  1
  Os  Os16  1  0.329110  0.999572  0.329538  1
  Os  Os17  1  0.670890  0.000428  0.670462  1
