# generated using pymatgen
data_Th6In9Hg
_symmetry_space_group_name_H-M   'P 1'
_cell_length_a   6.62899859
_cell_length_b   6.62899917
_cell_length_c   10.44111100
_cell_angle_alpha   90.00000000
_cell_angle_beta   90.00000000
_cell_angle_gamma   102.42901080
_symmetry_Int_Tables_number   1
_chemical_formula_structural   Th6In9Hg
_chemical_formula_sum   'Th6 In9 Hg1'
_cell_volume   448.06710272
_cell_formula_units_Z   1
loop_
 _symmetry_equiv_pos_site_id
 _symmetry_equiv_pos_as_xyz
  1  'x, y, z'
loop_
 _atom_site_type_symbol
 _atom_site_label
 _atom_site_symmetry_multiplicity
 _atom_site_fract_x
 _atom_site_fract_y
 _atom_site_fract_z
 _atom_site_occupancy
  Th  Th0  1  0.132885  0.132885  0.750000  1
  Th  Th1  1  0.871243  0.871243  0.250000  1
  Th  Th2  1  0.706478  0.293454  0.999848  1
  Th  Th3  1  0.706478  0.293454  0.500152  1
  Th  Th4  1  0.293454  0.706478  0.999848  1
  Th  Th5  1  0.293454  0.706478  0.500152  1
  In  In6  1  0.485009  0.485009  0.250000  1
  In  In7  1  0.806762  0.806762  0.550971  1
  In  In8  1  0.192836  0.192836  0.451182  1
  In  In9  1  0.806762  0.806762  0.949029  1
  In  In10  1  0.192836  0.192836  0.048818  1
  In  In11  1  0.995740  0.576027  0.750000  1
  In  In12  1  0.425632  0.003659  0.250000  1
  In  In13  1  0.003659  0.425632  0.250000  1
  In  In14  1  0.576027  0.995740  0.750000  1
  Hg  Hg15  1  0.510744  0.510744  0.750000  1
