# generated using pymatgen
data_Ba2VBrF14
_symmetry_space_group_name_H-M   'P 1'
_cell_length_a   4.90419031
_cell_length_b   7.73606810
_cell_length_c   7.98451587
_cell_angle_alpha   106.51112882
_cell_angle_beta   100.93380173
_cell_angle_gamma   90.93904535
_symmetry_Int_Tables_number   1
_chemical_formula_structural   Ba2VBrF14
_chemical_formula_sum   'Ba2 V1 Br1 F14'
_cell_volume   284.36604669
_cell_formula_units_Z   1
loop_
 _symmetry_equiv_pos_site_id
 _symmetry_equiv_pos_as_xyz
  1  'x, y, z'
loop_
 _atom_site_type_symbol
 _atom_site_label
 _atom_site_symmetry_multiplicity
 _atom_site_fract_x
 _atom_site_fract_y
 _atom_site_fract_z
 _atom_site_occupancy
  Ba  Ba0  1  0.173471  0.340817  0.789150  1
  Ba  Ba1  1  0.821960  0.655777  0.211680  1
  V  V2  1  0.353314  0.185690  0.291092  1
  Br  Br3  1  0.647519  0.814388  0.708801  1
  F  F4  1  0.144604  0.180783  0.076755  1
  F  F5  1  0.428582  0.792423  0.476876  1
  F  F6  1  0.562366  0.207876  0.512957  1
  F  F7  1  0.492541  0.031179  0.812068  1
  F  F8  1  0.509132  0.979738  0.198182  1
  F  F9  1  0.364959  0.678615  0.756126  1
  F  F10  1  0.870134  0.821862  0.932387  1
  F  F11  1  0.281278  0.580067  0.097463  1
  F  F12  1  0.085958  0.049647  0.337269  1
  F  F13  1  0.191227  0.388581  0.396863  1
  F  F14  1  0.715523  0.418866  0.902685  1
  F  F15  1  0.808815  0.599389  0.596654  1
  F  F16  1  0.622713  0.321130  0.249366  1
  F  F17  1  0.925904  0.953174  0.653623  1
