# generated using pymatgen
data_Zr10Bi4Pb3Au
_symmetry_space_group_name_H-M   'P 1'
_cell_length_a   8.89725890
_cell_length_b   8.90354576
_cell_length_c   6.01960640
_cell_angle_alpha   89.95730492
_cell_angle_beta   90.02136388
_cell_angle_gamma   120.02338123
_symmetry_Int_Tables_number   1
_chemical_formula_structural   Zr10Bi4Pb3Au
_chemical_formula_sum   'Zr10 Bi4 Pb3 Au1'
_cell_volume   412.87202733
_cell_formula_units_Z   1
loop_
 _symmetry_equiv_pos_site_id
 _symmetry_equiv_pos_as_xyz
  1  'x, y, z'
loop_
 _atom_site_type_symbol
 _atom_site_label
 _atom_site_symmetry_multiplicity
 _atom_site_fract_x
 _atom_site_fract_y
 _atom_site_fract_z
 _atom_site_occupancy
  Zr  Zr0  1  0.334189  0.667095  0.000000  1
  Zr  Zr1  1  0.664966  0.332482  0.500000  1
  Zr  Zr2  1  0.665669  0.332834  0.000000  1
  Zr  Zr3  1  0.334418  0.667210  0.500000  1
  Zr  Zr4  1  0.280377  0.002133  0.243417  1
  Zr  Zr5  1  0.280377  0.278245  0.756583  1
  Zr  Zr6  1  0.001237  0.720977  0.755599  1
  Zr  Zr7  1  0.001237  0.280260  0.244401  1
  Zr  Zr8  1  0.719800  0.720259  0.245127  1
  Zr  Zr9  1  0.719800  0.999542  0.754873  1
  Bi  Bi10  1  0.616305  0.000453  0.249311  1
  Bi  Bi11  1  0.616305  0.615852  0.750689  1
  Bi  Bi12  1  0.000587  0.383359  0.749906  1
  Bi  Bi13  1  0.000587  0.617229  0.250094  1
  Pb  Pb14  1  0.000318  0.000159  0.500000  1
  Pb  Pb15  1  0.382105  0.382495  0.250880  1
  Pb  Pb16  1  0.382105  0.999610  0.749120  1
  Au  Au17  1  0.999615  0.999807  0.000000  1
