# generated using pymatgen
data_Pr5EuBiO12
_symmetry_space_group_name_H-M   'P 1'
_cell_length_a   6.84310155
_cell_length_b   6.87589699
_cell_length_c   6.85139200
_cell_angle_alpha   98.74853527
_cell_angle_beta   98.78044923
_cell_angle_gamma   99.09187600
_symmetry_Int_Tables_number   1
_chemical_formula_structural   Pr5EuBiO12
_chemical_formula_sum   'Pr5 Eu1 Bi1 O12'
_cell_volume   309.42231068
_cell_formula_units_Z   1
loop_
 _symmetry_equiv_pos_site_id
 _symmetry_equiv_pos_as_xyz
  1  'x, y, z'
loop_
 _atom_site_type_symbol
 _atom_site_label
 _atom_site_symmetry_multiplicity
 _atom_site_fract_x
 _atom_site_fract_y
 _atom_site_fract_z
 _atom_site_occupancy
  Pr  Pr0  1  0.696182  0.859689  0.393988  1
  Pr  Pr1  1  0.389692  0.697963  0.859641  1
  Pr  Pr2  1  0.141795  0.609061  0.302970  1
  Pr  Pr3  1  0.303706  0.138569  0.608801  1
  Pr  Pr4  1  0.610795  0.304344  0.141234  1
  Eu  Eu5  1  0.858793  0.401424  0.695118  1
  Bi  Bi6  1  0.997233  0.001463  0.997415  1
  O  O7  1  0.953615  0.308438  0.066142  1
  O  O8  1  0.068751  0.952679  0.304143  1
  O  O9  1  0.308777  0.065275  0.954539  1
  O  O10  1  0.043273  0.690178  0.929807  1
  O  O11  1  0.934470  0.046103  0.692236  1
  O  O12  1  0.691030  0.933354  0.047402  1
  O  O13  1  0.597729  0.181347  0.443462  1
  O  O14  1  0.438413  0.584919  0.175318  1
  O  O15  1  0.165715  0.434069  0.595123  1
  O  O16  1  0.407666  0.819912  0.559905  1
  O  O17  1  0.571721  0.411732  0.813701  1
  O  O18  1  0.820640  0.559479  0.419054  1
