# generated using pymatgen
data_Ho3Tm(GaCo)4
_symmetry_space_group_name_H-M   'P 1'
_cell_length_a   4.40492200
_cell_length_b   6.86849546
_cell_length_c   6.96342552
_cell_angle_alpha   89.88484479
_cell_angle_beta   90.00000000
_cell_angle_gamma   90.00000000
_symmetry_Int_Tables_number   1
_chemical_formula_structural   Ho3Tm(GaCo)4
_chemical_formula_sum   'Ho3 Tm1 Ga4 Co4'
_cell_volume   210.67931420
_cell_formula_units_Z   1
loop_
 _symmetry_equiv_pos_site_id
 _symmetry_equiv_pos_as_xyz
  1  'x, y, z'
loop_
 _atom_site_type_symbol
 _atom_site_label
 _atom_site_symmetry_multiplicity
 _atom_site_fract_x
 _atom_site_fract_y
 _atom_site_fract_z
 _atom_site_occupancy
  Ho  Ho0  1  0.250000  0.196260  0.022077  1
  Ho  Ho1  1  0.750000  0.694959  0.477887  1
  Ho  Ho2  1  0.750000  0.804167  0.978326  1
  Tm  Tm3  1  0.250000  0.302861  0.522534  1
  Ga  Ga4  1  0.250000  0.895603  0.694632  1
  Ga  Ga5  1  0.250000  0.605420  0.194780  1
  Ga  Ga6  1  0.750000  0.105421  0.305807  1
  Ga  Ga7  1  0.750000  0.394423  0.804606  1
  Co  Co8  1  0.250000  0.937982  0.343664  1
  Co  Co9  1  0.250000  0.562214  0.841983  1
  Co  Co10  1  0.750000  0.063662  0.656399  1
  Co  Co11  1  0.750000  0.437027  0.157306  1
