# generated using pymatgen
data_Tb4Dy3Pa(ReB6)4
_symmetry_space_group_name_H-M   'P 1'
_cell_length_a   3.70416100
_cell_length_b   9.19457368
_cell_length_c   11.56769200
_cell_angle_alpha   90.17571503
_cell_angle_beta   90.00000000
_cell_angle_gamma   90.00000000
_symmetry_Int_Tables_number   1
_chemical_formula_structural   Tb4Dy3Pa(ReB6)4
_chemical_formula_sum   'Tb4 Dy3 Pa1 Re4 B24'
_cell_volume   393.97269790
_cell_formula_units_Z   1
loop_
 _symmetry_equiv_pos_site_id
 _symmetry_equiv_pos_as_xyz
  1  'x, y, z'
loop_
 _atom_site_type_symbol
 _atom_site_label
 _atom_site_symmetry_multiplicity
 _atom_site_fract_x
 _atom_site_fract_y
 _atom_site_fract_z
 _atom_site_occupancy
  Tb  Tb0  1  0.000000  0.678543  0.586887  1
  Tb  Tb1  1  0.000000  0.823655  0.085596  1
  Tb  Tb2  1  0.000000  0.175760  0.913446  1
  Tb  Tb3  1  0.000000  0.942525  0.371811  1
  Dy  Dy4  1  0.000000  0.055607  0.629239  1
  Dy  Dy5  1  0.000000  0.443217  0.127643  1
  Dy  Dy6  1  0.000000  0.557283  0.870051  1
  Pa  Pa7  1  0.000000  0.323641  0.414046  1
  Re  Re8  1  0.000000  0.634817  0.321837  1
  Re  Re9  1  0.000000  0.362282  0.676003  1
  Re  Re10  1  0.000000  0.140998  0.181515  1
  Re  Re11  1  0.000000  0.862323  0.821341  1
  B  B12  1  0.500000  0.552158  0.431904  1
  B  B13  1  0.500000  0.445597  0.566897  1
  B  B14  1  0.500000  0.054053  0.067905  1
  B  B15  1  0.500000  0.947020  0.933324  1
  B  B16  1  0.500000  0.747456  0.418401  1
  B  B17  1  0.500000  0.251530  0.580853  1
  B  B18  1  0.500000  0.248383  0.081268  1
  B  B19  1  0.500000  0.751616  0.918700  1
  B  B20  1  0.500000  0.790562  0.266397  1
  B  B21  1  0.500000  0.208561  0.733919  1
  B  B22  1  0.500000  0.291754  0.234521  1
  B  B23  1  0.500000  0.708701  0.766106  1
  B  B24  1  0.500000  0.630913  0.185415  1
  B  B25  1  0.500000  0.369368  0.813400  1
  B  B26  1  0.500000  0.132774  0.314621  1
  B  B27  1  0.500000  0.868578  0.686512  1
  B  B28  1  0.500000  0.983533  0.212440  1
  B  B29  1  0.500000  0.017164  0.788013  1
  B  B30  1  0.500000  0.482693  0.287562  1
  B  B31  1  0.500000  0.517102  0.712560  1
  B  B32  1  0.500000  0.602014  0.028008  1
  B  B33  1  0.500000  0.398030  0.970712  1
  B  B34  1  0.500000  0.107088  0.470746  1
  B  B35  1  0.500000  0.892701  0.530403  1
