# generated using pymatgen
data_Dy3Ho7Sn5Sb
_symmetry_space_group_name_H-M   'P 1'
_cell_length_a   8.94926400
_cell_length_b   8.94066527
_cell_length_c   6.48001300
_cell_angle_alpha   90.00000000
_cell_angle_beta   90.00000000
_cell_angle_gamma   120.03181229
_symmetry_Int_Tables_number   1
_chemical_formula_structural   Dy3Ho7Sn5Sb
_chemical_formula_sum   'Dy3 Ho7 Sn5 Sb1'
_cell_volume   448.87390313
_cell_formula_units_Z   1
loop_
 _symmetry_equiv_pos_site_id
 _symmetry_equiv_pos_as_xyz
  1  'x, y, z'
loop_
 _atom_site_type_symbol
 _atom_site_label
 _atom_site_symmetry_multiplicity
 _atom_site_fract_x
 _atom_site_fract_y
 _atom_site_fract_z
 _atom_site_occupancy
  Dy  Dy0  1  0.998056  0.760091  0.750000  1
  Dy  Dy1  1  0.761917  0.000000  0.750000  1
  Dy  Dy2  1  0.237964  0.239909  0.750000  1
  Ho  Ho3  1  0.000674  0.238946  0.250000  1
  Ho  Ho4  1  0.761729  0.761054  0.250000  1
  Ho  Ho5  1  0.238974  0.000000  0.250000  1
  Ho  Ho6  1  0.333144  0.665692  0.499805  1
  Ho  Ho7  1  0.667453  0.334308  0.000195  1
  Ho  Ho8  1  0.667453  0.334308  0.499805  1
  Ho  Ho9  1  0.333144  0.665692  0.000195  1
  Sn  Sn10  1  0.395567  0.394806  0.250000  1
  Sn  Sn11  1  0.000761  0.605194  0.250000  1
  Sn  Sn12  1  0.999838  0.395559  0.750000  1
  Sn  Sn13  1  0.604279  0.604441  0.750000  1
  Sn  Sn14  1  0.605361  0.000000  0.250000  1
  Sb  Sb15  1  0.393685  0.000000  0.750000  1
