# generated using pymatgen
data_Y3Ag(Pt2O7)2
_symmetry_space_group_name_H-M   'P 1'
_cell_length_a   7.20476168
_cell_length_b   7.33643375
_cell_length_c   7.33643300
_cell_angle_alpha   59.99999889
_cell_angle_beta   59.39357942
_cell_angle_gamma   59.39357797
_symmetry_Int_Tables_number   1
_chemical_formula_structural   Y3Ag(Pt2O7)2
_chemical_formula_sum   'Y3 Ag1 Pt4 O14'
_cell_volume   271.66418716
_cell_formula_units_Z   1
loop_
 _symmetry_equiv_pos_site_id
 _symmetry_equiv_pos_as_xyz
  1  'x, y, z'
loop_
 _atom_site_type_symbol
 _atom_site_label
 _atom_site_symmetry_multiplicity
 _atom_site_fract_x
 _atom_site_fract_y
 _atom_site_fract_z
 _atom_site_occupancy
  Y  Y0  1  0.125000  0.625000  0.125000  1
  Y  Y1  1  0.125000  0.125000  0.625000  1
  Y  Y2  1  0.125000  0.125000  0.125000  1
  Ag  Ag3  1  0.625000  0.125000  0.125000  1
  Pt  Pt4  1  0.625000  0.625000  0.625000  1
  Pt  Pt5  1  0.125000  0.625000  0.625000  1
  Pt  Pt6  1  0.625000  0.625000  0.125000  1
  Pt  Pt7  1  0.625000  0.125000  0.625000  1
  O  O8  1  0.279594  0.717710  0.717710  1
  O  O9  1  0.531900  0.956683  0.956683  1
  O  O10  1  0.718100  0.695266  0.293317  1
  O  O11  1  0.279594  0.284986  0.717710  1
  O  O12  1  0.985853  0.004716  0.004716  1
  O  O13  1  0.279594  0.717710  0.284986  1
  O  O14  1  0.718100  0.293317  0.695266  1
  O  O15  1  0.970406  0.532290  0.965014  1
  O  O16  1  0.531900  0.554734  0.956683  1
  O  O17  1  0.970406  0.965014  0.532290  1
  O  O18  1  0.264147  0.245284  0.245284  1
  O  O19  1  0.531900  0.956683  0.554734  1
  O  O20  1  0.718100  0.293317  0.293317  1
  O  O21  1  0.970406  0.532290  0.532290  1
