# generated using pymatgen
data_TbErTi3P7Rh9
_symmetry_space_group_name_H-M   'P 1'
_cell_length_a   3.83096100
_cell_length_b   9.67064188
_cell_length_c   9.67033313
_cell_angle_alpha   119.99248761
_cell_angle_beta   89.99949115
_cell_angle_gamma   90.00062440
_symmetry_Int_Tables_number   1
_chemical_formula_structural   TbErTi3P7Rh9
_chemical_formula_sum   'Tb1 Er1 Ti3 P7 Rh9'
_cell_volume   310.29013611
_cell_formula_units_Z   1
loop_
 _symmetry_equiv_pos_site_id
 _symmetry_equiv_pos_as_xyz
  1  'x, y, z'
loop_
 _atom_site_type_symbol
 _atom_site_label
 _atom_site_symmetry_multiplicity
 _atom_site_fract_x
 _atom_site_fract_y
 _atom_site_fract_z
 _atom_site_occupancy
  Tb  Tb0  1  0.261679  0.666631  0.333316  1
  Er  Er1  1  0.761785  0.333487  0.666768  1
  Ti  Ti2  1  0.762112  0.100113  0.878689  1
  Ti  Ti3  1  0.762121  0.121140  0.221347  1
  Ti  Ti4  1  0.762097  0.778614  0.899904  1
  P  P5  1  0.262584  0.999837  0.999935  1
  P  P6  1  0.761786  0.876512  0.588896  1
  P  P7  1  0.761809  0.410935  0.287516  1
  P  P8  1  0.761760  0.712439  0.123523  1
  P  P9  1  0.261825  0.116689  0.417432  1
  P  P10  1  0.261862  0.582689  0.699247  1
  P  P11  1  0.261841  0.300814  0.883442  1
  Rh  Rh12  1  0.261778  0.883859  0.159878  1
  Rh  Rh13  1  0.261894  0.840238  0.723935  1
  Rh  Rh14  1  0.261832  0.275757  0.116126  1
  Rh  Rh15  1  0.761920  0.609790  0.558385  1
  Rh  Rh16  1  0.761862  0.441556  0.051441  1
  Rh  Rh17  1  0.761802  0.948753  0.390282  1
  Rh  Rh18  1  0.261964  0.365210  0.437188  1
  Rh  Rh19  1  0.261889  0.562666  0.927922  1
  Rh  Rh20  1  0.261799  0.072266  0.634831  1
