# generated using pymatgen
data_Dy15Er3(ZrIr6)2
_symmetry_space_group_name_H-M   'P 1'
_cell_length_a   10.88416304
_cell_length_b   10.88731101
_cell_length_c   6.29374302
_cell_angle_alpha   89.99959427
_cell_angle_beta   89.99142718
_cell_angle_gamma   89.99441027
_symmetry_Int_Tables_number   1
_chemical_formula_structural   Dy15Er3(ZrIr6)2
_chemical_formula_sum   'Dy15 Er3 Zr2 Ir12'
_cell_volume   745.80392973
_cell_formula_units_Z   1
loop_
 _symmetry_equiv_pos_site_id
 _symmetry_equiv_pos_as_xyz
  1  'x, y, z'
loop_
 _atom_site_type_symbol
 _atom_site_label
 _atom_site_symmetry_multiplicity
 _atom_site_fract_x
 _atom_site_fract_y
 _atom_site_fract_z
 _atom_site_occupancy
  Dy  Dy0  1  0.288459  0.912993  0.876041  1
  Dy  Dy1  1  0.711554  0.087207  0.875923  1
  Dy  Dy2  1  0.711485  0.912806  0.375953  1
  Dy  Dy3  1  0.588051  0.792049  0.876166  1
  Dy  Dy4  1  0.587765  0.207896  0.376083  1
  Dy  Dy5  1  0.411821  0.792264  0.376123  1
  Dy  Dy6  1  0.411738  0.207868  0.876206  1
  Dy  Dy7  1  0.208016  0.411862  0.623760  1
  Dy  Dy8  1  0.207963  0.588039  0.123837  1
  Dy  Dy9  1  0.792018  0.411932  0.123868  1
  Dy  Dy10  1  0.791977  0.588044  0.623871  1
  Dy  Dy11  1  0.912769  0.711536  0.123994  1
  Dy  Dy12  1  0.912831  0.288460  0.624085  1
  Dy  Dy13  1  0.087218  0.711559  0.624000  1
  Dy  Dy14  1  0.087457  0.288286  0.124242  1
  Er  Er15  1  0.288970  0.087049  0.376475  1
  Er  Er16  1  0.499951  0.499976  0.000002  1
  Er  Er17  1  0.499926  0.499938  0.499884  1
  Zr  Zr18  1  0.000369  0.000175  0.499801  1
  Zr  Zr19  1  0.000037  0.000094  0.999950  1
  Ir  Ir20  1  0.855829  0.144120  0.249996  1
  Ir  Ir21  1  0.855887  0.855873  0.750018  1
  Ir  Ir22  1  0.144513  0.143965  0.749224  1
  Ir  Ir23  1  0.144383  0.856248  0.250228  1
  Ir  Ir24  1  0.654023  0.345915  0.749995  1
  Ir  Ir25  1  0.654021  0.654024  0.249981  1
  Ir  Ir26  1  0.345856  0.345409  0.250283  1
  Ir  Ir27  1  0.345968  0.654021  0.750006  1
  Ir  Ir28  1  0.499557  0.000207  0.124849  1
  Ir  Ir29  1  0.499558  0.000206  0.624095  1
  Ir  Ir30  1  0.000013  0.499998  0.875507  1
  Ir  Ir31  1  0.000015  0.499980  0.375557  1
