# generated using pymatgen
data_Tb3Dy2ThCoTe2
_symmetry_space_group_name_H-M   'P 1'
_cell_length_a   8.50659302
_cell_length_b   8.46694640
_cell_length_c   3.86516300
_cell_angle_alpha   90.00000000
_cell_angle_beta   90.00000000
_cell_angle_gamma   119.84594408
_symmetry_Int_Tables_number   1
_chemical_formula_structural   Tb3Dy2ThCoTe2
_chemical_formula_sum   'Tb3 Dy2 Th1 Co1 Te2'
_cell_volume   241.46434195
_cell_formula_units_Z   1
loop_
 _symmetry_equiv_pos_site_id
 _symmetry_equiv_pos_as_xyz
  1  'x, y, z'
loop_
 _atom_site_type_symbol
 _atom_site_label
 _atom_site_symmetry_multiplicity
 _atom_site_fract_x
 _atom_site_fract_y
 _atom_site_fract_z
 _atom_site_occupancy
  Tb  Tb0  1  0.000000  0.421207  0.500000  1
  Tb  Tb1  1  0.604377  0.597372  0.500000  1
  Tb  Tb2  1  0.395623  0.992996  0.500000  1
  Dy  Dy3  1  0.234030  0.240299  0.000000  1
  Dy  Dy4  1  0.765970  0.006268  0.000000  1
  Th  Th5  1  0.000000  0.767315  0.000000  1
  Co  Co6  1  0.000000  0.984311  0.500000  1
  Te  Te7  1  0.346095  0.668165  0.000000  1
  Te  Te8  1  0.653905  0.322069  0.000000  1
