# generated using pymatgen
data_Ti13MnAl9Co3Pt4
_symmetry_space_group_name_H-M   'P 1'
_cell_length_a   8.69188599
_cell_length_b   8.69393860
_cell_length_c   8.64620752
_cell_angle_alpha   59.89906998
_cell_angle_beta   60.05841553
_cell_angle_gamma   59.49486340
_symmetry_Int_Tables_number   1
_chemical_formula_structural   Ti13MnAl9Co3Pt4
_chemical_formula_sum   'Ti13 Mn1 Al9 Co3 Pt4'
_cell_volume   460.06115101
_cell_formula_units_Z   1
loop_
 _symmetry_equiv_pos_site_id
 _symmetry_equiv_pos_as_xyz
  1  'x, y, z'
loop_
 _atom_site_type_symbol
 _atom_site_label
 _atom_site_symmetry_multiplicity
 _atom_site_fract_x
 _atom_site_fract_y
 _atom_site_fract_z
 _atom_site_occupancy
  Ti  Ti0  1  0.200756  0.204215  0.794836  1
  Ti  Ti1  1  0.794232  0.205894  0.202064  1
  Ti  Ti2  1  0.204503  0.792528  0.203546  1
  Ti  Ti3  1  0.807239  0.803825  0.184166  1
  Ti  Ti4  1  0.184992  0.804326  0.806720  1
  Ti  Ti5  1  0.806337  0.186767  0.805137  1
  Ti  Ti6  1  0.378086  0.376071  0.389370  1
  Ti  Ti7  1  0.386365  0.854404  0.390294  1
  Ti  Ti8  1  0.855294  0.386037  0.387839  1
  Ti  Ti9  1  0.383880  0.385347  0.852550  1
  Ti  Ti10  1  0.845356  0.484004  0.825090  1
  Ti  Ti11  1  0.481214  0.846963  0.823732  1
  Ti  Ti12  1  0.836081  0.835058  0.476249  1
  Mn  Mn13  1  0.999627  0.500913  0.503827  1
  Al  Al14  1  0.156322  0.155795  0.158559  1
  Al  Al15  1  0.156075  0.514486  0.176161  1
  Al  Al16  1  0.517380  0.155493  0.173564  1
  Al  Al17  1  0.164692  0.167792  0.516863  1
  Al  Al18  1  0.624465  0.616832  0.610918  1
  Al  Al19  1  0.617832  0.150338  0.611374  1
  Al  Al20  1  0.149565  0.615314  0.609203  1
  Al  Al21  1  0.615660  0.616552  0.150544  1
  Al  Al22  1  0.828183  0.828908  0.826772  1
  Co  Co23  1  0.496666  0.000925  0.502607  1
  Co  Co24  1  0.499729  0.501081  0.502233  1
  Co  Co25  1  0.005946  0.005924  0.007825  1
  Pt  Pt26  1  0.004264  0.002742  0.499959  1
  Pt  Pt27  1  0.498020  0.004411  0.002723  1
  Pt  Pt28  1  0.005122  0.498968  0.002466  1
  Pt  Pt29  1  0.496110  0.498080  0.002805  1
