# generated using pymatgen
data_Er15TmMgCd3Ni4
_symmetry_space_group_name_H-M   'P 1'
_cell_length_a   9.50764663
_cell_length_b   9.46126547
_cell_length_c   9.46029501
_cell_angle_alpha   59.99891349
_cell_angle_beta   60.16089554
_cell_angle_gamma   60.17562123
_symmetry_Int_Tables_number   1
_chemical_formula_structural   Er15TmMgCd3Ni4
_chemical_formula_sum   'Er15 Tm1 Mg1 Cd3 Ni4'
_cell_volume   603.26507409
_cell_formula_units_Z   1
loop_
 _symmetry_equiv_pos_site_id
 _symmetry_equiv_pos_as_xyz
  1  'x, y, z'
loop_
 _atom_site_type_symbol
 _atom_site_label
 _atom_site_symmetry_multiplicity
 _atom_site_fract_x
 _atom_site_fract_y
 _atom_site_fract_z
 _atom_site_occupancy
  Er  Er0  1  0.597779  0.596488  0.596578  1
  Er  Er1  1  0.597893  0.596568  0.209091  1
  Er  Er2  1  0.597672  0.209169  0.596692  1
  Er  Er3  1  0.203405  0.598808  0.598987  1
  Er  Er4  1  0.059806  0.439576  0.439882  1
  Er  Er5  1  0.437150  0.062157  0.061994  1
  Er  Er6  1  0.437179  0.062026  0.438709  1
  Er  Er7  1  0.059912  0.439547  0.060660  1
  Er  Er8  1  0.437335  0.438480  0.061996  1
  Er  Er9  1  0.059742  0.060553  0.439846  1
  Er  Er10  1  0.184814  0.814680  0.814554  1
  Er  Er11  1  0.814886  0.185552  0.185407  1
  Er  Er12  1  0.814870  0.185545  0.814191  1
  Er  Er13  1  0.184810  0.814721  0.185953  1
  Er  Er14  1  0.814582  0.814104  0.185643  1
  Tm  Tm15  1  0.184975  0.186624  0.814184  1
  Mg  Mg16  1  0.522519  0.825863  0.825810  1
  Cd  Cd17  1  0.832392  0.831825  0.831854  1
  Cd  Cd18  1  0.832384  0.831818  0.503949  1
  Cd  Cd19  1  0.832461  0.503833  0.831850  1
  Ni  Ni20  1  0.389487  0.393218  0.393469  1
  Ni  Ni21  1  0.389476  0.393326  0.823699  1
  Ni  Ni22  1  0.389500  0.823868  0.393320  1
  Ni  Ni23  1  0.824970  0.391654  0.391683  1
