# generated using pymatgen
data_SmTm2(Co3P2)3
_symmetry_space_group_name_H-M   'P 1'
_cell_length_a   3.70215600
_cell_length_b   10.52670200
_cell_length_c   12.18495400
_cell_angle_alpha   90.00000000
_cell_angle_beta   90.00000000
_cell_angle_gamma   90.00000000
_symmetry_Int_Tables_number   1
_chemical_formula_structural   SmTm2(Co3P2)3
_chemical_formula_sum   'Sm2 Tm4 Co18 P12'
_cell_volume   474.86584914
_cell_formula_units_Z   2
loop_
 _symmetry_equiv_pos_site_id
 _symmetry_equiv_pos_as_xyz
  1  'x, y, z'
loop_
 _atom_site_type_symbol
 _atom_site_label
 _atom_site_symmetry_multiplicity
 _atom_site_fract_x
 _atom_site_fract_y
 _atom_site_fract_z
 _atom_site_occupancy
  Sm  Sm0  1  0.000000  0.500000  0.522917  1
  Sm  Sm1  1  0.500000  0.000000  0.477083  1
  Tm  Tm2  1  0.500000  0.817593  0.205074  1
  Tm  Tm3  1  0.500000  0.182407  0.205074  1
  Tm  Tm4  1  0.000000  0.682407  0.794926  1
  Tm  Tm5  1  0.000000  0.317593  0.794926  1
  Co  Co6  1  0.500000  0.500000  0.157508  1
  Co  Co7  1  0.000000  0.000000  0.842492  1
  Co  Co8  1  0.500000  0.500000  0.706150  1
  Co  Co9  1  0.000000  0.000000  0.293850  1
  Co  Co10  1  0.000000  0.500000  0.986304  1
  Co  Co11  1  0.500000  0.000000  0.013696  1
  Co  Co12  1  0.500000  0.333053  0.994797  1
  Co  Co13  1  0.500000  0.666947  0.994797  1
  Co  Co14  1  0.000000  0.166947  0.005203  1
  Co  Co15  1  0.000000  0.833053  0.005203  1
  Co  Co16  1  0.500000  0.296815  0.429444  1
  Co  Co17  1  0.500000  0.703185  0.429444  1
  Co  Co18  1  0.000000  0.203185  0.570556  1
  Co  Co19  1  0.000000  0.796815  0.570556  1
  Co  Co20  1  0.500000  0.879071  0.711909  1
  Co  Co21  1  0.500000  0.120929  0.711909  1
  Co  Co22  1  0.000000  0.620929  0.288091  1
  Co  Co23  1  0.000000  0.379071  0.288091  1
  P  P24  1  0.500000  0.500000  0.883174  1
  P  P25  1  0.000000  0.000000  0.116826  1
  P  P26  1  0.500000  0.500000  0.341736  1
  P  P27  1  0.000000  0.000000  0.658264  1
  P  P28  1  0.500000  0.308973  0.617974  1
  P  P29  1  0.500000  0.691027  0.617974  1
  P  P30  1  0.000000  0.191027  0.382026  1
  P  P31  1  0.000000  0.808973  0.382026  1
  P  P32  1  0.500000  0.846438  0.893295  1
  P  P33  1  0.500000  0.153562  0.893295  1
  P  P34  1  0.000000  0.653562  0.106705  1
  P  P35  1  0.000000  0.346438  0.106705  1
