# generated using pymatgen
data_Ba2Cu3P4W
_symmetry_space_group_name_H-M   'P 1'
_cell_length_a   5.63507600
_cell_length_b   6.98231979
_cell_length_c   5.63588375
_cell_angle_alpha   66.20826105
_cell_angle_beta   89.99977661
_cell_angle_gamma   89.99939396
_symmetry_Int_Tables_number   1
_chemical_formula_structural   Ba2Cu3P4W
_chemical_formula_sum   'Ba2 Cu3 P4 W1'
_cell_volume   202.90423067
_cell_formula_units_Z   1
loop_
 _symmetry_equiv_pos_site_id
 _symmetry_equiv_pos_as_xyz
  1  'x, y, z'
loop_
 _atom_site_type_symbol
 _atom_site_label
 _atom_site_symmetry_multiplicity
 _atom_site_fract_x
 _atom_site_fract_y
 _atom_site_fract_z
 _atom_site_occupancy
  Ba  Ba0  1  0.997441  0.000001  0.000001  1
  Ba  Ba1  1  0.502309  0.999998  0.500002  1
  Cu  Cu2  1  0.250141  0.500005  0.999996  1
  Cu  Cu3  1  0.749866  0.500010  0.999998  1
  Cu  Cu4  1  0.749941  0.500000  0.500003  1
  P  P5  1  0.495140  0.705042  0.151837  1
  P  P6  1  0.004966  0.704907  0.643268  1
  P  P7  1  0.004969  0.295090  0.356730  1
  P  P8  1  0.495149  0.294954  0.848165  1
  W  W9  1  0.250078  0.499993  0.500000  1
