# generated using pymatgen
data_Ho3Sn3GeRh2
_symmetry_space_group_name_H-M   'P 1'
_cell_length_a   7.38764700
_cell_length_b   7.38764727
_cell_length_c   4.15706400
_cell_angle_alpha   90.00000000
_cell_angle_beta   90.00000000
_cell_angle_gamma   119.99999551
_symmetry_Int_Tables_number   1
_chemical_formula_structural   Ho3Sn3GeRh2
_chemical_formula_sum   'Ho3 Sn3 Ge1 Rh2'
_cell_volume   196.48511220
_cell_formula_units_Z   1
loop_
 _symmetry_equiv_pos_site_id
 _symmetry_equiv_pos_as_xyz
  1  'x, y, z'
loop_
 _atom_site_type_symbol
 _atom_site_label
 _atom_site_symmetry_multiplicity
 _atom_site_fract_x
 _atom_site_fract_y
 _atom_site_fract_z
 _atom_site_occupancy
  Ho  Ho0  1  0.011366  0.413055  0.000000  1
  Ho  Ho1  1  0.586945  0.598311  0.000000  1
  Ho  Ho2  1  0.401689  0.988634  0.000000  1
  Sn  Sn3  1  0.245327  0.259222  0.500000  1
  Sn  Sn4  1  0.013894  0.754673  0.500000  1
  Sn  Sn5  1  0.740778  0.986106  0.500000  1
  Ge  Ge6  1  0.666667  0.333333  0.500000  1
  Rh  Rh7  1  0.333333  0.666667  0.500000  1
  Rh  Rh8  1  0.000000  0.000000  0.000000  1
