# generated using pymatgen
data_Li2TbTm5(Co4P3)4
_symmetry_space_group_name_H-M   'P 1'
_cell_length_a   3.70103300
_cell_length_b   10.55300100
_cell_length_c   12.14800500
_cell_angle_alpha   90.00000000
_cell_angle_beta   90.00000000
_cell_angle_gamma   90.00000000
_symmetry_Int_Tables_number   1
_chemical_formula_structural   Li2TbTm5(Co4P3)4
_chemical_formula_sum   'Li2 Tb1 Tm5 Co16 P12'
_cell_volume   474.46469142
_cell_formula_units_Z   1
loop_
 _symmetry_equiv_pos_site_id
 _symmetry_equiv_pos_as_xyz
  1  'x, y, z'
loop_
 _atom_site_type_symbol
 _atom_site_label
 _atom_site_symmetry_multiplicity
 _atom_site_fract_x
 _atom_site_fract_y
 _atom_site_fract_z
 _atom_site_occupancy
  Li  Li0  1  0.500000  0.500000  0.153253  1
  Li  Li1  1  0.000000  0.000000  0.846254  1
  Tb  Tb2  1  0.000000  0.500000  0.523758  1
  Tm  Tm3  1  0.500000  0.000000  0.476389  1
  Tm  Tm4  1  0.500000  0.820035  0.206077  1
  Tm  Tm5  1  0.500000  0.179965  0.206077  1
  Tm  Tm6  1  0.000000  0.680174  0.794187  1
  Tm  Tm7  1  0.000000  0.319826  0.794187  1
  Co  Co8  1  0.500000  0.500000  0.705330  1
  Co  Co9  1  0.000000  0.000000  0.296154  1
  Co  Co10  1  0.000000  0.500000  0.986977  1
  Co  Co11  1  0.500000  0.000000  0.013196  1
  Co  Co12  1  0.500000  0.332770  0.996847  1
  Co  Co13  1  0.500000  0.667230  0.996847  1
  Co  Co14  1  0.000000  0.167132  0.003240  1
  Co  Co15  1  0.000000  0.832868  0.003240  1
  Co  Co16  1  0.500000  0.295353  0.430884  1
  Co  Co17  1  0.500000  0.704647  0.430884  1
  Co  Co18  1  0.000000  0.202497  0.568832  1
  Co  Co19  1  0.000000  0.797503  0.568832  1
  Co  Co20  1  0.500000  0.878476  0.706636  1
  Co  Co21  1  0.500000  0.121524  0.706636  1
  Co  Co22  1  0.000000  0.622217  0.292829  1
  Co  Co23  1  0.000000  0.377783  0.292829  1
  P  P24  1  0.500000  0.500000  0.884650  1
  P  P25  1  0.000000  0.000000  0.115980  1
  P  P26  1  0.500000  0.500000  0.345636  1
  P  P27  1  0.000000  0.000000  0.652625  1
  P  P28  1  0.500000  0.309609  0.616942  1
  P  P29  1  0.500000  0.690391  0.616942  1
  P  P30  1  0.000000  0.188978  0.383469  1
  P  P31  1  0.000000  0.811022  0.383469  1
  P  P32  1  0.500000  0.842904  0.892765  1
  P  P33  1  0.500000  0.157096  0.892765  1
  P  P34  1  0.000000  0.657303  0.107189  1
  P  P35  1  0.000000  0.342697  0.107189  1
