# generated using pymatgen
data_HfZr7(Be2In)4
_symmetry_space_group_name_H-M   'P 1'
_cell_length_a   6.49584271
_cell_length_b   6.49584322
_cell_length_c   7.95992100
_cell_angle_alpha   90.00000000
_cell_angle_beta   90.00000000
_cell_angle_gamma   90.04568080
_symmetry_Int_Tables_number   1
_chemical_formula_structural   HfZr7(Be2In)4
_chemical_formula_sum   'Hf1 Zr7 Be8 In4'
_cell_volume   335.87652732
_cell_formula_units_Z   1
loop_
 _symmetry_equiv_pos_site_id
 _symmetry_equiv_pos_as_xyz
  1  'x, y, z'
loop_
 _atom_site_type_symbol
 _atom_site_label
 _atom_site_symmetry_multiplicity
 _atom_site_fract_x
 _atom_site_fract_y
 _atom_site_fract_z
 _atom_site_occupancy
  Hf  Hf0  1  0.165932  0.165932  0.500000  1
  Zr  Zr1  1  0.168169  0.168169  0.000000  1
  Zr  Zr2  1  0.832235  0.832235  0.000000  1
  Zr  Zr3  1  0.667051  0.331585  0.500000  1
  Zr  Zr4  1  0.331585  0.667051  0.500000  1
  Zr  Zr5  1  0.666590  0.333636  0.000000  1
  Zr  Zr6  1  0.333636  0.666590  0.000000  1
  Zr  Zr7  1  0.833914  0.833914  0.500000  1
  Be  Be8  1  0.380227  0.380227  0.251104  1
  Be  Be9  1  0.618605  0.618605  0.749130  1
  Be  Be10  1  0.618605  0.618605  0.250870  1
  Be  Be11  1  0.882870  0.118532  0.749311  1
  Be  Be12  1  0.882870  0.118532  0.250689  1
  Be  Be13  1  0.380227  0.380227  0.748896  1
  Be  Be14  1  0.118532  0.882870  0.250689  1
  Be  Be15  1  0.118532  0.882870  0.749311  1
  In  In16  1  0.500339  0.999872  0.250390  1
  In  In17  1  0.500339  0.999872  0.749610  1
  In  In18  1  0.999872  0.500339  0.250390  1
  In  In19  1  0.999872  0.500339  0.749610  1
