# generated using pymatgen
data_Pr6EuReI12
_symmetry_space_group_name_H-M   'P 1'
_cell_length_a   10.20435800
_cell_length_b   10.20435744
_cell_length_c   10.20435735
_cell_angle_alpha   106.82438764
_cell_angle_beta   106.82438943
_cell_angle_gamma   106.82438002
_symmetry_Int_Tables_number   1
_chemical_formula_structural   Pr6EuReI12
_chemical_formula_sum   'Pr6 Eu1 Re1 I12'
_cell_volume   889.12255004
_cell_formula_units_Z   1
loop_
 _symmetry_equiv_pos_site_id
 _symmetry_equiv_pos_as_xyz
  1  'x, y, z'
loop_
 _atom_site_type_symbol
 _atom_site_label
 _atom_site_symmetry_multiplicity
 _atom_site_fract_x
 _atom_site_fract_y
 _atom_site_fract_z
 _atom_site_occupancy
  Pr  Pr0  1  0.802094  0.525675  0.598093  1
  Pr  Pr1  1  0.525675  0.598093  0.802094  1
  Pr  Pr2  1  0.197906  0.474325  0.401907  1
  Pr  Pr3  1  0.474325  0.401907  0.197906  1
  Pr  Pr4  1  0.598093  0.802094  0.525675  1
  Pr  Pr5  1  0.401907  0.197906  0.474325  1
  Eu  Eu6  1  0.000000  0.000000  0.000000  1
  Re  Re7  1  0.500000  0.500000  0.500000  1
  I  I8  1  0.724711  0.184861  0.573994  1
  I  I9  1  0.955581  0.877468  0.650721  1
  I  I10  1  0.573994  0.724711  0.184861  1
  I  I11  1  0.122532  0.349279  0.044419  1
  I  I12  1  0.650721  0.955581  0.877468  1
  I  I13  1  0.877468  0.650721  0.955581  1
  I  I14  1  0.044419  0.122532  0.349279  1
  I  I15  1  0.815139  0.426006  0.275289  1
  I  I16  1  0.349279  0.044419  0.122532  1
  I  I17  1  0.275289  0.815139  0.426006  1
  I  I18  1  0.184861  0.573994  0.724711  1
  I  I19  1  0.426006  0.275289  0.815139  1
