# generated using pymatgen
data_Sc3Nb2Co16Si7Mo
_symmetry_space_group_name_H-M   'P 1'
_cell_length_a   7.98974101
_cell_length_b   7.91624006
_cell_length_c   7.94509961
_cell_angle_alpha   60.04676713
_cell_angle_beta   59.57468614
_cell_angle_gamma   59.93225464
_symmetry_Int_Tables_number   1
_chemical_formula_structural   Sc3Nb2Co16Si7Mo
_chemical_formula_sum   'Sc3 Nb2 Co16 Si7 Mo1'
_cell_volume   354.12066227
_cell_formula_units_Z   1
loop_
 _symmetry_equiv_pos_site_id
 _symmetry_equiv_pos_as_xyz
  1  'x, y, z'
loop_
 _atom_site_type_symbol
 _atom_site_label
 _atom_site_symmetry_multiplicity
 _atom_site_fract_x
 _atom_site_fract_y
 _atom_site_fract_z
 _atom_site_occupancy
  Sc  Sc0  1  0.199624  0.798898  0.801708  1
  Sc  Sc1  1  0.800230  0.198292  0.201102  1
  Sc  Sc2  1  0.799065  0.797428  0.202572  1
  Nb  Nb3  1  0.202035  0.200366  0.799634  1
  Nb  Nb4  1  0.790947  0.210203  0.789797  1
  Co  Co5  1  0.168927  0.166422  0.165310  1
  Co  Co6  1  0.500660  0.834690  0.833578  1
  Co  Co7  1  0.833265  0.503032  0.830227  1
  Co  Co8  1  0.830784  0.830243  0.511072  1
  Co  Co9  1  0.172098  0.488928  0.169757  1
  Co  Co10  1  0.166524  0.169773  0.496968  1
  Co  Co11  1  0.487863  0.172975  0.168142  1
  Co  Co12  1  0.828980  0.831858  0.827025  1
  Co  Co13  1  0.378079  0.384008  0.383527  1
  Co  Co14  1  0.145614  0.616473  0.615992  1
  Co  Co15  1  0.615941  0.142558  0.622227  1
  Co  Co16  1  0.615575  0.621335  0.141451  1
  Co  Co17  1  0.378361  0.858549  0.378665  1
  Co  Co18  1  0.380726  0.377773  0.857442  1
  Co  Co19  1  0.862117  0.377871  0.381750  1
  Co  Co20  1  0.621738  0.618250  0.622129  1
  Si  Si21  1  0.504532  0.500361  0.499639  1
  Si  Si22  1  0.999961  0.500739  0.999512  1
  Si  Si23  1  0.501658  0.997920  0.002080  1
  Si  Si24  1  0.003645  0.503527  0.496473  1
  Si  Si25  1  0.500212  0.000488  0.499261  1
  Si  Si26  1  0.004105  0.998092  0.497630  1
  Si  Si27  1  0.499827  0.502370  0.001908  1
  Mo  Mo28  1  0.206908  0.796577  0.203423  1
