# generated using pymatgen
data_CsY6Er4(C2I9)2
_symmetry_space_group_name_H-M   'P 1'
_cell_length_a   11.43882319
_cell_length_b   11.45704088
_cell_length_c   11.47533123
_cell_angle_alpha   113.21888529
_cell_angle_beta   86.76802116
_cell_angle_gamma   119.95445936
_symmetry_Int_Tables_number   1
_chemical_formula_structural   CsY6Er4(C2I9)2
_chemical_formula_sum   'Cs1 Y6 Er4 C4 I18'
_cell_volume   1178.69415801
_cell_formula_units_Z   1
loop_
 _symmetry_equiv_pos_site_id
 _symmetry_equiv_pos_as_xyz
  1  'x, y, z'
loop_
 _atom_site_type_symbol
 _atom_site_label
 _atom_site_symmetry_multiplicity
 _atom_site_fract_x
 _atom_site_fract_y
 _atom_site_fract_z
 _atom_site_occupancy
  Cs  Cs0  1  0.499954  0.999767  0.499918  1
  Y  Y1  1  0.907332  0.610269  0.708891  1
  Y  Y2  1  0.104451  0.945329  0.000941  1
  Y  Y3  1  0.035821  0.962695  0.676012  1
  Y  Y4  1  0.321178  0.274668  0.287818  1
  Y  Y5  1  0.722739  0.647269  0.984974  1
  Y  Y6  1  0.895584  0.055582  0.999565  1
  Er  Er7  1  0.680690  0.726099  0.713515  1
  Er  Er8  1  0.275320  0.350903  0.015866  1
  Er  Er9  1  0.093401  0.387464  0.289577  1
  Er  Er10  1  0.964938  0.038078  0.322190  1
  C  C11  1  0.151315  0.220465  0.120813  1
  C  C12  1  0.847133  0.780271  0.879112  1
  C  C13  1  0.923151  0.856465  0.802949  1
  C  C14  1  0.075139  0.144038  0.197051  1
  I  I15  1  0.449732  0.530484  0.831527  1
  I  I16  1  0.383821  0.039855  0.157857  1
  I  I17  1  0.777347  0.855563  0.501559  1
  I  I18  1  0.839644  0.310688  0.154553  1
  I  I19  1  0.548960  0.469696  0.166479  1
  I  I20  1  0.219746  0.143265  0.498078  1
  I  I21  1  0.318401  0.099008  0.830489  1
  I  I22  1  0.683535  0.904193  0.172541  1
  I  I23  1  0.974304  0.757436  0.171729  1
  I  I24  1  0.934740  0.297050  0.499142  1
  I  I25  1  0.027923  0.246146  0.831165  1
  I  I26  1  0.067168  0.701403  0.498116  1
  I  I27  1  0.259935  0.618569  0.182097  1
  I  I28  1  0.739448  0.377450  0.817181  1
  I  I29  1  0.642478  0.437787  0.502267  1
  I  I30  1  0.162813  0.690653  0.847110  1
  I  I31  1  0.616858  0.957827  0.841108  1
  I  I32  1  0.355004  0.563565  0.497809  1
