# generated using pymatgen
data_HoErPdPtO7
_symmetry_space_group_name_H-M   'P 1'
_cell_length_a   7.23874528
_cell_length_b   7.24514045
_cell_length_c   7.23874586
_cell_angle_alpha   59.97076788
_cell_angle_beta   59.90706238
_cell_angle_gamma   59.97076255
_symmetry_Int_Tables_number   1
_chemical_formula_structural   HoErPdPtO7
_chemical_formula_sum   'Ho2 Er2 Pd2 Pt2 O14'
_cell_volume   268.13943458
_cell_formula_units_Z   2
loop_
 _symmetry_equiv_pos_site_id
 _symmetry_equiv_pos_as_xyz
  1  'x, y, z'
loop_
 _atom_site_type_symbol
 _atom_site_label
 _atom_site_symmetry_multiplicity
 _atom_site_fract_x
 _atom_site_fract_y
 _atom_site_fract_z
 _atom_site_occupancy
  Ho  Ho0  1  0.625000  0.625000  0.125000  1
  Ho  Ho1  1  0.125000  0.625000  0.625000  1
  Er  Er2  1  0.625000  0.625000  0.625000  1
  Er  Er3  1  0.625000  0.125000  0.625000  1
  Pd  Pd4  1  0.125000  0.125000  0.125000  1
  Pd  Pd5  1  0.125000  0.625000  0.125000  1
  Pt  Pt6  1  0.625000  0.125000  0.125000  1
  Pt  Pt7  1  0.125000  0.125000  0.625000  1
  O  O8  1  0.032593  0.465724  0.468018  1
  O  O9  1  0.781982  0.784276  0.217407  1
  O  O10  1  0.781982  0.216334  0.217407  1
  O  O11  1  0.749028  0.750972  0.749028  1
  O  O12  1  0.033646  0.466354  0.033646  1
  O  O13  1  0.467629  0.032371  0.467629  1
  O  O14  1  0.032593  0.033666  0.468018  1
  O  O15  1  0.500972  0.499028  0.500972  1
  O  O16  1  0.217407  0.216334  0.781982  1
  O  O17  1  0.216354  0.783646  0.216354  1
  O  O18  1  0.782371  0.217629  0.782371  1
  O  O19  1  0.468018  0.033666  0.032593  1
  O  O20  1  0.468018  0.465724  0.032593  1
  O  O21  1  0.217407  0.784276  0.781982  1
