# generated using pymatgen
data_ScPa(SbRh)2
_symmetry_space_group_name_H-M   'P 1'
_cell_length_a   6.51902600
_cell_length_b   4.57549100
_cell_length_c   9.11222400
_cell_angle_alpha   90.00000000
_cell_angle_beta   90.00000000
_cell_angle_gamma   90.00000000
_symmetry_Int_Tables_number   1
_chemical_formula_structural   ScPa(SbRh)2
_chemical_formula_sum   'Sc2 Pa2 Sb4 Rh4'
_cell_volume   271.79709196
_cell_formula_units_Z   2
loop_
 _symmetry_equiv_pos_site_id
 _symmetry_equiv_pos_as_xyz
  1  'x, y, z'
loop_
 _atom_site_type_symbol
 _atom_site_label
 _atom_site_symmetry_multiplicity
 _atom_site_fract_x
 _atom_site_fract_y
 _atom_site_fract_z
 _atom_site_occupancy
  Sc  Sc0  1  0.006584  0.000000  0.377020  1
  Sc  Sc1  1  0.506584  0.500000  0.622979  1
  Pa  Pa2  1  0.493305  0.500000  0.128508  1
  Pa  Pa3  1  0.993304  0.000000  0.871492  1
  Sb  Sb4  1  0.993728  0.500000  0.137205  1
  Sb  Sb5  1  0.501685  0.000000  0.388124  1
  Sb  Sb6  1  0.001684  0.500000  0.611875  1
  Sb  Sb7  1  0.493729  0.000000  0.862794  1
  Rh  Rh8  1  0.743347  0.000000  0.121372  1
  Rh  Rh9  1  0.261353  0.500000  0.368453  1
  Rh  Rh10  1  0.761353  0.000000  0.631545  1
  Rh  Rh11  1  0.243346  0.500000  0.878627  1
