# generated using pymatgen
data_Zr2Ag(AsO4)3
_symmetry_space_group_name_H-M   'P 1'
_cell_length_a   9.52143495
_cell_length_b   9.52143505
_cell_length_c   9.52143494
_cell_angle_alpha   59.01014829
_cell_angle_beta   59.01014970
_cell_angle_gamma   59.01014436
_symmetry_Int_Tables_number   1
_chemical_formula_structural   Zr2Ag(AsO4)3
_chemical_formula_sum   'Zr4 Ag2 As6 O24'
_cell_volume   596.58795372
_cell_formula_units_Z   2
loop_
 _symmetry_equiv_pos_site_id
 _symmetry_equiv_pos_as_xyz
  1  'x, y, z'
loop_
 _atom_site_type_symbol
 _atom_site_label
 _atom_site_symmetry_multiplicity
 _atom_site_fract_x
 _atom_site_fract_y
 _atom_site_fract_z
 _atom_site_occupancy
  Zr  Zr0  1  0.856782  0.856782  0.856782  1
  Zr  Zr1  1  0.643218  0.643218  0.643218  1
  Zr  Zr2  1  0.356782  0.356782  0.356782  1
  Zr  Zr3  1  0.143218  0.143218  0.143218  1
  Ag  Ag4  1  0.000000  0.000000  0.000000  1
  Ag  Ag5  1  0.500000  0.500000  0.500000  1
  As  As6  1  0.750000  0.039578  0.460422  1
  As  As7  1  0.960422  0.539578  0.250000  1
  As  As8  1  0.039578  0.460422  0.750000  1
  As  As9  1  0.250000  0.960422  0.539578  1
  As  As10  1  0.460422  0.750000  0.039578  1
  As  As11  1  0.539578  0.250000  0.960422  1
  O  O12  1  0.869606  0.498648  0.703437  1
  O  O13  1  0.269981  0.923024  0.061214  1
  O  O14  1  0.796563  0.001352  0.630394  1
  O  O15  1  0.576976  0.230019  0.438786  1
  O  O16  1  0.130394  0.501352  0.296563  1
  O  O17  1  0.923024  0.061214  0.269981  1
  O  O18  1  0.730019  0.076976  0.938786  1
  O  O19  1  0.769981  0.561214  0.423024  1
  O  O20  1  0.423024  0.769981  0.561214  1
  O  O21  1  0.498648  0.703437  0.869606  1
  O  O22  1  0.076976  0.938786  0.730019  1
  O  O23  1  0.203437  0.998648  0.369606  1
  O  O24  1  0.998648  0.369606  0.203437  1
  O  O25  1  0.369606  0.203437  0.998648  1
  O  O26  1  0.938786  0.730019  0.076976  1
  O  O27  1  0.501352  0.296563  0.130394  1
  O  O28  1  0.230019  0.438786  0.576976  1
  O  O29  1  0.630394  0.796563  0.001352  1
  O  O30  1  0.001352  0.630394  0.796563  1
  O  O31  1  0.438786  0.576976  0.230019  1
  O  O32  1  0.561214  0.423024  0.769981  1
  O  O33  1  0.703437  0.869606  0.498648  1
  O  O34  1  0.296563  0.130394  0.501352  1
  O  O35  1  0.061214  0.269981  0.923024  1
