# generated using pymatgen
data_Tb9Lu(In2Pt)4
_symmetry_space_group_name_H-M   'P 1'
_cell_length_a   3.64978700
_cell_length_b   8.18012155
_cell_length_c   18.27299132
_cell_angle_alpha   89.81645514
_cell_angle_beta   90.00000000
_cell_angle_gamma   90.00000000
_symmetry_Int_Tables_number   1
_chemical_formula_structural   Tb9Lu(In2Pt)4
_chemical_formula_sum   'Tb9 Lu1 In8 Pt4'
_cell_volume   545.55017109
_cell_formula_units_Z   1
loop_
 _symmetry_equiv_pos_site_id
 _symmetry_equiv_pos_as_xyz
  1  'x, y, z'
loop_
 _atom_site_type_symbol
 _atom_site_label
 _atom_site_symmetry_multiplicity
 _atom_site_fract_x
 _atom_site_fract_y
 _atom_site_fract_z
 _atom_site_occupancy
  Tb  Tb0  1  0.000000  0.883215  0.584154  1
  Tb  Tb1  1  0.000000  0.382987  0.915156  1
  Tb  Tb2  1  0.000000  0.617168  0.085402  1
  Tb  Tb3  1  0.000000  0.242329  0.220387  1
  Tb  Tb4  1  0.000000  0.757834  0.779680  1
  Tb  Tb5  1  0.000000  0.257709  0.719251  1
  Tb  Tb6  1  0.000000  0.741161  0.281483  1
  Tb  Tb7  1  0.000000  0.999628  0.000330  1
  Tb  Tb8  1  0.000000  0.500474  0.499156  1
  Lu  Lu9  1  0.000000  0.116190  0.413505  1
  In  In10  1  0.500000  0.418637  0.351685  1
  In  In11  1  0.500000  0.576636  0.648678  1
  In  In12  1  0.500000  0.077162  0.850619  1
  In  In13  1  0.500000  0.923819  0.150525  1
  In  In14  1  0.500000  0.291917  0.067129  1
  In  In15  1  0.500000  0.708067  0.933023  1
  In  In16  1  0.500000  0.206264  0.564668  1
  In  In17  1  0.500000  0.797378  0.433394  1
  Pt  Pt18  1  0.500000  0.025332  0.306113  1
  Pt  Pt19  1  0.500000  0.976184  0.695599  1
  Pt  Pt20  1  0.500000  0.475087  0.803091  1
  Pt  Pt21  1  0.500000  0.524822  0.196973  1
