# generated using pymatgen
data_Re5GeMoAs13
_symmetry_space_group_name_H-M   'P 1'
_cell_length_a   7.65790691
_cell_length_b   7.65793139
_cell_length_c   7.65796100
_cell_angle_alpha   109.64386195
_cell_angle_beta   109.13378903
_cell_angle_gamma   109.63697083
_symmetry_Int_Tables_number   1
_chemical_formula_structural   Re5GeMoAs13
_chemical_formula_sum   'Re5 Ge1 Mo1 As13'
_cell_volume   345.69984917
_cell_formula_units_Z   1
loop_
 _symmetry_equiv_pos_site_id
 _symmetry_equiv_pos_as_xyz
  1  'x, y, z'
loop_
 _atom_site_type_symbol
 _atom_site_label
 _atom_site_symmetry_multiplicity
 _atom_site_fract_x
 _atom_site_fract_y
 _atom_site_fract_z
 _atom_site_occupancy
  Re  Re0  1  0.002161  0.338664  0.340830  1
  Re  Re1  1  0.002166  0.661339  0.663502  1
  Re  Re2  1  0.336518  0.338663  0.997845  1
  Re  Re3  1  0.659190  0.661332  0.997845  1
  Re  Re4  1  0.662061  0.000005  0.662068  1
  Ge  Ge5  1  0.750168  0.499993  0.250167  1
  Mo  Mo6  1  0.341352  0.999996  0.341346  1
  As  As7  1  0.499934  0.748641  0.248578  1
  As  As8  1  0.499936  0.251359  0.751293  1
  As  As9  1  0.750347  0.251411  0.498945  1
  As  As10  1  0.247534  0.748595  0.498940  1
  As  As11  1  0.250355  0.499999  0.750359  1
  As  As12  1  0.998510  0.997638  0.330315  1
  As  As13  1  0.669166  0.002290  0.001070  1
  As  As14  1  0.998508  0.668191  0.000875  1
  As  As15  1  0.332682  0.331807  0.330318  1
  As  As16  1  0.998789  0.331907  0.001073  1
  As  As17  1  0.669156  0.668089  0.666878  1
  As  As18  1  0.332681  0.002365  0.000873  1
  As  As19  1  0.998786  0.997715  0.666879  1
