# generated using pymatgen
data_SmDySbTe
_symmetry_space_group_name_H-M   'P 1'
_cell_length_a   7.68146261
_cell_length_b   7.68146369
_cell_length_c   7.68146222
_cell_angle_alpha   33.38219139
_cell_angle_beta   33.38217896
_cell_angle_gamma   33.38218393
_symmetry_Int_Tables_number   1
_chemical_formula_structural   SmDySbTe
_chemical_formula_sum   'Sm1 Dy1 Sb1 Te1'
_cell_volume   122.18685541
_cell_formula_units_Z   1
loop_
 _symmetry_equiv_pos_site_id
 _symmetry_equiv_pos_as_xyz
  1  'x, y, z'
loop_
 _atom_site_type_symbol
 _atom_site_label
 _atom_site_symmetry_multiplicity
 _atom_site_fract_x
 _atom_site_fract_y
 _atom_site_fract_z
 _atom_site_occupancy
  Sm  Sm0  1  0.254066  0.254066  0.254066  1
  Dy  Dy1  1  0.746132  0.746132  0.746132  1
  Sb  Sb2  1  0.002053  0.002053  0.002053  1
  Te  Te3  1  0.497749  0.497749  0.497749  1
