# generated using pymatgen
data_TbY5Al24Os5Pt3
_symmetry_space_group_name_H-M   'P 1'
_cell_length_a   8.82857823
_cell_length_b   8.84614592
_cell_length_c   9.56988946
_cell_angle_alpha   90.11156389
_cell_angle_beta   89.75034965
_cell_angle_gamma   119.53800543
_symmetry_Int_Tables_number   1
_chemical_formula_structural   TbY5Al24Os5Pt3
_chemical_formula_sum   'Tb1 Y5 Al24 Os5 Pt3'
_cell_volume   650.25143558
_cell_formula_units_Z   1
loop_
 _symmetry_equiv_pos_site_id
 _symmetry_equiv_pos_as_xyz
  1  'x, y, z'
loop_
 _atom_site_type_symbol
 _atom_site_label
 _atom_site_symmetry_multiplicity
 _atom_site_fract_x
 _atom_site_fract_y
 _atom_site_fract_z
 _atom_site_occupancy
  Tb  Tb0  1  0.187796  0.382545  0.250589  1
  Y  Y1  1  0.812046  0.617067  0.749373  1
  Y  Y2  1  0.614295  0.813459  0.252097  1
  Y  Y3  1  0.385726  0.186564  0.747895  1
  Y  Y4  1  0.194428  0.809023  0.251110  1
  Y  Y5  1  0.805535  0.191021  0.748891  1
  Al  Al6  1  0.335534  0.671488  0.028599  1
  Al  Al7  1  0.664547  0.328636  0.971331  1
  Al  Al8  1  0.669260  0.331308  0.527597  1
  Al  Al9  1  0.330792  0.668828  0.472482  1
  Al  Al10  1  0.158138  0.325777  0.574843  1
  Al  Al11  1  0.841867  0.674209  0.425234  1
  Al  Al12  1  0.673329  0.840906  0.575293  1
  Al  Al13  1  0.836859  0.675996  0.077816  1
  Al  Al14  1  0.326671  0.159054  0.424696  1
  Al  Al15  1  0.163159  0.324002  0.922151  1
  Al  Al16  1  0.164056  0.835131  0.575776  1
  Al  Al17  1  0.325745  0.158569  0.076149  1
  Al  Al18  1  0.835869  0.164784  0.424210  1
  Al  Al19  1  0.674252  0.841402  0.923864  1
  Al  Al20  1  0.831486  0.158921  0.077562  1
  Al  Al21  1  0.168503  0.841046  0.922472  1
  Al  Al22  1  0.560475  0.124156  0.249851  1
  Al  Al23  1  0.439494  0.875793  0.750153  1
  Al  Al24  1  0.873927  0.437821  0.252807  1
  Al  Al25  1  0.125938  0.562212  0.747191  1
  Al  Al26  1  0.562879  0.436375  0.249751  1
  Al  Al27  1  0.437250  0.563633  0.750236  1
  Al  Al28  1  0.998816  0.002488  0.250209  1
  Al  Al29  1  0.001225  0.997734  0.749802  1
  Os  Os30  1  0.500041  0.000083  0.999991  1
  Os  Os31  1  0.500033  0.000080  0.500018  1
  Os  Os32  1  0.999974  0.499984  0.499985  1
  Os  Os33  1  0.999966  0.999908  0.999982  1
  Os  Os34  1  0.999956  0.999896  0.500026  1
  Pt  Pt35  1  0.000003  0.500019  0.000007  1
  Pt  Pt36  1  0.500105  0.500062  0.999962  1
  Pt  Pt37  1  0.500025  0.500021  0.500000  1
