# generated using pymatgen
data_DyNpO5
_symmetry_space_group_name_H-M   'P 1'
_cell_length_a   5.66782140
_cell_length_b   5.66782155
_cell_length_c   8.10421194
_cell_angle_alpha   69.13794572
_cell_angle_beta   69.13794300
_cell_angle_gamma   70.50528433
_symmetry_Int_Tables_number   1
_chemical_formula_structural   DyNpO5
_chemical_formula_sum   'Dy2 Np2 O10'
_cell_volume   220.85086721
_cell_formula_units_Z   2
loop_
 _symmetry_equiv_pos_site_id
 _symmetry_equiv_pos_as_xyz
  1  'x, y, z'
loop_
 _atom_site_type_symbol
 _atom_site_label
 _atom_site_symmetry_multiplicity
 _atom_site_fract_x
 _atom_site_fract_y
 _atom_site_fract_z
 _atom_site_occupancy
  Dy  Dy0  1  0.957220  0.042780  0.250000  1
  Dy  Dy1  1  0.042780  0.957220  0.750000  1
  Np  Np2  1  0.500000  0.500000  0.000000  1
  Np  Np3  1  0.500000  0.500000  0.500000  1
  O  O4  1  0.388477  0.611523  0.750000  1
  O  O5  1  0.289819  0.252751  0.618609  1
  O  O6  1  0.710181  0.747249  0.381391  1
  O  O7  1  0.252751  0.289819  0.118609  1
  O  O8  1  0.611523  0.388477  0.250000  1
  O  O9  1  0.747249  0.710181  0.881391  1
  O  O10  1  0.210091  0.813019  0.035597  1
  O  O11  1  0.813019  0.210091  0.535597  1
  O  O12  1  0.789909  0.186981  0.964403  1
  O  O13  1  0.186981  0.789909  0.464403  1
