# generated using pymatgen
data_Ho4Ga5Co2Ni7
_symmetry_space_group_name_H-M   'P 1'
_cell_length_a   5.19810495
_cell_length_b   5.17432345
_cell_length_c   12.07996430
_cell_angle_alpha   77.39798605
_cell_angle_beta   77.57543172
_cell_angle_gamma   59.84784809
_symmetry_Int_Tables_number   1
_chemical_formula_structural   Ho4Ga5Co2Ni7
_chemical_formula_sum   'Ho4 Ga5 Co2 Ni7'
_cell_volume   272.02658921
_cell_formula_units_Z   1
loop_
 _symmetry_equiv_pos_site_id
 _symmetry_equiv_pos_as_xyz
  1  'x, y, z'
loop_
 _atom_site_type_symbol
 _atom_site_label
 _atom_site_symmetry_multiplicity
 _atom_site_fract_x
 _atom_site_fract_y
 _atom_site_fract_z
 _atom_site_occupancy
  Ho  Ho0  1  0.953599  0.953348  0.139453  1
  Ho  Ho1  1  0.046401  0.046652  0.860547  1
  Ho  Ho2  1  0.854710  0.855222  0.435358  1
  Ho  Ho3  1  0.145290  0.144778  0.564642  1
  Ga  Ga4  1  0.500000  0.500000  0.500000  1
  Ga  Ga5  1  0.722771  0.719791  0.834667  1
  Ga  Ga6  1  0.277229  0.280209  0.165333  1
  Ga  Ga7  1  0.612714  0.608211  0.166360  1
  Ga  Ga8  1  0.387286  0.391789  0.833640  1
  Co  Co9  1  0.000000  0.500000  0.000000  1
  Co  Co10  1  0.500000  0.500000  0.000000  1
  Ni  Ni11  1  0.500000  0.000000  0.000000  1
  Ni  Ni12  1  0.386928  0.385590  0.332518  1
  Ni  Ni13  1  0.894966  0.385590  0.332518  1
  Ni  Ni14  1  0.387585  0.893229  0.331603  1
  Ni  Ni15  1  0.613072  0.614410  0.667482  1
  Ni  Ni16  1  0.105034  0.614410  0.667482  1
  Ni  Ni17  1  0.612415  0.106771  0.668397  1
