# generated using pymatgen
data_Ac5LaIrO12
_symmetry_space_group_name_H-M   'P 1'
_cell_length_a   6.96025050
_cell_length_b   6.97484337
_cell_length_c   6.97201700
_cell_angle_alpha   98.65961827
_cell_angle_beta   98.38766436
_cell_angle_gamma   98.38771232
_symmetry_Int_Tables_number   1
_chemical_formula_structural   Ac5LaIrO12
_chemical_formula_sum   'Ac5 La1 Ir1 O12'
_cell_volume   326.12006736
_cell_formula_units_Z   1
loop_
 _symmetry_equiv_pos_site_id
 _symmetry_equiv_pos_as_xyz
  1  'x, y, z'
loop_
 _atom_site_type_symbol
 _atom_site_label
 _atom_site_symmetry_multiplicity
 _atom_site_fract_x
 _atom_site_fract_y
 _atom_site_fract_z
 _atom_site_occupancy
  Ac  Ac0  1  0.141043  0.299027  0.602533  1
  Ac  Ac1  1  0.393676  0.857790  0.700275  1
  Ac  Ac2  1  0.701837  0.397375  0.858467  1
  Ac  Ac3  1  0.299450  0.605649  0.143766  1
  Ac  Ac4  1  0.607588  0.140780  0.298498  1
  La  La5  1  0.853362  0.693240  0.397131  1
  Ir  Ir6  1  0.999412  0.998864  0.999314  1
  O  O7  1  0.064952  0.279360  0.970521  1
  O  O8  1  0.026156  0.933134  0.718444  1
  O  O9  1  0.405035  0.553101  0.821479  1
  O  O10  1  0.170148  0.597962  0.444372  1
  O  O11  1  0.719581  0.029593  0.935642  1
  O  O12  1  0.446151  0.177290  0.591937  1
  O  O13  1  0.562903  0.819661  0.408980  1
  O  O14  1  0.281292  0.970378  0.063531  1
  O  O15  1  0.821615  0.413058  0.552718  1
  O  O16  1  0.598809  0.449206  0.180942  1
  O  O17  1  0.971211  0.063912  0.279609  1
  O  O18  1  0.935779  0.720619  0.031842  1
