# generated using pymatgen
data_ErBi(Sb5O13)2
_symmetry_space_group_name_H-M   'P 1'
_cell_length_a   7.43429041
_cell_length_b   7.38199864
_cell_length_c   10.31917262
_cell_angle_alpha   88.87328954
_cell_angle_beta   89.67756463
_cell_angle_gamma   89.87501593
_symmetry_Int_Tables_number   1
_chemical_formula_structural   ErBi(Sb5O13)2
_chemical_formula_sum   'Er1 Bi1 Sb10 O26'
_cell_volume   566.19571028
_cell_formula_units_Z   1
loop_
 _symmetry_equiv_pos_site_id
 _symmetry_equiv_pos_as_xyz
  1  'x, y, z'
loop_
 _atom_site_type_symbol
 _atom_site_label
 _atom_site_symmetry_multiplicity
 _atom_site_fract_x
 _atom_site_fract_y
 _atom_site_fract_z
 _atom_site_occupancy
  Er  Er0  1  0.500000  0.500000  0.000000  1
  Bi  Bi1  1  0.000000  0.500000  0.000000  1
  Sb  Sb2  1  0.255007  0.731989  0.728010  1
  Sb  Sb3  1  0.744993  0.268011  0.271990  1
  Sb  Sb4  1  0.500000  0.000000  0.000000  1
  Sb  Sb5  1  0.749602  0.759474  0.747554  1
  Sb  Sb6  1  0.252032  0.748362  0.252887  1
  Sb  Sb7  1  0.500000  0.500000  0.500000  1
  Sb  Sb8  1  0.000000  0.500000  0.500000  1
  Sb  Sb9  1  0.747968  0.251638  0.747113  1
  Sb  Sb10  1  0.250398  0.240526  0.252446  1
  Sb  Sb11  1  0.000000  0.000000  0.000000  1
  O  O12  1  0.449902  0.690009  0.372367  1
  O  O13  1  0.738341  0.454219  0.131970  1
  O  O14  1  0.258100  0.492649  0.163342  1
  O  O15  1  0.455762  0.307157  0.366910  1
  O  O16  1  0.557326  0.216746  0.886194  1
  O  O17  1  0.943145  0.211261  0.881920  1
  O  O18  1  0.447798  0.206117  0.121109  1
  O  O19  1  0.749566  0.998246  0.072451  1
  O  O20  1  0.250434  0.001754  0.927549  1
  O  O21  1  0.746473  0.004814  0.681922  1
  O  O22  1  0.552202  0.793883  0.878891  1
  O  O23  1  0.950518  0.798297  0.874809  1
  O  O24  1  0.442674  0.783254  0.113806  1
  O  O25  1  0.052031  0.689142  0.371579  1
  O  O26  1  0.544238  0.692843  0.633090  1
  O  O27  1  0.952257  0.691779  0.632066  1
  O  O28  1  0.249718  0.519902  0.580523  1
  O  O29  1  0.741900  0.507351  0.836658  1
  O  O30  1  0.750282  0.480098  0.419477  1
  O  O31  1  0.047743  0.308221  0.367934  1
  O  O32  1  0.550098  0.309991  0.627633  1
  O  O33  1  0.947969  0.310858  0.628421  1
  O  O34  1  0.049482  0.201703  0.125191  1
  O  O35  1  0.253527  0.995186  0.318078  1
  O  O36  1  0.056855  0.788739  0.118080  1
  O  O37  1  0.261659  0.545781  0.868030  1
