# generated using pymatgen
data_HfZr5Al16CoPd6
_symmetry_space_group_name_H-M   'P 1'
_cell_length_a   8.73744620
_cell_length_b   8.74974785
_cell_length_c   8.74981070
_cell_angle_alpha   59.90613071
_cell_angle_beta   60.04635889
_cell_angle_gamma   60.04672753
_symmetry_Int_Tables_number   1
_chemical_formula_structural   HfZr5Al16CoPd6
_chemical_formula_sum   'Hf1 Zr5 Al16 Co1 Pd6'
_cell_volume   472.99811015
_cell_formula_units_Z   1
loop_
 _symmetry_equiv_pos_site_id
 _symmetry_equiv_pos_as_xyz
  1  'x, y, z'
loop_
 _atom_site_type_symbol
 _atom_site_label
 _atom_site_symmetry_multiplicity
 _atom_site_fract_x
 _atom_site_fract_y
 _atom_site_fract_z
 _atom_site_occupancy
  Hf  Hf0  1  0.684863  0.315137  0.315136  1
  Zr  Zr1  1  0.687267  0.312740  0.686346  1
  Zr  Zr2  1  0.687261  0.686339  0.312747  1
  Zr  Zr3  1  0.311620  0.688379  0.688378  1
  Zr  Zr4  1  0.313647  0.686347  0.312740  1
  Zr  Zr5  1  0.313649  0.312746  0.686341  1
  Al  Al6  1  0.651400  0.116406  0.116404  1
  Al  Al7  1  0.116329  0.651050  0.116295  1
  Al  Al8  1  0.116328  0.116294  0.651050  1
  Al  Al9  1  0.115791  0.116403  0.116406  1
  Al  Al10  1  0.348949  0.883672  0.883674  1
  Al  Al11  1  0.883594  0.348603  0.884208  1
  Al  Al12  1  0.883595  0.884207  0.348603  1
  Al  Al13  1  0.883704  0.883673  0.883673  1
  Al  Al14  1  0.998655  0.333694  0.333696  1
  Al  Al15  1  0.333576  0.999647  0.333195  1
  Al  Al16  1  0.333581  0.333195  0.999649  1
  Al  Al17  1  0.333956  0.333697  0.333694  1
  Al  Al18  1  0.000360  0.666423  0.666419  1
  Al  Al19  1  0.666310  0.001332  0.666049  1
  Al  Al20  1  0.666307  0.666050  0.001333  1
  Al  Al21  1  0.666801  0.666417  0.666421  1
  Co  Co22  1  0.000437  0.999563  0.999563  1
  Pd  Pd23  1  0.500241  0.999759  0.999759  1
  Pd  Pd24  1  0.501030  0.000264  0.498969  1
  Pd  Pd25  1  0.501031  0.498971  0.000261  1
  Pd  Pd26  1  0.000241  0.499760  0.499759  1
  Pd  Pd27  1  0.999737  0.498970  0.000264  1
  Pd  Pd28  1  0.999739  0.000263  0.498968  1
