# generated using pymatgen
data_LiTb5Tm11In3Rh4
_symmetry_space_group_name_H-M   'P 1'
_cell_length_a   9.59697292
_cell_length_b   9.58811710
_cell_length_c   9.58811720
_cell_angle_alpha   59.83394284
_cell_angle_beta   59.61000649
_cell_angle_gamma   59.61000318
_symmetry_Int_Tables_number   1
_chemical_formula_structural   LiTb5Tm11In3Rh4
_chemical_formula_sum   'Li1 Tb5 Tm11 In3 Rh4'
_cell_volume   619.38269412
_cell_formula_units_Z   1
loop_
 _symmetry_equiv_pos_site_id
 _symmetry_equiv_pos_as_xyz
  1  'x, y, z'
loop_
 _atom_site_type_symbol
 _atom_site_label
 _atom_site_symmetry_multiplicity
 _atom_site_fract_x
 _atom_site_fract_y
 _atom_site_fract_z
 _atom_site_occupancy
  Li  Li0  1  0.427972  0.427642  0.427642  1
  Tb  Tb1  1  0.063243  0.062272  0.437039  1
  Tb  Tb2  1  0.437606  0.063892  0.436450  1
  Tb  Tb3  1  0.063243  0.437039  0.062272  1
  Tb  Tb4  1  0.049603  0.650023  0.650023  1
  Tb  Tb5  1  0.437606  0.436450  0.063892  1
  Tm  Tm6  1  0.650897  0.047728  0.649245  1
  Tm  Tm7  1  0.185956  0.814795  0.185646  1
  Tm  Tm8  1  0.185956  0.185646  0.814795  1
  Tm  Tm9  1  0.809242  0.809316  0.190853  1
  Tm  Tm10  1  0.441112  0.058887  0.058887  1
  Tm  Tm11  1  0.815191  0.185988  0.185988  1
  Tm  Tm12  1  0.060495  0.439516  0.439516  1
  Tm  Tm13  1  0.809242  0.190853  0.809316  1
  Tm  Tm14  1  0.189595  0.810264  0.810264  1
  Tm  Tm15  1  0.650897  0.649245  0.047728  1
  Tm  Tm16  1  0.648773  0.650718  0.650718  1
  In  In17  1  0.744819  0.418099  0.418099  1
  In  In18  1  0.418876  0.745556  0.415658  1
  In  In19  1  0.418876  0.415658  0.745556  1
  Rh  Rh20  1  0.854966  0.857139  0.426108  1
  Rh  Rh21  1  0.853520  0.859250  0.859250  1
  Rh  Rh22  1  0.427348  0.857915  0.857915  1
  Rh  Rh23  1  0.854966  0.426108  0.857139  1
