# generated using pymatgen
data_Tb8Re3B24Os
_symmetry_space_group_name_H-M   'P 1'
_cell_length_a   3.69513300
_cell_length_b   9.20383706
_cell_length_c   11.59193259
_cell_angle_alpha   90.07664829
_cell_angle_beta   90.00000000
_cell_angle_gamma   90.00000000
_symmetry_Int_Tables_number   1
_chemical_formula_structural   Tb8Re3B24Os
_chemical_formula_sum   'Tb8 Re3 B24 Os1'
_cell_volume   394.23434325
_cell_formula_units_Z   1
loop_
 _symmetry_equiv_pos_site_id
 _symmetry_equiv_pos_as_xyz
  1  'x, y, z'
loop_
 _atom_site_type_symbol
 _atom_site_label
 _atom_site_symmetry_multiplicity
 _atom_site_fract_x
 _atom_site_fract_y
 _atom_site_fract_z
 _atom_site_occupancy
  Tb  Tb0  1  0.000000  0.322403  0.414114  1
  Tb  Tb1  1  0.000000  0.676887  0.587675  1
  Tb  Tb2  1  0.000000  0.824997  0.084481  1
  Tb  Tb3  1  0.000000  0.176206  0.913588  1
  Tb  Tb4  1  0.000000  0.942518  0.369764  1
  Tb  Tb5  1  0.000000  0.056539  0.629558  1
  Tb  Tb6  1  0.000000  0.442780  0.130116  1
  Tb  Tb7  1  0.000000  0.556811  0.870750  1
  Re  Re8  1  0.000000  0.362172  0.677920  1
  Re  Re9  1  0.000000  0.138505  0.179502  1
  Re  Re10  1  0.000000  0.861503  0.820975  1
  B  B11  1  0.500000  0.553929  0.432582  1
  B  B12  1  0.500000  0.446992  0.567042  1
  B  B13  1  0.500000  0.053296  0.067080  1
  B  B14  1  0.500000  0.946815  0.932650  1
  B  B15  1  0.500000  0.747915  0.418195  1
  B  B16  1  0.500000  0.251418  0.581431  1
  B  B17  1  0.500000  0.248445  0.081521  1
  B  B18  1  0.500000  0.752024  0.918549  1
  B  B19  1  0.500000  0.790514  0.265848  1
  B  B20  1  0.500000  0.208583  0.733990  1
  B  B21  1  0.500000  0.291291  0.234469  1
  B  B22  1  0.500000  0.708350  0.766143  1
  B  B23  1  0.500000  0.631781  0.186336  1
  B  B24  1  0.500000  0.368901  0.813478  1
  B  B25  1  0.500000  0.131484  0.314404  1
  B  B26  1  0.500000  0.868324  0.686099  1
  B  B27  1  0.500000  0.983484  0.211768  1
  B  B28  1  0.500000  0.016678  0.787840  1
  B  B29  1  0.500000  0.484313  0.288233  1
  B  B30  1  0.500000  0.517213  0.711957  1
  B  B31  1  0.500000  0.602733  0.029162  1
  B  B32  1  0.500000  0.397433  0.971681  1
  B  B33  1  0.500000  0.101599  0.471247  1
  B  B34  1  0.500000  0.896876  0.528426  1
  Os  Os35  1  0.000000  0.638287  0.321427  1
