# generated using pymatgen
data_LaGaCoNi2B
_symmetry_space_group_name_H-M   'P 1'
_cell_length_a   5.28755426
_cell_length_b   5.28755340
_cell_length_c   6.78087600
_cell_angle_alpha   90.00000000
_cell_angle_beta   90.00000000
_cell_angle_gamma   119.56982842
_symmetry_Int_Tables_number   1
_chemical_formula_structural   LaGaCoNi2B
_chemical_formula_sum   'La2 Ga2 Co2 Ni4 B2'
_cell_volume   164.88923306
_cell_formula_units_Z   2
loop_
 _symmetry_equiv_pos_site_id
 _symmetry_equiv_pos_as_xyz
  1  'x, y, z'
loop_
 _atom_site_type_symbol
 _atom_site_label
 _atom_site_symmetry_multiplicity
 _atom_site_fract_x
 _atom_site_fract_y
 _atom_site_fract_z
 _atom_site_occupancy
  La  La0  1  0.000000  0.000000  0.507593  1
  La  La1  1  0.000000  0.000000  0.020670  1
  Ga  Ga2  1  0.332257  0.667743  0.997098  1
  Ga  Ga3  1  0.667743  0.332257  0.997098  1
  Co  Co4  1  0.500000  0.000000  0.297044  1
  Co  Co5  1  0.000000  0.500000  0.297044  1
  Ni  Ni6  1  0.500000  0.500000  0.295083  1
  Ni  Ni7  1  0.500000  0.000000  0.698764  1
  Ni  Ni8  1  0.500000  0.500000  0.702305  1
  Ni  Ni9  1  0.000000  0.500000  0.698764  1
  B  B10  1  0.669250  0.330750  0.494268  1
  B  B11  1  0.330750  0.669250  0.494268  1
