# generated using pymatgen
data_SrLa2Yb5(Si3Pd)4
_symmetry_space_group_name_H-M   'P 1'
_cell_length_a   8.29398700
_cell_length_b   8.29042743
_cell_length_c   8.54513100
_cell_angle_alpha   90.00000000
_cell_angle_beta   90.00000000
_cell_angle_gamma   120.01427194
_symmetry_Int_Tables_number   1
_chemical_formula_structural   SrLa2Yb5(Si3Pd)4
_chemical_formula_sum   'Sr1 La2 Yb5 Si12 Pd4'
_cell_volume   508.77662932
_cell_formula_units_Z   1
loop_
 _symmetry_equiv_pos_site_id
 _symmetry_equiv_pos_as_xyz
  1  'x, y, z'
loop_
 _atom_site_type_symbol
 _atom_site_label
 _atom_site_symmetry_multiplicity
 _atom_site_fract_x
 _atom_site_fract_y
 _atom_site_fract_z
 _atom_site_occupancy
  Sr  Sr0  1  0.500651  0.001304  0.250000  1
  La  La1  1  0.999968  0.999937  0.750000  1
  La  La2  1  0.999935  0.999870  0.250000  1
  Yb  Yb3  1  0.499575  0.500437  0.750000  1
  Yb  Yb4  1  0.500283  0.499790  0.250000  1
  Yb  Yb5  1  0.000862  0.500436  0.750000  1
  Yb  Yb6  1  0.999507  0.499790  0.250000  1
  Yb  Yb7  1  0.499486  0.998972  0.750000  1
  Si  Si8  1  0.836021  0.166944  0.996258  1
  Si  Si9  1  0.164014  0.833079  0.996884  1
  Si  Si10  1  0.330923  0.166944  0.996258  1
  Si  Si11  1  0.164014  0.833079  0.503116  1
  Si  Si12  1  0.669066  0.833079  0.996884  1
  Si  Si13  1  0.836021  0.166944  0.503742  1
  Si  Si14  1  0.834045  0.668089  0.999548  1
  Si  Si15  1  0.669066  0.833079  0.503116  1
  Si  Si16  1  0.165877  0.331755  0.999878  1
  Si  Si17  1  0.330923  0.166944  0.503742  1
  Si  Si18  1  0.165877  0.331755  0.500122  1
  Si  Si19  1  0.834045  0.668089  0.500452  1
  Pd  Pd20  1  0.667476  0.334954  0.992645  1
  Pd  Pd21  1  0.332444  0.664886  0.995166  1
  Pd  Pd22  1  0.332444  0.664886  0.504834  1
  Pd  Pd23  1  0.667476  0.334954  0.507355  1
