# generated using pymatgen
data_Sm4V3GeF28
_symmetry_space_group_name_H-M   'P 1'
_cell_length_a   5.58190812
_cell_length_b   8.96589058
_cell_length_c   11.96109041
_cell_angle_alpha   62.55374617
_cell_angle_beta   89.99241701
_cell_angle_gamma   90.01684020
_symmetry_Int_Tables_number   1
_chemical_formula_structural   Sm4V3GeF28
_chemical_formula_sum   'Sm4 V3 Ge1 F28'
_cell_volume   531.23613352
_cell_formula_units_Z   1
loop_
 _symmetry_equiv_pos_site_id
 _symmetry_equiv_pos_as_xyz
  1  'x, y, z'
loop_
 _atom_site_type_symbol
 _atom_site_label
 _atom_site_symmetry_multiplicity
 _atom_site_fract_x
 _atom_site_fract_y
 _atom_site_fract_z
 _atom_site_occupancy
  Sm  Sm0  1  0.759011  0.803334  0.769638  1
  Sm  Sm1  1  0.259294  0.191262  0.733567  1
  Sm  Sm2  1  0.240645  0.193577  0.230991  1
  Sm  Sm3  1  0.741612  0.811581  0.265683  1
  V  V4  1  0.254469  0.726126  0.543390  1
  V  V5  1  0.246057  0.726071  0.044302  1
  V  V6  1  0.745519  0.274109  0.456188  1
  Ge  Ge7  1  0.755463  0.273445  0.956299  1
  F  F8  1  0.443995  0.706930  0.923398  1
  F  F9  1  0.945005  0.292358  0.577570  1
  F  F10  1  0.561259  0.293998  0.071667  1
  F  F11  1  0.054742  0.707486  0.422690  1
  F  F12  1  0.464235  0.284308  0.544273  1
  F  F13  1  0.964331  0.714446  0.958139  1
  F  F14  1  0.535516  0.715384  0.455916  1
  F  F15  1  0.027636  0.285995  0.039533  1
  F  F16  1  0.765894  0.501767  0.864029  1
  F  F17  1  0.265488  0.494805  0.637369  1
  F  F18  1  0.235126  0.494480  0.135669  1
  F  F19  1  0.734201  0.504707  0.363304  1
  F  F20  1  0.758127  0.045090  0.046242  1
  F  F21  1  0.259004  0.955637  0.452886  1
  F  F22  1  0.241399  0.955698  0.953427  1
  F  F23  1  0.741420  0.045024  0.546308  1
  F  F24  1  0.980823  0.731443  0.635415  1
  F  F25  1  0.491143  0.268245  0.866710  1
  F  F26  1  0.019276  0.268975  0.363594  1
  F  F27  1  0.519748  0.730036  0.136282  1
  F  F28  1  0.049773  0.744051  0.167888  1
  F  F29  1  0.547957  0.254898  0.332164  1
  F  F30  1  0.948671  0.256634  0.837331  1
  F  F31  1  0.450701  0.745484  0.666880  1
  F  F32  1  0.408891  0.971033  0.229245  1
  F  F33  1  0.911927  0.032231  0.271767  1
  F  F34  1  0.586313  0.028370  0.770192  1
  F  F35  1  0.085327  0.970983  0.730052  1
