# generated using pymatgen
data_Sr20Ge3Bi8P
_symmetry_space_group_name_H-M   'P 1'
_cell_length_a   8.68825443
_cell_length_b   10.07356700
_cell_length_c   13.68686925
_cell_angle_alpha   90.00000000
_cell_angle_beta   90.71738436
_cell_angle_gamma   90.00000000
_symmetry_Int_Tables_number   1
_chemical_formula_structural   Sr20Ge3Bi8P
_chemical_formula_sum   'Sr20 Ge3 Bi8 P1'
_cell_volume   1197.80434903
_cell_formula_units_Z   1
loop_
 _symmetry_equiv_pos_site_id
 _symmetry_equiv_pos_as_xyz
  1  'x, y, z'
loop_
 _atom_site_type_symbol
 _atom_site_label
 _atom_site_symmetry_multiplicity
 _atom_site_fract_x
 _atom_site_fract_y
 _atom_site_fract_z
 _atom_site_occupancy
  Sr  Sr0  1  0.823504  0.526914  0.073368  1
  Sr  Sr1  1  0.676535  0.970187  0.576355  1
  Sr  Sr2  1  0.177466  0.032863  0.924984  1
  Sr  Sr3  1  0.322577  0.469153  0.424980  1
  Sr  Sr4  1  0.177466  0.467137  0.924984  1
  Sr  Sr5  1  0.322577  0.030847  0.424980  1
  Sr  Sr6  1  0.823504  0.973086  0.073368  1
  Sr  Sr7  1  0.676535  0.529813  0.576355  1
  Sr  Sr8  1  0.169528  0.750000  0.215100  1
  Sr  Sr9  1  0.333283  0.750000  0.715330  1
  Sr  Sr10  1  0.832022  0.250000  0.786424  1
  Sr  Sr11  1  0.662652  0.250000  0.289289  1
  Sr  Sr12  1  0.445956  0.750000  0.000572  1
  Sr  Sr13  1  0.054239  0.750000  0.499520  1
  Sr  Sr14  1  0.555103  0.250000  0.999110  1
  Sr  Sr15  1  0.946725  0.250000  0.500173  1
  Sr  Sr16  1  0.640930  0.750000  0.302271  1
  Sr  Sr17  1  0.859153  0.750000  0.802611  1
  Sr  Sr18  1  0.359987  0.250000  0.698815  1
  Sr  Sr19  1  0.137181  0.250000  0.194510  1
  Ge  Ge20  1  0.437176  0.750000  0.489713  1
  Ge  Ge21  1  0.062451  0.750000  0.990443  1
  Ge  Ge22  1  0.563039  0.250000  0.511627  1
  Bi  Bi23  1  0.940814  0.505293  0.327255  1
  Bi  Bi24  1  0.563058  0.992215  0.833038  1
  Bi  Bi25  1  0.059247  0.007809  0.670867  1
  Bi  Bi26  1  0.438840  0.489036  0.166952  1
  Bi  Bi27  1  0.059247  0.492191  0.670867  1
  Bi  Bi28  1  0.438840  0.010964  0.166952  1
  Bi  Bi29  1  0.940814  0.994707  0.327255  1
  Bi  Bi30  1  0.563058  0.507785  0.833038  1
  P  P31  1  0.936495  0.250000  0.008896  1
