# generated using pymatgen
data_B2S13
_symmetry_space_group_name_H-M   'P 1'
_cell_length_a   8.05548970
_cell_length_b   8.16341364
_cell_length_c   9.16495078
_cell_angle_alpha   80.66977898
_cell_angle_beta   103.75573303
_cell_angle_gamma   77.59107233
_symmetry_Int_Tables_number   1
_chemical_formula_structural   B2S13
_chemical_formula_sum   'B2 S13'
_cell_volume   557.09876598
_cell_formula_units_Z   1
loop_
 _symmetry_equiv_pos_site_id
 _symmetry_equiv_pos_as_xyz
  1  'x, y, z'
loop_
 _atom_site_type_symbol
 _atom_site_label
 _atom_site_symmetry_multiplicity
 _atom_site_fract_x
 _atom_site_fract_y
 _atom_site_fract_z
 _atom_site_occupancy
  B  B0  1  0.835601  0.869292  0.165220  1
  B  B1  1  0.755718  0.150351  0.288273  1
  S  S2  1  0.769270  0.447837  0.800539  1
  S  S3  1  0.647692  0.297446  0.671605  1
  S  S4  1  0.150845  0.851022  0.851121  1
  S  S5  1  0.616360  0.869652  0.178713  1
  S  S6  1  0.934819  0.035195  0.224745  1
  S  S7  1  0.086610  0.538010  0.655268  1
  S  S8  1  0.571111  0.416985  0.442451  1
  S  S9  1  0.269862  0.644889  0.771012  1
  S  S10  1  0.788856  0.339840  0.359338  1
  S  S11  1  0.035169  0.363575  0.823030  1
  S  S12  1  0.181729  0.755004  0.079262  1
  S  S13  1  0.557792  0.079991  0.278065  1
  S  S14  1  0.949171  0.690496  0.097816  1
