# generated using pymatgen
data_Sr2LiC3F
_symmetry_space_group_name_H-M   'P 1'
_cell_length_a   7.18948200
_cell_length_b   7.18948200
_cell_length_c   3.98093200
_cell_angle_alpha   90.00000000
_cell_angle_beta   90.00000000
_cell_angle_gamma   90.00000000
_symmetry_Int_Tables_number   1
_chemical_formula_structural   Sr2LiC3F
_chemical_formula_sum   'Sr4 Li2 C6 F2'
_cell_volume   205.76900651
_cell_formula_units_Z   2
loop_
 _symmetry_equiv_pos_site_id
 _symmetry_equiv_pos_as_xyz
  1  'x, y, z'
loop_
 _atom_site_type_symbol
 _atom_site_label
 _atom_site_symmetry_multiplicity
 _atom_site_fract_x
 _atom_site_fract_y
 _atom_site_fract_z
 _atom_site_occupancy
  Sr  Sr0  1  0.682050  0.182050  0.500000  1
  Sr  Sr1  1  0.317950  0.817950  0.500000  1
  Sr  Sr2  1  0.182050  0.317950  0.500000  1
  Sr  Sr3  1  0.817950  0.682050  0.500000  1
  Li  Li4  1  0.500000  0.500000  0.000000  1
  Li  Li5  1  0.000000  0.000000  0.000000  1
  C  C6  1  0.131281  0.631281  0.000000  1
  C  C7  1  0.868719  0.368719  0.000000  1
  C  C8  1  0.631281  0.868719  0.000000  1
  C  C9  1  0.368719  0.131281  0.000000  1
  C  C10  1  0.500000  0.000000  0.000000  1
  C  C11  1  0.000000  0.500000  0.000000  1
  F  F12  1  0.500000  0.500000  0.500000  1
  F  F13  1  0.000000  0.000000  0.500000  1
