# generated using pymatgen
data_Tb2Ho6Hf12Si15Ni
_symmetry_space_group_name_H-M   'P 1'
_cell_length_a   7.26009023
_cell_length_b   7.28983668
_cell_length_c   13.38838930
_cell_angle_alpha   90.20500357
_cell_angle_beta   89.91715778
_cell_angle_gamma   90.15794559
_symmetry_Int_Tables_number   1
_chemical_formula_structural   Tb2Ho6Hf12Si15Ni
_chemical_formula_sum   'Tb2 Ho6 Hf12 Si15 Ni1'
_cell_volume   708.57083156
_cell_formula_units_Z   1
loop_
 _symmetry_equiv_pos_site_id
 _symmetry_equiv_pos_as_xyz
  1  'x, y, z'
loop_
 _atom_site_type_symbol
 _atom_site_label
 _atom_site_symmetry_multiplicity
 _atom_site_fract_x
 _atom_site_fract_y
 _atom_site_fract_z
 _atom_site_occupancy
  Tb  Tb0  1  0.344066  0.996500  0.785426  1
  Tb  Tb1  1  0.657364  0.003307  0.284491  1
  Ho  Ho2  1  0.997479  0.347696  0.215498  1
  Ho  Ho3  1  0.005138  0.653953  0.714181  1
  Ho  Ho4  1  0.160332  0.491056  0.461637  1
  Ho  Ho5  1  0.503746  0.844698  0.034920  1
  Ho  Ho6  1  0.843637  0.503290  0.965636  1
  Ho  Ho7  1  0.496001  0.153852  0.536977  1
  Hf  Hf8  1  0.174842  0.176809  0.999456  1
  Hf  Hf9  1  0.826154  0.822932  0.499672  1
  Hf  Hf10  1  0.323827  0.676293  0.250525  1
  Hf  Hf11  1  0.675655  0.324622  0.750117  1
  Hf  Hf12  1  0.153577  0.006946  0.374136  1
  Hf  Hf13  1  0.850834  0.003855  0.875119  1
  Hf  Hf14  1  0.503737  0.648296  0.624441  1
  Hf  Hf15  1  0.352095  0.496564  0.874884  1
  Hf  Hf16  1  0.493754  0.350051  0.129004  1
  Hf  Hf17  1  0.639895  0.498698  0.376274  1
  Hf  Hf18  1  0.997333  0.147688  0.625921  1
  Hf  Hf19  1  0.000863  0.851037  0.124412  1
  Si  Si20  1  0.639508  0.704626  0.818130  1
  Si  Si21  1  0.203901  0.859768  0.566210  1
  Si  Si22  1  0.138200  0.795742  0.932940  1
  Si  Si23  1  0.795880  0.139645  0.067269  1
  Si  Si24  1  0.859542  0.200321  0.435612  1
  Si  Si25  1  0.295736  0.361659  0.683159  1
  Si  Si26  1  0.704673  0.640399  0.182246  1
  Si  Si27  1  0.291110  0.051901  0.185428  1
  Si  Si28  1  0.706159  0.949735  0.685535  1
  Si  Si29  1  0.449487  0.794714  0.436047  1
  Si  Si30  1  0.204732  0.550491  0.063314  1
  Si  Si31  1  0.548942  0.205799  0.936529  1
  Si  Si32  1  0.796279  0.449757  0.564805  1
  Si  Si33  1  0.048391  0.296672  0.814797  1
  Si  Si34  1  0.950256  0.706732  0.314117  1
  Ni  Ni35  1  0.366871  0.293897  0.311140  1
