# generated using pymatgen
data_Y6IrPd6Au
_symmetry_space_group_name_H-M   'P 1'
_cell_length_a   7.87603643
_cell_length_b   7.92645254
_cell_length_c   7.95076007
_cell_angle_alpha   114.38542723
_cell_angle_beta   114.25956041
_cell_angle_gamma   114.06542189
_symmetry_Int_Tables_number   1
_chemical_formula_structural   Y6IrPd6Au
_chemical_formula_sum   'Y6 Ir1 Pd6 Au1'
_cell_volume   296.19223950
_cell_formula_units_Z   1
loop_
 _symmetry_equiv_pos_site_id
 _symmetry_equiv_pos_as_xyz
  1  'x, y, z'
loop_
 _atom_site_type_symbol
 _atom_site_label
 _atom_site_symmetry_multiplicity
 _atom_site_fract_x
 _atom_site_fract_y
 _atom_site_fract_z
 _atom_site_occupancy
  Y  Y0  1  0.399948  0.022849  0.269210  1
  Y  Y1  1  0.017172  0.272337  0.391153  1
  Y  Y2  1  0.274546  0.398448  0.025267  1
  Y  Y3  1  0.603911  0.975580  0.727830  1
  Y  Y4  1  0.971345  0.723184  0.607748  1
  Y  Y5  1  0.733695  0.611173  0.977971  1
  Ir  Ir6  1  0.003913  0.005148  0.003623  1
  Pd  Pd7  1  0.497114  0.499169  0.498148  1
  Pd  Pd8  1  0.062154  0.552770  0.226914  1
  Pd  Pd9  1  0.557886  0.230043  0.067004  1
  Pd  Pd10  1  0.769515  0.938070  0.445289  1
  Pd  Pd11  1  0.935953  0.442591  0.769908  1
  Pd  Pd12  1  0.443740  0.768008  0.932513  1
  Au  Au13  1  0.229108  0.060630  0.557422  1
