# generated using pymatgen
data_HfSc6Ti4Al11Os7
_symmetry_space_group_name_H-M   'P 1'
_cell_length_a   8.87677690
_cell_length_b   8.87677795
_cell_length_c   8.88324790
_cell_angle_alpha   60.02409668
_cell_angle_beta   60.02409693
_cell_angle_gamma   59.99999425
_symmetry_Int_Tables_number   1
_chemical_formula_structural   HfSc6Ti4Al11Os7
_chemical_formula_sum   'Hf1 Sc6 Ti4 Al11 Os7'
_cell_volume   495.13714731
_cell_formula_units_Z   1
loop_
 _symmetry_equiv_pos_site_id
 _symmetry_equiv_pos_as_xyz
  1  'x, y, z'
loop_
 _atom_site_type_symbol
 _atom_site_label
 _atom_site_symmetry_multiplicity
 _atom_site_fract_x
 _atom_site_fract_y
 _atom_site_fract_z
 _atom_site_occupancy
  Hf  Hf0  1  0.880351  0.880351  0.358948  1
  Sc  Sc1  1  0.707698  0.707698  0.289532  1
  Sc  Sc2  1  0.295071  0.707698  0.289532  1
  Sc  Sc3  1  0.707698  0.295071  0.289532  1
  Sc  Sc4  1  0.289918  0.289918  0.715124  1
  Sc  Sc5  1  0.705039  0.289918  0.715124  1
  Sc  Sc6  1  0.289918  0.705039  0.715124  1
  Ti  Ti7  1  0.877918  0.363026  0.881137  1
  Ti  Ti8  1  0.363026  0.877918  0.881137  1
  Ti  Ti9  1  0.877918  0.877918  0.881137  1
  Ti  Ti10  1  0.123603  0.123603  0.629192  1
  Al  Al11  1  0.120882  0.641224  0.117012  1
  Al  Al12  1  0.641224  0.120882  0.117012  1
  Al  Al13  1  0.120882  0.120882  0.117012  1
  Al  Al14  1  0.666188  0.666188  0.001436  1
  Al  Al15  1  0.663005  0.005653  0.668336  1
  Al  Al16  1  0.005653  0.663005  0.668336  1
  Al  Al17  1  0.663005  0.663005  0.668336  1
  Al  Al18  1  0.332271  0.332271  0.003185  1
  Al  Al19  1  0.336633  0.993925  0.332806  1
  Al  Al20  1  0.993925  0.336633  0.332806  1
  Al  Al21  1  0.336633  0.336633  0.332806  1
  Os  Os22  1  0.006621  0.006621  0.980138  1
  Os  Os23  1  0.999422  0.999422  0.505566  1
  Os  Os24  1  0.495589  0.999422  0.505566  1
  Os  Os25  1  0.999422  0.495589  0.505566  1
  Os  Os26  1  0.500548  0.500548  0.999518  1
  Os  Os27  1  0.999386  0.500548  0.999518  1
  Os  Os28  1  0.500548  0.999386  0.999518  1
