# generated using pymatgen
data_LaInSiRh3
_symmetry_space_group_name_H-M   'P 1'
_cell_length_a   5.79141036
_cell_length_b   6.98127950
_cell_length_c   6.98127988
_cell_angle_alpha   66.83856182
_cell_angle_beta   65.44548208
_cell_angle_gamma   65.44547816
_symmetry_Int_Tables_number   1
_chemical_formula_structural   LaInSiRh3
_chemical_formula_sum   'La2 In2 Si2 Rh6'
_cell_volume   225.06206461
_cell_formula_units_Z   2
loop_
 _symmetry_equiv_pos_site_id
 _symmetry_equiv_pos_as_xyz
  1  'x, y, z'
loop_
 _atom_site_type_symbol
 _atom_site_label
 _atom_site_symmetry_multiplicity
 _atom_site_fract_x
 _atom_site_fract_y
 _atom_site_fract_z
 _atom_site_occupancy
  La  La0  1  0.488202  0.769577  0.769577  1
  La  La1  1  0.511798  0.230423  0.230423  1
  In  In2  1  0.190516  0.564095  0.564095  1
  In  In3  1  0.809484  0.435905  0.435905  1
  Si  Si4  1  0.140123  0.106080  0.106080  1
  Si  Si5  1  0.859877  0.893920  0.893920  1
  Rh  Rh6  1  0.500000  0.201698  0.798302  1
  Rh  Rh7  1  0.000000  0.794773  0.205227  1
  Rh  Rh8  1  0.500000  0.798302  0.201698  1
  Rh  Rh9  1  0.000000  0.205227  0.794773  1
  Rh  Rh10  1  0.000000  0.500000  0.000000  1
  Rh  Rh11  1  0.000000  0.000000  0.500000  1
