# generated using pymatgen
data_Hf9CoRe3Mo
_symmetry_space_group_name_H-M   'P 1'
_cell_length_a   8.61656400
_cell_length_b   8.61656423
_cell_length_c   8.43545800
_cell_angle_alpha   90.00000000
_cell_angle_beta   90.00000000
_cell_angle_gamma   120.00000681
_symmetry_Int_Tables_number   1
_chemical_formula_structural   Hf9CoRe3Mo
_chemical_formula_sum   'Hf18 Co2 Re6 Mo2'
_cell_volume   542.38480833
_cell_formula_units_Z   2
loop_
 _symmetry_equiv_pos_site_id
 _symmetry_equiv_pos_as_xyz
  1  'x, y, z'
loop_
 _atom_site_type_symbol
 _atom_site_label
 _atom_site_symmetry_multiplicity
 _atom_site_fract_x
 _atom_site_fract_y
 _atom_site_fract_z
 _atom_site_occupancy
  Hf  Hf0  1  0.200558  0.799442  0.441400  1
  Hf  Hf1  1  0.200558  0.401114  0.441400  1
  Hf  Hf2  1  0.598886  0.799442  0.441400  1
  Hf  Hf3  1  0.799442  0.200558  0.558600  1
  Hf  Hf4  1  0.799442  0.598886  0.558600  1
  Hf  Hf5  1  0.401114  0.200558  0.558600  1
  Hf  Hf6  1  0.799442  0.200558  0.941400  1
  Hf  Hf7  1  0.799442  0.598886  0.941400  1
  Hf  Hf8  1  0.401114  0.200558  0.941400  1
  Hf  Hf9  1  0.200558  0.799442  0.058600  1
  Hf  Hf10  1  0.200558  0.401114  0.058600  1
  Hf  Hf11  1  0.598886  0.799442  0.058600  1
  Hf  Hf12  1  0.541310  0.458690  0.250000  1
  Hf  Hf13  1  0.541310  0.082620  0.250000  1
  Hf  Hf14  1  0.917380  0.458690  0.250000  1
  Hf  Hf15  1  0.458690  0.541310  0.750000  1
  Hf  Hf16  1  0.458690  0.917380  0.750000  1
  Hf  Hf17  1  0.082620  0.541310  0.750000  1
  Co  Co18  1  0.333333  0.666667  0.250000  1
  Co  Co19  1  0.666667  0.333333  0.750000  1
  Re  Re20  1  0.888399  0.111601  0.250000  1
  Re  Re21  1  0.888399  0.776796  0.250000  1
  Re  Re22  1  0.223204  0.111601  0.250000  1
  Re  Re23  1  0.111601  0.888399  0.750000  1
  Re  Re24  1  0.111601  0.223204  0.750000  1
  Re  Re25  1  0.776796  0.888399  0.750000  1
  Mo  Mo26  1  0.000000  0.000000  0.500000  1
  Mo  Mo27  1  0.000000  0.000000  0.000000  1
