# generated using pymatgen
data_K4ZrPtI12
_symmetry_space_group_name_H-M   'P 1'
_cell_length_a   7.99572100
_cell_length_b   7.99572100
_cell_length_c   11.92555000
_cell_angle_alpha   90.00000000
_cell_angle_beta   90.00000000
_cell_angle_gamma   90.00000000
_symmetry_Int_Tables_number   1
_chemical_formula_structural   K4ZrPtI12
_chemical_formula_sum   'K4 Zr1 Pt1 I12'
_cell_volume   762.41894750
_cell_formula_units_Z   1
loop_
 _symmetry_equiv_pos_site_id
 _symmetry_equiv_pos_as_xyz
  1  'x, y, z'
loop_
 _atom_site_type_symbol
 _atom_site_label
 _atom_site_symmetry_multiplicity
 _atom_site_fract_x
 _atom_site_fract_y
 _atom_site_fract_z
 _atom_site_occupancy
  K  K0  1  0.500000  0.000000  0.754841  1
  K  K1  1  0.000000  0.500000  0.754841  1
  K  K2  1  0.500000  0.000000  0.245159  1
  K  K3  1  0.000000  0.500000  0.245159  1
  Zr  Zr4  1  0.500000  0.500000  0.500000  1
  Pt  Pt5  1  0.000000  0.000000  0.000000  1
  I  I6  1  0.715472  0.185744  0.000000  1
  I  I7  1  0.689704  0.194107  0.500000  1
  I  I8  1  0.310296  0.805893  0.500000  1
  I  I9  1  0.284528  0.814256  0.000000  1
  I  I10  1  0.805893  0.689704  0.500000  1
  I  I11  1  0.194107  0.310296  0.500000  1
  I  I12  1  0.000000  0.000000  0.227439  1
  I  I13  1  0.500000  0.500000  0.256691  1
  I  I14  1  0.000000  0.000000  0.772561  1
  I  I15  1  0.500000  0.500000  0.743309  1
  I  I16  1  0.814256  0.715472  0.000000  1
  I  I17  1  0.185744  0.284528  0.000000  1
