# generated using pymatgen
data_DyThPd6
_symmetry_space_group_name_H-M   'P 1'
_cell_length_a   5.88657000
_cell_length_b   5.88656849
_cell_length_c   9.69476700
_cell_angle_alpha   90.00000000
_cell_angle_beta   90.00000000
_cell_angle_gamma   119.99999722
_symmetry_Int_Tables_number   1
_chemical_formula_structural   DyThPd6
_chemical_formula_sum   'Dy2 Th2 Pd12'
_cell_volume   290.93269785
_cell_formula_units_Z   2
loop_
 _symmetry_equiv_pos_site_id
 _symmetry_equiv_pos_as_xyz
  1  'x, y, z'
loop_
 _atom_site_type_symbol
 _atom_site_label
 _atom_site_symmetry_multiplicity
 _atom_site_fract_x
 _atom_site_fract_y
 _atom_site_fract_z
 _atom_site_occupancy
  Dy  Dy0  1  0.333333  0.666667  0.250000  1
  Dy  Dy1  1  0.666667  0.333333  0.750000  1
  Th  Th2  1  0.000000  0.000000  0.500000  1
  Th  Th3  1  0.000000  0.000000  0.000000  1
  Pd  Pd4  1  0.500000  0.500000  0.500000  1
  Pd  Pd5  1  0.500000  0.000000  0.500000  1
  Pd  Pd6  1  0.000000  0.500000  0.500000  1
  Pd  Pd7  1  0.500000  0.500000  0.000000  1
  Pd  Pd8  1  0.500000  0.000000  0.000000  1
  Pd  Pd9  1  0.000000  0.500000  0.000000  1
  Pd  Pd10  1  0.826270  0.652541  0.250000  1
  Pd  Pd11  1  0.347459  0.173730  0.250000  1
  Pd  Pd12  1  0.826270  0.173730  0.250000  1
  Pd  Pd13  1  0.173730  0.347459  0.750000  1
  Pd  Pd14  1  0.652541  0.826270  0.750000  1
  Pd  Pd15  1  0.173730  0.826270  0.750000  1
