# generated using pymatgen
data_PdSeCl2
_symmetry_space_group_name_H-M   'P 1'
_cell_length_a   4.33833995
_cell_length_b   6.61024154
_cell_length_c   8.49534066
_cell_angle_alpha   68.72109708
_cell_angle_beta   78.18260929
_cell_angle_gamma   78.91779308
_symmetry_Int_Tables_number   1
_chemical_formula_structural   PdSeCl2
_chemical_formula_sum   'Pd2 Se2 Cl4'
_cell_volume   220.34006256
_cell_formula_units_Z   2
loop_
 _symmetry_equiv_pos_site_id
 _symmetry_equiv_pos_as_xyz
  1  'x, y, z'
loop_
 _atom_site_type_symbol
 _atom_site_label
 _atom_site_symmetry_multiplicity
 _atom_site_fract_x
 _atom_site_fract_y
 _atom_site_fract_z
 _atom_site_occupancy
  Pd  Pd0  1  0.263749  0.249871  0.000062  1
  Pd  Pd1  1  0.736274  0.750133  0.999941  1
  Se  Se2  1  0.128799  0.494742  0.163064  1
  Se  Se3  1  0.871181  0.505240  0.836955  1
  Cl  Cl4  1  0.604609  0.970594  0.183437  1
  Cl  Cl5  1  0.846824  0.303626  0.402794  1
  Cl  Cl6  1  0.153097  0.696364  0.597202  1
  Cl  Cl7  1  0.395467  0.029432  0.816547  1
