# generated using pymatgen
data_Li7Pr8CdSn8
_symmetry_space_group_name_H-M   'P 1'
_cell_length_a   9.63412083
_cell_length_b   9.63412121
_cell_length_c   7.74293920
_cell_angle_alpha   89.97655381
_cell_angle_beta   90.02344543
_cell_angle_gamma   119.90078955
_symmetry_Int_Tables_number   1
_chemical_formula_structural   Li7Pr8CdSn8
_chemical_formula_sum   'Li7 Pr8 Cd1 Sn8'
_cell_volume   623.00843744
_cell_formula_units_Z   1
loop_
 _symmetry_equiv_pos_site_id
 _symmetry_equiv_pos_as_xyz
  1  'x, y, z'
loop_
 _atom_site_type_symbol
 _atom_site_label
 _atom_site_symmetry_multiplicity
 _atom_site_fract_x
 _atom_site_fract_y
 _atom_site_fract_z
 _atom_site_occupancy
  Li  Li0  1  0.835226  0.667161  0.711810  1
  Li  Li1  1  0.332839  0.164774  0.711810  1
  Li  Li2  1  0.166945  0.833055  0.210368  1
  Li  Li3  1  0.167299  0.333915  0.212002  1
  Li  Li4  1  0.666085  0.832701  0.212002  1
  Li  Li5  1  0.666576  0.333424  0.327217  1
  Li  Li6  1  0.331551  0.668449  0.829639  1
  Pr  Pr7  1  0.488458  0.511542  0.502678  1
  Pr  Pr8  1  0.484273  0.974343  0.503414  1
  Pr  Pr9  1  0.025657  0.515727  0.503414  1
  Pr  Pr10  1  0.511275  0.488725  0.010690  1
  Pr  Pr11  1  0.511081  0.022937  0.006577  1
  Pr  Pr12  1  0.977063  0.488919  0.006577  1
  Pr  Pr13  1  0.003658  0.996342  0.498294  1
  Pr  Pr14  1  0.999450  0.000550  0.001468  1
  Cd  Cd15  1  0.833617  0.166383  0.706964  1
  Sn  Sn16  1  0.833444  0.166556  0.271094  1
  Sn  Sn17  1  0.833617  0.666493  0.270580  1
  Sn  Sn18  1  0.333507  0.166383  0.270580  1
  Sn  Sn19  1  0.166521  0.833479  0.770672  1
  Sn  Sn20  1  0.174442  0.337340  0.774993  1
  Sn  Sn21  1  0.662660  0.825558  0.774993  1
  Sn  Sn22  1  0.661700  0.338300  0.736844  1
  Sn  Sn23  1  0.333055  0.666945  0.233328  1
