# generated using pymatgen
data_Tb16SmY3Sn16
_symmetry_space_group_name_H-M   'P 1'
_cell_length_a   8.07860692
_cell_length_b   8.22250226
_cell_length_c   15.55085301
_cell_angle_alpha   90.00746733
_cell_angle_beta   89.88123630
_cell_angle_gamma   89.95161642
_symmetry_Int_Tables_number   1
_chemical_formula_structural   Tb16SmY3Sn16
_chemical_formula_sum   'Tb16 Sm1 Y3 Sn16'
_cell_volume   1032.98402060
_cell_formula_units_Z   1
loop_
 _symmetry_equiv_pos_site_id
 _symmetry_equiv_pos_as_xyz
  1  'x, y, z'
loop_
 _atom_site_type_symbol
 _atom_site_label
 _atom_site_symmetry_multiplicity
 _atom_site_fract_x
 _atom_site_fract_y
 _atom_site_fract_z
 _atom_site_occupancy
  Tb  Tb0  1  0.366439  0.836328  0.877801  1
  Tb  Tb1  1  0.867132  0.663757  0.621605  1
  Tb  Tb2  1  0.632951  0.163345  0.378021  1
  Tb  Tb3  1  0.133850  0.336759  0.122397  1
  Tb  Tb4  1  0.633859  0.163490  0.122339  1
  Tb  Tb5  1  0.132921  0.336519  0.377954  1
  Tb  Tb6  1  0.367076  0.836384  0.621707  1
  Tb  Tb7  1  0.866647  0.663378  0.877863  1
  Tb  Tb8  1  0.520076  0.322182  0.902591  1
  Tb  Tb9  1  0.020770  0.178428  0.597758  1
  Tb  Tb10  1  0.479708  0.678312  0.402480  1
  Tb  Tb11  1  0.980319  0.821172  0.097695  1
  Tb  Tb12  1  0.480258  0.678532  0.097535  1
  Tb  Tb13  1  0.979645  0.821703  0.402459  1
  Tb  Tb14  1  0.520194  0.321848  0.596884  1
  Tb  Tb15  1  0.198771  0.501977  0.749636  1
  Sm  Sm16  1  0.018222  0.179079  0.903345  1
  Y  Y17  1  0.698653  0.997731  0.749414  1
  Y  Y18  1  0.801250  0.498154  0.250191  1
  Y  Y19  1  0.301427  0.001862  0.250221  1
  Sn  Sn20  1  0.295294  0.035031  0.042742  1
  Sn  Sn21  1  0.793055  0.464159  0.458048  1
  Sn  Sn22  1  0.707270  0.964547  0.541691  1
  Sn  Sn23  1  0.207252  0.537360  0.958704  1
  Sn  Sn24  1  0.703966  0.961739  0.958857  1
  Sn  Sn25  1  0.206869  0.535766  0.541571  1
  Sn  Sn26  1  0.293032  0.035789  0.458110  1
  Sn  Sn27  1  0.793459  0.464077  0.041916  1
  Sn  Sn28  1  0.564843  0.618705  0.749890  1
  Sn  Sn29  1  0.064968  0.880676  0.749837  1
  Sn  Sn30  1  0.435430  0.381610  0.250112  1
  Sn  Sn31  1  0.935301  0.118643  0.250108  1
  Sn  Sn32  1  0.330573  0.146618  0.749579  1
  Sn  Sn33  1  0.828003  0.354238  0.748899  1
  Sn  Sn34  1  0.670298  0.853180  0.249985  1
  Sn  Sn35  1  0.170217  0.646917  0.250054  1
