# generated using pymatgen
data_Tm3Th(Ga8Pd3)3
_symmetry_space_group_name_H-M   'P 1'
_cell_length_a   7.55457345
_cell_length_b   7.60077348
_cell_length_c   13.32347500
_cell_angle_alpha   84.68977904
_cell_angle_beta   79.28124423
_cell_angle_gamma   60.27204908
_symmetry_Int_Tables_number   1
_chemical_formula_structural   Tm3Th(Ga8Pd3)3
_chemical_formula_sum   'Tm3 Th1 Ga24 Pd9'
_cell_volume   652.76282844
_cell_formula_units_Z   1
loop_
 _symmetry_equiv_pos_site_id
 _symmetry_equiv_pos_as_xyz
  1  'x, y, z'
loop_
 _atom_site_type_symbol
 _atom_site_label
 _atom_site_symmetry_multiplicity
 _atom_site_fract_x
 _atom_site_fract_y
 _atom_site_fract_z
 _atom_site_occupancy
  Tm  Tm0  1  0.605300  0.831357  0.191110  1
  Tm  Tm1  1  0.732609  0.497207  0.809927  1
  Tm  Tm2  1  0.267097  0.502577  0.190892  1
  Th  Th3  1  0.393719  0.168585  0.810193  1
  Ga  Ga4  1  0.688676  0.828639  0.941640  1
  Ga  Ga5  1  0.315067  0.166415  0.065268  1
  Ga  Ga6  1  0.144824  0.833840  0.558488  1
  Ga  Ga7  1  0.855446  0.166515  0.439538  1
  Ga  Ga8  1  0.479489  0.167273  0.554436  1
  Ga  Ga9  1  0.521383  0.832157  0.443151  1
  Ga  Ga10  1  0.221780  0.165815  0.322332  1
  Ga  Ga11  1  0.784229  0.829750  0.673760  1
  Ga  Ga12  1  0.439208  0.507624  0.672984  1
  Ga  Ga13  1  0.562171  0.497152  0.322428  1
  Ga  Ga14  1  0.103346  0.163377  0.671354  1
  Ga  Ga15  1  0.893855  0.836047  0.323529  1
  Ga  Ga16  1  0.357359  0.502096  0.942050  1
  Ga  Ga17  1  0.640411  0.504031  0.062249  1
  Ga  Ga18  1  0.013541  0.169975  0.946690  1
  Ga  Ga19  1  0.979831  0.828946  0.059128  1
  Ga  Ga20  1  0.186524  0.500160  0.442098  1
  Ga  Ga21  1  0.813416  0.500223  0.556750  1
  Ga  Ga22  1  0.732982  0.164300  0.181856  1
  Ga  Ga23  1  0.267143  0.830229  0.818385  1
  Ga  Ga24  1  0.055935  0.634728  0.817203  1
  Ga  Ga25  1  0.937657  0.370781  0.183240  1
  Ga  Ga26  1  0.860863  0.041491  0.817149  1
  Ga  Ga27  1  0.143937  0.959019  0.183456  1
  Pd  Pd28  1  0.120351  0.494332  0.638945  1
  Pd  Pd29  1  0.881704  0.504557  0.360262  1
  Pd  Pd30  1  0.659086  0.168844  0.999760  1
  Pd  Pd31  1  0.339368  0.832826  0.001270  1
  Pd  Pd32  1  0.541894  0.165807  0.359152  1
  Pd  Pd33  1  0.458303  0.835109  0.639657  1
  Pd  Pd34  1  0.779114  0.171264  0.637578  1
  Pd  Pd35  1  0.220056  0.828555  0.361591  1
  Pd  Pd36  1  0.002323  0.498400  0.000501  1
