# generated using pymatgen
data_Er4Al18Co5Au
_symmetry_space_group_name_H-M   'P 1'
_cell_length_a   7.41425744
_cell_length_b   7.41425667
_cell_length_c   9.31224305
_cell_angle_alpha   89.79381500
_cell_angle_beta   89.79381978
_cell_angle_gamma   119.16329581
_symmetry_Int_Tables_number   1
_chemical_formula_structural   Er4Al18Co5Au
_chemical_formula_sum   'Er4 Al18 Co5 Au1'
_cell_volume   447.00199357
_cell_formula_units_Z   1
loop_
 _symmetry_equiv_pos_site_id
 _symmetry_equiv_pos_as_xyz
  1  'x, y, z'
loop_
 _atom_site_type_symbol
 _atom_site_label
 _atom_site_symmetry_multiplicity
 _atom_site_fract_x
 _atom_site_fract_y
 _atom_site_fract_z
 _atom_site_occupancy
  Er  Er0  1  0.995663  0.677764  0.251488  1
  Er  Er1  1  0.004337  0.322236  0.748512  1
  Er  Er2  1  0.677764  0.995663  0.251488  1
  Er  Er3  1  0.322236  0.004337  0.748512  1
  Al  Al4  1  0.137104  0.137104  0.263125  1
  Al  Al5  1  0.862896  0.862896  0.736875  1
  Al  Al6  1  0.332000  0.332000  0.542749  1
  Al  Al7  1  0.655336  0.655336  0.052190  1
  Al  Al8  1  0.344664  0.344664  0.947810  1
  Al  Al9  1  0.668000  0.668000  0.457251  1
  Al  Al10  1  0.340113  0.558395  0.252375  1
  Al  Al11  1  0.659887  0.441605  0.747625  1
  Al  Al12  1  0.558395  0.340113  0.252375  1
  Al  Al13  1  0.441605  0.659887  0.747625  1
  Al  Al14  1  0.001076  0.349642  0.076587  1
  Al  Al15  1  0.003618  0.663131  0.569841  1
  Al  Al16  1  0.336869  0.996382  0.430159  1
  Al  Al17  1  0.650358  0.998924  0.923413  1
  Al  Al18  1  0.998924  0.650358  0.923413  1
  Al  Al19  1  0.996382  0.336869  0.430159  1
  Al  Al20  1  0.663131  0.003618  0.569841  1
  Al  Al21  1  0.349642  0.001076  0.076587  1
  Co  Co22  1  0.000000  0.000000  0.500000  1
  Co  Co23  1  0.671201  0.328799  0.000000  1
  Co  Co24  1  0.328896  0.671104  0.500000  1
  Co  Co25  1  0.328799  0.671201  0.000000  1
  Co  Co26  1  0.671104  0.328896  0.500000  1
  Au  Au27  1  0.000000  0.000000  0.000000  1
