# generated using pymatgen
data_Sm2HoTh(Sn5Rh3)2
_symmetry_space_group_name_H-M   'P 1'
_cell_length_a   13.57980256
_cell_length_b   13.57980179
_cell_length_c   7.29610224
_cell_angle_alpha   89.94700285
_cell_angle_beta   90.05299591
_cell_angle_gamma   161.02975711
_symmetry_Int_Tables_number   1
_chemical_formula_structural   Sm2HoTh(Sn5Rh3)2
_chemical_formula_sum   'Sm2 Ho1 Th1 Sn10 Rh6'
_cell_volume   437.38502754
_cell_formula_units_Z   1
loop_
 _symmetry_equiv_pos_site_id
 _symmetry_equiv_pos_as_xyz
  1  'x, y, z'
loop_
 _atom_site_type_symbol
 _atom_site_label
 _atom_site_symmetry_multiplicity
 _atom_site_fract_x
 _atom_site_fract_y
 _atom_site_fract_z
 _atom_site_occupancy
  Sm  Sm0  1  0.172539  0.827461  0.747599  1
  Sm  Sm1  1  0.827348  0.172652  0.246823  1
  Ho  Ho2  1  0.525494  0.474506  0.259043  1
  Th  Th3  1  0.475902  0.524098  0.764504  1
  Sn  Sn4  1  0.878547  0.121453  0.770901  1
  Sn  Sn5  1  0.119653  0.880347  0.264119  1
  Sn  Sn6  1  0.703904  0.296096  0.451727  1
  Sn  Sn7  1  0.295054  0.704946  0.952817  1
  Sn  Sn8  1  0.597320  0.402680  0.885272  1
  Sn  Sn9  1  0.403747  0.596253  0.383788  1
  Sn  Sn10  1  0.953090  0.046910  0.109939  1
  Sn  Sn11  1  0.049595  0.950405  0.593464  1
  Sn  Sn12  1  0.289374  0.710626  0.524569  1
  Sn  Sn13  1  0.709626  0.290374  0.025006  1
  Rh  Rh14  1  0.049733  0.950267  0.978542  1
  Rh  Rh15  1  0.949386  0.050614  0.487931  1
  Rh  Rh16  1  0.776854  0.223146  0.737076  1
  Rh  Rh17  1  0.222035  0.777965  0.236575  1
  Rh  Rh18  1  0.395457  0.604543  0.012032  1
  Rh  Rh19  1  0.605342  0.394658  0.512276  1
