# generated using pymatgen
data_LiCe7Mg2Si8O3
_symmetry_space_group_name_H-M   'P 1'
_cell_length_a   10.23765810
_cell_length_b   10.23765840
_cell_length_c   4.32935800
_cell_angle_alpha   90.00000000
_cell_angle_beta   90.00000000
_cell_angle_gamma   120.34760870
_symmetry_Int_Tables_number   1
_chemical_formula_structural   LiCe7Mg2Si8O3
_chemical_formula_sum   'Li1 Ce7 Mg2 Si8 O3'
_cell_volume   391.58269128
_cell_formula_units_Z   1
loop_
 _symmetry_equiv_pos_site_id
 _symmetry_equiv_pos_as_xyz
  1  'x, y, z'
loop_
 _atom_site_type_symbol
 _atom_site_label
 _atom_site_symmetry_multiplicity
 _atom_site_fract_x
 _atom_site_fract_y
 _atom_site_fract_z
 _atom_site_occupancy
  Li  Li0  1  0.500000  0.500000  0.500000  1
  Ce  Ce1  1  0.214570  0.785430  0.000000  1
  Ce  Ce2  1  0.222547  0.431483  0.000000  1
  Ce  Ce3  1  0.777453  0.568517  0.000000  1
  Ce  Ce4  1  0.431483  0.222547  0.000000  1
  Ce  Ce5  1  0.000000  0.000000  0.000000  1
  Ce  Ce6  1  0.568517  0.777453  0.000000  1
  Ce  Ce7  1  0.785430  0.214570  0.000000  1
  Mg  Mg8  1  0.500000  0.000000  0.500000  1
  Mg  Mg9  1  0.000000  0.500000  0.500000  1
  Si  Si10  1  0.667643  0.332357  0.500000  1
  Si  Si11  1  0.999075  0.772019  0.500000  1
  Si  Si12  1  0.332357  0.667643  0.500000  1
  Si  Si13  1  0.228919  0.228919  0.500000  1
  Si  Si14  1  0.771081  0.771081  0.500000  1
  Si  Si15  1  0.772019  0.999075  0.500000  1
  Si  Si16  1  0.227981  0.000925  0.500000  1
  Si  Si17  1  0.000925  0.227981  0.500000  1
  O  O18  1  0.500000  0.500000  0.000000  1
  O  O19  1  0.500000  0.000000  0.000000  1
  O  O20  1  0.000000  0.500000  0.000000  1
