# generated using pymatgen
data_V2Co3(SeO3)6
_symmetry_space_group_name_H-M   'P 1'
_cell_length_a   8.53004400
_cell_length_b   7.80825924
_cell_length_c   12.72240100
_cell_angle_alpha   83.42981271
_cell_angle_beta   90.00000000
_cell_angle_gamma   90.00000000
_symmetry_Int_Tables_number   1
_chemical_formula_structural   V2Co3(SeO3)6
_chemical_formula_sum   'V4 Co6 Se12 O36'
_cell_volume   841.80773343
_cell_formula_units_Z   2
loop_
 _symmetry_equiv_pos_site_id
 _symmetry_equiv_pos_as_xyz
  1  'x, y, z'
loop_
 _atom_site_type_symbol
 _atom_site_label
 _atom_site_symmetry_multiplicity
 _atom_site_fract_x
 _atom_site_fract_y
 _atom_site_fract_z
 _atom_site_occupancy
  V  V0  1  0.496337  0.361957  0.826444  1
  V  V1  1  0.003663  0.861957  0.826444  1
  V  V2  1  0.503663  0.638043  0.173556  1
  V  V3  1  0.996337  0.138043  0.173556  1
  Co  Co4  1  0.389467  0.382915  0.376936  1
  Co  Co5  1  0.610533  0.617085  0.623064  1
  Co  Co6  1  0.500000  0.000000  0.500000  1
  Co  Co7  1  0.110533  0.882915  0.376936  1
  Co  Co8  1  0.000000  0.500000  0.500000  1
  Co  Co9  1  0.889467  0.117085  0.623064  1
  Se  Se10  1  0.597486  0.939129  0.777955  1
  Se  Se11  1  0.822386  0.185682  0.394922  1
  Se  Se12  1  0.677614  0.685682  0.394922  1
  Se  Se13  1  0.802359  0.866218  0.044647  1
  Se  Se14  1  0.177614  0.814318  0.605078  1
  Se  Se15  1  0.697641  0.366218  0.044647  1
  Se  Se16  1  0.902514  0.439129  0.777955  1
  Se  Se17  1  0.197641  0.133782  0.955353  1
  Se  Se18  1  0.402514  0.060871  0.222045  1
  Se  Se19  1  0.097486  0.560871  0.222045  1
  Se  Se20  1  0.302359  0.633782  0.955353  1
  Se  Se21  1  0.322386  0.314318  0.605078  1
  O  O22  1  0.480731  0.859797  0.248494  1
  O  O23  1  0.200438  0.019246  0.247366  1
  O  O24  1  0.527903  0.746162  0.474976  1
  O  O25  1  0.042816  0.643374  0.338382  1
  O  O26  1  0.392483  0.752552  0.047281  1
  O  O27  1  0.027903  0.753838  0.525024  1
  O  O28  1  0.227119  0.802992  0.870303  1
  O  O29  1  0.727119  0.697008  0.129697  1
  O  O30  1  0.107517  0.252552  0.047281  1
  O  O31  1  0.031781  0.087448  0.884883  1
  O  O32  1  0.980731  0.640203  0.751506  1
  O  O33  1  0.019269  0.359797  0.248494  1
  O  O34  1  0.240904  0.449261  0.499516  1
  O  O35  1  0.917639  0.033470  0.326089  1
  O  O36  1  0.457184  0.143374  0.338382  1
  O  O37  1  0.700438  0.480754  0.752634  1
  O  O38  1  0.468219  0.587448  0.884883  1
  O  O39  1  0.417639  0.466530  0.673911  1
  O  O40  1  0.542816  0.856626  0.661618  1
  O  O41  1  0.472097  0.253838  0.525024  1
  O  O42  1  0.892483  0.747448  0.952719  1
  O  O43  1  0.772881  0.197008  0.129697  1
  O  O44  1  0.082361  0.966530  0.673911  1
  O  O45  1  0.582361  0.533470  0.326089  1
  O  O46  1  0.972097  0.246162  0.474976  1
  O  O47  1  0.259096  0.949261  0.499516  1
  O  O48  1  0.299562  0.519246  0.247366  1
  O  O49  1  0.957184  0.356626  0.661618  1
  O  O50  1  0.519269  0.140203  0.751506  1
  O  O51  1  0.272881  0.302992  0.870303  1
  O  O52  1  0.607517  0.247448  0.952719  1
  O  O53  1  0.799562  0.980754  0.752634  1
  O  O54  1  0.740904  0.050739  0.500484  1
  O  O55  1  0.968219  0.912552  0.115117  1
  O  O56  1  0.759096  0.550739  0.500484  1
  O  O57  1  0.531781  0.412552  0.115117  1
