# generated using pymatgen
data_Ho2LuCd3Ga2Ag
_symmetry_space_group_name_H-M   'P 1'
_cell_length_a   7.33797113
_cell_length_b   7.34531080
_cell_length_c   4.31724700
_cell_angle_alpha   90.00000000
_cell_angle_beta   90.00000000
_cell_angle_gamma   120.03311692
_symmetry_Int_Tables_number   1
_chemical_formula_structural   Ho2LuCd3Ga2Ag
_chemical_formula_sum   'Ho2 Lu1 Cd3 Ga2 Ag1'
_cell_volume   201.45529168
_cell_formula_units_Z   1
loop_
 _symmetry_equiv_pos_site_id
 _symmetry_equiv_pos_as_xyz
  1  'x, y, z'
loop_
 _atom_site_type_symbol
 _atom_site_label
 _atom_site_symmetry_multiplicity
 _atom_site_fract_x
 _atom_site_fract_y
 _atom_site_fract_z
 _atom_site_occupancy
  Ho  Ho0  1  0.420903  0.421369  0.500000  1
  Ho  Ho1  1  0.579097  0.000466  0.500000  1
  Lu  Lu2  1  0.000000  0.579604  0.500000  1
  Cd  Cd3  1  0.747067  0.746927  0.000000  1
  Cd  Cd4  1  0.252933  0.999860  0.000000  1
  Cd  Cd5  1  0.000000  0.253541  0.000000  1
  Ga  Ga6  1  0.667657  0.334059  0.000000  1
  Ga  Ga7  1  0.332343  0.666402  0.000000  1
  Ag  Ag8  1  0.000000  0.997772  0.500000  1
