# generated using pymatgen
data_LaAg6NO11
_symmetry_space_group_name_H-M   'P 1'
_cell_length_a   7.16229141
_cell_length_b   7.16229147
_cell_length_c   7.16229201
_cell_angle_alpha   61.63752486
_cell_angle_beta   61.63752508
_cell_angle_gamma   61.63751876
_symmetry_Int_Tables_number   1
_chemical_formula_structural   LaAg6NO11
_chemical_formula_sum   'La1 Ag6 N1 O11'
_cell_volume   269.34168692
_cell_formula_units_Z   1
loop_
 _symmetry_equiv_pos_site_id
 _symmetry_equiv_pos_as_xyz
  1  'x, y, z'
loop_
 _atom_site_type_symbol
 _atom_site_label
 _atom_site_symmetry_multiplicity
 _atom_site_fract_x
 _atom_site_fract_y
 _atom_site_fract_z
 _atom_site_occupancy
  La  La0  1  0.999056  0.999056  0.999056  1
  Ag  Ag1  1  0.498288  0.000950  0.000950  1
  Ag  Ag2  1  0.500279  0.500279  0.000394  1
  Ag  Ag3  1  0.500279  0.000394  0.500279  1
  Ag  Ag4  1  0.000950  0.000950  0.498288  1
  Ag  Ag5  1  0.000394  0.500279  0.500279  1
  Ag  Ag6  1  0.000950  0.498288  0.000950  1
  N  N7  1  0.500131  0.500131  0.500131  1
  O  O8  1  0.573679  0.147173  0.147173  1
  O  O9  1  0.147173  0.573679  0.147173  1
  O  O10  1  0.142661  0.142661  0.142661  1
  O  O11  1  0.147173  0.147173  0.573679  1
  O  O12  1  0.599707  0.599707  0.300716  1
  O  O13  1  0.599707  0.300716  0.599707  1
  O  O14  1  0.300716  0.599707  0.599707  1
  O  O15  1  0.853869  0.853869  0.424400  1
  O  O16  1  0.853869  0.424400  0.853869  1
  O  O17  1  0.856717  0.856717  0.856717  1
  O  O18  1  0.424400  0.853869  0.853869  1
