# generated using pymatgen
data_Na3InSe3
_symmetry_space_group_name_H-M   'P 1'
_cell_length_a   11.01382196
_cell_length_b   11.01382239
_cell_length_c   7.80366380
_cell_angle_alpha   69.31914428
_cell_angle_beta   69.31913791
_cell_angle_gamma   79.94682260
_symmetry_Int_Tables_number   1
_chemical_formula_structural   Na3InSe3
_chemical_formula_sum   'Na12 In4 Se12'
_cell_volume   827.20795351
_cell_formula_units_Z   4
loop_
 _symmetry_equiv_pos_site_id
 _symmetry_equiv_pos_as_xyz
  1  'x, y, z'
loop_
 _atom_site_type_symbol
 _atom_site_label
 _atom_site_symmetry_multiplicity
 _atom_site_fract_x
 _atom_site_fract_y
 _atom_site_fract_z
 _atom_site_occupancy
  Na  Na0  1  0.009276  0.173251  0.456720  1
  Na  Na1  1  0.826749  0.990724  0.043280  1
  Na  Na2  1  0.990724  0.826749  0.543280  1
  Na  Na3  1  0.173251  0.009276  0.956720  1
  Na  Na4  1  0.229593  0.362823  0.587873  1
  Na  Na5  1  0.637177  0.770407  0.912127  1
  Na  Na6  1  0.770407  0.637177  0.412127  1
  Na  Na7  1  0.362823  0.229593  0.087873  1
  Na  Na8  1  0.722460  0.277540  0.750000  1
  Na  Na9  1  0.277540  0.722460  0.250000  1
  Na  Na10  1  0.435696  0.564304  0.750000  1
  Na  Na11  1  0.564304  0.435696  0.250000  1
  In  In12  1  0.428385  0.917785  0.403275  1
  In  In13  1  0.571615  0.082215  0.596725  1
  In  In14  1  0.917785  0.428385  0.903275  1
  In  In15  1  0.082215  0.571615  0.096725  1
  Se  Se16  1  0.885262  0.411851  0.266246  1
  Se  Se17  1  0.411851  0.885262  0.766246  1
  Se  Se18  1  0.588149  0.114738  0.233754  1
  Se  Se19  1  0.114738  0.588149  0.733754  1
  Se  Se20  1  0.996676  0.215762  0.814245  1
  Se  Se21  1  0.784238  0.003324  0.685755  1
  Se  Se22  1  0.003324  0.784238  0.185755  1
  Se  Se23  1  0.215762  0.996676  0.314245  1
  Se  Se24  1  0.703023  0.526535  0.829190  1
  Se  Se25  1  0.473465  0.296977  0.670810  1
  Se  Se26  1  0.296977  0.473465  0.170810  1
  Se  Se27  1  0.526535  0.703023  0.329190  1
