# generated using pymatgen
data_Tb2(HoAu2)5
_symmetry_space_group_name_H-M   'P 1'
_cell_length_a   8.72681705
_cell_length_b   8.72681617
_cell_length_c   10.40076200
_cell_angle_alpha   90.00000000
_cell_angle_beta   90.00000000
_cell_angle_gamma   107.13826745
_symmetry_Int_Tables_number   1
_chemical_formula_structural   Tb2(HoAu2)5
_chemical_formula_sum   'Tb4 Ho10 Au20'
_cell_volume   756.92241944
_cell_formula_units_Z   2
loop_
 _symmetry_equiv_pos_site_id
 _symmetry_equiv_pos_as_xyz
  1  'x, y, z'
loop_
 _atom_site_type_symbol
 _atom_site_label
 _atom_site_symmetry_multiplicity
 _atom_site_fract_x
 _atom_site_fract_y
 _atom_site_fract_z
 _atom_site_occupancy
  Tb  Tb0  1  0.312483  0.312483  0.188316  1
  Tb  Tb1  1  0.687517  0.687517  0.811684  1
  Tb  Tb2  1  0.187517  0.187517  0.688316  1
  Tb  Tb3  1  0.812483  0.812483  0.311684  1
  Ho  Ho4  1  0.693700  0.306300  0.000000  1
  Ho  Ho5  1  0.306300  0.693700  0.000000  1
  Ho  Ho6  1  0.806300  0.193700  0.500000  1
  Ho  Ho7  1  0.193700  0.806300  0.500000  1
  Ho  Ho8  1  0.000000  0.000000  0.000000  1
  Ho  Ho9  1  0.500000  0.500000  0.500000  1
  Ho  Ho10  1  0.002835  0.502835  0.250000  1
  Ho  Ho11  1  0.997165  0.497165  0.750000  1
  Ho  Ho12  1  0.497165  0.997165  0.750000  1
  Ho  Ho13  1  0.502835  0.002835  0.250000  1
  Au  Au14  1  0.860178  0.149947  0.209320  1
  Au  Au15  1  0.139822  0.850053  0.790680  1
  Au  Au16  1  0.639822  0.350053  0.709320  1
  Au  Au17  1  0.649947  0.360178  0.290680  1
  Au  Au18  1  0.360178  0.649947  0.290680  1
  Au  Au19  1  0.350053  0.639822  0.709320  1
  Au  Au20  1  0.850053  0.139822  0.790680  1
  Au  Au21  1  0.149947  0.860178  0.209320  1
  Au  Au22  1  0.938149  0.644959  0.002797  1
  Au  Au23  1  0.061851  0.355041  0.997203  1
  Au  Au24  1  0.561851  0.855041  0.502797  1
  Au  Au25  1  0.144959  0.438149  0.497203  1
  Au  Au26  1  0.438149  0.144959  0.497203  1
  Au  Au27  1  0.855041  0.561851  0.502797  1
  Au  Au28  1  0.355041  0.061851  0.997203  1
  Au  Au29  1  0.644959  0.938149  0.002797  1
  Au  Au30  1  0.105335  0.105335  0.397848  1
  Au  Au31  1  0.894665  0.894665  0.602152  1
  Au  Au32  1  0.394665  0.394665  0.897848  1
  Au  Au33  1  0.605335  0.605335  0.102152  1
