# generated using pymatgen
data_Er2(Al3Co)3
_symmetry_space_group_name_H-M   'P 1'
_cell_length_a   7.35737161
_cell_length_b   7.35737131
_cell_length_c   9.27592200
_cell_angle_alpha   90.00000000
_cell_angle_beta   90.00000000
_cell_angle_gamma   119.23090136
_symmetry_Int_Tables_number   1
_chemical_formula_structural   Er2(Al3Co)3
_chemical_formula_sum   'Er4 Al18 Co6'
_cell_volume   438.17434233
_cell_formula_units_Z   2
loop_
 _symmetry_equiv_pos_site_id
 _symmetry_equiv_pos_as_xyz
  1  'x, y, z'
loop_
 _atom_site_type_symbol
 _atom_site_label
 _atom_site_symmetry_multiplicity
 _atom_site_fract_x
 _atom_site_fract_y
 _atom_site_fract_z
 _atom_site_occupancy
  Er  Er0  1  0.992937  0.672486  0.250000  1
  Er  Er1  1  0.007063  0.327514  0.750000  1
  Er  Er2  1  0.672486  0.992937  0.250000  1
  Er  Er3  1  0.327514  0.007063  0.750000  1
  Al  Al4  1  0.124816  0.124816  0.250000  1
  Al  Al5  1  0.875184  0.875184  0.750000  1
  Al  Al6  1  0.331900  0.331900  0.542401  1
  Al  Al7  1  0.668100  0.668100  0.042401  1
  Al  Al8  1  0.331900  0.331900  0.957599  1
  Al  Al9  1  0.668100  0.668100  0.457599  1
  Al  Al10  1  0.338921  0.553972  0.250000  1
  Al  Al11  1  0.661079  0.446028  0.750000  1
  Al  Al12  1  0.553972  0.338921  0.250000  1
  Al  Al13  1  0.446028  0.661079  0.750000  1
  Al  Al14  1  0.997694  0.335149  0.071111  1
  Al  Al15  1  0.002306  0.664851  0.571111  1
  Al  Al16  1  0.335149  0.997694  0.428889  1
  Al  Al17  1  0.664851  0.002306  0.928889  1
  Al  Al18  1  0.002306  0.664851  0.928889  1
  Al  Al19  1  0.997694  0.335149  0.428889  1
  Al  Al20  1  0.664851  0.002306  0.571111  1
  Al  Al21  1  0.335149  0.997694  0.071111  1
  Co  Co22  1  0.000000  0.000000  0.000000  1
  Co  Co23  1  0.000000  0.000000  0.500000  1
  Co  Co24  1  0.671194  0.328806  0.000000  1
  Co  Co25  1  0.328806  0.671194  0.500000  1
  Co  Co26  1  0.328806  0.671194  0.000000  1
  Co  Co27  1  0.671194  0.328806  0.500000  1
