# generated using pymatgen
data_DyHo2Mg3Si2Au
_symmetry_space_group_name_H-M   'P 1'
_cell_length_a   7.23075782
_cell_length_b   7.23075860
_cell_length_c   4.28786700
_cell_angle_alpha   90.00000000
_cell_angle_beta   90.00000000
_cell_angle_gamma   120.05472909
_symmetry_Int_Tables_number   1
_chemical_formula_structural   DyHo2Mg3Si2Au
_chemical_formula_sum   'Dy1 Ho2 Mg3 Si2 Au1'
_cell_volume   194.04383300
_cell_formula_units_Z   1
loop_
 _symmetry_equiv_pos_site_id
 _symmetry_equiv_pos_as_xyz
  1  'x, y, z'
loop_
 _atom_site_type_symbol
 _atom_site_label
 _atom_site_symmetry_multiplicity
 _atom_site_fract_x
 _atom_site_fract_y
 _atom_site_fract_z
 _atom_site_occupancy
  Dy  Dy0  1  0.417326  0.417326  0.000000  1
  Ho  Ho1  1  0.582908  0.000178  0.000000  1
  Ho  Ho2  1  0.000178  0.582908  0.000000  1
  Mg  Mg3  1  0.247274  0.999854  0.500000  1
  Mg  Mg4  1  0.999854  0.247274  0.500000  1
  Mg  Mg5  1  0.752825  0.752825  0.500000  1
  Si  Si6  1  0.333110  0.666946  0.500000  1
  Si  Si7  1  0.666946  0.333110  0.500000  1
  Au  Au8  1  0.999577  0.999577  0.000000  1
