# generated using pymatgen
data_Yb5Sm3Si13Sn
_symmetry_space_group_name_H-M   'P 1'
_cell_length_a   8.01407472
_cell_length_b   7.88328271
_cell_length_c   8.63308868
_cell_angle_alpha   89.81435281
_cell_angle_beta   90.19399556
_cell_angle_gamma   120.79773215
_symmetry_Int_Tables_number   1
_chemical_formula_structural   Yb5Sm3Si13Sn
_chemical_formula_sum   'Yb5 Sm3 Si13 Sn1'
_cell_volume   468.49684304
_cell_formula_units_Z   1
loop_
 _symmetry_equiv_pos_site_id
 _symmetry_equiv_pos_as_xyz
  1  'x, y, z'
loop_
 _atom_site_type_symbol
 _atom_site_label
 _atom_site_symmetry_multiplicity
 _atom_site_fract_x
 _atom_site_fract_y
 _atom_site_fract_z
 _atom_site_occupancy
  Yb  Yb0  1  0.263456  0.252030  0.508300  1
  Yb  Yb1  1  0.251829  0.747600  0.493684  1
  Yb  Yb2  1  0.738034  0.253495  0.513146  1
  Yb  Yb3  1  0.740881  0.256132  0.987043  1
  Yb  Yb4  1  0.252538  0.747383  0.005891  1
  Sm  Sm5  1  0.265776  0.256514  0.991593  1
  Sm  Sm6  1  0.745939  0.749045  0.001719  1
  Sm  Sm7  1  0.745526  0.748879  0.497603  1
  Si  Si8  1  0.943857  0.635251  0.750510  1
  Si  Si9  1  0.585483  0.419130  0.252230  1
  Si  Si10  1  0.415801  0.585902  0.747626  1
  Si  Si11  1  0.416672  0.589705  0.250633  1
  Si  Si12  1  0.595416  0.420567  0.748707  1
  Si  Si13  1  0.066224  0.942830  0.250961  1
  Si  Si14  1  0.938616  0.064936  0.749464  1
  Si  Si15  1  0.623840  0.944561  0.248141  1
  Si  Si16  1  0.382954  0.062446  0.750525  1
  Si  Si17  1  0.924848  0.591214  0.247263  1
  Si  Si18  1  0.070805  0.416077  0.750495  1
  Si  Si19  1  0.410489  0.071716  0.248052  1
  Si  Si20  1  0.594625  0.932071  0.752240  1
  Sn  Sn21  1  0.026393  0.312513  0.254174  1
