# generated using pymatgen
data_Ca2YbEr(Al3Pd)6
_symmetry_space_group_name_H-M   'P 1'
_cell_length_a   7.65613000
_cell_length_b   7.65386850
_cell_length_c   9.50211500
_cell_angle_alpha   90.00000000
_cell_angle_beta   90.00000000
_cell_angle_gamma   119.55787409
_symmetry_Int_Tables_number   1
_chemical_formula_structural   Ca2YbEr(Al3Pd)6
_chemical_formula_sum   'Ca2 Yb1 Er1 Al18 Pd6'
_cell_volume   484.34951516
_cell_formula_units_Z   1
loop_
 _symmetry_equiv_pos_site_id
 _symmetry_equiv_pos_as_xyz
  1  'x, y, z'
loop_
 _atom_site_type_symbol
 _atom_site_label
 _atom_site_symmetry_multiplicity
 _atom_site_fract_x
 _atom_site_fract_y
 _atom_site_fract_z
 _atom_site_occupancy
  Ca  Ca0  1  0.994755  0.669663  0.250000  1
  Ca  Ca1  1  0.671788  0.996599  0.250000  1
  Yb  Yb2  1  0.003643  0.329928  0.750000  1
  Er  Er3  1  0.330200  0.003091  0.750000  1
  Al  Al4  1  0.133120  0.132898  0.250000  1
  Al  Al5  1  0.871807  0.869654  0.750000  1
  Al  Al6  1  0.001670  0.335119  0.074568  1
  Al  Al7  1  0.999766  0.665071  0.921089  1
  Al  Al8  1  0.999766  0.665071  0.578911  1
  Al  Al9  1  0.334813  0.000518  0.425440  1
  Al  Al10  1  0.001670  0.335119  0.425432  1
  Al  Al11  1  0.664993  0.999956  0.578726  1
  Al  Al12  1  0.664993  0.999956  0.921274  1
  Al  Al13  1  0.334813  0.000518  0.074560  1
  Al  Al14  1  0.332459  0.331586  0.559438  1
  Al  Al15  1  0.666004  0.666105  0.447018  1
  Al  Al16  1  0.666004  0.666105  0.052982  1
  Al  Al17  1  0.332459  0.331586  0.940562  1
  Al  Al18  1  0.340129  0.546560  0.250000  1
  Al  Al19  1  0.656055  0.451519  0.750000  1
  Al  Al20  1  0.544119  0.340201  0.250000  1
  Al  Al21  1  0.455111  0.663703  0.750000  1
  Pd  Pd22  1  0.671462  0.327757  0.999181  1
  Pd  Pd23  1  0.327782  0.671514  0.998612  1
  Pd  Pd24  1  0.327782  0.671514  0.501388  1
  Pd  Pd25  1  0.671462  0.327757  0.500819  1
  Pd  Pd26  1  0.000689  0.000468  0.998930  1
  Pd  Pd27  1  0.000689  0.000468  0.501070  1
