# generated using pymatgen
data_Tb5NiRuO12
_symmetry_space_group_name_H-M   'P 1'
_cell_length_a   6.82530900
_cell_length_b   6.82531086
_cell_length_c   7.33441765
_cell_angle_alpha   74.38563724
_cell_angle_beta   74.38563356
_cell_angle_gamma   51.15346727
_symmetry_Int_Tables_number   1
_chemical_formula_structural   Tb5NiRuO12
_chemical_formula_sum   'Tb5 Ni1 Ru1 O12'
_cell_volume   253.98092958
_cell_formula_units_Z   1
loop_
 _symmetry_equiv_pos_site_id
 _symmetry_equiv_pos_as_xyz
  1  'x, y, z'
loop_
 _atom_site_type_symbol
 _atom_site_label
 _atom_site_symmetry_multiplicity
 _atom_site_fract_x
 _atom_site_fract_y
 _atom_site_fract_z
 _atom_site_occupancy
  Tb  Tb0  1  0.687750  0.693774  0.668781  1
  Tb  Tb1  1  0.683929  0.706794  0.141762  1
  Tb  Tb2  1  0.992121  0.007879  0.000000  1
  Tb  Tb3  1  0.293206  0.316071  0.858238  1
  Tb  Tb4  1  0.306226  0.312250  0.331219  1
  Ni  Ni5  1  0.257640  0.742360  0.500000  1
  Ru  Ru6  1  0.769396  0.230604  0.500000  1
  O  O7  1  0.396514  0.910533  0.923206  1
  O  O8  1  0.574746  0.100445  0.581413  1
  O  O9  1  0.899555  0.425254  0.418587  1
  O  O10  1  0.089467  0.603486  0.076794  1
  O  O11  1  0.996481  0.004833  0.317857  1
  O  O12  1  0.521091  0.479250  0.685089  1
  O  O13  1  0.896752  0.408195  0.925897  1
  O  O14  1  0.100450  0.573048  0.580868  1
  O  O15  1  0.426952  0.899550  0.419132  1
  O  O16  1  0.591805  0.103248  0.074103  1
  O  O17  1  0.520750  0.478909  0.314911  1
  O  O18  1  0.995167  0.003519  0.682143  1
