# generated using pymatgen
data_Tb3SmHo4(SiBr6)2
_symmetry_space_group_name_H-M   'P 1'
_cell_length_a   4.07007800
_cell_length_b   13.30682737
_cell_length_c   14.06565495
_cell_angle_alpha   89.86387611
_cell_angle_beta   90.00000000
_cell_angle_gamma   90.00000000
_symmetry_Int_Tables_number   1
_chemical_formula_structural   Tb3SmHo4(SiBr6)2
_chemical_formula_sum   'Tb3 Sm1 Ho4 Si2 Br12'
_cell_volume   761.79126494
_cell_formula_units_Z   1
loop_
 _symmetry_equiv_pos_site_id
 _symmetry_equiv_pos_as_xyz
  1  'x, y, z'
loop_
 _atom_site_type_symbol
 _atom_site_label
 _atom_site_symmetry_multiplicity
 _atom_site_fract_x
 _atom_site_fract_y
 _atom_site_fract_z
 _atom_site_occupancy
  Tb  Tb0  1  0.000000  0.880675  0.420566  1
  Tb  Tb1  1  0.000000  0.618318  0.921179  1
  Tb  Tb2  1  0.000000  0.381666  0.078882  1
  Sm  Sm3  1  0.000000  0.119422  0.579551  1
  Ho  Ho4  1  0.500000  0.117409  0.341614  1
  Ho  Ho5  1  0.500000  0.882061  0.658064  1
  Ho  Ho6  1  0.500000  0.617447  0.158005  1
  Ho  Ho7  1  0.500000  0.382738  0.842237  1
  Si  Si8  1  0.500000  0.998487  0.499013  1
  Si  Si9  1  0.500000  0.500124  0.000225  1
  Br  Br10  1  0.500000  0.243791  0.164048  1
  Br  Br11  1  0.500000  0.755909  0.835749  1
  Br  Br12  1  0.500000  0.743015  0.335113  1
  Br  Br13  1  0.500000  0.260383  0.666490  1
  Br  Br14  1  0.000000  0.254646  0.406960  1
  Br  Br15  1  0.000000  0.745809  0.590365  1
  Br  Br16  1  0.000000  0.753759  0.090079  1
  Br  Br17  1  0.000000  0.246315  0.910170  1
  Br  Br18  1  0.000000  0.004088  0.243272  1
  Br  Br19  1  0.000000  0.993482  0.758129  1
  Br  Br20  1  0.000000  0.503970  0.256319  1
  Br  Br21  1  0.000000  0.496488  0.743970  1
