# generated using pymatgen
data_LaTm3Se4
_symmetry_space_group_name_H-M   'P 1'
_cell_length_a   13.67986768
_cell_length_b   13.67986722
_cell_length_c   13.67986763
_cell_angle_alpha   17.16893699
_cell_angle_beta   17.16894114
_cell_angle_gamma   17.16893900
_symmetry_Int_Tables_number   1
_chemical_formula_structural   LaTm3Se4
_chemical_formula_sum   'La1 Tm3 Se4'
_cell_volume   194.63328660
_cell_formula_units_Z   1
loop_
 _symmetry_equiv_pos_site_id
 _symmetry_equiv_pos_as_xyz
  1  'x, y, z'
loop_
 _atom_site_type_symbol
 _atom_site_label
 _atom_site_symmetry_multiplicity
 _atom_site_fract_x
 _atom_site_fract_y
 _atom_site_fract_z
 _atom_site_occupancy
  La  La0  1  0.000000  0.000000  0.000000  1
  Tm  Tm1  1  0.247616  0.247616  0.247616  1
  Tm  Tm2  1  0.500000  0.500000  0.500000  1
  Tm  Tm3  1  0.752384  0.752384  0.752384  1
  Se  Se4  1  0.381176  0.381176  0.381176  1
  Se  Se5  1  0.126776  0.126776  0.126776  1
  Se  Se6  1  0.618824  0.618824  0.618824  1
  Se  Se7  1  0.873224  0.873224  0.873224  1
