# generated using pymatgen
data_Tb20Cd6OsRu
_symmetry_space_group_name_H-M   'P 1'
_cell_length_a   9.64493200
_cell_length_b   9.64493189
_cell_length_c   9.92128000
_cell_angle_alpha   90.00000000
_cell_angle_beta   90.00000000
_cell_angle_gamma   120.00000039
_symmetry_Int_Tables_number   1
_chemical_formula_structural   Tb20Cd6OsRu
_chemical_formula_sum   'Tb20 Cd6 Os1 Ru1'
_cell_volume   799.27581429
_cell_formula_units_Z   1
loop_
 _symmetry_equiv_pos_site_id
 _symmetry_equiv_pos_as_xyz
  1  'x, y, z'
loop_
 _atom_site_type_symbol
 _atom_site_label
 _atom_site_symmetry_multiplicity
 _atom_site_fract_x
 _atom_site_fract_y
 _atom_site_fract_z
 _atom_site_occupancy
  Tb  Tb0  1  0.000000  0.000000  0.499720  1
  Tb  Tb1  1  0.000000  0.000000  0.000280  1
  Tb  Tb2  1  0.209795  0.790205  0.440603  1
  Tb  Tb3  1  0.209795  0.419591  0.440603  1
  Tb  Tb4  1  0.580409  0.790205  0.440603  1
  Tb  Tb5  1  0.790094  0.209906  0.559903  1
  Tb  Tb6  1  0.790094  0.580186  0.559903  1
  Tb  Tb7  1  0.419814  0.209906  0.559903  1
  Tb  Tb8  1  0.790094  0.209906  0.940097  1
  Tb  Tb9  1  0.790094  0.580186  0.940097  1
  Tb  Tb10  1  0.419814  0.209906  0.940097  1
  Tb  Tb11  1  0.209795  0.790205  0.059397  1
  Tb  Tb12  1  0.209795  0.419591  0.059397  1
  Tb  Tb13  1  0.580409  0.790205  0.059397  1
  Tb  Tb14  1  0.540117  0.459883  0.250000  1
  Tb  Tb15  1  0.540117  0.080234  0.250000  1
  Tb  Tb16  1  0.919766  0.459883  0.250000  1
  Tb  Tb17  1  0.458646  0.541354  0.750000  1
  Tb  Tb18  1  0.458646  0.917292  0.750000  1
  Tb  Tb19  1  0.082708  0.541354  0.750000  1
  Cd  Cd20  1  0.885317  0.114683  0.250000  1
  Cd  Cd21  1  0.885317  0.770635  0.250000  1
  Cd  Cd22  1  0.229365  0.114683  0.250000  1
  Cd  Cd23  1  0.114704  0.885296  0.750000  1
  Cd  Cd24  1  0.114704  0.229407  0.750000  1
  Cd  Cd25  1  0.770593  0.885296  0.750000  1
  Os  Os26  1  0.333333  0.666667  0.250000  1
  Ru  Ru27  1  0.666667  0.333333  0.750000  1
