# generated using pymatgen
data_CeNd2Ga4Cl
_symmetry_space_group_name_H-M   'P 1'
_cell_length_a   7.96599144
_cell_length_b   7.96596330
_cell_length_c   7.96591912
_cell_angle_alpha   119.14330997
_cell_angle_beta   119.14308937
_cell_angle_gamma   91.49129686
_symmetry_Int_Tables_number   1
_chemical_formula_structural   CeNd2Ga4Cl
_chemical_formula_sum   'Ce2 Nd4 Ga8 Cl2'
_cell_volume   361.93060963
_cell_formula_units_Z   2
loop_
 _symmetry_equiv_pos_site_id
 _symmetry_equiv_pos_as_xyz
  1  'x, y, z'
loop_
 _atom_site_type_symbol
 _atom_site_label
 _atom_site_symmetry_multiplicity
 _atom_site_fract_x
 _atom_site_fract_y
 _atom_site_fract_z
 _atom_site_occupancy
  Ce  Ce0  1  0.250012  0.250004  0.000002  1
  Ce  Ce1  1  0.749988  0.749996  0.999998  1
  Nd  Nd2  1  0.838185  0.661812  0.499998  1
  Nd  Nd3  1  0.661809  0.161807  0.823622  1
  Nd  Nd4  1  0.338191  0.838193  0.176378  1
  Nd  Nd5  1  0.161815  0.338188  0.500002  1
  Ga  Ga6  1  0.160333  0.948007  0.499998  1
  Ga  Ga7  1  0.448009  0.660335  0.500000  1
  Ga  Ga8  1  0.551991  0.339665  0.500000  1
  Ga  Ga9  1  0.660334  0.160334  0.212325  1
  Ga  Ga10  1  0.839667  0.051993  0.500002  1
  Ga  Ga11  1  0.051991  0.551992  0.212327  1
  Ga  Ga12  1  0.339666  0.839666  0.787675  1
  Ga  Ga13  1  0.948009  0.448008  0.787673  1
  Cl  Cl14  1  0.000000  0.000000  0.000000  1
  Cl  Cl15  1  0.500000  0.500000  0.000000  1
