# generated using pymatgen
data_Ce4Mg3SnIr4
_symmetry_space_group_name_H-M   'P 1'
_cell_length_a   4.25172000
_cell_length_b   7.07147154
_cell_length_c   8.59138924
_cell_angle_alpha   90.18169423
_cell_angle_beta   90.00000000
_cell_angle_gamma   90.00000000
_symmetry_Int_Tables_number   1
_chemical_formula_structural   Ce4Mg3SnIr4
_chemical_formula_sum   'Ce4 Mg3 Sn1 Ir4'
_cell_volume   258.30669678
_cell_formula_units_Z   1
loop_
 _symmetry_equiv_pos_site_id
 _symmetry_equiv_pos_as_xyz
  1  'x, y, z'
loop_
 _atom_site_type_symbol
 _atom_site_label
 _atom_site_symmetry_multiplicity
 _atom_site_fract_x
 _atom_site_fract_y
 _atom_site_fract_z
 _atom_site_occupancy
  Ce  Ce0  1  0.250000  0.534518  0.181001  1
  Ce  Ce1  1  0.750000  0.462449  0.819861  1
  Ce  Ce2  1  0.750000  0.961321  0.678966  1
  Ce  Ce3  1  0.250000  0.040487  0.320287  1
  Mg  Mg4  1  0.250000  0.632995  0.557244  1
  Mg  Mg5  1  0.750000  0.366295  0.441697  1
  Mg  Mg6  1  0.750000  0.863463  0.058343  1
  Sn  Sn7  1  0.250000  0.134630  0.942586  1
  Ir  Ir8  1  0.250000  0.742452  0.871970  1
  Ir  Ir9  1  0.750000  0.259588  0.130543  1
  Ir  Ir10  1  0.750000  0.760690  0.371126  1
  Ir  Ir11  1  0.250000  0.241109  0.626379  1
