# generated using pymatgen
data_Nd4Ga18Co5Pd
_symmetry_space_group_name_H-M   'P 1'
_cell_length_a   7.50080300
_cell_length_b   7.50080288
_cell_length_c   9.60795379
_cell_angle_alpha   90.15717987
_cell_angle_beta   90.15718439
_cell_angle_gamma   119.63559047
_symmetry_Int_Tables_number   1
_chemical_formula_structural   Nd4Ga18Co5Pd
_chemical_formula_sum   'Nd4 Ga18 Co5 Pd1'
_cell_volume   469.84395427
_cell_formula_units_Z   1
loop_
 _symmetry_equiv_pos_site_id
 _symmetry_equiv_pos_as_xyz
  1  'x, y, z'
loop_
 _atom_site_type_symbol
 _atom_site_label
 _atom_site_symmetry_multiplicity
 _atom_site_fract_x
 _atom_site_fract_y
 _atom_site_fract_z
 _atom_site_occupancy
  Nd  Nd0  1  0.329391  0.002733  0.251210  1
  Nd  Nd1  1  0.997267  0.670609  0.748790  1
  Nd  Nd2  1  0.670609  0.997267  0.748790  1
  Nd  Nd3  1  0.002733  0.329391  0.251210  1
  Ga  Ga4  1  0.343988  0.002683  0.926637  1
  Ga  Ga5  1  0.997317  0.656012  0.073363  1
  Ga  Ga6  1  0.334530  0.000969  0.569429  1
  Ga  Ga7  1  0.999031  0.665470  0.430571  1
  Ga  Ga8  1  0.656012  0.997317  0.073363  1
  Ga  Ga9  1  0.002683  0.343988  0.926637  1
  Ga  Ga10  1  0.665470  0.999031  0.430571  1
  Ga  Ga11  1  0.000969  0.334530  0.569429  1
  Ga  Ga12  1  0.655624  0.655624  0.941454  1
  Ga  Ga13  1  0.344376  0.344376  0.058546  1
  Ga  Ga14  1  0.664991  0.664991  0.553234  1
  Ga  Ga15  1  0.335009  0.335009  0.446766  1
  Ga  Ga16  1  0.129737  0.129737  0.741176  1
  Ga  Ga17  1  0.870263  0.870263  0.258824  1
  Ga  Ga18  1  0.451877  0.664125  0.251226  1
  Ga  Ga19  1  0.335875  0.548123  0.748774  1
  Ga  Ga20  1  0.548123  0.335875  0.748774  1
  Ga  Ga21  1  0.664125  0.451877  0.251226  1
  Co  Co22  1  0.000000  0.000000  0.500000  1
  Co  Co23  1  0.329867  0.670133  0.000000  1
  Co  Co24  1  0.329761  0.670239  0.500000  1
  Co  Co25  1  0.670133  0.329867  0.000000  1
  Co  Co26  1  0.670239  0.329761  0.500000  1
  Pd  Pd27  1  0.000000  0.000000  0.000000  1
