# generated using pymatgen
data_Be4V13Tc3Te16
_symmetry_space_group_name_H-M   'P 1'
_cell_length_a   4.48418100
_cell_length_b   10.38025718
_cell_length_c   18.13066700
_cell_angle_alpha   89.98938012
_cell_angle_beta   90.00000000
_cell_angle_gamma   90.00000000
_symmetry_Int_Tables_number   1
_chemical_formula_structural   Be4V13Tc3Te16
_chemical_formula_sum   'Be4 V13 Tc3 Te16'
_cell_volume   843.92727234
_cell_formula_units_Z   1
loop_
 _symmetry_equiv_pos_site_id
 _symmetry_equiv_pos_as_xyz
  1  'x, y, z'
loop_
 _atom_site_type_symbol
 _atom_site_label
 _atom_site_symmetry_multiplicity
 _atom_site_fract_x
 _atom_site_fract_y
 _atom_site_fract_z
 _atom_site_occupancy
  Be  Be0  1  0.248352  0.500142  0.499962  1
  Be  Be1  1  0.748122  0.998741  0.998115  1
  Be  Be2  1  0.751648  0.500142  0.499962  1
  Be  Be3  1  0.251878  0.998741  0.998115  1
  V  V4  1  0.500000  0.938454  0.886356  1
  V  V5  1  0.500000  0.695089  0.534519  1
  V  V6  1  0.500000  0.304933  0.465544  1
  V  V7  1  0.500000  0.195516  0.965672  1
  V  V8  1  0.500000  0.804232  0.034725  1
  V  V9  1  0.000000  0.681001  0.446550  1
  V  V10  1  0.000000  0.319190  0.553586  1
  V  V11  1  0.000000  0.180048  0.054865  1
  V  V12  1  0.000000  0.820037  0.945261  1
  V  V13  1  0.000000  0.403793  0.397980  1
  V  V14  1  0.000000  0.596431  0.602287  1
  V  V15  1  0.000000  0.905792  0.103066  1
  V  V16  1  0.000000  0.094869  0.897417  1
  Tc  Tc17  1  0.500000  0.559071  0.391264  1
  Tc  Tc18  1  0.500000  0.440821  0.608554  1
  Tc  Tc19  1  0.500000  0.058869  0.108340  1
  Te  Te20  1  0.000000  0.847500  0.561288  1
  Te  Te21  1  0.000000  0.152521  0.438716  1
  Te  Te22  1  0.000000  0.345881  0.940443  1
  Te  Te23  1  0.000000  0.655941  0.062210  1
  Te  Te24  1  0.500000  0.335008  0.315866  1
  Te  Te25  1  0.500000  0.664216  0.684301  1
  Te  Te26  1  0.500000  0.835441  0.183818  1
  Te  Te27  1  0.500000  0.168500  0.817190  1
  Te  Te28  1  0.500000  0.818762  0.401030  1
  Te  Te29  1  0.500000  0.181048  0.599229  1
  Te  Te30  1  0.500000  0.318244  0.098705  1
  Te  Te31  1  0.500000  0.679673  0.903311  1
  Te  Te32  1  0.000000  0.606626  0.301898  1
  Te  Te33  1  0.000000  0.393332  0.698203  1
  Te  Te34  1  0.000000  0.107484  0.199236  1
  Te  Te35  1  0.000000  0.893909  0.802414  1
