# generated using pymatgen
data_Zr10BeTl3GePb3
_symmetry_space_group_name_H-M   'P 1'
_cell_length_a   8.78479300
_cell_length_b   8.78479506
_cell_length_c   5.94405700
_cell_angle_alpha   90.00000000
_cell_angle_beta   90.00000000
_cell_angle_gamma   119.99999599
_symmetry_Int_Tables_number   1
_chemical_formula_structural   Zr10BeTl3GePb3
_chemical_formula_sum   'Zr10 Be1 Tl3 Ge1 Pb3'
_cell_volume   397.26177766
_cell_formula_units_Z   1
loop_
 _symmetry_equiv_pos_site_id
 _symmetry_equiv_pos_as_xyz
  1  'x, y, z'
loop_
 _atom_site_type_symbol
 _atom_site_label
 _atom_site_symmetry_multiplicity
 _atom_site_fract_x
 _atom_site_fract_y
 _atom_site_fract_z
 _atom_site_occupancy
  Zr  Zr0  1  0.666667  0.333333  0.998556  1
  Zr  Zr1  1  0.333333  0.666667  0.998556  1
  Zr  Zr2  1  0.333333  0.666667  0.502265  1
  Zr  Zr3  1  0.666667  0.333333  0.502265  1
  Zr  Zr4  1  0.747330  0.747330  0.761718  1
  Zr  Zr5  1  0.252670  0.000000  0.761718  1
  Zr  Zr6  1  0.000000  0.252670  0.761718  1
  Zr  Zr7  1  0.250324  0.250324  0.237074  1
  Zr  Zr8  1  0.749676  0.000000  0.237074  1
  Zr  Zr9  1  0.000000  0.749676  0.237074  1
  Be  Be10  1  0.000000  0.000000  0.994648  1
  Tl  Tl11  1  0.389000  0.389000  0.746363  1
  Tl  Tl12  1  0.611000  0.000000  0.746363  1
  Tl  Tl13  1  0.000000  0.611000  0.746363  1
  Ge  Ge14  1  0.000000  0.000000  0.503292  1
  Pb  Pb15  1  0.609070  0.609070  0.254984  1
  Pb  Pb16  1  0.390930  0.000000  0.254984  1
  Pb  Pb17  1  0.000000  0.390930  0.254984  1
