# generated using pymatgen
data_Tb2Nd2Zn10SiPb
_symmetry_space_group_name_H-M   'P 1'
_cell_length_a   8.42084152
_cell_length_b   8.42084193
_cell_length_c   8.94642500
_cell_angle_alpha   90.00000000
_cell_angle_beta   90.00000000
_cell_angle_gamma   149.68938476
_symmetry_Int_Tables_number   1
_chemical_formula_structural   Tb2Nd2Zn10SiPb
_chemical_formula_sum   'Tb2 Nd2 Zn10 Si1 Pb1'
_cell_volume   320.17185277
_cell_formula_units_Z   1
loop_
 _symmetry_equiv_pos_site_id
 _symmetry_equiv_pos_as_xyz
  1  'x, y, z'
loop_
 _atom_site_type_symbol
 _atom_site_label
 _atom_site_symmetry_multiplicity
 _atom_site_fract_x
 _atom_site_fract_y
 _atom_site_fract_z
 _atom_site_occupancy
  Tb  Tb0  1  0.201000  0.799000  0.250000  1
  Tb  Tb1  1  0.795022  0.204978  0.750000  1
  Nd  Nd2  1  0.000968  0.999032  0.482656  1
  Nd  Nd3  1  0.000968  0.999032  0.017344  1
  Zn  Zn4  1  0.811535  0.188465  0.390424  1
  Zn  Zn5  1  0.187131  0.812869  0.606386  1
  Zn  Zn6  1  0.811535  0.188465  0.109576  1
  Zn  Zn7  1  0.187131  0.812869  0.893614  1
  Zn  Zn8  1  0.651014  0.348986  0.472579  1
  Zn  Zn9  1  0.341690  0.658310  0.513020  1
  Zn  Zn10  1  0.651014  0.348986  0.027421  1
  Zn  Zn11  1  0.341690  0.658310  0.986980  1
  Zn  Zn12  1  0.404304  0.595696  0.250000  1
  Zn  Zn13  1  0.610227  0.389773  0.750000  1
  Si  Si14  1  0.558398  0.441602  0.250000  1
  Pb  Pb15  1  0.446367  0.553633  0.750000  1
