# generated using pymatgen
data_PrSm2Co(P3Rh4)2
_symmetry_space_group_name_H-M   'P 1'
_cell_length_a   3.90407400
_cell_length_b   11.23309100
_cell_length_c   12.92915700
_cell_angle_alpha   90.00000000
_cell_angle_beta   90.00000000
_cell_angle_gamma   90.00000000
_symmetry_Int_Tables_number   1
_chemical_formula_structural   PrSm2Co(P3Rh4)2
_chemical_formula_sum   'Pr2 Sm4 Co2 P12 Rh16'
_cell_volume   567.00583376
_cell_formula_units_Z   2
loop_
 _symmetry_equiv_pos_site_id
 _symmetry_equiv_pos_as_xyz
  1  'x, y, z'
loop_
 _atom_site_type_symbol
 _atom_site_label
 _atom_site_symmetry_multiplicity
 _atom_site_fract_x
 _atom_site_fract_y
 _atom_site_fract_z
 _atom_site_occupancy
  Pr  Pr0  1  0.000000  0.500000  0.521464  1
  Pr  Pr1  1  0.500000  0.000000  0.478536  1
  Sm  Sm2  1  0.500000  0.816037  0.201203  1
  Sm  Sm3  1  0.500000  0.183963  0.201203  1
  Sm  Sm4  1  0.000000  0.683963  0.798797  1
  Sm  Sm5  1  0.000000  0.316037  0.798797  1
  Co  Co6  1  0.000000  0.500000  0.982843  1
  Co  Co7  1  0.500000  0.000000  0.017157  1
  P  P8  1  0.500000  0.500000  0.884726  1
  P  P9  1  0.000000  0.000000  0.115274  1
  P  P10  1  0.500000  0.500000  0.346367  1
  P  P11  1  0.000000  0.000000  0.653633  1
  P  P12  1  0.500000  0.313209  0.619646  1
  P  P13  1  0.500000  0.686791  0.619646  1
  P  P14  1  0.000000  0.186791  0.380354  1
  P  P15  1  0.000000  0.813209  0.380354  1
  P  P16  1  0.500000  0.853317  0.896477  1
  P  P17  1  0.500000  0.146683  0.896477  1
  P  P18  1  0.000000  0.646683  0.103523  1
  P  P19  1  0.000000  0.353317  0.103523  1
  Rh  Rh20  1  0.500000  0.500000  0.166526  1
  Rh  Rh21  1  0.000000  0.000000  0.833474  1
  Rh  Rh22  1  0.500000  0.500000  0.706138  1
  Rh  Rh23  1  0.000000  0.000000  0.293862  1
  Rh  Rh24  1  0.500000  0.336947  0.995798  1
  Rh  Rh25  1  0.500000  0.663053  0.995798  1
  Rh  Rh26  1  0.000000  0.163053  0.004202  1
  Rh  Rh27  1  0.000000  0.836947  0.004202  1
  Rh  Rh28  1  0.500000  0.292468  0.429384  1
  Rh  Rh29  1  0.500000  0.707532  0.429384  1
  Rh  Rh30  1  0.000000  0.207532  0.570616  1
  Rh  Rh31  1  0.000000  0.792468  0.570616  1
  Rh  Rh32  1  0.500000  0.874421  0.712910  1
  Rh  Rh33  1  0.500000  0.125579  0.712910  1
  Rh  Rh34  1  0.000000  0.625579  0.287090  1
  Rh  Rh35  1  0.000000  0.374421  0.287090  1
