# generated using pymatgen
data_HoZr7(Si4Mo3)4
_symmetry_space_group_name_H-M   'P 1'
_cell_length_a   6.63609125
_cell_length_b   6.79547358
_cell_length_c   12.73109955
_cell_angle_alpha   90.07289689
_cell_angle_beta   90.01429108
_cell_angle_gamma   90.01982045
_symmetry_Int_Tables_number   1
_chemical_formula_structural   HoZr7(Si4Mo3)4
_chemical_formula_sum   'Ho1 Zr7 Si16 Mo12'
_cell_volume   574.11329095
_cell_formula_units_Z   1
loop_
 _symmetry_equiv_pos_site_id
 _symmetry_equiv_pos_as_xyz
  1  'x, y, z'
loop_
 _atom_site_type_symbol
 _atom_site_label
 _atom_site_symmetry_multiplicity
 _atom_site_fract_x
 _atom_site_fract_y
 _atom_site_fract_z
 _atom_site_occupancy
  Ho  Ho0  1  0.997283  0.168222  0.091280  1
  Zr  Zr1  1  0.498260  0.329448  0.093169  1
  Zr  Zr2  1  0.997348  0.172055  0.406924  1
  Zr  Zr3  1  0.503564  0.671698  0.593557  1
  Zr  Zr4  1  0.003725  0.826020  0.904032  1
  Zr  Zr5  1  0.504246  0.671414  0.905475  1
  Zr  Zr6  1  0.003148  0.828629  0.593977  1
  Zr  Zr7  1  0.496317  0.328849  0.408013  1
  Si  Si8  1  0.665765  0.041652  0.543098  1
  Si  Si9  1  0.167018  0.460982  0.955280  1
  Si  Si10  1  0.338798  0.956429  0.042345  1
  Si  Si11  1  0.834375  0.541642  0.457681  1
  Si  Si12  1  0.333620  0.958214  0.457790  1
  Si  Si13  1  0.833597  0.544327  0.042573  1
  Si  Si14  1  0.663890  0.040252  0.955319  1
  Si  Si15  1  0.165531  0.458407  0.543627  1
  Si  Si16  1  0.531882  0.376147  0.749452  1
  Si  Si17  1  0.032540  0.125368  0.750492  1
  Si  Si18  1  0.467082  0.624777  0.250395  1
  Si  Si19  1  0.966722  0.872572  0.251562  1
  Si  Si20  1  0.798206  0.636036  0.749327  1
  Si  Si21  1  0.299120  0.864060  0.749407  1
  Si  Si22  1  0.202007  0.364060  0.251143  1
  Si  Si23  1  0.698490  0.137625  0.251346  1
  Mo  Mo24  1  0.831104  0.334956  0.623670  1
  Mo  Mo25  1  0.333210  0.165185  0.875563  1
  Mo  Mo26  1  0.168683  0.664575  0.124061  1
  Mo  Mo27  1  0.666846  0.834724  0.377143  1
  Mo  Mo28  1  0.169206  0.663569  0.377101  1
  Mo  Mo29  1  0.666269  0.834066  0.124734  1
  Mo  Mo30  1  0.829907  0.336714  0.875000  1
  Mo  Mo31  1  0.331249  0.165003  0.623679  1
  Mo  Mo32  1  0.666461  0.988647  0.748954  1
  Mo  Mo33  1  0.165853  0.512811  0.749991  1
  Mo  Mo34  1  0.334674  0.008940  0.251464  1
  Mo  Mo35  1  0.834008  0.491920  0.251374  1
