# generated using pymatgen
data_HoLu15Tl6CoPt
_symmetry_space_group_name_H-M   'P 1'
_cell_length_a   10.19959200
_cell_length_b   10.19959306
_cell_length_c   6.97047000
_cell_angle_alpha   90.00000000
_cell_angle_beta   90.00000000
_cell_angle_gamma   119.99999657
_symmetry_Int_Tables_number   1
_chemical_formula_structural   HoLu15Tl6CoPt
_chemical_formula_sum   'Ho1 Lu15 Tl6 Co1 Pt1'
_cell_volume   627.99813404
_cell_formula_units_Z   1
loop_
 _symmetry_equiv_pos_site_id
 _symmetry_equiv_pos_as_xyz
  1  'x, y, z'
loop_
 _atom_site_type_symbol
 _atom_site_label
 _atom_site_symmetry_multiplicity
 _atom_site_fract_x
 _atom_site_fract_y
 _atom_site_fract_z
 _atom_site_occupancy
  Ho  Ho0  1  0.000000  0.000000  0.986500  1
  Lu  Lu1  1  0.532599  0.065198  0.510192  1
  Lu  Lu2  1  0.934802  0.467401  0.510192  1
  Lu  Lu3  1  0.532599  0.467401  0.510192  1
  Lu  Lu4  1  0.461141  0.922284  0.007677  1
  Lu  Lu5  1  0.077716  0.538859  0.007677  1
  Lu  Lu6  1  0.461141  0.538859  0.007677  1
  Lu  Lu7  1  0.179081  0.358163  0.709435  1
  Lu  Lu8  1  0.641837  0.820919  0.709435  1
  Lu  Lu9  1  0.179081  0.820919  0.709435  1
  Lu  Lu10  1  0.824076  0.648151  0.208429  1
  Lu  Lu11  1  0.351849  0.175924  0.208429  1
  Lu  Lu12  1  0.824076  0.175924  0.208429  1
  Lu  Lu13  1  0.666667  0.333333  0.884906  1
  Lu  Lu14  1  0.333333  0.666667  0.399491  1
  Lu  Lu15  1  0.000000  0.000000  0.488473  1
  Tl  Tl16  1  0.837815  0.675632  0.753635  1
  Tl  Tl17  1  0.324368  0.162185  0.753635  1
  Tl  Tl18  1  0.837815  0.162185  0.753635  1
  Tl  Tl19  1  0.163061  0.326121  0.258321  1
  Tl  Tl20  1  0.673879  0.836939  0.258321  1
  Tl  Tl21  1  0.163061  0.836939  0.258321  1
  Co  Co22  1  0.333333  0.666667  0.779328  1
  Pt  Pt23  1  0.666667  0.333333  0.276272  1
