# generated using pymatgen
data_SmSc(Ni4B)2
_symmetry_space_group_name_H-M   'P 1'
_cell_length_a   4.93876300
_cell_length_b   4.93342534
_cell_length_c   6.93413800
_cell_angle_alpha   90.00000000
_cell_angle_beta   90.00000000
_cell_angle_gamma   120.03578997
_symmetry_Int_Tables_number   1
_chemical_formula_structural   SmSc(Ni4B)2
_chemical_formula_sum   'Sm1 Sc1 Ni8 B2'
_cell_volume   146.26254294
_cell_formula_units_Z   1
loop_
 _symmetry_equiv_pos_site_id
 _symmetry_equiv_pos_as_xyz
  1  'x, y, z'
loop_
 _atom_site_type_symbol
 _atom_site_label
 _atom_site_symmetry_multiplicity
 _atom_site_fract_x
 _atom_site_fract_y
 _atom_site_fract_z
 _atom_site_occupancy
  Sm  Sm0  1  0.999978  0.000000  0.000000  1
  Sc  Sc1  1  0.999985  0.000000  0.500000  1
  Ni  Ni2  1  0.333262  0.666566  0.000000  1
  Ni  Ni3  1  0.666697  0.333434  0.000000  1
  Ni  Ni4  1  0.499983  0.000000  0.296194  1
  Ni  Ni5  1  0.499985  0.500000  0.296400  1
  Ni  Ni6  1  0.999986  0.500000  0.296400  1
  Ni  Ni7  1  0.499983  0.000000  0.703806  1
  Ni  Ni8  1  0.499985  0.500000  0.703600  1
  Ni  Ni9  1  0.999986  0.500000  0.703600  1
  B  B10  1  0.333348  0.666728  0.500000  1
  B  B11  1  0.666619  0.333272  0.500000  1
