# generated using pymatgen
data_LaNd4Ni19
_symmetry_space_group_name_H-M   'P 1'
_cell_length_a   4.97869870
_cell_length_b   4.97869778
_cell_length_c   16.47936172
_cell_angle_alpha   81.31171675
_cell_angle_beta   81.31171867
_cell_angle_gamma   59.99999798
_symmetry_Int_Tables_number   1
_chemical_formula_structural   LaNd4Ni19
_chemical_formula_sum   'La1 Nd4 Ni19'
_cell_volume   348.33196704
_cell_formula_units_Z   1
loop_
 _symmetry_equiv_pos_site_id
 _symmetry_equiv_pos_as_xyz
  1  'x, y, z'
loop_
 _atom_site_type_symbol
 _atom_site_label
 _atom_site_symmetry_multiplicity
 _atom_site_fract_x
 _atom_site_fract_y
 _atom_site_fract_z
 _atom_site_occupancy
  La  La0  1  0.078147  0.078147  0.765558  1
  Nd  Nd1  1  0.999739  0.999739  0.000784  1
  Nd  Nd2  1  0.921793  0.921793  0.234623  1
  Nd  Nd3  1  0.151759  0.151759  0.544723  1
  Nd  Nd4  1  0.848448  0.848448  0.454656  1
  Ni  Ni5  1  0.500110  0.500110  0.499670  1
  Ni  Ni6  1  0.251163  0.251163  0.246510  1
  Ni  Ni7  1  0.748938  0.748938  0.753186  1
  Ni  Ni8  1  0.333180  0.333180  0.000459  1
  Ni  Ni9  1  0.666684  0.666684  0.999948  1
  Ni  Ni10  1  0.415242  0.415242  0.754275  1
  Ni  Ni11  1  0.584754  0.584754  0.245739  1
  Ni  Ni12  1  0.123645  0.622628  0.631101  1
  Ni  Ni13  1  0.622628  0.622628  0.631101  1
  Ni  Ni14  1  0.622628  0.123645  0.631101  1
  Ni  Ni15  1  0.876580  0.377777  0.367865  1
  Ni  Ni16  1  0.377777  0.377777  0.367865  1
  Ni  Ni17  1  0.377777  0.876580  0.367865  1
  Ni  Ni18  1  0.040410  0.540347  0.878897  1
  Ni  Ni19  1  0.540347  0.540347  0.878897  1
  Ni  Ni20  1  0.540347  0.040410  0.878897  1
  Ni  Ni21  1  0.959723  0.459091  0.122094  1
  Ni  Ni22  1  0.459091  0.459091  0.122094  1
  Ni  Ni23  1  0.459091  0.959723  0.122094  1
