# generated using pymatgen
data_Li4LaEr3Si8
_symmetry_space_group_name_H-M   'P 1'
_cell_length_a   3.81573300
_cell_length_b   7.63916499
_cell_length_c   10.23122509
_cell_angle_alpha   89.69168491
_cell_angle_beta   90.00000000
_cell_angle_gamma   90.00000000
_symmetry_Int_Tables_number   1
_chemical_formula_structural   Li4LaEr3Si8
_chemical_formula_sum   'Li4 La1 Er3 Si8'
_cell_volume   298.22580511
_cell_formula_units_Z   1
loop_
 _symmetry_equiv_pos_site_id
 _symmetry_equiv_pos_as_xyz
  1  'x, y, z'
loop_
 _atom_site_type_symbol
 _atom_site_label
 _atom_site_symmetry_multiplicity
 _atom_site_fract_x
 _atom_site_fract_y
 _atom_site_fract_z
 _atom_site_occupancy
  Li  Li0  1  0.250000  0.995122  0.391799  1
  Li  Li1  1  0.750000  0.010198  0.610567  1
  Li  Li2  1  0.250000  0.489150  0.107313  1
  Li  Li3  1  0.750000  0.509569  0.892909  1
  La  La4  1  0.750000  0.359490  0.362635  1
  Er  Er5  1  0.250000  0.132085  0.863053  1
  Er  Er6  1  0.750000  0.863787  0.134352  1
  Er  Er7  1  0.250000  0.636934  0.637379  1
  Si  Si8  1  0.750000  0.259533  0.060355  1
  Si  Si9  1  0.250000  0.732122  0.931875  1
  Si  Si10  1  0.750000  0.776749  0.432103  1
  Si  Si11  1  0.250000  0.231385  0.577428  1
  Si  Si12  1  0.750000  0.841761  0.820083  1
  Si  Si13  1  0.250000  0.151817  0.171980  1
  Si  Si14  1  0.750000  0.342195  0.686408  1
  Si  Si15  1  0.250000  0.668101  0.319765  1
