# generated using pymatgen
data_Dy19Y(Cd3Ir)2
_symmetry_space_group_name_H-M   'P 1'
_cell_length_a   9.62990500
_cell_length_b   9.62993582
_cell_length_c   9.86190800
_cell_angle_alpha   90.00000000
_cell_angle_beta   90.00000000
_cell_angle_gamma   120.00010773
_symmetry_Int_Tables_number   1
_chemical_formula_structural   Dy19Y(Cd3Ir)2
_chemical_formula_sum   'Dy19 Y1 Cd6 Ir2'
_cell_volume   792.02064528
_cell_formula_units_Z   1
loop_
 _symmetry_equiv_pos_site_id
 _symmetry_equiv_pos_as_xyz
  1  'x, y, z'
loop_
 _atom_site_type_symbol
 _atom_site_label
 _atom_site_symmetry_multiplicity
 _atom_site_fract_x
 _atom_site_fract_y
 _atom_site_fract_z
 _atom_site_occupancy
  Dy  Dy0  1  0.999984  0.999992  0.500017  1
  Dy  Dy1  1  0.999984  0.999992  0.999983  1
  Dy  Dy2  1  0.209686  0.790482  0.440637  1
  Dy  Dy3  1  0.209686  0.419203  0.440637  1
  Dy  Dy4  1  0.580703  0.790352  0.440761  1
  Dy  Dy5  1  0.790283  0.209506  0.559206  1
  Dy  Dy6  1  0.790283  0.580776  0.559206  1
  Dy  Dy7  1  0.419218  0.209609  0.559272  1
  Dy  Dy8  1  0.790283  0.209506  0.940794  1
  Dy  Dy9  1  0.790283  0.580776  0.940794  1
  Dy  Dy10  1  0.419218  0.209609  0.940728  1
  Dy  Dy11  1  0.209686  0.790482  0.059363  1
  Dy  Dy12  1  0.209686  0.419203  0.059363  1
  Dy  Dy13  1  0.580703  0.790352  0.059239  1
  Dy  Dy14  1  0.541464  0.458561  0.250000  1
  Dy  Dy15  1  0.541464  0.082903  0.250000  1
  Dy  Dy16  1  0.917081  0.458541  0.250000  1
  Dy  Dy17  1  0.458614  0.541411  0.750000  1
  Dy  Dy18  1  0.458614  0.917202  0.750000  1
  Y  Y19  1  0.083062  0.541530  0.750000  1
  Cd  Cd20  1  0.885414  0.114627  0.250000  1
  Cd  Cd21  1  0.885414  0.770787  0.250000  1
  Cd  Cd22  1  0.229206  0.114603  0.250000  1
  Cd  Cd23  1  0.114635  0.885478  0.750000  1
  Cd  Cd24  1  0.114635  0.229156  0.750000  1
  Cd  Cd25  1  0.770738  0.885369  0.750000  1
  Ir  Ir26  1  0.333380  0.666691  0.250000  1
  Ir  Ir27  1  0.666596  0.333298  0.750000  1
