# generated using pymatgen
data_Be8AlSiOs2
_symmetry_space_group_name_H-M   'P 1'
_cell_length_a   4.30092900
_cell_length_b   4.30092845
_cell_length_c   6.93751200
_cell_angle_alpha   90.00000000
_cell_angle_beta   90.00000000
_cell_angle_gamma   119.99998119
_symmetry_Int_Tables_number   1
_chemical_formula_structural   Be8AlSiOs2
_chemical_formula_sum   'Be8 Al1 Si1 Os2'
_cell_volume   111.13707230
_cell_formula_units_Z   1
loop_
 _symmetry_equiv_pos_site_id
 _symmetry_equiv_pos_as_xyz
  1  'x, y, z'
loop_
 _atom_site_type_symbol
 _atom_site_label
 _atom_site_symmetry_multiplicity
 _atom_site_fract_x
 _atom_site_fract_y
 _atom_site_fract_z
 _atom_site_occupancy
  Be  Be0  1  0.000000  0.000000  0.990738  1
  Be  Be1  1  0.000000  0.000000  0.493366  1
  Be  Be2  1  0.831559  0.663119  0.249944  1
  Be  Be3  1  0.168295  0.831705  0.750223  1
  Be  Be4  1  0.663409  0.831705  0.750223  1
  Be  Be5  1  0.336881  0.168441  0.249944  1
  Be  Be6  1  0.831559  0.168441  0.249944  1
  Be  Be7  1  0.168295  0.336591  0.750223  1
  Al  Al8  1  0.333333  0.666667  0.063477  1
  Si  Si9  1  0.666667  0.333333  0.566024  1
  Os  Os10  1  0.666667  0.333333  0.937191  1
  Os  Os11  1  0.333333  0.666667  0.448705  1
