# generated using pymatgen
data_HoEr2Co2P6Ir7
_symmetry_space_group_name_H-M   'P 1'
_cell_length_a   3.87865200
_cell_length_b   11.02106700
_cell_length_c   12.69734300
_cell_angle_alpha   90.00000000
_cell_angle_beta   90.00000000
_cell_angle_gamma   90.00000000
_symmetry_Int_Tables_number   1
_chemical_formula_structural   HoEr2Co2P6Ir7
_chemical_formula_sum   'Ho2 Er4 Co4 P12 Ir14'
_cell_volume   542.77184276
_cell_formula_units_Z   2
loop_
 _symmetry_equiv_pos_site_id
 _symmetry_equiv_pos_as_xyz
  1  'x, y, z'
loop_
 _atom_site_type_symbol
 _atom_site_label
 _atom_site_symmetry_multiplicity
 _atom_site_fract_x
 _atom_site_fract_y
 _atom_site_fract_z
 _atom_site_occupancy
  Ho  Ho0  1  0.000000  0.500000  0.522848  1
  Ho  Ho1  1  0.500000  0.000000  0.477400  1
  Er  Er2  1  0.500000  0.820894  0.199002  1
  Er  Er3  1  0.500000  0.179106  0.199002  1
  Er  Er4  1  0.000000  0.684988  0.801098  1
  Er  Er5  1  0.000000  0.315012  0.801098  1
  Co  Co6  1  0.000000  0.500000  0.985985  1
  Co  Co7  1  0.500000  0.000000  0.016297  1
  Co  Co8  1  0.000000  0.159263  0.003594  1
  Co  Co9  1  0.000000  0.840737  0.003594  1
  P  P10  1  0.500000  0.316159  0.620263  1
  P  P11  1  0.500000  0.683841  0.620263  1
  P  P12  1  0.000000  0.183306  0.379501  1
  P  P13  1  0.000000  0.816694  0.379501  1
  P  P14  1  0.500000  0.500000  0.883017  1
  P  P15  1  0.000000  0.000000  0.111590  1
  P  P16  1  0.500000  0.850988  0.900311  1
  P  P17  1  0.500000  0.149012  0.900311  1
  P  P18  1  0.000000  0.660097  0.101826  1
  P  P19  1  0.000000  0.339903  0.101826  1
  P  P20  1  0.500000  0.500000  0.354554  1
  P  P21  1  0.000000  0.000000  0.645930  1
  Ir  Ir22  1  0.500000  0.294495  0.428925  1
  Ir  Ir23  1  0.500000  0.705505  0.428925  1
  Ir  Ir24  1  0.000000  0.203804  0.570392  1
  Ir  Ir25  1  0.000000  0.796196  0.570392  1
  Ir  Ir26  1  0.500000  0.871008  0.716768  1
  Ir  Ir27  1  0.500000  0.128992  0.716768  1
  Ir  Ir28  1  0.000000  0.629945  0.283104  1
  Ir  Ir29  1  0.000000  0.370055  0.283104  1
  Ir  Ir30  1  0.500000  0.332826  0.995837  1
  Ir  Ir31  1  0.500000  0.667174  0.995837  1
  Ir  Ir32  1  0.500000  0.500000  0.171409  1
  Ir  Ir33  1  0.000000  0.000000  0.831126  1
  Ir  Ir34  1  0.500000  0.500000  0.704722  1
  Ir  Ir35  1  0.000000  0.000000  0.293882  1
