# generated using pymatgen
data_LiTm16Cd3CoNi3
_symmetry_space_group_name_H-M   'P 1'
_cell_length_a   9.41863121
_cell_length_b   9.41863254
_cell_length_c   9.41863174
_cell_angle_alpha   59.74408590
_cell_angle_beta   59.74408094
_cell_angle_gamma   59.74408983
_symmetry_Int_Tables_number   1
_chemical_formula_structural   LiTm16Cd3CoNi3
_chemical_formula_sum   'Li1 Tm16 Cd3 Co1 Ni3'
_cell_volume   587.37736244
_cell_formula_units_Z   1
loop_
 _symmetry_equiv_pos_site_id
 _symmetry_equiv_pos_as_xyz
  1  'x, y, z'
loop_
 _atom_site_type_symbol
 _atom_site_label
 _atom_site_symmetry_multiplicity
 _atom_site_fract_x
 _atom_site_fract_y
 _atom_site_fract_z
 _atom_site_occupancy
  Li  Li0  1  0.570965  0.570965  0.570965  1
  Tm  Tm1  1  0.350426  0.350426  0.350426  1
  Tm  Tm2  1  0.344259  0.344259  0.961058  1
  Tm  Tm3  1  0.344259  0.961058  0.344259  1
  Tm  Tm4  1  0.961058  0.344259  0.344259  1
  Tm  Tm5  1  0.814838  0.189150  0.189150  1
  Tm  Tm6  1  0.186739  0.813120  0.813120  1
  Tm  Tm7  1  0.189150  0.814838  0.189150  1
  Tm  Tm8  1  0.813120  0.186739  0.813120  1
  Tm  Tm9  1  0.189150  0.189150  0.814838  1
  Tm  Tm10  1  0.813120  0.813120  0.186739  1
  Tm  Tm11  1  0.936437  0.562993  0.562993  1
  Tm  Tm12  1  0.563344  0.936009  0.936009  1
  Tm  Tm13  1  0.562993  0.936437  0.562993  1
  Tm  Tm14  1  0.936009  0.563344  0.936009  1
  Tm  Tm15  1  0.562993  0.562993  0.936437  1
  Tm  Tm16  1  0.936009  0.936009  0.563344  1
  Cd  Cd17  1  0.582456  0.582456  0.255532  1
  Cd  Cd18  1  0.582456  0.255532  0.582456  1
  Cd  Cd19  1  0.255532  0.582456  0.582456  1
  Co  Co20  1  0.142226  0.142226  0.142226  1
  Ni  Ni21  1  0.144873  0.144873  0.572719  1
  Ni  Ni22  1  0.144873  0.572719  0.144873  1
  Ni  Ni23  1  0.572719  0.144873  0.144873  1
