# generated using pymatgen
data_Mn8Nb7Si14Mo
_symmetry_space_group_name_H-M   'P 1'
_cell_length_a   9.36983025
_cell_length_b   9.36983002
_cell_length_c   9.38765722
_cell_angle_alpha   94.07517269
_cell_angle_beta   94.07516939
_cell_angle_gamma   149.04807490
_symmetry_Int_Tables_number   1
_chemical_formula_structural   Mn8Nb7Si14Mo
_chemical_formula_sum   'Mn8 Nb7 Si14 Mo1'
_cell_volume   408.58001162
_cell_formula_units_Z   1
loop_
 _symmetry_equiv_pos_site_id
 _symmetry_equiv_pos_as_xyz
  1  'x, y, z'
loop_
 _atom_site_type_symbol
 _atom_site_label
 _atom_site_symmetry_multiplicity
 _atom_site_fract_x
 _atom_site_fract_y
 _atom_site_fract_z
 _atom_site_occupancy
  Mn  Mn0  1  0.399607  0.899607  0.799214  1
  Mn  Mn1  1  0.100825  0.600825  0.201652  1
  Mn  Mn2  1  0.100183  0.899752  0.499036  1
  Mn  Mn3  1  0.398853  0.599284  0.499036  1
  Mn  Mn4  1  0.599284  0.398853  0.499036  1
  Mn  Mn5  1  0.899752  0.100183  0.499036  1
  Mn  Mn6  1  0.899607  0.399607  0.799214  1
  Mn  Mn7  1  0.600825  0.100825  0.201652  1
  Nb  Nb8  1  0.865204  0.865204  0.730407  1
  Nb  Nb9  1  0.863849  0.134799  0.998647  1
  Nb  Nb10  1  0.134799  0.863849  0.998647  1
  Nb  Nb11  1  0.500797  0.691207  0.192004  1
  Nb  Nb12  1  0.499902  0.309774  0.809676  1
  Nb  Nb13  1  0.309774  0.499902  0.809676  1
  Nb  Nb14  1  0.691207  0.500797  0.192004  1
  Si  Si15  1  0.293394  0.293394  0.586788  1
  Si  Si16  1  0.705871  0.705871  0.411741  1
  Si  Si17  1  0.706259  0.294086  0.000345  1
  Si  Si18  1  0.294086  0.706259  0.000345  1
  Si  Si19  1  0.001533  0.289430  0.290962  1
  Si  Si20  1  0.999744  0.706629  0.706373  1
  Si  Si21  1  0.706629  0.999744  0.706373  1
  Si  Si22  1  0.289430  0.001533  0.290962  1
  Si  Si23  1  0.500094  0.907083  0.407178  1
  Si  Si24  1  0.499621  0.094035  0.593656  1
  Si  Si25  1  0.094035  0.499621  0.593656  1
  Si  Si26  1  0.907083  0.500094  0.407178  1
  Si  Si27  1  0.752966  0.752966  0.002810  1
  Si  Si28  1  0.249844  0.249844  0.002810  1
  Mo  Mo29  1  0.134943  0.134943  0.269886  1
