# generated using pymatgen
data_Zn6FeSn5Rh12
_symmetry_space_group_name_H-M   'P 1'
_cell_length_a   4.40941701
_cell_length_b   6.22179100
_cell_length_c   13.30827202
_cell_angle_alpha   90.00000000
_cell_angle_beta   90.00644786
_cell_angle_gamma   90.00000000
_symmetry_Int_Tables_number   1
_chemical_formula_structural   Zn6FeSn5Rh12
_chemical_formula_sum   'Zn6 Fe1 Sn5 Rh12'
_cell_volume   365.10540117
_cell_formula_units_Z   1
loop_
 _symmetry_equiv_pos_site_id
 _symmetry_equiv_pos_as_xyz
  1  'x, y, z'
loop_
 _atom_site_type_symbol
 _atom_site_label
 _atom_site_symmetry_multiplicity
 _atom_site_fract_x
 _atom_site_fract_y
 _atom_site_fract_z
 _atom_site_occupancy
  Zn  Zn0  1  0.999950  0.000000  0.992560  1
  Zn  Zn1  1  0.499781  0.500000  0.163842  1
  Zn  Zn2  1  0.999804  0.000000  0.333357  1
  Zn  Zn3  1  0.500013  0.500000  0.502856  1
  Zn  Zn4  1  0.000260  0.000000  0.674129  1
  Zn  Zn5  1  0.500347  0.500000  0.833339  1
  Fe  Fe6  1  0.499918  0.000000  0.833224  1
  Sn  Sn7  1  0.999935  0.500000  0.996940  1
  Sn  Sn8  1  0.499763  0.000000  0.164110  1
  Sn  Sn9  1  0.999797  0.500000  0.333461  1
  Sn  Sn10  1  0.499992  0.000000  0.502613  1
  Sn  Sn11  1  0.000168  0.500000  0.669589  1
  Rh  Rh12  1  0.500024  0.246237  0.997651  1
  Rh  Rh13  1  0.500024  0.753765  0.997651  1
  Rh  Rh14  1  0.999799  0.250596  0.166142  1
  Rh  Rh15  1  0.999799  0.749404  0.166142  1
  Rh  Rh16  1  0.499800  0.249267  0.333347  1
  Rh  Rh17  1  0.499800  0.750731  0.333347  1
  Rh  Rh18  1  0.000006  0.250560  0.500487  1
  Rh  Rh19  1  0.000006  0.749440  0.500487  1
  Rh  Rh20  1  0.500279  0.246308  0.669033  1
  Rh  Rh21  1  0.500279  0.753690  0.669033  1
  Rh  Rh22  1  0.000227  0.244883  0.833329  1
  Rh  Rh23  1  0.000227  0.755117  0.833329  1
