# generated using pymatgen
data_Bi3Ir2(RuO7)2
_symmetry_space_group_name_H-M   'P 1'
_cell_length_a   7.16481443
_cell_length_b   7.19911317
_cell_length_c   7.19911168
_cell_angle_alpha   61.49245438
_cell_angle_beta   61.48103540
_cell_angle_gamma   61.48103562
_symmetry_Int_Tables_number   1
_chemical_formula_structural   Bi3Ir2(RuO7)2
_chemical_formula_sum   'Bi3 Ir2 Ru2 O14'
_cell_volume   271.32433597
_cell_formula_units_Z   1
loop_
 _symmetry_equiv_pos_site_id
 _symmetry_equiv_pos_as_xyz
  1  'x, y, z'
loop_
 _atom_site_type_symbol
 _atom_site_label
 _atom_site_symmetry_multiplicity
 _atom_site_fract_x
 _atom_site_fract_y
 _atom_site_fract_z
 _atom_site_occupancy
  Bi  Bi0  1  0.000000  0.500000  0.500000  1
  Bi  Bi1  1  0.500000  0.500000  0.000000  1
  Bi  Bi2  1  0.500000  0.000000  0.500000  1
  Ir  Ir3  1  0.000000  0.000000  0.000000  1
  Ir  Ir4  1  0.500000  0.000000  0.000000  1
  Ru  Ru5  1  0.000000  0.000000  0.500000  1
  Ru  Ru6  1  0.000000  0.500000  0.000000  1
  O  O7  1  0.943499  0.320514  0.320514  1
  O  O8  1  0.329699  0.917155  0.917155  1
  O  O9  1  0.320018  0.322252  0.943376  1
  O  O10  1  0.918159  0.918465  0.327774  1
  O  O11  1  0.918159  0.327774  0.918465  1
  O  O12  1  0.320018  0.943376  0.322252  1
  O  O13  1  0.056501  0.679486  0.679486  1
  O  O14  1  0.670301  0.082845  0.082845  1
  O  O15  1  0.679982  0.677748  0.056624  1
  O  O16  1  0.081841  0.081535  0.672226  1
  O  O17  1  0.081841  0.672226  0.081535  1
  O  O18  1  0.679982  0.056624  0.677748  1
  O  O19  1  0.376066  0.372778  0.372778  1
  O  O20  1  0.623934  0.627222  0.627222  1
