# generated using pymatgen
data_MgHg3(BrO3)8
_symmetry_space_group_name_H-M   'P 1'
_cell_length_a   5.84960538
_cell_length_b   11.04075604
_cell_length_c   11.21440484
_cell_angle_alpha   119.63328731
_cell_angle_beta   89.74979511
_cell_angle_gamma   90.79217461
_symmetry_Int_Tables_number   1
_chemical_formula_structural   MgHg3(BrO3)8
_chemical_formula_sum   'Mg1 Hg3 Br8 O24'
_cell_volume   629.48005232
_cell_formula_units_Z   1
loop_
 _symmetry_equiv_pos_site_id
 _symmetry_equiv_pos_as_xyz
  1  'x, y, z'
loop_
 _atom_site_type_symbol
 _atom_site_label
 _atom_site_symmetry_multiplicity
 _atom_site_fract_x
 _atom_site_fract_y
 _atom_site_fract_z
 _atom_site_occupancy
  Mg  Mg0  1  0.143628  0.763934  0.510188  1
  Hg  Hg1  1  0.650258  0.235158  0.492580  1
  Hg  Hg2  1  0.148604  0.269781  0.011109  1
  Hg  Hg3  1  0.639525  0.727201  0.993434  1
  Br  Br4  1  0.267442  0.428681  0.360304  1
  Br  Br5  1  0.778251  0.592126  0.648141  1
  Br  Br6  1  0.261590  0.916770  0.840569  1
  Br  Br7  1  0.758862  0.080392  0.145206  1
  Br  Br8  1  0.790227  0.069183  0.676191  1
  Br  Br9  1  0.276788  0.901850  0.315237  1
  Br  Br10  1  0.279448  0.413137  0.804999  1
  Br  Br11  1  0.790444  0.591116  0.207523  1
  O  O12  1  0.417111  0.886912  0.948950  1
  O  O13  1  0.905280  0.101573  0.026886  1
  O  O14  1  0.358126  0.805471  0.680394  1
  O  O15  1  0.872392  0.200247  0.298584  1
  O  O16  1  0.385048  0.318976  0.205301  1
  O  O17  1  0.884224  0.704752  0.806000  1
  O  O18  1  0.908714  0.212439  0.808509  1
  O  O19  1  0.415894  0.764152  0.188486  1
  O  O20  1  0.939764  0.930371  0.655700  1
  O  O21  1  0.411324  0.046227  0.332152  1
  O  O22  1  0.368852  0.073677  0.868799  1
  O  O23  1  0.860683  0.927885  0.126635  1
  O  O24  1  0.402023  0.269476  0.678322  1
  O  O25  1  0.930950  0.724907  0.338806  1
  O  O26  1  0.357822  0.416403  0.952408  1
  O  O27  1  0.872118  0.600278  0.066608  1
  O  O28  1  0.424972  0.552210  0.814195  1
  O  O29  1  0.914083  0.442984  0.184634  1
  O  O30  1  0.348424  0.589015  0.389030  1
  O  O31  1  0.883013  0.436502  0.619566  1
  O  O32  1  0.428348  0.407867  0.473448  1
  O  O33  1  0.928660  0.624041  0.538232  1
  O  O34  1  0.863554  0.082451  0.535643  1
  O  O35  1  0.343156  0.891857  0.457230  1
