# generated using pymatgen
data_Dy3TmFePt3O14
_symmetry_space_group_name_H-M   'P 1'
_cell_length_a   7.28226667
_cell_length_b   7.20355581
_cell_length_c   7.20355700
_cell_angle_alpha   59.99998994
_cell_angle_beta   60.35689511
_cell_angle_gamma   60.35690437
_symmetry_Int_Tables_number   1
_chemical_formula_structural   Dy3TmFePt3O14
_chemical_formula_sum   'Dy3 Tm1 Fe1 Pt3 O14'
_cell_volume   268.63793693
_cell_formula_units_Z   1
loop_
 _symmetry_equiv_pos_site_id
 _symmetry_equiv_pos_as_xyz
  1  'x, y, z'
loop_
 _atom_site_type_symbol
 _atom_site_label
 _atom_site_symmetry_multiplicity
 _atom_site_fract_x
 _atom_site_fract_y
 _atom_site_fract_z
 _atom_site_occupancy
  Dy  Dy0  1  0.125000  0.625000  0.125000  1
  Dy  Dy1  1  0.125000  0.125000  0.625000  1
  Dy  Dy2  1  0.125000  0.125000  0.125000  1
  Tm  Tm3  1  0.625000  0.125000  0.125000  1
  Fe  Fe4  1  0.125000  0.625000  0.625000  1
  Pt  Pt5  1  0.625000  0.625000  0.625000  1
  Pt  Pt6  1  0.625000  0.125000  0.625000  1
  Pt  Pt7  1  0.625000  0.625000  0.125000  1
  O  O8  1  0.288559  0.714177  0.714177  1
  O  O9  1  0.538911  0.965228  0.965228  1
  O  O10  1  0.711089  0.284772  0.719368  1
  O  O11  1  0.288559  0.283089  0.714177  1
  O  O12  1  0.711089  0.719368  0.284772  1
  O  O13  1  0.990645  0.003118  0.003118  1
  O  O14  1  0.288559  0.714177  0.283089  1
  O  O15  1  0.961441  0.535823  0.966911  1
  O  O16  1  0.961441  0.966911  0.535823  1
  O  O17  1  0.538911  0.530632  0.965228  1
  O  O18  1  0.259355  0.246882  0.246882  1
  O  O19  1  0.538911  0.965228  0.530632  1
  O  O20  1  0.711089  0.284772  0.284772  1
  O  O21  1  0.961441  0.535823  0.535823  1
