# generated using pymatgen
data_Yb7Eu3
_symmetry_space_group_name_H-M   'P 1'
_cell_length_a   15.38819123
_cell_length_b   15.38819104
_cell_length_c   6.10350400
_cell_angle_alpha   90.00000000
_cell_angle_beta   90.00000000
_cell_angle_gamma   164.87397812
_symmetry_Int_Tables_number   1
_chemical_formula_structural   Yb7Eu3
_chemical_formula_sum   'Yb7 Eu3'
_cell_volume   377.13772370
_cell_formula_units_Z   1
loop_
 _symmetry_equiv_pos_site_id
 _symmetry_equiv_pos_as_xyz
  1  'x, y, z'
loop_
 _atom_site_type_symbol
 _atom_site_label
 _atom_site_symmetry_multiplicity
 _atom_site_fract_x
 _atom_site_fract_y
 _atom_site_fract_z
 _atom_site_occupancy
  Yb  Yb0  1  0.599315  0.400686  0.000000  1
  Yb  Yb1  1  0.400686  0.599315  0.000000  1
  Yb  Yb2  1  0.900653  0.099347  0.499999  1
  Yb  Yb3  1  0.699775  0.300225  0.499999  1
  Yb  Yb4  1  0.500000  0.500000  0.499999  1
  Yb  Yb5  1  0.300225  0.699775  0.499999  1
  Yb  Yb6  1  0.099347  0.900653  0.499999  1
  Eu  Eu7  1  0.000000  0.000000  0.000000  1
  Eu  Eu8  1  0.800749  0.199252  0.000000  1
  Eu  Eu9  1  0.199252  0.800749  0.000000  1
