# generated using pymatgen
data_LaYb9Ir4
_symmetry_space_group_name_H-M   'P 1'
_cell_length_a   8.48667835
_cell_length_b   8.48667800
_cell_length_c   7.51129888
_cell_angle_alpha   83.05625337
_cell_angle_beta   83.05625369
_cell_angle_gamma   44.76566798
_symmetry_Int_Tables_number   1
_chemical_formula_structural   LaYb9Ir4
_chemical_formula_sum   'La1 Yb9 Ir4'
_cell_volume   377.70084137
_cell_formula_units_Z   1
loop_
 _symmetry_equiv_pos_site_id
 _symmetry_equiv_pos_as_xyz
  1  'x, y, z'
loop_
 _atom_site_type_symbol
 _atom_site_label
 _atom_site_symmetry_multiplicity
 _atom_site_fract_x
 _atom_site_fract_y
 _atom_site_fract_z
 _atom_site_occupancy
  La  La0  1  0.430196  0.569804  0.250000  1
  Yb  Yb1  1  0.026711  0.799038  0.914338  1
  Yb  Yb2  1  0.200962  0.973289  0.585662  1
  Yb  Yb3  1  0.971984  0.202673  0.076221  1
  Yb  Yb4  1  0.797327  0.028016  0.423779  1
  Yb  Yb5  1  0.364362  0.201048  0.821478  1
  Yb  Yb6  1  0.798952  0.635638  0.678522  1
  Yb  Yb7  1  0.642970  0.801002  0.178032  1
  Yb  Yb8  1  0.198998  0.357030  0.321968  1
  Yb  Yb9  1  0.569449  0.430551  0.750000  1
  Ir  Ir10  1  0.177040  0.603608  0.574311  1
  Ir  Ir11  1  0.396392  0.822960  0.925689  1
  Ir  Ir12  1  0.820401  0.395744  0.418034  1
  Ir  Ir13  1  0.604256  0.179599  0.081966  1
