# generated using pymatgen
data_Pr2AlGaI
_symmetry_space_group_name_H-M   'P 1'
_cell_length_a   4.31436300
_cell_length_b   4.31436329
_cell_length_c   17.41371800
_cell_angle_alpha   90.00000000
_cell_angle_beta   90.00000000
_cell_angle_gamma   120.00000548
_symmetry_Int_Tables_number   1
_chemical_formula_structural   Pr2AlGaI
_chemical_formula_sum   'Pr4 Al2 Ga2 I2'
_cell_volume   280.70846489
_cell_formula_units_Z   2
loop_
 _symmetry_equiv_pos_site_id
 _symmetry_equiv_pos_as_xyz
  1  'x, y, z'
loop_
 _atom_site_type_symbol
 _atom_site_label
 _atom_site_symmetry_multiplicity
 _atom_site_fract_x
 _atom_site_fract_y
 _atom_site_fract_z
 _atom_site_occupancy
  Pr  Pr0  1  0.000000  0.000000  0.618292  1
  Pr  Pr1  1  0.000000  0.000000  0.382509  1
  Pr  Pr2  1  0.000000  0.000000  0.118292  1
  Pr  Pr3  1  0.000000  0.000000  0.882509  1
  Al  Al4  1  0.666667  0.333333  0.506130  1
  Al  Al5  1  0.333333  0.666667  0.006130  1
  Ga  Ga6  1  0.666667  0.333333  0.993135  1
  Ga  Ga7  1  0.333333  0.666667  0.493135  1
  I  I8  1  0.666667  0.333333  0.249935  1
  I  I9  1  0.333333  0.666667  0.749935  1
