# generated using pymatgen
data_Zr10ZnInBi2PPb3
_symmetry_space_group_name_H-M   'P 1'
_cell_length_a   8.80907914
_cell_length_b   8.80268812
_cell_length_c   5.97632500
_cell_angle_alpha   90.00508345
_cell_angle_beta   89.98982747
_cell_angle_gamma   120.02401604
_symmetry_Int_Tables_number   1
_chemical_formula_structural   Zr10ZnInBi2PPb3
_chemical_formula_sum   'Zr10 Zn1 In1 Bi2 P1 Pb3'
_cell_volume   401.24118795
_cell_formula_units_Z   1
loop_
 _symmetry_equiv_pos_site_id
 _symmetry_equiv_pos_as_xyz
  1  'x, y, z'
loop_
 _atom_site_type_symbol
 _atom_site_label
 _atom_site_symmetry_multiplicity
 _atom_site_fract_x
 _atom_site_fract_y
 _atom_site_fract_z
 _atom_site_occupancy
  Zr  Zr0  1  0.334731  0.668006  0.002304  1
  Zr  Zr1  1  0.666511  0.331693  0.498402  1
  Zr  Zr2  1  0.666726  0.331994  0.002304  1
  Zr  Zr3  1  0.334816  0.668307  0.498402  1
  Zr  Zr4  1  0.257293  0.000000  0.237322  1
  Zr  Zr5  1  0.253667  0.253068  0.763148  1
  Zr  Zr6  1  0.000598  0.746932  0.763148  1
  Zr  Zr7  1  0.997759  0.253720  0.237535  1
  Zr  Zr8  1  0.744038  0.746280  0.237535  1
  Zr  Zr9  1  0.744961  0.000000  0.762038  1
  Zn  Zn10  1  0.999408  0.000000  0.498447  1
  In  In11  1  0.608160  0.000000  0.256345  1
  Bi  Bi12  1  0.606106  0.605829  0.744079  1
  Bi  Bi13  1  0.000276  0.394171  0.744079  1
  P  P14  1  0.999762  0.000000  0.002199  1
  Pb  Pb15  1  0.000367  0.608993  0.255285  1
  Pb  Pb16  1  0.391374  0.391007  0.255285  1
  Pb  Pb17  1  0.393446  0.000000  0.742143  1
