# generated using pymatgen
data_Ac2MgZn(GeH)2
_symmetry_space_group_name_H-M   'P 1'
_cell_length_a   4.40091300
_cell_length_b   4.40091300
_cell_length_c   8.13510200
_cell_angle_alpha   90.00000000
_cell_angle_beta   90.00000000
_cell_angle_gamma   90.00000000
_symmetry_Int_Tables_number   1
_chemical_formula_structural   Ac2MgZn(GeH)2
_chemical_formula_sum   'Ac2 Mg1 Zn1 Ge2 H2'
_cell_volume   157.56094216
_cell_formula_units_Z   1
loop_
 _symmetry_equiv_pos_site_id
 _symmetry_equiv_pos_as_xyz
  1  'x, y, z'
loop_
 _atom_site_type_symbol
 _atom_site_label
 _atom_site_symmetry_multiplicity
 _atom_site_fract_x
 _atom_site_fract_y
 _atom_site_fract_z
 _atom_site_occupancy
  Ac  Ac0  1  0.500000  0.000000  0.342698  1
  Ac  Ac1  1  0.000000  0.500000  0.657302  1
  Mg  Mg2  1  0.000000  0.000000  0.000000  1
  Zn  Zn3  1  0.500000  0.500000  0.000000  1
  Ge  Ge4  1  0.500000  0.000000  0.800507  1
  Ge  Ge5  1  0.000000  0.500000  0.199493  1
  H  H6  1  0.000000  0.000000  0.500000  1
  H  H7  1  0.500000  0.500000  0.500000  1
