# generated using pymatgen
data_Ac8ScPd6
_symmetry_space_group_name_H-M   'P 1'
_cell_length_a   8.06430168
_cell_length_b   8.06430147
_cell_length_c   8.06430101
_cell_angle_alpha   72.27406884
_cell_angle_beta   72.27406688
_cell_angle_gamma   72.27406434
_symmetry_Int_Tables_number   1
_chemical_formula_structural   Ac8ScPd6
_chemical_formula_sum   'Ac8 Sc1 Pd6'
_cell_volume   462.68784295
_cell_formula_units_Z   1
loop_
 _symmetry_equiv_pos_site_id
 _symmetry_equiv_pos_as_xyz
  1  'x, y, z'
loop_
 _atom_site_type_symbol
 _atom_site_label
 _atom_site_symmetry_multiplicity
 _atom_site_fract_x
 _atom_site_fract_y
 _atom_site_fract_z
 _atom_site_occupancy
  Ac  Ac0  1  0.800661  0.800661  0.800661  1
  Ac  Ac1  1  0.199339  0.199339  0.199339  1
  Ac  Ac2  1  0.323377  0.622638  0.835014  1
  Ac  Ac3  1  0.835014  0.323377  0.622638  1
  Ac  Ac4  1  0.622637  0.835014  0.323377  1
  Ac  Ac5  1  0.676623  0.377362  0.164986  1
  Ac  Ac6  1  0.164986  0.676623  0.377362  1
  Ac  Ac7  1  0.377362  0.164986  0.676623  1
  Sc  Sc8  1  0.000000  0.000000  0.000000  1
  Pd  Pd9  1  0.145342  0.964064  0.602888  1
  Pd  Pd10  1  0.602888  0.145342  0.964064  1
  Pd  Pd11  1  0.964064  0.602888  0.145342  1
  Pd  Pd12  1  0.854658  0.035936  0.397112  1
  Pd  Pd13  1  0.397112  0.854658  0.035936  1
  Pd  Pd14  1  0.035936  0.397112  0.854658  1
