# generated using pymatgen
data_DyYSc2(SbO4)4
_symmetry_space_group_name_H-M   'P 1'
_cell_length_a   5.31419795
_cell_length_b   7.47231477
_cell_length_c   7.56652500
_cell_angle_alpha   80.89427573
_cell_angle_beta   86.91488435
_cell_angle_gamma   91.12546514
_symmetry_Int_Tables_number   1
_chemical_formula_structural   DyYSc2(SbO4)4
_chemical_formula_sum   'Dy1 Y1 Sc2 Sb4 O16'
_cell_volume   296.12462411
_cell_formula_units_Z   1
loop_
 _symmetry_equiv_pos_site_id
 _symmetry_equiv_pos_as_xyz
  1  'x, y, z'
loop_
 _atom_site_type_symbol
 _atom_site_label
 _atom_site_symmetry_multiplicity
 _atom_site_fract_x
 _atom_site_fract_y
 _atom_site_fract_z
 _atom_site_occupancy
  Dy  Dy0  1  0.749361  0.376929  0.372908  1
  Y  Y1  1  0.250735  0.623063  0.627166  1
  Sc  Sc2  1  0.719547  0.868396  0.333937  1
  Sc  Sc3  1  0.280381  0.131605  0.666163  1
  Sb  Sb4  1  0.775099  0.309608  0.840147  1
  Sb  Sb5  1  0.224950  0.690344  0.159927  1
  Sb  Sb6  1  0.247089  0.185958  0.171653  1
  Sb  Sb7  1  0.752895  0.814063  0.828488  1
  O  O8  1  0.901092  0.806347  0.069126  1
  O  O9  1  0.098686  0.193428  0.930842  1
  O  O10  1  0.385786  0.936644  0.177779  1
  O  O11  1  0.614436  0.063407  0.821925  1
  O  O12  1  0.097985  0.434379  0.175449  1
  O  O13  1  0.901825  0.565586  0.824658  1
  O  O14  1  0.580266  0.311797  0.071865  1
  O  O15  1  0.419970  0.688201  0.928410  1
  O  O16  1  0.997200  0.318598  0.611798  1
  O  O17  1  0.002121  0.681363  0.387771  1
  O  O18  1  0.413705  0.182177  0.402863  1
  O  O19  1  0.586827  0.817998  0.597166  1
  O  O20  1  0.490702  0.616477  0.329733  1
  O  O21  1  0.509618  0.383376  0.670294  1
  O  O22  1  0.926219  0.104086  0.303865  1
  O  O23  1  0.073506  0.896171  0.696069  1
