# generated using pymatgen
data_K2BaAs2Pt3
_symmetry_space_group_name_H-M   'P 1'
_cell_length_a   7.80126416
_cell_length_b   7.80126433
_cell_length_c   7.80126496
_cell_angle_alpha   43.40854341
_cell_angle_beta   43.40854158
_cell_angle_gamma   43.40854112
_symmetry_Int_Tables_number   1
_chemical_formula_structural   K2BaAs2Pt3
_chemical_formula_sum   'K2 Ba1 As2 Pt3'
_cell_volume   203.39500910
_cell_formula_units_Z   1
loop_
 _symmetry_equiv_pos_site_id
 _symmetry_equiv_pos_as_xyz
  1  'x, y, z'
loop_
 _atom_site_type_symbol
 _atom_site_label
 _atom_site_symmetry_multiplicity
 _atom_site_fract_x
 _atom_site_fract_y
 _atom_site_fract_z
 _atom_site_occupancy
  K  K0  1  0.510610  0.510610  0.510610  1
  K  K1  1  0.910568  0.910568  0.910568  1
  Ba  Ba2  1  0.080434  0.080434  0.080434  1
  As  As3  1  0.244901  0.244901  0.244901  1
  As  As4  1  0.755936  0.755936  0.755936  1
  Pt  Pt5  1  0.499147  0.499147  0.999258  1
  Pt  Pt6  1  0.499147  0.999258  0.499146  1
  Pt  Pt7  1  0.999258  0.499147  0.499146  1
