# generated using pymatgen
data_Yb6DyYBi6
_symmetry_space_group_name_H-M   'P 1'
_cell_length_a   8.17013683
_cell_length_b   8.35297385
_cell_length_c   8.35297316
_cell_angle_alpha   109.91037013
_cell_angle_beta   109.02841521
_cell_angle_gamma   109.02842082
_symmetry_Int_Tables_number   1
_chemical_formula_structural   Yb6DyYBi6
_chemical_formula_sum   'Yb6 Dy1 Y1 Bi6'
_cell_volume   441.19831170
_cell_formula_units_Z   1
loop_
 _symmetry_equiv_pos_site_id
 _symmetry_equiv_pos_as_xyz
  1  'x, y, z'
loop_
 _atom_site_type_symbol
 _atom_site_label
 _atom_site_symmetry_multiplicity
 _atom_site_fract_x
 _atom_site_fract_y
 _atom_site_fract_z
 _atom_site_occupancy
  Yb  Yb0  1  0.500919  0.999074  0.646913  1
  Yb  Yb1  1  0.353996  0.352088  0.353112  1
  Yb  Yb2  1  0.501908  0.001024  0.147912  1
  Yb  Yb3  1  0.001846  0.647839  0.500926  1
  Yb  Yb4  1  0.854006  0.853087  0.852161  1
  Yb  Yb5  1  0.000883  0.146888  0.498976  1
  Dy  Dy6  1  0.641715  0.500000  0.000000  1
  Y  Y7  1  0.141875  0.500000  0.000000  1
  Bi  Bi8  1  0.376852  0.623033  0.755845  1
  Bi  Bi9  1  0.876674  0.255779  0.123069  1
  Bi  Bi10  1  0.621007  0.744155  0.367187  1
  Bi  Bi11  1  0.120894  0.867289  0.244221  1
  Bi  Bi12  1  0.253819  0.132813  0.876967  1
  Bi  Bi13  1  0.753605  0.376931  0.632711  1
