# generated using pymatgen
data_Er2Tm10Co4CuSn
_symmetry_space_group_name_H-M   'P 1'
_cell_length_a   8.17824208
_cell_length_b   8.17821188
_cell_length_c   8.18668541
_cell_angle_alpha   111.16850710
_cell_angle_beta   110.55184763
_cell_angle_gamma   106.68576118
_symmetry_Int_Tables_number   1
_chemical_formula_structural   Er2Tm10Co4CuSn
_chemical_formula_sum   'Er2 Tm10 Co4 Cu1 Sn1'
_cell_volume   420.98346409
_cell_formula_units_Z   1
loop_
 _symmetry_equiv_pos_site_id
 _symmetry_equiv_pos_as_xyz
  1  'x, y, z'
loop_
 _atom_site_type_symbol
 _atom_site_label
 _atom_site_symmetry_multiplicity
 _atom_site_fract_x
 _atom_site_fract_y
 _atom_site_fract_z
 _atom_site_occupancy
  Er  Er0  1  0.185823  0.710512  0.896291  1
  Er  Er1  1  0.814462  0.289197  0.103501  1
  Tm  Tm2  1  0.314337  0.618688  0.304746  1
  Tm  Tm3  1  0.685205  0.380686  0.694757  1
  Tm  Tm4  1  0.313880  0.009326  0.694722  1
  Tm  Tm5  1  0.685858  0.990188  0.304709  1
  Tm  Tm6  1  0.417538  0.217342  0.200757  1
  Tm  Tm7  1  0.582314  0.782302  0.798909  1
  Tm  Tm8  1  0.016575  0.216700  0.798751  1
  Tm  Tm9  1  0.983383  0.783327  0.200605  1
  Tm  Tm10  1  0.186042  0.289018  0.475107  1
  Tm  Tm11  1  0.813678  0.710727  0.524457  1
  Co  Co12  1  0.113480  0.613428  0.500005  1
  Co  Co13  1  0.886303  0.386259  0.500011  1
  Co  Co14  1  0.376397  0.000198  0.376744  1
  Co  Co15  1  0.624122  0.999243  0.623511  1
  Cu  Cu16  1  0.000147  0.002855  0.002219  1
  Sn  Sn17  1  0.500457  0.500004  0.000199  1
