# generated using pymatgen
data_Y6Tm10MgZn3Co4
_symmetry_space_group_name_H-M   'P 1'
_cell_length_a   9.36436949
_cell_length_b   9.32726408
_cell_length_c   9.32726300
_cell_angle_alpha   60.00000737
_cell_angle_beta   60.13099625
_cell_angle_gamma   60.13099688
_symmetry_Int_Tables_number   1
_chemical_formula_structural   Y6Tm10MgZn3Co4
_chemical_formula_sum   'Y6 Tm10 Mg1 Zn3 Co4'
_cell_volume   577.20374459
_cell_formula_units_Z   1
loop_
 _symmetry_equiv_pos_site_id
 _symmetry_equiv_pos_as_xyz
  1  'x, y, z'
loop_
 _atom_site_type_symbol
 _atom_site_label
 _atom_site_symmetry_multiplicity
 _atom_site_fract_x
 _atom_site_fract_y
 _atom_site_fract_z
 _atom_site_occupancy
  Y  Y0  1  0.935218  0.560613  0.560613  1
  Y  Y1  1  0.559317  0.939389  0.939389  1
  Y  Y2  1  0.559317  0.939389  0.561906  1
  Y  Y3  1  0.935218  0.560613  0.943557  1
  Y  Y4  1  0.559317  0.561906  0.939389  1
  Y  Y5  1  0.935218  0.943557  0.560613  1
  Tm  Tm6  1  0.348591  0.346101  0.346101  1
  Tm  Tm7  1  0.348591  0.346101  0.959207  1
  Tm  Tm8  1  0.348591  0.959207  0.346101  1
  Tm  Tm9  1  0.949159  0.350280  0.350280  1
  Tm  Tm10  1  0.809315  0.189904  0.189904  1
  Tm  Tm11  1  0.185943  0.813482  0.813482  1
  Tm  Tm12  1  0.185943  0.813482  0.187094  1
  Tm  Tm13  1  0.809315  0.189904  0.810877  1
  Tm  Tm14  1  0.185943  0.187094  0.813482  1
  Tm  Tm15  1  0.809315  0.810877  0.189904  1
  Mg  Mg16  1  0.288208  0.570598  0.570598  1
  Zn  Zn17  1  0.584741  0.577250  0.577250  1
  Zn  Zn18  1  0.584741  0.577250  0.260760  1
  Zn  Zn19  1  0.584741  0.260760  0.577250  1
  Co  Co20  1  0.139301  0.142902  0.142902  1
  Co  Co21  1  0.139301  0.142902  0.574895  1
  Co  Co22  1  0.139301  0.574895  0.142902  1
  Co  Co23  1  0.575361  0.141546  0.141546  1
