# generated using pymatgen
data_Y4NiIr2Ru5
_symmetry_space_group_name_H-M   'P 1'
_cell_length_a   5.22122600
_cell_length_b   5.27186556
_cell_length_c   8.90390200
_cell_angle_alpha   90.00000000
_cell_angle_beta   90.00000000
_cell_angle_gamma   119.68276646
_symmetry_Int_Tables_number   1
_chemical_formula_structural   Y4NiIr2Ru5
_chemical_formula_sum   'Y4 Ni1 Ir2 Ru5'
_cell_volume   212.92529357
_cell_formula_units_Z   1
loop_
 _symmetry_equiv_pos_site_id
 _symmetry_equiv_pos_as_xyz
  1  'x, y, z'
loop_
 _atom_site_type_symbol
 _atom_site_label
 _atom_site_symmetry_multiplicity
 _atom_site_fract_x
 _atom_site_fract_y
 _atom_site_fract_z
 _atom_site_occupancy
  Y  Y0  1  0.668528  0.337056  0.066632  1
  Y  Y1  1  0.668528  0.337056  0.433367  1
  Y  Y2  1  0.333603  0.667205  0.569149  1
  Y  Y3  1  0.333603  0.667205  0.930851  1
  Ni  Ni4  1  0.834712  0.669424  0.750000  1
  Ir  Ir5  1  0.001641  0.003283  0.998705  1
  Ir  Ir6  1  0.001641  0.003283  0.501295  1
  Ru  Ru7  1  0.164920  0.329840  0.250000  1
  Ru  Ru8  1  0.172448  0.827698  0.250000  1
  Ru  Ru9  1  0.655251  0.827698  0.250000  1
  Ru  Ru10  1  0.341187  0.165126  0.750000  1
  Ru  Ru11  1  0.823939  0.165126  0.750000  1
