# generated using pymatgen
data_Eu(FeAs3)4
_symmetry_space_group_name_H-M   'P 1'
_cell_length_a   7.23049915
_cell_length_b   7.23177439
_cell_length_c   7.23581209
_cell_angle_alpha   109.48953703
_cell_angle_beta   109.40735330
_cell_angle_gamma   109.45612464
_symmetry_Int_Tables_number   1
_chemical_formula_structural   Eu(FeAs3)4
_chemical_formula_sum   'Eu1 Fe4 As12'
_cell_volume   291.47613108
_cell_formula_units_Z   1
loop_
 _symmetry_equiv_pos_site_id
 _symmetry_equiv_pos_as_xyz
  1  'x, y, z'
loop_
 _atom_site_type_symbol
 _atom_site_label
 _atom_site_symmetry_multiplicity
 _atom_site_fract_x
 _atom_site_fract_y
 _atom_site_fract_z
 _atom_site_occupancy
  Eu  Eu0  1  0.000000  0.000000  0.000000  1
  Fe  Fe1  1  0.000000  0.000000  0.500000  1
  Fe  Fe2  1  0.500000  0.000000  0.000000  1
  Fe  Fe3  1  0.000000  0.500000  0.000000  1
  Fe  Fe4  1  0.500000  0.500000  0.500000  1
  As  As5  1  0.344125  0.188113  0.844196  1
  As  As6  1  0.655875  0.811887  0.155804  1
  As  As7  1  0.656044  0.500100  0.844186  1
  As  As8  1  0.343956  0.499900  0.155814  1
  As  As9  1  0.188163  0.844084  0.344034  1
  As  As10  1  0.811837  0.155916  0.655966  1
  As  As11  1  0.500061  0.844046  0.655921  1
  As  As12  1  0.499939  0.155954  0.344079  1
  As  As13  1  0.844097  0.343954  0.188133  1
  As  As14  1  0.155903  0.656046  0.811867  1
  As  As15  1  0.844064  0.655923  0.499994  1
  As  As16  1  0.155936  0.344077  0.500006  1
