# generated using pymatgen
data_Lu12CuTc2Ru
_symmetry_space_group_name_H-M   'P 1'
_cell_length_a   6.20406975
_cell_length_b   7.21364654
_cell_length_c   8.93156100
_cell_angle_alpha   90.00000000
_cell_angle_beta   90.00000000
_cell_angle_gamma   89.59431211
_symmetry_Int_Tables_number   1
_chemical_formula_structural   Lu12CuTc2Ru
_chemical_formula_sum   'Lu12 Cu1 Tc2 Ru1'
_cell_volume   399.71275991
_cell_formula_units_Z   1
loop_
 _symmetry_equiv_pos_site_id
 _symmetry_equiv_pos_as_xyz
  1  'x, y, z'
loop_
 _atom_site_type_symbol
 _atom_site_label
 _atom_site_symmetry_multiplicity
 _atom_site_fract_x
 _atom_site_fract_y
 _atom_site_fract_z
 _atom_site_occupancy
  Lu  Lu0  1  0.337941  0.674782  0.058853  1
  Lu  Lu1  1  0.166449  0.183738  0.441332  1
  Lu  Lu2  1  0.664771  0.321721  0.562691  1
  Lu  Lu3  1  0.827470  0.820318  0.932613  1
  Lu  Lu4  1  0.664771  0.321721  0.937309  1
  Lu  Lu5  1  0.827470  0.820318  0.567387  1
  Lu  Lu6  1  0.337941  0.674782  0.441147  1
  Lu  Lu7  1  0.166449  0.183738  0.058668  1
  Lu  Lu8  1  0.873419  0.533374  0.250000  1
  Lu  Lu9  1  0.627233  0.039364  0.250000  1
  Lu  Lu10  1  0.126890  0.461147  0.750000  1
  Lu  Lu11  1  0.372009  0.960339  0.750000  1
  Cu  Cu12  1  0.048812  0.888619  0.250000  1
  Tc  Tc13  1  0.460335  0.387806  0.250000  1
  Tc  Tc14  1  0.964820  0.112767  0.750000  1
  Ru  Ru15  1  0.533218  0.615467  0.750000  1
