# generated using pymatgen
data_Zr4TiSi2GeN
_symmetry_space_group_name_H-M   'P 1'
_cell_length_a   7.89131114
_cell_length_b   7.88439081
_cell_length_c   5.53075878
_cell_angle_alpha   90.03065817
_cell_angle_beta   89.93874466
_cell_angle_gamma   120.02902236
_symmetry_Int_Tables_number   1
_chemical_formula_structural   Zr4TiSi2GeN
_chemical_formula_sum   'Zr8 Ti2 Si4 Ge2 N2'
_cell_volume   297.92388897
_cell_formula_units_Z   2
loop_
 _symmetry_equiv_pos_site_id
 _symmetry_equiv_pos_as_xyz
  1  'x, y, z'
loop_
 _atom_site_type_symbol
 _atom_site_label
 _atom_site_symmetry_multiplicity
 _atom_site_fract_x
 _atom_site_fract_y
 _atom_site_fract_z
 _atom_site_occupancy
  Zr  Zr0  1  0.232373  0.000000  0.750508  1
  Zr  Zr1  1  0.767627  0.000000  0.249492  1
  Zr  Zr2  1  0.001867  0.237024  0.750092  1
  Zr  Zr3  1  0.998133  0.762976  0.249908  1
  Zr  Zr4  1  0.764843  0.762976  0.750092  1
  Zr  Zr5  1  0.235157  0.237024  0.249908  1
  Zr  Zr6  1  0.669193  0.338386  0.000000  1
  Zr  Zr7  1  0.330807  0.661614  0.000000  1
  Ti  Ti8  1  0.331144  0.662289  0.500000  1
  Ti  Ti9  1  0.668856  0.337711  0.500000  1
  Si  Si10  1  0.000961  0.592013  0.730665  1
  Si  Si11  1  0.999039  0.407987  0.269335  1
  Si  Si12  1  0.408948  0.407987  0.730665  1
  Si  Si13  1  0.591052  0.592013  0.269335  1
  Ge  Ge14  1  0.592362  0.000000  0.735567  1
  Ge  Ge15  1  0.407638  0.000000  0.264433  1
  N  N16  1  0.000000  0.000000  0.500000  1
  N  N17  1  0.000000  0.000000  0.000000  1
