# generated using pymatgen
data_LaPr2(SnIr)3
_symmetry_space_group_name_H-M   'P 1'
_cell_length_a   7.57058100
_cell_length_b   7.54162429
_cell_length_c   4.21342300
_cell_angle_alpha   90.00000000
_cell_angle_beta   90.00000000
_cell_angle_gamma   120.12708957
_symmetry_Int_Tables_number   1
_chemical_formula_structural   LaPr2(SnIr)3
_chemical_formula_sum   'La1 Pr2 Sn3 Ir3'
_cell_volume   208.06651656
_cell_formula_units_Z   1
loop_
 _symmetry_equiv_pos_site_id
 _symmetry_equiv_pos_as_xyz
  1  'x, y, z'
loop_
 _atom_site_type_symbol
 _atom_site_label
 _atom_site_symmetry_multiplicity
 _atom_site_fract_x
 _atom_site_fract_y
 _atom_site_fract_z
 _atom_site_occupancy
  La  La0  1  0.587135  0.000000  0.000000  1
  Pr  Pr1  1  0.999898  0.589174  0.000000  1
  Pr  Pr2  1  0.410724  0.410826  0.000000  1
  Sn  Sn3  1  0.248196  0.000000  0.500000  1
  Sn  Sn4  1  0.001890  0.251414  0.500000  1
  Sn  Sn5  1  0.750476  0.748586  0.500000  1
  Ir  Ir6  1  0.335538  0.669224  0.500000  1
  Ir  Ir7  1  0.666315  0.330776  0.500000  1
  Ir  Ir8  1  0.999829  0.000000  0.000000  1
