# generated using pymatgen
data_Dy10SiHgPb6
_symmetry_space_group_name_H-M   'P 1'
_cell_length_a   9.27905500
_cell_length_b   9.27905581
_cell_length_c   6.77261400
_cell_angle_alpha   90.00000000
_cell_angle_beta   90.00000000
_cell_angle_gamma   120.00000068
_symmetry_Int_Tables_number   1
_chemical_formula_structural   Dy10SiHgPb6
_chemical_formula_sum   'Dy10 Si1 Hg1 Pb6'
_cell_volume   505.00361685
_cell_formula_units_Z   1
loop_
 _symmetry_equiv_pos_site_id
 _symmetry_equiv_pos_as_xyz
  1  'x, y, z'
loop_
 _atom_site_type_symbol
 _atom_site_label
 _atom_site_symmetry_multiplicity
 _atom_site_fract_x
 _atom_site_fract_y
 _atom_site_fract_z
 _atom_site_occupancy
  Dy  Dy0  1  0.257738  0.000000  0.275143  1
  Dy  Dy1  1  0.000000  0.742262  0.724857  1
  Dy  Dy2  1  0.000000  0.257738  0.275143  1
  Dy  Dy3  1  0.333333  0.666667  0.500000  1
  Dy  Dy4  1  0.742262  0.000000  0.724857  1
  Dy  Dy5  1  0.666667  0.333333  0.500000  1
  Dy  Dy6  1  0.257738  0.257738  0.724857  1
  Dy  Dy7  1  0.333333  0.666667  0.000000  1
  Dy  Dy8  1  0.666667  0.333333  0.000000  1
  Dy  Dy9  1  0.742262  0.742262  0.275143  1
  Si  Si10  1  0.000000  0.000000  0.500000  1
  Hg  Hg11  1  0.000000  0.000000  0.000000  1
  Pb  Pb12  1  0.609958  0.000000  0.249845  1
  Pb  Pb13  1  0.390042  0.000000  0.750155  1
  Pb  Pb14  1  0.000000  0.609958  0.249845  1
  Pb  Pb15  1  0.609958  0.609958  0.750155  1
  Pb  Pb16  1  0.390042  0.390042  0.249845  1
  Pb  Pb17  1  0.000000  0.390042  0.750155  1
