# generated using pymatgen
data_Pr3YZrP12Ru19
_symmetry_space_group_name_H-M   'P 1'
_cell_length_a   12.59438200
_cell_length_b   12.59438084
_cell_length_c   4.00458500
_cell_angle_alpha   90.00000000
_cell_angle_beta   90.00000000
_cell_angle_gamma   119.99999778
_symmetry_Int_Tables_number   1
_chemical_formula_structural   Pr3YZrP12Ru19
_chemical_formula_sum   'Pr3 Y1 Zr1 P12 Ru19'
_cell_volume   550.10024875
_cell_formula_units_Z   1
loop_
 _symmetry_equiv_pos_site_id
 _symmetry_equiv_pos_as_xyz
  1  'x, y, z'
loop_
 _atom_site_type_symbol
 _atom_site_label
 _atom_site_symmetry_multiplicity
 _atom_site_fract_x
 _atom_site_fract_y
 _atom_site_fract_z
 _atom_site_occupancy
  Pr  Pr0  1  0.815029  0.000529  0.500000  1
  Pr  Pr1  1  0.999471  0.814499  0.500000  1
  Pr  Pr2  1  0.185501  0.184971  0.500000  1
  Y  Y3  1  0.666667  0.333333  0.000000  1
  Zr  Zr4  1  0.333333  0.666667  0.000000  1
  P  P5  1  0.187750  0.998116  0.000000  1
  P  P6  1  0.001884  0.189634  0.000000  1
  P  P7  1  0.810366  0.812250  0.000000  1
  P  P8  1  0.519392  0.696991  0.500000  1
  P  P9  1  0.303009  0.822401  0.500000  1
  P  P10  1  0.177599  0.480608  0.500000  1
  P  P11  1  0.478149  0.172603  0.500000  1
  P  P12  1  0.694454  0.521851  0.500000  1
  P  P13  1  0.827397  0.305546  0.500000  1
  P  P14  1  0.626379  0.001200  0.000000  1
  P  P15  1  0.998800  0.625180  0.000000  1
  P  P16  1  0.374820  0.373621  0.000000  1
  Ru  Ru17  1  0.445493  0.998712  0.000000  1
  Ru  Ru18  1  0.001288  0.446780  0.000000  1
  Ru  Ru19  1  0.553220  0.554507  0.000000  1
  Ru  Ru20  1  0.286449  0.997847  0.500000  1
  Ru  Ru21  1  0.002153  0.288603  0.500000  1
  Ru  Ru22  1  0.711397  0.713551  0.500000  1
  Ru  Ru23  1  0.615645  0.803652  0.000000  1
  Ru  Ru24  1  0.196348  0.811993  0.000000  1
  Ru  Ru25  1  0.188007  0.384355  0.000000  1
  Ru  Ru26  1  0.380662  0.183679  0.000000  1
  Ru  Ru27  1  0.803019  0.619338  0.000000  1
  Ru  Ru28  1  0.816321  0.196981  0.000000  1
  Ru  Ru29  1  0.501329  0.871101  0.500000  1
  Ru  Ru30  1  0.128899  0.630229  0.500000  1
  Ru  Ru31  1  0.369771  0.498671  0.500000  1
  Ru  Ru32  1  0.492146  0.367521  0.500000  1
  Ru  Ru33  1  0.875375  0.507854  0.500000  1
  Ru  Ru34  1  0.632479  0.124625  0.500000  1
  Ru  Ru35  1  0.000000  0.000000  0.000000  1
