# generated using pymatgen
data_Er2Tm3Co19P12
_symmetry_space_group_name_H-M   'P 1'
_cell_length_a   11.94319500
_cell_length_b   11.94319588
_cell_length_c   3.65158500
_cell_angle_alpha   90.00000000
_cell_angle_beta   90.00000000
_cell_angle_gamma   120.00000033
_symmetry_Int_Tables_number   1
_chemical_formula_structural   Er2Tm3Co19P12
_chemical_formula_sum   'Er2 Tm3 Co19 P12'
_cell_volume   451.07953399
_cell_formula_units_Z   1
loop_
 _symmetry_equiv_pos_site_id
 _symmetry_equiv_pos_as_xyz
  1  'x, y, z'
loop_
 _atom_site_type_symbol
 _atom_site_label
 _atom_site_symmetry_multiplicity
 _atom_site_fract_x
 _atom_site_fract_y
 _atom_site_fract_z
 _atom_site_occupancy
  Er  Er0  1  0.333333  0.666667  0.000000  1
  Er  Er1  1  0.666667  0.333333  0.000000  1
  Tm  Tm2  1  0.000000  0.186780  0.500000  1
  Tm  Tm3  1  0.813220  0.813220  0.500000  1
  Tm  Tm4  1  0.186780  0.000000  0.500000  1
  Co  Co5  1  0.622922  0.821974  0.000000  1
  Co  Co6  1  0.178026  0.800948  0.000000  1
  Co  Co7  1  0.199052  0.377078  0.000000  1
  Co  Co8  1  0.377078  0.199052  0.000000  1
  Co  Co9  1  0.821974  0.622922  0.000000  1
  Co  Co10  1  0.800948  0.178026  0.000000  1
  Co  Co11  1  0.000000  0.552088  0.000000  1
  Co  Co12  1  0.447912  0.447912  0.000000  1
  Co  Co13  1  0.552088  0.000000  0.000000  1
  Co  Co14  1  0.516438  0.642036  0.500000  1
  Co  Co15  1  0.357964  0.874403  0.500000  1
  Co  Co16  1  0.125597  0.483562  0.500000  1
  Co  Co17  1  0.483562  0.125597  0.500000  1
  Co  Co18  1  0.642036  0.516438  0.500000  1
  Co  Co19  1  0.874403  0.357964  0.500000  1
  Co  Co20  1  0.000000  0.715392  0.500000  1
  Co  Co21  1  0.284608  0.284608  0.500000  1
  Co  Co22  1  0.715392  0.000000  0.500000  1
  Co  Co23  1  0.000000  0.000000  0.000000  1
  P  P24  1  0.000000  0.366981  0.000000  1
  P  P25  1  0.633019  0.633019  0.000000  1
  P  P26  1  0.366981  0.000000  0.000000  1
  P  P27  1  0.519580  0.834216  0.500000  1
  P  P28  1  0.165784  0.685364  0.500000  1
  P  P29  1  0.314636  0.480420  0.500000  1
  P  P30  1  0.480420  0.314636  0.500000  1
  P  P31  1  0.834216  0.519580  0.500000  1
  P  P32  1  0.685364  0.165784  0.500000  1
  P  P33  1  0.000000  0.820297  0.000000  1
  P  P34  1  0.179703  0.179703  0.000000  1
  P  P35  1  0.820297  0.000000  0.000000  1
