# generated using pymatgen
data_Rb2Hf6O13
_symmetry_space_group_name_H-M   'P 1'
_cell_length_a   8.77790606
_cell_length_b   8.77790661
_cell_length_c   9.81880072
_cell_angle_alpha   80.61301933
_cell_angle_beta   80.61301754
_cell_angle_gamma   26.48645344
_symmetry_Int_Tables_number   1
_chemical_formula_structural   Rb2Hf6O13
_chemical_formula_sum   'Rb2 Hf6 O13'
_cell_volume   332.64270339
_cell_formula_units_Z   1
loop_
 _symmetry_equiv_pos_site_id
 _symmetry_equiv_pos_as_xyz
  1  'x, y, z'
loop_
 _atom_site_type_symbol
 _atom_site_label
 _atom_site_symmetry_multiplicity
 _atom_site_fract_x
 _atom_site_fract_y
 _atom_site_fract_z
 _atom_site_occupancy
  Rb  Rb0  1  0.542907  0.542907  0.254921  1
  Rb  Rb1  1  0.457093  0.457093  0.745079  1
  Hf  Hf2  1  0.886632  0.886632  0.091709  1
  Hf  Hf3  1  0.113368  0.113368  0.908291  1
  Hf  Hf4  1  0.827593  0.827593  0.433690  1
  Hf  Hf5  1  0.172407  0.172407  0.566310  1
  Hf  Hf6  1  0.767840  0.767840  0.777045  1
  Hf  Hf7  1  0.232160  0.232160  0.222955  1
  O  O8  1  0.000000  0.000000  0.000000  1
  O  O9  1  0.763196  0.763196  0.242887  1
  O  O10  1  0.236804  0.236804  0.757113  1
  O  O11  1  0.920381  0.920381  0.288402  1
  O  O12  1  0.079619  0.079619  0.711598  1
  O  O13  1  0.706238  0.706238  0.572884  1
  O  O14  1  0.293762  0.293762  0.427116  1
  O  O15  1  0.861106  0.861106  0.616791  1
  O  O16  1  0.138894  0.138894  0.383209  1
  O  O17  1  0.645504  0.645504  0.884921  1
  O  O18  1  0.354496  0.354496  0.115079  1
  O  O19  1  0.835461  0.835461  0.916232  1
  O  O20  1  0.164539  0.164539  0.083768  1
