# generated using pymatgen
data_Ba4Zr3PbO12
_symmetry_space_group_name_H-M   'P 1'
_cell_length_a   6.03444051
_cell_length_b   6.03444061
_cell_length_c   10.45417064
_cell_angle_alpha   73.45266616
_cell_angle_beta   73.45266715
_cell_angle_gamma   59.99287628
_symmetry_Int_Tables_number   1
_chemical_formula_structural   Ba4Zr3PbO12
_chemical_formula_sum   'Ba4 Zr3 Pb1 O12'
_cell_volume   311.32211872
_cell_formula_units_Z   1
loop_
 _symmetry_equiv_pos_site_id
 _symmetry_equiv_pos_as_xyz
  1  'x, y, z'
loop_
 _atom_site_type_symbol
 _atom_site_label
 _atom_site_symmetry_multiplicity
 _atom_site_fract_x
 _atom_site_fract_y
 _atom_site_fract_z
 _atom_site_occupancy
  Ba  Ba0  1  0.124719  0.124719  0.624326  1
  Ba  Ba1  1  0.626314  0.626314  0.124666  1
  Ba  Ba2  1  0.373686  0.373686  0.875334  1
  Ba  Ba3  1  0.875281  0.875281  0.375674  1
  Zr  Zr4  1  0.748546  0.748546  0.753328  1
  Zr  Zr5  1  0.251454  0.251454  0.246672  1
  Zr  Zr6  1  0.000000  0.000000  0.000000  1
  Pb  Pb7  1  0.500000  0.500000  0.500000  1
  O  O8  1  0.891070  0.891070  0.859181  1
  O  O9  1  0.393588  0.393588  0.351517  1
  O  O10  1  0.606412  0.606412  0.648483  1
  O  O11  1  0.108930  0.108930  0.140819  1
  O  O12  1  0.107136  0.616215  0.618534  1
  O  O13  1  0.616971  0.116835  0.115070  1
  O  O14  1  0.883165  0.383029  0.884930  1
  O  O15  1  0.383785  0.892864  0.381466  1
  O  O16  1  0.616215  0.107136  0.618534  1
  O  O17  1  0.116835  0.616971  0.115070  1
  O  O18  1  0.383029  0.883165  0.884930  1
  O  O19  1  0.892864  0.383785  0.381466  1
