# generated using pymatgen
data_SmPu(B4Mo)2
_symmetry_space_group_name_H-M   'P 1'
_cell_length_a   3.65364800
_cell_length_b   6.05011528
_cell_length_c   11.70528245
_cell_angle_alpha   89.90030978
_cell_angle_beta   90.00000000
_cell_angle_gamma   90.00000000
_symmetry_Int_Tables_number   1
_chemical_formula_structural   SmPu(B4Mo)2
_chemical_formula_sum   'Sm2 Pu2 B16 Mo4'
_cell_volume   258.74477844
_cell_formula_units_Z   2
loop_
 _symmetry_equiv_pos_site_id
 _symmetry_equiv_pos_as_xyz
  1  'x, y, z'
loop_
 _atom_site_type_symbol
 _atom_site_label
 _atom_site_symmetry_multiplicity
 _atom_site_fract_x
 _atom_site_fract_y
 _atom_site_fract_z
 _atom_site_occupancy
  Sm  Sm0  1  0.000000  0.625683  0.349685  1
  Sm  Sm1  1  0.000000  0.374317  0.650315  1
  Pu  Pu2  1  0.000000  0.125763  0.150582  1
  Pu  Pu3  1  0.000000  0.874237  0.849418  1
  B  B4  1  0.500000  0.787740  0.184974  1
  B  B5  1  0.500000  0.212260  0.815026  1
  B  B6  1  0.500000  0.284134  0.312501  1
  B  B7  1  0.500000  0.715866  0.687499  1
  B  B8  1  0.500000  0.866490  0.031880  1
  B  B9  1  0.500000  0.133510  0.968120  1
  B  B10  1  0.500000  0.364767  0.467454  1
  B  B11  1  0.500000  0.635233  0.532546  1
  B  B12  1  0.500000  0.886967  0.453233  1
  B  B13  1  0.500000  0.113033  0.546767  1
  B  B14  1  0.500000  0.384436  0.047135  1
  B  B15  1  0.500000  0.615564  0.952865  1
  B  B16  1  0.500000  0.977005  0.306385  1
  B  B17  1  0.500000  0.022995  0.693615  1
  B  B18  1  0.500000  0.472314  0.191776  1
  B  B19  1  0.500000  0.527686  0.808224  1
  Mo  Mo20  1  0.000000  0.631348  0.084177  1
  Mo  Mo21  1  0.000000  0.368652  0.915823  1
  Mo  Mo22  1  0.000000  0.129095  0.415057  1
  Mo  Mo23  1  0.000000  0.870905  0.584943  1
