# generated using pymatgen
data_CaNd3Er4(B6Os)4
_symmetry_space_group_name_H-M   'P 1'
_cell_length_a   3.67836000
_cell_length_b   9.20333296
_cell_length_c   11.63461624
_cell_angle_alpha   90.08146565
_cell_angle_beta   90.00000000
_cell_angle_gamma   90.00000000
_symmetry_Int_Tables_number   1
_chemical_formula_structural   CaNd3Er4(B6Os)4
_chemical_formula_sum   'Ca1 Nd3 Er4 B24 Os4'
_cell_volume   393.86826440
_cell_formula_units_Z   1
loop_
 _symmetry_equiv_pos_site_id
 _symmetry_equiv_pos_as_xyz
  1  'x, y, z'
loop_
 _atom_site_type_symbol
 _atom_site_label
 _atom_site_symmetry_multiplicity
 _atom_site_fract_x
 _atom_site_fract_y
 _atom_site_fract_z
 _atom_site_occupancy
  Ca  Ca0  1  0.000000  0.177965  0.914102  1
  Nd  Nd1  1  0.000000  0.321959  0.414588  1
  Nd  Nd2  1  0.000000  0.677327  0.586816  1
  Nd  Nd3  1  0.000000  0.824010  0.084764  1
  Er  Er4  1  0.000000  0.944549  0.371449  1
  Er  Er5  1  0.000000  0.056519  0.629629  1
  Er  Er6  1  0.000000  0.442299  0.126927  1
  Er  Er7  1  0.000000  0.555283  0.871927  1
  B  B8  1  0.500000  0.556045  0.430043  1
  B  B9  1  0.500000  0.443782  0.570272  1
  B  B10  1  0.500000  0.056429  0.067834  1
  B  B11  1  0.500000  0.946187  0.930553  1
  B  B12  1  0.500000  0.749894  0.417009  1
  B  B13  1  0.500000  0.250343  0.584009  1
  B  B14  1  0.500000  0.249085  0.081045  1
  B  B15  1  0.500000  0.751322  0.916906  1
  B  B16  1  0.500000  0.790553  0.266543  1
  B  B17  1  0.500000  0.208615  0.734998  1
  B  B18  1  0.500000  0.290091  0.232242  1
  B  B19  1  0.500000  0.709395  0.767327  1
  B  B20  1  0.500000  0.630328  0.185182  1
  B  B21  1  0.500000  0.368062  0.815368  1
  B  B22  1  0.500000  0.130587  0.313844  1
  B  B23  1  0.500000  0.869944  0.686844  1
  B  B24  1  0.500000  0.985832  0.213051  1
  B  B25  1  0.500000  0.016626  0.787274  1
  B  B26  1  0.500000  0.484960  0.285400  1
  B  B27  1  0.500000  0.513874  0.714455  1
  B  B28  1  0.500000  0.601378  0.027652  1
  B  B29  1  0.500000  0.397034  0.971740  1
  B  B30  1  0.500000  0.101729  0.472405  1
  B  B31  1  0.500000  0.898263  0.527965  1
  Os  Os32  1  0.000000  0.639098  0.319198  1
  Os  Os33  1  0.000000  0.360615  0.680662  1
  Os  Os34  1  0.000000  0.139443  0.180412  1
  Os  Os35  1  0.000000  0.860571  0.819567  1
