# generated using pymatgen
data_Dy5Ni17(P6W)2
_symmetry_space_group_name_H-M   'P 1'
_cell_length_a   12.17314371
_cell_length_b   12.17253476
_cell_length_c   3.73516000
_cell_angle_alpha   90.00000000
_cell_angle_beta   90.00000000
_cell_angle_gamma   119.99833809
_symmetry_Int_Tables_number   1
_chemical_formula_structural   Dy5Ni17(P6W)2
_chemical_formula_sum   'Dy5 Ni17 P12 W2'
_cell_volume   479.32588980
_cell_formula_units_Z   1
loop_
 _symmetry_equiv_pos_site_id
 _symmetry_equiv_pos_as_xyz
  1  'x, y, z'
loop_
 _atom_site_type_symbol
 _atom_site_label
 _atom_site_symmetry_multiplicity
 _atom_site_fract_x
 _atom_site_fract_y
 _atom_site_fract_z
 _atom_site_occupancy
  Dy  Dy0  1  0.667967  0.333904  0.000000  1
  Dy  Dy1  1  0.332033  0.665938  0.000000  1
  Dy  Dy2  1  0.185093  0.185632  0.500000  1
  Dy  Dy3  1  0.814907  0.000539  0.500000  1
  Dy  Dy4  1  0.000000  0.812555  0.500000  1
  Ni  Ni5  1  0.000000  0.447111  0.000000  1
  Ni  Ni6  1  0.817331  0.196824  0.000000  1
  Ni  Ni7  1  0.807046  0.623481  0.000000  1
  Ni  Ni8  1  0.376903  0.182326  0.000000  1
  Ni  Ni9  1  0.192954  0.816435  0.000000  1
  Ni  Ni10  1  0.623097  0.805422  0.000000  1
  Ni  Ni11  1  0.182669  0.379493  0.000000  1
  Ni  Ni12  1  0.641770  0.124275  0.500000  1
  Ni  Ni13  1  0.874401  0.514338  0.500000  1
  Ni  Ni14  1  0.484744  0.358390  0.500000  1
  Ni  Ni15  1  0.125599  0.639938  0.500000  1
  Ni  Ni16  1  0.515256  0.873647  0.500000  1
  Ni  Ni17  1  0.358230  0.482505  0.500000  1
  Ni  Ni18  1  0.719926  0.720185  0.500000  1
  Ni  Ni19  1  0.280074  0.000260  0.500000  1
  Ni  Ni20  1  0.000000  0.286454  0.500000  1
  Ni  Ni21  1  0.000000  0.001075  0.000000  1
  P  P22  1  0.363016  0.362832  0.000000  1
  P  P23  1  0.636984  0.999816  0.000000  1
  P  P24  1  0.000000  0.631081  0.000000  1
  P  P25  1  0.834788  0.313852  0.500000  1
  P  P26  1  0.687161  0.521326  0.500000  1
  P  P27  1  0.480013  0.164928  0.500000  1
  P  P28  1  0.312839  0.834165  0.500000  1
  P  P29  1  0.519987  0.684915  0.500000  1
  P  P30  1  0.165212  0.479062  0.500000  1
  P  P31  1  0.822682  0.822268  0.000000  1
  P  P32  1  0.177318  0.999586  0.000000  1
  P  P33  1  0.000000  0.179502  0.000000  1
  W  W34  1  0.558543  0.557242  0.000000  1
  W  W35  1  0.441457  0.998699  0.000000  1
