# generated using pymatgen
data_Hf3TiGaGe2Mo
_symmetry_space_group_name_H-M   'P 1'
_cell_length_a   7.84728677
_cell_length_b   7.84728800
_cell_length_c   5.31957202
_cell_angle_alpha   90.00533969
_cell_angle_beta   90.00534276
_cell_angle_gamma   120.17155162
_symmetry_Int_Tables_number   1
_chemical_formula_structural   Hf3TiGaGe2Mo
_chemical_formula_sum   'Hf6 Ti2 Ga2 Ge4 Mo2'
_cell_volume   283.19989191
_cell_formula_units_Z   2
loop_
 _symmetry_equiv_pos_site_id
 _symmetry_equiv_pos_as_xyz
  1  'x, y, z'
loop_
 _atom_site_type_symbol
 _atom_site_label
 _atom_site_symmetry_multiplicity
 _atom_site_fract_x
 _atom_site_fract_y
 _atom_site_fract_z
 _atom_site_occupancy
  Hf  Hf0  1  0.251303  0.001067  0.246068  1
  Hf  Hf1  1  0.748697  0.998933  0.753932  1
  Hf  Hf2  1  0.001067  0.251303  0.246068  1
  Hf  Hf3  1  0.998933  0.748697  0.753932  1
  Hf  Hf4  1  0.752971  0.752971  0.245104  1
  Hf  Hf5  1  0.247029  0.247029  0.754896  1
  Ti  Ti6  1  0.668043  0.331957  0.500000  1
  Ti  Ti7  1  0.331957  0.668043  0.500000  1
  Ga  Ga8  1  0.401179  0.401179  0.248535  1
  Ga  Ga9  1  0.598821  0.598821  0.751465  1
  Ge  Ge10  1  0.604150  0.998906  0.248703  1
  Ge  Ge11  1  0.395850  0.001094  0.751297  1
  Ge  Ge12  1  0.998906  0.604150  0.248703  1
  Ge  Ge13  1  0.001094  0.395850  0.751297  1
  Mo  Mo14  1  0.331024  0.668976  0.000000  1
  Mo  Mo15  1  0.668976  0.331024  0.000000  1
