# generated using pymatgen
data_Tb2YMg3Ga2Hg
_symmetry_space_group_name_H-M   'P 1'
_cell_length_a   7.43225500
_cell_length_b   7.42655302
_cell_length_c   4.40287500
_cell_angle_alpha   90.00000000
_cell_angle_beta   90.00000000
_cell_angle_gamma   120.02539686
_symmetry_Int_Tables_number   1
_chemical_formula_structural   Tb2YMg3Ga2Hg
_chemical_formula_sum   'Tb2 Y1 Mg3 Ga2 Hg1'
_cell_volume   210.40869142
_cell_formula_units_Z   1
loop_
 _symmetry_equiv_pos_site_id
 _symmetry_equiv_pos_as_xyz
  1  'x, y, z'
loop_
 _atom_site_type_symbol
 _atom_site_label
 _atom_site_symmetry_multiplicity
 _atom_site_fract_x
 _atom_site_fract_y
 _atom_site_fract_z
 _atom_site_occupancy
  Tb  Tb0  1  0.000019  0.573323  0.000000  1
  Tb  Tb1  1  0.426696  0.426677  0.000000  1
  Y  Y2  1  0.573256  0.000000  0.000000  1
  Mg  Mg3  1  0.249737  0.000000  0.500000  1
  Mg  Mg4  1  0.000002  0.249714  0.500000  1
  Mg  Mg5  1  0.750287  0.750286  0.500000  1
  Ga  Ga6  1  0.333350  0.666690  0.500000  1
  Ga  Ga7  1  0.666661  0.333310  0.500000  1
  Hg  Hg8  1  0.999992  0.000000  0.000000  1
