# generated using pymatgen
data_Tb3(GeRu)2
_symmetry_space_group_name_H-M   'P 1'
_cell_length_a   5.58973100
_cell_length_b   7.77414700
_cell_length_c   13.57214500
_cell_angle_alpha   90.00000000
_cell_angle_beta   90.00000000
_cell_angle_gamma   90.00000000
_symmetry_Int_Tables_number   1
_chemical_formula_structural   Tb3(GeRu)2
_chemical_formula_sum   'Tb12 Ge8 Ru8'
_cell_volume   589.78286069
_cell_formula_units_Z   4
loop_
 _symmetry_equiv_pos_site_id
 _symmetry_equiv_pos_as_xyz
  1  'x, y, z'
loop_
 _atom_site_type_symbol
 _atom_site_label
 _atom_site_symmetry_multiplicity
 _atom_site_fract_x
 _atom_site_fract_y
 _atom_site_fract_z
 _atom_site_occupancy
  Tb  Tb0  1  0.848888  0.901194  0.599082  1
  Tb  Tb1  1  0.151112  0.401194  0.900918  1
  Tb  Tb2  1  0.848888  0.598806  0.099082  1
  Tb  Tb3  1  0.627895  0.266090  0.750000  1
  Tb  Tb4  1  0.627895  0.233910  0.250000  1
  Tb  Tb5  1  0.848888  0.598806  0.400918  1
  Tb  Tb6  1  0.372105  0.733910  0.250000  1
  Tb  Tb7  1  0.151112  0.098806  0.099082  1
  Tb  Tb8  1  0.151112  0.098806  0.400918  1
  Tb  Tb9  1  0.372105  0.766090  0.750000  1
  Tb  Tb10  1  0.151112  0.401194  0.599082  1
  Tb  Tb11  1  0.848888  0.901194  0.900918  1
  Ge  Ge12  1  0.375383  0.750000  0.500000  1
  Ge  Ge13  1  0.375383  0.750000  0.000000  1
  Ge  Ge14  1  0.126004  0.112857  0.750000  1
  Ge  Ge15  1  0.624617  0.250000  0.500000  1
  Ge  Ge16  1  0.126004  0.387143  0.250000  1
  Ge  Ge17  1  0.873996  0.887143  0.250000  1
  Ge  Ge18  1  0.873996  0.612857  0.750000  1
  Ge  Ge19  1  0.624617  0.250000  0.000000  1
  Ru  Ru20  1  0.352075  0.033104  0.908719  1
  Ru  Ru21  1  0.352075  0.466896  0.091281  1
  Ru  Ru22  1  0.647925  0.966896  0.091281  1
  Ru  Ru23  1  0.647925  0.533104  0.908719  1
  Ru  Ru24  1  0.647925  0.966896  0.408719  1
  Ru  Ru25  1  0.647925  0.533104  0.591281  1
  Ru  Ru26  1  0.352075  0.466896  0.408719  1
  Ru  Ru27  1  0.352075  0.033104  0.591281  1
