# generated using pymatgen
data_Ca4Yb6Bi5Pb
_symmetry_space_group_name_H-M   'P 1'
_cell_length_a   9.30635223
_cell_length_b   9.30886910
_cell_length_c   7.06054400
_cell_angle_alpha   90.00000000
_cell_angle_beta   90.00000000
_cell_angle_gamma   120.00895946
_symmetry_Int_Tables_number   1
_chemical_formula_structural   Ca4Yb6Bi5Pb
_chemical_formula_sum   'Ca4 Yb6 Bi5 Pb1'
_cell_volume   529.67074791
_cell_formula_units_Z   1
loop_
 _symmetry_equiv_pos_site_id
 _symmetry_equiv_pos_as_xyz
  1  'x, y, z'
loop_
 _atom_site_type_symbol
 _atom_site_label
 _atom_site_symmetry_multiplicity
 _atom_site_fract_x
 _atom_site_fract_y
 _atom_site_fract_z
 _atom_site_occupancy
  Ca  Ca0  1  0.739504  0.739834  0.250000  1
  Ca  Ca1  1  0.260496  0.000329  0.250000  1
  Ca  Ca2  1  0.000000  0.258746  0.250000  1
  Ca  Ca3  1  0.000000  0.733998  0.750000  1
  Yb  Yb4  1  0.669915  0.333279  0.502157  1
  Yb  Yb5  1  0.330085  0.663364  0.502157  1
  Yb  Yb6  1  0.330085  0.663364  0.997843  1
  Yb  Yb7  1  0.669915  0.333279  0.997843  1
  Yb  Yb8  1  0.260803  0.266516  0.750000  1
  Yb  Yb9  1  0.739197  0.005713  0.750000  1
  Bi  Bi10  1  0.387588  0.385246  0.250000  1
  Bi  Bi11  1  0.612412  0.997658  0.250000  1
  Bi  Bi12  1  0.000000  0.615016  0.250000  1
  Bi  Bi13  1  0.618287  0.619351  0.750000  1
  Bi  Bi14  1  0.381713  0.001064  0.750000  1
  Pb  Pb15  1  0.000000  0.383242  0.750000  1
