# generated using pymatgen
data_Ba2NiSb4Pd
_symmetry_space_group_name_H-M   'P 1'
_cell_length_a   9.57350002
_cell_length_b   9.57350020
_cell_length_c   4.98045600
_cell_angle_alpha   90.00000000
_cell_angle_beta   90.00000000
_cell_angle_gamma   150.45552196
_symmetry_Int_Tables_number   1
_chemical_formula_structural   Ba2NiSb4Pd
_chemical_formula_sum   'Ba2 Ni1 Sb4 Pd1'
_cell_volume   225.08407762
_cell_formula_units_Z   1
loop_
 _symmetry_equiv_pos_site_id
 _symmetry_equiv_pos_as_xyz
  1  'x, y, z'
loop_
 _atom_site_type_symbol
 _atom_site_label
 _atom_site_symmetry_multiplicity
 _atom_site_fract_x
 _atom_site_fract_y
 _atom_site_fract_z
 _atom_site_occupancy
  Ba  Ba0  1  0.394984  0.605016  0.750000  1
  Ba  Ba1  1  0.606739  0.393261  0.250000  1
  Ni  Ni2  1  0.811730  0.188270  0.250000  1
  Sb  Sb3  1  0.040451  0.959549  0.750000  1
  Sb  Sb4  1  0.951236  0.048764  0.250000  1
  Sb  Sb5  1  0.252196  0.747804  0.250000  1
  Sb  Sb6  1  0.755707  0.244293  0.750000  1
  Pd  Pd7  1  0.186959  0.813041  0.750000  1
