# generated using pymatgen
data_Ba2ZrSeS3
_symmetry_space_group_name_H-M   'P 1'
_cell_length_a   5.01377611
_cell_length_b   5.01377587
_cell_length_c   8.88135836
_cell_angle_alpha   106.39536996
_cell_angle_beta   106.39537241
_cell_angle_gamma   89.99999692
_symmetry_Int_Tables_number   1
_chemical_formula_structural   Ba2ZrSeS3
_chemical_formula_sum   'Ba2 Zr1 Se1 S3'
_cell_volume   204.70003738
_cell_formula_units_Z   1
loop_
 _symmetry_equiv_pos_site_id
 _symmetry_equiv_pos_as_xyz
  1  'x, y, z'
loop_
 _atom_site_type_symbol
 _atom_site_label
 _atom_site_symmetry_multiplicity
 _atom_site_fract_x
 _atom_site_fract_y
 _atom_site_fract_z
 _atom_site_occupancy
  Ba  Ba0  1  0.641783  0.641783  0.283567  1
  Ba  Ba1  1  0.361630  0.361630  0.723260  1
  Zr  Zr2  1  0.993118  0.993118  0.986236  1
  Se  Se3  1  0.166072  0.166072  0.332144  1
  S  S4  1  0.499656  0.999657  0.999315  1
  S  S5  1  0.999657  0.499656  0.999315  1
  S  S6  1  0.838081  0.838081  0.676163  1
