# generated using pymatgen
data_Dy4ReOsC4
_symmetry_space_group_name_H-M   'P 1'
_cell_length_a   5.12315400
_cell_length_b   6.53813427
_cell_length_c   9.83019210
_cell_angle_alpha   89.79474016
_cell_angle_beta   90.00000000
_cell_angle_gamma   90.00000000
_symmetry_Int_Tables_number   1
_chemical_formula_structural   Dy4ReOsC4
_chemical_formula_sum   'Dy8 Re2 Os2 C8'
_cell_volume   329.26871140
_cell_formula_units_Z   2
loop_
 _symmetry_equiv_pos_site_id
 _symmetry_equiv_pos_as_xyz
  1  'x, y, z'
loop_
 _atom_site_type_symbol
 _atom_site_label
 _atom_site_symmetry_multiplicity
 _atom_site_fract_x
 _atom_site_fract_y
 _atom_site_fract_z
 _atom_site_occupancy
  Dy  Dy0  1  0.250000  0.679418  0.554590  1
  Dy  Dy1  1  0.750000  0.320582  0.445410  1
  Dy  Dy2  1  0.750000  0.819334  0.055220  1
  Dy  Dy3  1  0.250000  0.180666  0.944780  1
  Dy  Dy4  1  0.250000  0.530992  0.215202  1
  Dy  Dy5  1  0.750000  0.469008  0.784798  1
  Dy  Dy6  1  0.750000  0.970642  0.714006  1
  Dy  Dy7  1  0.250000  0.029358  0.285994  1
  Re  Re8  1  0.250000  0.723146  0.864955  1
  Re  Re9  1  0.750000  0.276854  0.135045  1
  Os  Os10  1  0.750000  0.775592  0.364601  1
  Os  Os11  1  0.250000  0.224408  0.635399  1
  C  C12  1  0.250000  0.457399  0.759481  1
  C  C13  1  0.750000  0.542601  0.240519  1
  C  C14  1  0.750000  0.042049  0.258488  1
  C  C15  1  0.250000  0.957951  0.741512  1
  C  C16  1  0.250000  0.822501  0.050716  1
  C  C17  1  0.750000  0.177499  0.949284  1
  C  C18  1  0.750000  0.676547  0.549978  1
  C  C19  1  0.250000  0.323453  0.450022  1
