# generated using pymatgen
data_DyTaFe4P3
_symmetry_space_group_name_H-M   'P 1'
_cell_length_a   3.67678400
_cell_length_b   10.45789400
_cell_length_c   12.37793000
_cell_angle_alpha   90.00000000
_cell_angle_beta   90.00000000
_cell_angle_gamma   90.00000000
_symmetry_Int_Tables_number   1
_chemical_formula_structural   DyTaFe4P3
_chemical_formula_sum   'Dy4 Ta4 Fe16 P12'
_cell_volume   475.94895215
_cell_formula_units_Z   4
loop_
 _symmetry_equiv_pos_site_id
 _symmetry_equiv_pos_as_xyz
  1  'x, y, z'
loop_
 _atom_site_type_symbol
 _atom_site_label
 _atom_site_symmetry_multiplicity
 _atom_site_fract_x
 _atom_site_fract_y
 _atom_site_fract_z
 _atom_site_occupancy
  Dy  Dy0  1  0.250000  0.583322  0.713413  1
  Dy  Dy1  1  0.250000  0.916678  0.213413  1
  Dy  Dy2  1  0.750000  0.416678  0.286587  1
  Dy  Dy3  1  0.750000  0.083322  0.786587  1
  Ta  Ta4  1  0.250000  0.703289  0.992914  1
  Ta  Ta5  1  0.250000  0.796711  0.492914  1
  Ta  Ta6  1  0.750000  0.296711  0.007086  1
  Ta  Ta7  1  0.750000  0.203289  0.507086  1
  Fe  Fe8  1  0.250000  0.417065  0.491513  1
  Fe  Fe9  1  0.250000  0.082935  0.991513  1
  Fe  Fe10  1  0.750000  0.582935  0.508487  1
  Fe  Fe11  1  0.750000  0.917065  0.008487  1
  Fe  Fe12  1  0.250000  0.216137  0.170066  1
  Fe  Fe13  1  0.250000  0.283863  0.670066  1
  Fe  Fe14  1  0.750000  0.783863  0.829934  1
  Fe  Fe15  1  0.750000  0.716137  0.329934  1
  Fe  Fe16  1  0.250000  0.879313  0.697432  1
  Fe  Fe17  1  0.250000  0.620687  0.197432  1
  Fe  Fe18  1  0.750000  0.120687  0.302568  1
  Fe  Fe19  1  0.750000  0.379313  0.802568  1
  Fe  Fe20  1  0.250000  0.464015  0.934247  1
  Fe  Fe21  1  0.250000  0.035985  0.434247  1
  Fe  Fe22  1  0.750000  0.535985  0.065753  1
  Fe  Fe23  1  0.750000  0.964015  0.565753  1
  P  P24  1  0.250000  0.424592  0.112844  1
  P  P25  1  0.250000  0.075408  0.612844  1
  P  P26  1  0.750000  0.575408  0.887156  1
  P  P27  1  0.750000  0.924592  0.387156  1
  P  P28  1  0.250000  0.274332  0.853863  1
  P  P29  1  0.250000  0.225668  0.353863  1
  P  P30  1  0.750000  0.725668  0.146137  1
  P  P31  1  0.750000  0.774332  0.646137  1
  P  P32  1  0.250000  0.597607  0.375877  1
  P  P33  1  0.250000  0.902393  0.875877  1
  P  P34  1  0.750000  0.402393  0.624123  1
  P  P35  1  0.750000  0.097607  0.124123  1
