# generated using pymatgen
data_Tb2Th(InNi)3
_symmetry_space_group_name_H-M   'P 1'
_cell_length_a   7.40181676
_cell_length_b   7.40181684
_cell_length_c   3.89145500
_cell_angle_alpha   90.00000000
_cell_angle_beta   90.00000000
_cell_angle_gamma   118.86705164
_symmetry_Int_Tables_number   1
_chemical_formula_structural   Tb2Th(InNi)3
_chemical_formula_sum   'Tb2 Th1 In3 Ni3'
_cell_volume   186.70889209
_cell_formula_units_Z   1
loop_
 _symmetry_equiv_pos_site_id
 _symmetry_equiv_pos_as_xyz
  1  'x, y, z'
loop_
 _atom_site_type_symbol
 _atom_site_label
 _atom_site_symmetry_multiplicity
 _atom_site_fract_x
 _atom_site_fract_y
 _atom_site_fract_z
 _atom_site_occupancy
  Tb  Tb0  1  0.411271  0.999915  0.500000  1
  Tb  Tb1  1  0.999915  0.411271  0.500000  1
  Th  Th2  1  0.583909  0.583909  0.500000  1
  In  In3  1  0.750433  0.010130  0.000000  1
  In  In4  1  0.010130  0.750433  0.000000  1
  In  In5  1  0.240235  0.240235  0.000000  1
  Ni  Ni6  1  0.346333  0.665558  0.000000  1
  Ni  Ni7  1  0.665558  0.346333  0.000000  1
  Ni  Ni8  1  0.992214  0.992214  0.500000  1
