# generated using pymatgen
data_Pr2Fe2RuN3
_symmetry_space_group_name_H-M   'P 1'
_cell_length_a   6.36702830
_cell_length_b   6.36702821
_cell_length_c   6.36649700
_cell_angle_alpha   89.74451348
_cell_angle_beta   89.74451349
_cell_angle_gamma   117.00920452
_symmetry_Int_Tables_number   1
_chemical_formula_structural   Pr2Fe2RuN3
_chemical_formula_sum   'Pr4 Fe4 Ru2 N6'
_cell_volume   229.93421531
_cell_formula_units_Z   2
loop_
 _symmetry_equiv_pos_site_id
 _symmetry_equiv_pos_as_xyz
  1  'x, y, z'
loop_
 _atom_site_type_symbol
 _atom_site_label
 _atom_site_symmetry_multiplicity
 _atom_site_fract_x
 _atom_site_fract_y
 _atom_site_fract_z
 _atom_site_occupancy
  Pr  Pr0  1  0.832026  0.671651  0.895713  1
  Pr  Pr1  1  0.328349  0.167974  0.604287  1
  Pr  Pr2  1  0.167974  0.328349  0.104287  1
  Pr  Pr3  1  0.671651  0.832026  0.395713  1
  Fe  Fe4  1  0.567689  0.167105  0.107542  1
  Fe  Fe5  1  0.432311  0.832895  0.892458  1
  Fe  Fe6  1  0.832895  0.432311  0.392458  1
  Fe  Fe7  1  0.167105  0.567689  0.607542  1
  Ru  Ru8  1  0.817860  0.182140  0.750000  1
  Ru  Ru9  1  0.182140  0.817860  0.250000  1
  N  N10  1  0.423784  0.576216  0.750000  1
  N  N11  1  0.576216  0.423784  0.250000  1
  N  N12  1  0.000106  0.733810  0.521439  1
  N  N13  1  0.733810  0.000106  0.021439  1
  N  N14  1  0.999894  0.266190  0.478561  1
  N  N15  1  0.266190  0.999894  0.978561  1
