# generated using pymatgen
data_La2Y3Ir4
_symmetry_space_group_name_H-M   'P 1'
_cell_length_a   7.54549700
_cell_length_b   7.69838000
_cell_length_c   14.74353300
_cell_angle_alpha   90.00000000
_cell_angle_beta   90.00000000
_cell_angle_gamma   90.00000000
_symmetry_Int_Tables_number   1
_chemical_formula_structural   La2Y3Ir4
_chemical_formula_sum   'La8 Y12 Ir16'
_cell_volume   856.42386636
_cell_formula_units_Z   4
loop_
 _symmetry_equiv_pos_site_id
 _symmetry_equiv_pos_as_xyz
  1  'x, y, z'
loop_
 _atom_site_type_symbol
 _atom_site_label
 _atom_site_symmetry_multiplicity
 _atom_site_fract_x
 _atom_site_fract_y
 _atom_site_fract_z
 _atom_site_occupancy
  La  La0  1  0.024621  0.178736  0.403160  1
  La  La1  1  0.524621  0.321264  0.403160  1
  La  La2  1  0.475379  0.678736  0.903160  1
  La  La3  1  0.475379  0.678736  0.596840  1
  La  La4  1  0.975379  0.821264  0.596840  1
  La  La5  1  0.975379  0.821264  0.903160  1
  La  La6  1  0.524621  0.321264  0.096840  1
  La  La7  1  0.024621  0.178736  0.096840  1
  Y  Y8  1  0.325632  0.177241  0.622772  1
  Y  Y9  1  0.674368  0.822759  0.377228  1
  Y  Y10  1  0.656119  0.994065  0.750000  1
  Y  Y11  1  0.174368  0.677241  0.377228  1
  Y  Y12  1  0.825632  0.322759  0.877228  1
  Y  Y13  1  0.825632  0.322759  0.622772  1
  Y  Y14  1  0.843881  0.494065  0.250000  1
  Y  Y15  1  0.343881  0.005935  0.250000  1
  Y  Y16  1  0.325632  0.177241  0.877228  1
  Y  Y17  1  0.174368  0.677241  0.122772  1
  Y  Y18  1  0.674368  0.822759  0.122772  1
  Y  Y19  1  0.156119  0.505935  0.750000  1
  Ir  Ir20  1  0.279717  0.870121  0.750000  1
  Ir  Ir21  1  0.470307  0.616022  0.250000  1
  Ir  Ir22  1  0.029693  0.116022  0.750000  1
  Ir  Ir23  1  0.529693  0.383978  0.750000  1
  Ir  Ir24  1  0.159758  0.471141  0.542539  1
  Ir  Ir25  1  0.970307  0.883978  0.250000  1
  Ir  Ir26  1  0.720283  0.129879  0.250000  1
  Ir  Ir27  1  0.840242  0.528859  0.042539  1
  Ir  Ir28  1  0.340242  0.971141  0.042539  1
  Ir  Ir29  1  0.159758  0.471141  0.957461  1
  Ir  Ir30  1  0.659758  0.028859  0.542539  1
  Ir  Ir31  1  0.340242  0.971141  0.457461  1
  Ir  Ir32  1  0.840242  0.528859  0.457461  1
  Ir  Ir33  1  0.779717  0.629879  0.750000  1
  Ir  Ir34  1  0.220283  0.370121  0.250000  1
  Ir  Ir35  1  0.659758  0.028859  0.957461  1
