# generated using pymatgen
data_Dy2Al2PdRh
_symmetry_space_group_name_H-M   'P 1'
_cell_length_a   4.34562100
_cell_length_b   6.87475100
_cell_length_c   7.86604900
_cell_angle_alpha   90.00000000
_cell_angle_beta   90.00000000
_cell_angle_gamma   90.00000000
_symmetry_Int_Tables_number   1
_chemical_formula_structural   Dy2Al2PdRh
_chemical_formula_sum   'Dy4 Al4 Pd2 Rh2'
_cell_volume   234.99870405
_cell_formula_units_Z   2
loop_
 _symmetry_equiv_pos_site_id
 _symmetry_equiv_pos_as_xyz
  1  'x, y, z'
loop_
 _atom_site_type_symbol
 _atom_site_label
 _atom_site_symmetry_multiplicity
 _atom_site_fract_x
 _atom_site_fract_y
 _atom_site_fract_z
 _atom_site_occupancy
  Dy  Dy0  1  0.250000  0.036206  0.322556  1
  Dy  Dy1  1  0.250000  0.536206  0.177444  1
  Dy  Dy2  1  0.750000  0.970288  0.681820  1
  Dy  Dy3  1  0.750000  0.470288  0.818180  1
  Al  Al4  1  0.250000  0.138436  0.935741  1
  Al  Al5  1  0.250000  0.638436  0.564259  1
  Al  Al6  1  0.750000  0.857799  0.058882  1
  Al  Al7  1  0.750000  0.357799  0.441118  1
  Pd  Pd8  1  0.750000  0.729572  0.379010  1
  Pd  Pd9  1  0.750000  0.229572  0.120990  1
  Rh  Rh10  1  0.250000  0.267700  0.618118  1
  Rh  Rh11  1  0.250000  0.767700  0.881882  1
