# generated using pymatgen
data_PrNd7In2IrOs
_symmetry_space_group_name_H-M   'P 1'
_cell_length_a   10.00034845
_cell_length_b   10.00034952
_cell_length_c   10.03664900
_cell_angle_alpha   59.87986360
_cell_angle_beta   59.87986006
_cell_angle_gamma   59.79373248
_symmetry_Int_Tables_number   1
_chemical_formula_structural   PrNd7In2IrOs
_chemical_formula_sum   'Pr2 Nd14 In4 Ir2 Os2'
_cell_volume   707.34926463
_cell_formula_units_Z   2
loop_
 _symmetry_equiv_pos_site_id
 _symmetry_equiv_pos_as_xyz
  1  'x, y, z'
loop_
 _atom_site_type_symbol
 _atom_site_label
 _atom_site_symmetry_multiplicity
 _atom_site_fract_x
 _atom_site_fract_y
 _atom_site_fract_z
 _atom_site_occupancy
  Pr  Pr0  1  0.561477  0.561477  0.938523  1
  Pr  Pr1  1  0.940787  0.940787  0.559213  1
  Nd  Nd2  1  0.346662  0.346662  0.348276  1
  Nd  Nd3  1  0.346662  0.346662  0.958398  1
  Nd  Nd4  1  0.345757  0.960109  0.347067  1
  Nd  Nd5  1  0.960109  0.345757  0.347067  1
  Nd  Nd6  1  0.810333  0.190898  0.191218  1
  Nd  Nd7  1  0.190898  0.810333  0.807552  1
  Nd  Nd8  1  0.190898  0.810333  0.191218  1
  Nd  Nd9  1  0.810333  0.190898  0.807552  1
  Nd  Nd10  1  0.191105  0.191105  0.808895  1
  Nd  Nd11  1  0.808641  0.808641  0.191359  1
  Nd  Nd12  1  0.939690  0.557970  0.561748  1
  Nd  Nd13  1  0.557970  0.939690  0.940590  1
  Nd  Nd14  1  0.557970  0.939690  0.561748  1
  Nd  Nd15  1  0.939690  0.557970  0.940590  1
  In  In16  1  0.579637  0.579637  0.579797  1
  In  In17  1  0.579637  0.579637  0.260928  1
  In  In18  1  0.579272  0.260187  0.580271  1
  In  In19  1  0.260187  0.579272  0.580271  1
  Ir  Ir20  1  0.141629  0.579570  0.139401  1
  Ir  Ir21  1  0.579570  0.141629  0.139401  1
  Os  Os22  1  0.140544  0.140544  0.137424  1
  Os  Os23  1  0.140544  0.140544  0.581489  1
