# generated using pymatgen
data_Y7Tm(ScBi3)2
_symmetry_space_group_name_H-M   'P 1'
_cell_length_a   8.13229600
_cell_length_b   9.42302603
_cell_length_c   11.98978304
_cell_angle_alpha   90.00967606
_cell_angle_beta   90.00000000
_cell_angle_gamma   90.00000000
_symmetry_Int_Tables_number   1
_chemical_formula_structural   Y7Tm(ScBi3)2
_chemical_formula_sum   'Y14 Tm2 Sc4 Bi12'
_cell_volume   918.78709596
_cell_formula_units_Z   2
loop_
 _symmetry_equiv_pos_site_id
 _symmetry_equiv_pos_as_xyz
  1  'x, y, z'
loop_
 _atom_site_type_symbol
 _atom_site_label
 _atom_site_symmetry_multiplicity
 _atom_site_fract_x
 _atom_site_fract_y
 _atom_site_fract_z
 _atom_site_occupancy
  Y  Y0  1  0.185404  0.749996  0.720555  1
  Y  Y1  1  0.685404  0.750004  0.779445  1
  Y  Y2  1  0.814732  0.249794  0.279625  1
  Y  Y3  1  0.314732  0.250206  0.220375  1
  Y  Y4  1  0.696390  0.936812  0.058825  1
  Y  Y5  1  0.196390  0.563188  0.441175  1
  Y  Y6  1  0.696597  0.563099  0.058821  1
  Y  Y7  1  0.196597  0.936901  0.441179  1
  Y  Y8  1  0.303429  0.063770  0.941172  1
  Y  Y9  1  0.803429  0.436230  0.558828  1
  Y  Y10  1  0.354574  0.750148  0.215064  1
  Y  Y11  1  0.854574  0.749852  0.284936  1
  Y  Y12  1  0.645668  0.249953  0.784812  1
  Y  Y13  1  0.145668  0.250047  0.715188  1
  Tm  Tm14  1  0.302841  0.434825  0.941114  1
  Tm  Tm15  1  0.802841  0.065175  0.558886  1
  Sc  Sc16  1  0.026159  0.749889  0.988059  1
  Sc  Sc17  1  0.526159  0.750111  0.511941  1
  Sc  Sc18  1  0.974727  0.250448  0.011742  1
  Sc  Sc19  1  0.474727  0.249552  0.488258  1
  Bi  Bi20  1  0.434856  0.003746  0.668201  1
  Bi  Bi21  1  0.934856  0.496254  0.831799  1
  Bi  Bi22  1  0.565771  0.503720  0.331533  1
  Bi  Bi23  1  0.065771  0.996280  0.168467  1
  Bi  Bi24  1  0.565930  0.996212  0.331988  1
  Bi  Bi25  1  0.065930  0.503788  0.168012  1
  Bi  Bi26  1  0.434141  0.496157  0.668509  1
  Bi  Bi27  1  0.934141  0.003843  0.831491  1
  Bi  Bi28  1  0.404072  0.748190  0.957494  1
  Bi  Bi29  1  0.904072  0.751810  0.542506  1
  Bi  Bi30  1  0.594709  0.250521  0.041905  1
  Bi  Bi31  1  0.094709  0.249479  0.458095  1
