# generated using pymatgen
data_CeNd5Al24Os7Au
_symmetry_space_group_name_H-M   'P 1'
_cell_length_a   8.94280191
_cell_length_b   8.94280164
_cell_length_c   9.65243612
_cell_angle_alpha   89.90502185
_cell_angle_beta   90.09497950
_cell_angle_gamma   119.97506822
_symmetry_Int_Tables_number   1
_chemical_formula_structural   CeNd5Al24Os7Au
_chemical_formula_sum   'Ce1 Nd5 Al24 Os7 Au1'
_cell_volume   668.68723567
_cell_formula_units_Z   1
loop_
 _symmetry_equiv_pos_site_id
 _symmetry_equiv_pos_as_xyz
  1  'x, y, z'
loop_
 _atom_site_type_symbol
 _atom_site_label
 _atom_site_symmetry_multiplicity
 _atom_site_fract_x
 _atom_site_fract_y
 _atom_site_fract_z
 _atom_site_occupancy
  Ce  Ce0  1  0.805057  0.194943  0.744114  1
  Nd  Nd1  1  0.189758  0.382615  0.249714  1
  Nd  Nd2  1  0.812456  0.616850  0.750648  1
  Nd  Nd3  1  0.617385  0.810242  0.249714  1
  Nd  Nd4  1  0.383150  0.187544  0.750648  1
  Nd  Nd5  1  0.191615  0.808385  0.254374  1
  Al  Al6  1  0.327916  0.672084  0.016822  1
  Al  Al7  1  0.670897  0.329103  0.984435  1
  Al  Al8  1  0.665261  0.334739  0.511412  1
  Al  Al9  1  0.333307  0.666693  0.487868  1
  Al  Al10  1  0.162371  0.325505  0.574705  1
  Al  Al11  1  0.837896  0.674025  0.425951  1
  Al  Al12  1  0.674495  0.837629  0.574705  1
  Al  Al13  1  0.848858  0.677122  0.077879  1
  Al  Al14  1  0.325975  0.162104  0.425951  1
  Al  Al15  1  0.150311  0.321486  0.921380  1
  Al  Al16  1  0.163603  0.836397  0.575568  1
  Al  Al17  1  0.322878  0.151142  0.077879  1
  Al  Al18  1  0.836692  0.163308  0.425290  1
  Al  Al19  1  0.678514  0.849689  0.921380  1
  Al  Al20  1  0.836412  0.163588  0.072567  1
  Al  Al21  1  0.163667  0.836333  0.926357  1
  Al  Al22  1  0.562161  0.122965  0.249024  1
  Al  Al23  1  0.437915  0.874855  0.751290  1
  Al  Al24  1  0.877035  0.437839  0.249024  1
  Al  Al25  1  0.125145  0.562085  0.751290  1
  Al  Al26  1  0.565132  0.434868  0.256178  1
  Al  Al27  1  0.435771  0.564229  0.743108  1
  Al  Al28  1  0.999035  0.000965  0.250457  1
  Al  Al29  1  0.999096  0.000904  0.749655  1
  Os  Os30  1  0.501445  0.001204  0.997996  1
  Os  Os31  1  0.998796  0.498555  0.997996  1
  Os  Os32  1  0.502327  0.002118  0.502842  1
  Os  Os33  1  0.997882  0.497673  0.502842  1
  Os  Os34  1  0.499403  0.500597  0.498985  1
  Os  Os35  1  0.000305  0.999695  0.999962  1
  Os  Os36  1  0.000515  0.999485  0.500161  1
  Au  Au37  1  0.499566  0.500434  0.999830  1
