# generated using pymatgen
data_SmTa3(PO4)6
_symmetry_space_group_name_H-M   'P 1'
_cell_length_a   8.90347742
_cell_length_b   9.16013728
_cell_length_c   8.90335300
_cell_angle_alpha   89.99773432
_cell_angle_beta   59.99885292
_cell_angle_gamma   119.07569698
_symmetry_Int_Tables_number   1
_chemical_formula_structural   SmTa3(PO4)6
_chemical_formula_sum   'Sm1 Ta3 P6 O24'
_cell_volume   520.49075867
_cell_formula_units_Z   1
loop_
 _symmetry_equiv_pos_site_id
 _symmetry_equiv_pos_as_xyz
  1  'x, y, z'
loop_
 _atom_site_type_symbol
 _atom_site_label
 _atom_site_symmetry_multiplicity
 _atom_site_fract_x
 _atom_site_fract_y
 _atom_site_fract_z
 _atom_site_occupancy
  Sm  Sm0  1  0.727570  0.091295  0.636160  1
  Ta  Ta1  1  0.283908  0.925753  0.358033  1
  Ta  Ta2  1  0.287204  0.430697  0.856385  1
  Ta  Ta3  1  0.716625  0.574847  0.141637  1
  P  P4  1  0.788005  0.747787  0.748574  1
  P  P5  1  0.473875  0.251153  0.535971  1
  P  P6  1  0.496531  0.747820  0.463326  1
  P  P7  1  0.241402  0.251211  0.222608  1
  P  P8  1  0.787250  0.251174  0.990091  1
  P  P9  1  0.211276  0.747800  0.040081  1
  O  O10  1  0.657118  0.906828  0.470793  1
  O  O11  1  0.991131  0.705806  0.106790  1
  O  O12  1  0.219472  0.583654  0.003940  1
  O  O13  1  0.232889  0.779770  0.203685  1
  O  O14  1  0.987811  0.274622  0.957345  1
  O  O15  1  0.796771  0.417176  0.033127  1
  O  O16  1  0.786462  0.240431  0.822609  1
  O  O17  1  0.812810  0.705936  0.901996  1
  O  O18  1  0.983549  0.779711  0.563357  1
  O  O19  1  0.631521  0.240564  0.545851  1
  O  O20  1  0.778806  0.906723  0.750187  1
  O  O21  1  0.587700  0.583588  0.776622  1
  O  O22  1  0.592238  0.085245  0.160712  1
  O  O23  1  0.587154  0.417094  0.379484  1
  O  O24  1  0.231983  0.274525  0.054836  1
  O  O25  1  0.329483  0.274572  0.713110  1
  O  O26  1  0.608060  0.705890  0.285157  1
  O  O27  1  0.332379  0.085156  0.506938  1
  O  O28  1  0.377697  0.906751  0.871951  1
  O  O29  1  0.360425  0.583677  0.635652  1
  O  O30  1  0.246113  0.085305  0.247075  1
  O  O31  1  0.450492  0.417259  0.169889  1
  O  O32  1  0.343190  0.779668  0.453001  1
  O  O33  1  0.063230  0.240513  0.390897  1
