# generated using pymatgen
data_Ac3InPd3Au2
_symmetry_space_group_name_H-M   'P 1'
_cell_length_a   7.99060700
_cell_length_b   7.84232758
_cell_length_c   4.07920300
_cell_angle_alpha   90.00000000
_cell_angle_beta   90.00000000
_cell_angle_gamma   119.38803356
_symmetry_Int_Tables_number   1
_chemical_formula_structural   Ac3InPd3Au2
_chemical_formula_sum   'Ac3 In1 Pd3 Au2'
_cell_volume   222.72856399
_cell_formula_units_Z   1
loop_
 _symmetry_equiv_pos_site_id
 _symmetry_equiv_pos_as_xyz
  1  'x, y, z'
loop_
 _atom_site_type_symbol
 _atom_site_label
 _atom_site_symmetry_multiplicity
 _atom_site_fract_x
 _atom_site_fract_y
 _atom_site_fract_z
 _atom_site_occupancy
  Ac  Ac0  1  0.408528  0.394988  0.500000  1
  Ac  Ac1  1  0.591472  0.986461  0.500000  1
  Ac  Ac2  1  0.000000  0.623750  0.500000  1
  In  In3  1  0.000000  0.254175  0.000000  1
  Pd  Pd4  1  0.679727  0.329577  0.000000  1
  Pd  Pd5  1  0.320273  0.649851  0.000000  1
  Pd  Pd6  1  0.000000  0.018425  0.500000  1
  Au  Au7  1  0.734526  0.738649  0.000000  1
  Au  Au8  1  0.265474  0.004123  0.000000  1
