# generated using pymatgen
data_Ce4LuSn3
_symmetry_space_group_name_H-M   'P 1'
_cell_length_a   9.17371823
_cell_length_b   9.17343988
_cell_length_c   9.17741500
_cell_angle_alpha   96.64322193
_cell_angle_beta   96.62212534
_cell_angle_gamma   140.24277573
_symmetry_Int_Tables_number   1
_chemical_formula_structural   Ce4LuSn3
_chemical_formula_sum   'Ce8 Lu2 Sn6'
_cell_volume   464.55737501
_cell_formula_units_Z   2
loop_
 _symmetry_equiv_pos_site_id
 _symmetry_equiv_pos_as_xyz
  1  'x, y, z'
loop_
 _atom_site_type_symbol
 _atom_site_label
 _atom_site_symmetry_multiplicity
 _atom_site_fract_x
 _atom_site_fract_y
 _atom_site_fract_z
 _atom_site_occupancy
  Ce  Ce0  1  0.906418  0.232140  0.138254  1
  Ce  Ce1  1  0.232150  0.094838  0.326665  1
  Ce  Ce2  1  0.767850  0.905162  0.673335  1
  Ce  Ce3  1  0.093582  0.767860  0.861746  1
  Ce  Ce4  1  0.733473  0.405287  0.138528  1
  Ce  Ce5  1  0.266527  0.594713  0.861472  1
  Ce  Ce6  1  0.595104  0.732838  0.328038  1
  Ce  Ce7  1  0.404896  0.267162  0.671962  1
  Lu  Lu8  1  0.749964  0.249888  0.499937  1
  Lu  Lu9  1  0.250036  0.750112  0.500063  1
  Sn  Sn10  1  0.749946  0.749964  0.000112  1
  Sn  Sn11  1  0.250054  0.250036  0.999888  1
  Sn  Sn12  1  0.846016  0.654112  0.499956  1
  Sn  Sn13  1  0.653938  0.153770  0.807818  1
  Sn  Sn14  1  0.346062  0.846230  0.192182  1
  Sn  Sn15  1  0.153984  0.345888  0.500044  1
