# generated using pymatgen
data_Yb6YHoBi6
_symmetry_space_group_name_H-M   'P 1'
_cell_length_a   8.17853793
_cell_length_b   8.37331159
_cell_length_c   8.37331100
_cell_angle_alpha   109.93762194
_cell_angle_beta   109.00069645
_cell_angle_gamma   109.00069025
_symmetry_Int_Tables_number   1
_chemical_formula_structural   Yb6YHoBi6
_chemical_formula_sum   'Yb6 Y1 Ho1 Bi6'
_cell_volume   443.95329938
_cell_formula_units_Z   1
loop_
 _symmetry_equiv_pos_site_id
 _symmetry_equiv_pos_as_xyz
  1  'x, y, z'
loop_
 _atom_site_type_symbol
 _atom_site_label
 _atom_site_symmetry_multiplicity
 _atom_site_fract_x
 _atom_site_fract_y
 _atom_site_fract_z
 _atom_site_occupancy
  Yb  Yb0  1  0.501019  0.999113  0.646563  1
  Yb  Yb1  1  0.354554  0.352417  0.353609  1
  Yb  Yb2  1  0.502136  0.001192  0.147583  1
  Yb  Yb3  1  0.001906  0.647450  0.500887  1
  Yb  Yb4  1  0.854457  0.853437  0.852550  1
  Yb  Yb5  1  0.000944  0.146391  0.498808  1
  Y  Y6  1  0.141712  0.500000  0.000000  1
  Ho  Ho7  1  0.641471  0.500000  0.000000  1
  Bi  Bi8  1  0.376998  0.622826  0.756353  1
  Bi  Bi9  1  0.876351  0.256081  0.122989  1
  Bi  Bi10  1  0.620646  0.743647  0.366473  1
  Bi  Bi11  1  0.120271  0.866908  0.243919  1
  Bi  Bi12  1  0.254172  0.133527  0.877174  1
  Bi  Bi13  1  0.753362  0.377011  0.633092  1
