# generated using pymatgen
data_Tm12Ni5Pb
_symmetry_space_group_name_H-M   'P 1'
_cell_length_a   8.22874622
_cell_length_b   8.22580006
_cell_length_c   8.22874622
_cell_angle_alpha   111.65556877
_cell_angle_beta   109.71110839
_cell_angle_gamma   107.09358683
_symmetry_Int_Tables_number   1
_chemical_formula_structural   Tm12Ni5Pb
_chemical_formula_sum   'Tm12 Ni5 Pb1'
_cell_volume   428.01083947
_cell_formula_units_Z   1
loop_
 _symmetry_equiv_pos_site_id
 _symmetry_equiv_pos_as_xyz
  1  'x, y, z'
loop_
 _atom_site_type_symbol
 _atom_site_label
 _atom_site_symmetry_multiplicity
 _atom_site_fract_x
 _atom_site_fract_y
 _atom_site_fract_z
 _atom_site_occupancy
  Tm  Tm0  1  0.403066  0.211819  0.191450  1
  Tm  Tm1  1  0.596934  0.788181  0.808550  1
  Tm  Tm2  1  0.020369  0.211819  0.808752  1
  Tm  Tm3  1  0.979631  0.788181  0.191248  1
  Tm  Tm4  1  0.180931  0.292641  0.473548  1
  Tm  Tm5  1  0.819069  0.707359  0.526452  1
  Tm  Tm6  1  0.180910  0.707359  0.888290  1
  Tm  Tm7  1  0.819090  0.292641  0.111710  1
  Tm  Tm8  1  0.322120  0.630139  0.308021  1
  Tm  Tm9  1  0.677880  0.369861  0.691979  1
  Tm  Tm10  1  0.322211  0.014073  0.691863  1
  Tm  Tm11  1  0.677789  0.985927  0.308137  1
  Ni  Ni12  1  0.000000  0.000000  0.000000  1
  Ni  Ni13  1  0.362649  0.000000  0.362649  1
  Ni  Ni14  1  0.637351  0.000000  0.637351  1
  Ni  Ni15  1  0.123691  0.623591  0.499900  1
  Ni  Ni16  1  0.876309  0.376409  0.500100  1
  Pb  Pb17  1  0.500000  0.500000  0.000000  1
