# generated using pymatgen
data_DySb2O6F
_symmetry_space_group_name_H-M   'P 1'
_cell_length_a   7.34257499
_cell_length_b   7.34257557
_cell_length_c   7.34257639
_cell_angle_alpha   120.36299410
_cell_angle_beta   119.32278333
_cell_angle_gamma   90.27469092
_symmetry_Int_Tables_number   1
_chemical_formula_structural   DySb2O6F
_chemical_formula_sum   'Dy2 Sb4 O12 F2'
_cell_volume   280.55016100
_cell_formula_units_Z   2
loop_
 _symmetry_equiv_pos_site_id
 _symmetry_equiv_pos_as_xyz
  1  'x, y, z'
loop_
 _atom_site_type_symbol
 _atom_site_label
 _atom_site_symmetry_multiplicity
 _atom_site_fract_x
 _atom_site_fract_y
 _atom_site_fract_z
 _atom_site_occupancy
  Dy  Dy0  1  0.500000  0.500000  0.000000  1
  Dy  Dy1  1  0.000000  0.500000  0.500000  1
  Sb  Sb2  1  0.000000  0.000000  0.000000  1
  Sb  Sb3  1  0.500000  0.000000  0.500000  1
  Sb  Sb4  1  0.500000  0.000000  0.000000  1
  Sb  Sb5  1  0.500000  0.500000  0.500000  1
  O  O6  1  0.182190  0.932190  0.250000  1
  O  O7  1  0.579707  0.329707  0.250000  1
  O  O8  1  0.175779  0.905833  0.844378  1
  O  O9  1  0.561457  0.331401  0.655622  1
  O  O10  1  0.561457  0.905833  0.230055  1
  O  O11  1  0.175779  0.331401  0.269945  1
  O  O12  1  0.817810  0.067810  0.750000  1
  O  O13  1  0.420293  0.670293  0.750000  1
  O  O14  1  0.824221  0.094167  0.155622  1
  O  O15  1  0.438543  0.668599  0.344378  1
  O  O16  1  0.438543  0.094167  0.769945  1
  O  O17  1  0.824221  0.668599  0.730055  1
  F  F18  1  0.854567  0.604567  0.250000  1
  F  F19  1  0.145433  0.395433  0.750000  1
