# generated using pymatgen
data_GdAg(CO3)2
_symmetry_space_group_name_H-M   'P 1'
_cell_length_a   6.40295687
_cell_length_b   6.40295696
_cell_length_c   6.40295743
_cell_angle_alpha   47.76660583
_cell_angle_beta   47.76659848
_cell_angle_gamma   47.76661548
_symmetry_Int_Tables_number   1
_chemical_formula_structural   GdAg(CO3)2
_chemical_formula_sum   'Gd1 Ag1 C2 O6'
_cell_volume   131.77135404
_cell_formula_units_Z   1
loop_
 _symmetry_equiv_pos_site_id
 _symmetry_equiv_pos_as_xyz
  1  'x, y, z'
loop_
 _atom_site_type_symbol
 _atom_site_label
 _atom_site_symmetry_multiplicity
 _atom_site_fract_x
 _atom_site_fract_y
 _atom_site_fract_z
 _atom_site_occupancy
  Gd  Gd0  1  0.500000  0.500000  0.500000  1
  Ag  Ag1  1  0.000000  0.000000  0.000000  1
  C  C2  1  0.245369  0.245369  0.245369  1
  C  C3  1  0.754631  0.754631  0.754631  1
  O  O4  1  0.983036  0.270626  0.481825  1
  O  O5  1  0.518175  0.016964  0.729374  1
  O  O6  1  0.729374  0.518175  0.016964  1
  O  O7  1  0.270626  0.481825  0.983036  1
  O  O8  1  0.481825  0.983036  0.270626  1
  O  O9  1  0.016964  0.729374  0.518175  1
