# generated using pymatgen
data_Eu3LuH10
_symmetry_space_group_name_H-M   'P 1'
_cell_length_a   6.51435677
_cell_length_b   6.51435641
_cell_length_c   6.51435554
_cell_angle_alpha   130.72564841
_cell_angle_beta   131.37167814
_cell_angle_gamma   71.73703636
_symmetry_Int_Tables_number   1
_chemical_formula_structural   Eu3LuH10
_chemical_formula_sum   'Eu3 Lu1 H10'
_cell_volume   153.80783253
_cell_formula_units_Z   1
loop_
 _symmetry_equiv_pos_site_id
 _symmetry_equiv_pos_as_xyz
  1  'x, y, z'
loop_
 _atom_site_type_symbol
 _atom_site_label
 _atom_site_symmetry_multiplicity
 _atom_site_fract_x
 _atom_site_fract_y
 _atom_site_fract_z
 _atom_site_occupancy
  Eu  Eu0  1  0.487670  0.987670  0.500000  1
  Eu  Eu1  1  0.736594  0.736594  0.000000  1
  Eu  Eu2  1  0.014848  0.514848  0.500000  1
  Lu  Lu3  1  0.266189  0.266189  0.000000  1
  H  H4  1  0.367297  0.341404  0.446324  1
  H  H5  1  0.895080  0.920973  0.553676  1
  H  H6  1  0.635989  0.133469  0.032959  1
  H  H7  1  0.100510  0.603030  0.967041  1
  H  H8  1  0.367297  0.920973  0.025893  1
  H  H9  1  0.895080  0.341404  0.974107  1
  H  H10  1  0.635989  0.603030  0.502520  1
  H  H11  1  0.100510  0.133469  0.497480  1
  H  H12  1  0.251722  0.751722  0.500000  1
  H  H13  1  0.495224  0.495224  0.000000  1
