# generated using pymatgen
data_Pr2Dy(YRh6)3
_symmetry_space_group_name_H-M   'P 1'
_cell_length_a   5.31955000
_cell_length_b   5.31954999
_cell_length_c   17.54752700
_cell_angle_alpha   90.00000000
_cell_angle_beta   90.00000000
_cell_angle_gamma   119.99998764
_symmetry_Int_Tables_number   1
_chemical_formula_structural   Pr2Dy(YRh6)3
_chemical_formula_sum   'Pr2 Dy1 Y3 Rh18'
_cell_volume   430.02766377
_cell_formula_units_Z   1
loop_
 _symmetry_equiv_pos_site_id
 _symmetry_equiv_pos_as_xyz
  1  'x, y, z'
loop_
 _atom_site_type_symbol
 _atom_site_label
 _atom_site_symmetry_multiplicity
 _atom_site_fract_x
 _atom_site_fract_y
 _atom_site_fract_z
 _atom_site_occupancy
  Pr  Pr0  1  0.333333  0.666667  0.749941  1
  Pr  Pr1  1  0.666667  0.333333  0.249924  1
  Dy  Dy2  1  0.333333  0.666667  0.958302  1
  Y  Y3  1  0.666667  0.333333  0.041110  1
  Y  Y4  1  0.666667  0.333333  0.458968  1
  Y  Y5  1  0.333333  0.666667  0.541672  1
  Rh  Rh6  1  0.167313  0.832687  0.375196  1
  Rh  Rh7  1  0.167313  0.334625  0.375196  1
  Rh  Rh8  1  0.665375  0.832687  0.375196  1
  Rh  Rh9  1  0.832663  0.167337  0.625430  1
  Rh  Rh10  1  0.832663  0.665326  0.625430  1
  Rh  Rh11  1  0.334674  0.167337  0.625430  1
  Rh  Rh12  1  0.832645  0.167355  0.874693  1
  Rh  Rh13  1  0.832645  0.665290  0.874693  1
  Rh  Rh14  1  0.334710  0.167355  0.874693  1
  Rh  Rh15  1  0.167398  0.832602  0.124743  1
  Rh  Rh16  1  0.167398  0.334796  0.124743  1
  Rh  Rh17  1  0.665204  0.832602  0.124743  1
  Rh  Rh18  1  0.333333  0.666667  0.250020  1
  Rh  Rh19  1  0.666667  0.333333  0.749949  1
  Rh  Rh20  1  0.000000  0.000000  0.249954  1
  Rh  Rh21  1  0.000000  0.000000  0.749969  1
  Rh  Rh22  1  0.000000  0.000000  0.500381  1
  Rh  Rh23  1  0.000000  0.000000  0.999625  1
