# generated using pymatgen
data_Ce3Th(NiB10)2
_symmetry_space_group_name_H-M   'P 1'
_cell_length_a   4.17240400
_cell_length_b   5.62250464
_cell_length_c   11.17753726
_cell_angle_alpha   90.05456518
_cell_angle_beta   90.00000000
_cell_angle_gamma   90.00000000
_symmetry_Int_Tables_number   1
_chemical_formula_structural   Ce3Th(NiB10)2
_chemical_formula_sum   'Ce3 Th1 Ni2 B20'
_cell_volume   262.21776113
_cell_formula_units_Z   1
loop_
 _symmetry_equiv_pos_site_id
 _symmetry_equiv_pos_as_xyz
  1  'x, y, z'
loop_
 _atom_site_type_symbol
 _atom_site_label
 _atom_site_symmetry_multiplicity
 _atom_site_fract_x
 _atom_site_fract_y
 _atom_site_fract_z
 _atom_site_occupancy
  Ce  Ce0  1  0.500000  0.312132  0.862119  1
  Ce  Ce1  1  0.500000  0.688678  0.136187  1
  Ce  Ce2  1  0.500000  0.811760  0.639656  1
  Th  Th3  1  0.500000  0.190676  0.363121  1
  Ni  Ni4  1  0.000000  0.499062  0.499956  1
  Ni  Ni5  1  0.000000  0.999516  0.000002  1
  B  B6  1  0.000000  0.123778  0.541533  1
  B  B7  1  0.000000  0.873168  0.459817  1
  B  B8  1  0.000000  0.625180  0.959159  1
  B  B9  1  0.000000  0.374845  0.040331  1
  B  B10  1  0.000000  0.155252  0.698259  1
  B  B11  1  0.000000  0.844834  0.302092  1
  B  B12  1  0.300815  0.201128  0.113371  1
  B  B13  1  0.300933  0.798793  0.886127  1
  B  B14  1  0.699354  0.700811  0.385704  1
  B  B15  1  0.699058  0.298336  0.614516  1
  B  B16  1  0.699067  0.798793  0.886127  1
  B  B17  1  0.699185  0.201128  0.113371  1
  B  B18  1  0.300942  0.298336  0.614516  1
  B  B19  1  0.300646  0.700811  0.385704  1
  B  B20  1  0.000000  0.033542  0.187569  1
  B  B21  1  0.000000  0.967052  0.812421  1
  B  B22  1  0.000000  0.534239  0.311441  1
  B  B23  1  0.000000  0.467099  0.687856  1
  B  B24  1  0.000000  0.345589  0.196865  1
  B  B25  1  0.000000  0.655464  0.802180  1
