# generated using pymatgen
data_La4Nd12Cd4Ni3Os
_symmetry_space_group_name_H-M   'P 1'
_cell_length_a   9.97517378
_cell_length_b   9.97517249
_cell_length_c   9.97517391
_cell_angle_alpha   59.55554593
_cell_angle_beta   59.55555206
_cell_angle_gamma   59.55554920
_symmetry_Int_Tables_number   1
_chemical_formula_structural   La4Nd12Cd4Ni3Os
_chemical_formula_sum   'La4 Nd12 Cd4 Ni3 Os1'
_cell_volume   694.76138380
_cell_formula_units_Z   1
loop_
 _symmetry_equiv_pos_site_id
 _symmetry_equiv_pos_as_xyz
  1  'x, y, z'
loop_
 _atom_site_type_symbol
 _atom_site_label
 _atom_site_symmetry_multiplicity
 _atom_site_fract_x
 _atom_site_fract_y
 _atom_site_fract_z
 _atom_site_occupancy
  La  La0  1  0.598156  0.598156  0.598156  1
  La  La1  1  0.598443  0.598443  0.207286  1
  La  La2  1  0.598443  0.207286  0.598443  1
  La  La3  1  0.207286  0.598443  0.598443  1
  Nd  Nd4  1  0.062607  0.437598  0.437598  1
  Nd  Nd5  1  0.436853  0.059953  0.059953  1
  Nd  Nd6  1  0.437598  0.062607  0.437598  1
  Nd  Nd7  1  0.059953  0.436853  0.059953  1
  Nd  Nd8  1  0.437598  0.437598  0.062607  1
  Nd  Nd9  1  0.059953  0.059953  0.436853  1
  Nd  Nd10  1  0.186033  0.815165  0.815165  1
  Nd  Nd11  1  0.804818  0.188719  0.188719  1
  Nd  Nd12  1  0.815165  0.186033  0.815165  1
  Nd  Nd13  1  0.188719  0.804818  0.188719  1
  Nd  Nd14  1  0.815165  0.815165  0.186033  1
  Nd  Nd15  1  0.188719  0.188719  0.804818  1
  Cd  Cd16  1  0.829927  0.829927  0.829927  1
  Cd  Cd17  1  0.829694  0.829694  0.508925  1
  Cd  Cd18  1  0.829694  0.508925  0.829694  1
  Cd  Cd19  1  0.508925  0.829694  0.829694  1
  Ni  Ni20  1  0.393469  0.393469  0.826177  1
  Ni  Ni21  1  0.393469  0.826177  0.393469  1
  Ni  Ni22  1  0.826177  0.393469  0.393469  1
  Os  Os23  1  0.393137  0.393137  0.393137  1
