# generated using pymatgen
data_Pr6Al24Ir5Ru2Au
_symmetry_space_group_name_H-M   'P 1'
_cell_length_a   8.97577500
_cell_length_b   8.95855496
_cell_length_c   9.67927217
_cell_angle_alpha   89.85827708
_cell_angle_beta   90.00000000
_cell_angle_gamma   120.06359483
_symmetry_Int_Tables_number   1
_chemical_formula_structural   Pr6Al24Ir5Ru2Au
_chemical_formula_sum   'Pr6 Al24 Ir5 Ru2 Au1'
_cell_volume   673.60114466
_cell_formula_units_Z   1
loop_
 _symmetry_equiv_pos_site_id
 _symmetry_equiv_pos_as_xyz
  1  'x, y, z'
loop_
 _atom_site_type_symbol
 _atom_site_label
 _atom_site_symmetry_multiplicity
 _atom_site_fract_x
 _atom_site_fract_y
 _atom_site_fract_z
 _atom_site_occupancy
  Pr  Pr0  1  0.190449  0.380899  0.253110  1
  Pr  Pr1  1  0.809551  0.619101  0.746890  1
  Pr  Pr2  1  0.620102  0.810248  0.248106  1
  Pr  Pr3  1  0.379898  0.189752  0.751894  1
  Pr  Pr4  1  0.190147  0.810248  0.248106  1
  Pr  Pr5  1  0.809853  0.189752  0.751894  1
  Al  Al6  1  0.328660  0.657320  0.026328  1
  Al  Al7  1  0.671340  0.342680  0.973672  1
  Al  Al8  1  0.666729  0.333455  0.525251  1
  Al  Al9  1  0.333271  0.666545  0.474749  1
  Al  Al10  1  0.163687  0.327374  0.574876  1
  Al  Al11  1  0.836313  0.672626  0.425124  1
  Al  Al12  1  0.673110  0.836254  0.572218  1
  Al  Al13  1  0.836389  0.672778  0.075312  1
  Al  Al14  1  0.326890  0.163746  0.427782  1
  Al  Al15  1  0.163611  0.327222  0.924688  1
  Al  Al16  1  0.163145  0.836254  0.572218  1
  Al  Al17  1  0.323156  0.170541  0.078035  1
  Al  Al18  1  0.836855  0.163746  0.427782  1
  Al  Al19  1  0.676844  0.829459  0.921965  1
  Al  Al20  1  0.847386  0.170541  0.078035  1
  Al  Al21  1  0.152614  0.829459  0.921965  1
  Al  Al22  1  0.565825  0.131650  0.256944  1
  Al  Al23  1  0.434175  0.868350  0.743056  1
  Al  Al24  1  0.874674  0.437897  0.250185  1
  Al  Al25  1  0.125326  0.562103  0.749815  1
  Al  Al26  1  0.563223  0.437897  0.250185  1
  Al  Al27  1  0.436777  0.562103  0.749815  1
  Al  Al28  1  0.999565  0.999130  0.250540  1
  Al  Al29  1  0.000435  0.000870  0.749460  1
  Ir  Ir30  1  0.000000  0.500000  0.000000  1
  Ir  Ir31  1  0.500000  0.000000  0.500000  1
  Ir  Ir32  1  0.500000  0.500000  0.000000  1
  Ir  Ir33  1  0.000000  0.500000  0.500000  1
  Ir  Ir34  1  0.500000  0.500000  0.500000  1
  Ru  Ru35  1  0.000000  0.000000  0.000000  1
  Ru  Ru36  1  0.000000  0.000000  0.500000  1
  Au  Au37  1  0.500000  0.000000  0.000000  1
