# generated using pymatgen
data_Tb6Al24NiIr5Ru2
_symmetry_space_group_name_H-M   'P 1'
_cell_length_a   8.82012200
_cell_length_b   8.79772286
_cell_length_c   9.49290027
_cell_angle_alpha   90.11646522
_cell_angle_beta   90.00000000
_cell_angle_gamma   120.08425731
_symmetry_Int_Tables_number   1
_chemical_formula_structural   Tb6Al24NiIr5Ru2
_chemical_formula_sum   'Tb6 Al24 Ni1 Ir5 Ru2'
_cell_volume   637.38797324
_cell_formula_units_Z   1
loop_
 _symmetry_equiv_pos_site_id
 _symmetry_equiv_pos_as_xyz
  1  'x, y, z'
loop_
 _atom_site_type_symbol
 _atom_site_label
 _atom_site_symmetry_multiplicity
 _atom_site_fract_x
 _atom_site_fract_y
 _atom_site_fract_z
 _atom_site_occupancy
  Tb  Tb0  1  0.383929  0.193386  0.250562  1
  Tb  Tb1  1  0.809457  0.193386  0.250562  1
  Tb  Tb2  1  0.807328  0.614657  0.250409  1
  Tb  Tb3  1  0.616071  0.806614  0.749438  1
  Tb  Tb4  1  0.190543  0.806614  0.749438  1
  Tb  Tb5  1  0.192672  0.385343  0.749591  1
  Al  Al6  1  0.439377  0.878755  0.253801  1
  Al  Al7  1  0.125901  0.563220  0.250471  1
  Al  Al8  1  0.437319  0.563220  0.250471  1
  Al  Al9  1  0.560623  0.121245  0.746199  1
  Al  Al10  1  0.874099  0.436780  0.749529  1
  Al  Al11  1  0.562681  0.436780  0.749529  1
  Al  Al12  1  0.163504  0.837178  0.422953  1
  Al  Al13  1  0.163913  0.327827  0.424040  1
  Al  Al14  1  0.673672  0.837178  0.422953  1
  Al  Al15  1  0.836496  0.162822  0.577047  1
  Al  Al16  1  0.836087  0.672173  0.575960  1
  Al  Al17  1  0.326328  0.162822  0.577047  1
  Al  Al18  1  0.836181  0.162654  0.923523  1
  Al  Al19  1  0.836585  0.673169  0.923937  1
  Al  Al20  1  0.326474  0.162654  0.923523  1
  Al  Al21  1  0.163819  0.837346  0.076477  1
  Al  Al22  1  0.163415  0.326831  0.076063  1
  Al  Al23  1  0.673526  0.837346  0.076477  1
  Al  Al24  1  0.335359  0.670719  0.527890  1
  Al  Al25  1  0.664641  0.329281  0.472110  1
  Al  Al26  1  0.666510  0.333017  0.027871  1
  Al  Al27  1  0.333490  0.666983  0.972129  1
  Al  Al28  1  0.000350  0.000701  0.249885  1
  Al  Al29  1  0.999650  0.999299  0.750115  1
  Ni  Ni30  1  0.500000  0.000000  0.500000  1
  Ir  Ir31  1  0.000000  0.500000  0.500000  1
  Ir  Ir32  1  0.500000  0.500000  0.500000  1
  Ir  Ir33  1  0.500000  0.000000  0.000000  1
  Ir  Ir34  1  0.000000  0.500000  0.000000  1
  Ir  Ir35  1  0.500000  0.500000  0.000000  1
  Ru  Ru36  1  0.000000  0.000000  0.500000  1
  Ru  Ru37  1  0.000000  0.000000  0.000000  1
