# generated using pymatgen
data_HfNb3V8
_symmetry_space_group_name_H-M   'P 1'
_cell_length_a   5.11333800
_cell_length_b   5.11333834
_cell_length_c   8.21015300
_cell_angle_alpha   90.00000000
_cell_angle_beta   90.00000000
_cell_angle_gamma   119.99999779
_symmetry_Int_Tables_number   1
_chemical_formula_structural   HfNb3V8
_chemical_formula_sum   'Hf1 Nb3 V8'
_cell_volume   185.90493700
_cell_formula_units_Z   1
loop_
 _symmetry_equiv_pos_site_id
 _symmetry_equiv_pos_as_xyz
  1  'x, y, z'
loop_
 _atom_site_type_symbol
 _atom_site_label
 _atom_site_symmetry_multiplicity
 _atom_site_fract_x
 _atom_site_fract_y
 _atom_site_fract_z
 _atom_site_occupancy
  Hf  Hf0  1  0.333334  0.666668  0.936690  1
  Nb  Nb1  1  0.666668  0.333334  0.064579  1
  Nb  Nb2  1  0.666668  0.333334  0.437526  1
  Nb  Nb3  1  0.333334  0.666668  0.560066  1
  V  V4  1  0.000000  0.000000  0.000264  1
  V  V5  1  0.169216  0.338433  0.252931  1
  V  V6  1  0.169215  0.830783  0.252931  1
  V  V7  1  0.661567  0.830783  0.252931  1
  V  V8  1  0.000000  0.000000  0.499771  1
  V  V9  1  0.339527  0.169763  0.747437  1
  V  V10  1  0.830236  0.169763  0.747437  1
  V  V11  1  0.830237  0.660472  0.747437  1
