# generated using pymatgen
data_SrY(NbS2)6
_symmetry_space_group_name_H-M   'P 1'
_cell_length_a   5.84628900
_cell_length_b   5.84628893
_cell_length_c   14.43767400
_cell_angle_alpha   90.00000000
_cell_angle_beta   90.00000000
_cell_angle_gamma   119.99999474
_symmetry_Int_Tables_number   1
_chemical_formula_structural   SrY(NbS2)6
_chemical_formula_sum   'Sr1 Y1 Nb6 S12'
_cell_volume   427.35465702
_cell_formula_units_Z   1
loop_
 _symmetry_equiv_pos_site_id
 _symmetry_equiv_pos_as_xyz
  1  'x, y, z'
loop_
 _atom_site_type_symbol
 _atom_site_label
 _atom_site_symmetry_multiplicity
 _atom_site_fract_x
 _atom_site_fract_y
 _atom_site_fract_z
 _atom_site_occupancy
  Sr  Sr0  1  0.000000  0.000000  0.500000  1
  Y  Y1  1  0.000000  0.000000  0.000000  1
  Nb  Nb2  1  0.000000  0.000000  0.761806  1
  Nb  Nb3  1  0.000000  0.000000  0.238194  1
  Nb  Nb4  1  0.333333  0.666667  0.238428  1
  Nb  Nb5  1  0.666667  0.333333  0.761572  1
  Nb  Nb6  1  0.666667  0.333333  0.238428  1
  Nb  Nb7  1  0.333333  0.666667  0.761572  1
  S  S8  1  0.338100  0.000000  0.129182  1
  S  S9  1  0.000000  0.338100  0.129182  1
  S  S10  1  0.661900  0.661900  0.129182  1
  S  S11  1  0.336213  0.336213  0.653148  1
  S  S12  1  0.663787  0.663787  0.346852  1
  S  S13  1  0.663787  0.000000  0.653148  1
  S  S14  1  0.000000  0.663787  0.653148  1
  S  S15  1  0.000000  0.661900  0.870818  1
  S  S16  1  0.338100  0.338100  0.870818  1
  S  S17  1  0.000000  0.336213  0.346852  1
  S  S18  1  0.336213  0.000000  0.346852  1
  S  S19  1  0.661900  0.000000  0.870818  1
