# generated using pymatgen
data_YErPt2F14
_symmetry_space_group_name_H-M   'P 1'
_cell_length_a   5.53838200
_cell_length_b   8.85988626
_cell_length_c   11.97401238
_cell_angle_alpha   62.53031620
_cell_angle_beta   90.00000000
_cell_angle_gamma   90.00000000
_symmetry_Int_Tables_number   1
_chemical_formula_structural   YErPt2F14
_chemical_formula_sum   'Y2 Er2 Pt4 F28'
_cell_volume   521.31380496
_cell_formula_units_Z   2
loop_
 _symmetry_equiv_pos_site_id
 _symmetry_equiv_pos_as_xyz
  1  'x, y, z'
loop_
 _atom_site_type_symbol
 _atom_site_label
 _atom_site_symmetry_multiplicity
 _atom_site_fract_x
 _atom_site_fract_y
 _atom_site_fract_z
 _atom_site_occupancy
  Y  Y0  1  0.761388  0.813399  0.764356  1
  Y  Y1  1  0.261388  0.186601  0.735644  1
  Er  Er2  1  0.239080  0.185085  0.235803  1
  Er  Er3  1  0.739080  0.814915  0.264197  1
  Pt  Pt4  1  0.758783  0.271351  0.958681  1
  Pt  Pt5  1  0.258783  0.728649  0.541319  1
  Pt  Pt6  1  0.240401  0.726461  0.044989  1
  Pt  Pt7  1  0.740401  0.273539  0.455011  1
  F  F8  1  0.435616  0.702302  0.917081  1
  F  F9  1  0.935616  0.297698  0.582919  1
  F  F10  1  0.563171  0.296537  0.086059  1
  F  F11  1  0.063171  0.703463  0.413941  1
  F  F12  1  0.439798  0.278982  0.541193  1
  F  F13  1  0.939798  0.721018  0.958807  1
  F  F14  1  0.561379  0.724176  0.455510  1
  F  F15  1  0.061379  0.275824  0.044490  1
  F  F16  1  0.776191  0.520563  0.859467  1
  F  F17  1  0.276191  0.479437  0.640533  1
  F  F18  1  0.224934  0.476529  0.142844  1
  F  F19  1  0.724934  0.523471  0.357156  1
  F  F20  1  0.752974  0.021819  0.051958  1
  F  F21  1  0.252974  0.978181  0.448042  1
  F  F22  1  0.245161  0.975796  0.951314  1
  F  F23  1  0.745161  0.024204  0.548686  1
  F  F24  1  0.964530  0.724304  0.634428  1
  F  F25  1  0.464530  0.275696  0.865572  1
  F  F26  1  0.033309  0.274650  0.361589  1
  F  F27  1  0.533309  0.725350  0.138411  1
  F  F28  1  0.049345  0.745708  0.176854  1
  F  F29  1  0.549345  0.254292  0.323146  1
  F  F30  1  0.946853  0.253503  0.825455  1
  F  F31  1  0.446853  0.746497  0.674545  1
  F  F32  1  0.419186  0.971663  0.233267  1
  F  F33  1  0.919186  0.028337  0.266733  1
  F  F34  1  0.587902  0.031436  0.767985  1
  F  F35  1  0.087902  0.968564  0.732015  1
