# generated using pymatgen
data_Na3BrO4
_symmetry_space_group_name_H-M   'P 1'
_cell_length_a   4.82937753
_cell_length_b   4.83049009
_cell_length_c   5.80136431
_cell_angle_alpha   64.78740026
_cell_angle_beta   66.25663904
_cell_angle_gamma   90.18843990
_symmetry_Int_Tables_number   1
_chemical_formula_structural   Na3BrO4
_chemical_formula_sum   'Na3 Br1 O4'
_cell_volume   109.55375970
_cell_formula_units_Z   1
loop_
 _symmetry_equiv_pos_site_id
 _symmetry_equiv_pos_as_xyz
  1  'x, y, z'
loop_
 _atom_site_type_symbol
 _atom_site_label
 _atom_site_symmetry_multiplicity
 _atom_site_fract_x
 _atom_site_fract_y
 _atom_site_fract_z
 _atom_site_occupancy
  Na  Na0  1  0.601324  0.944522  0.071245  1
  Na  Na1  1  0.383443  0.219722  0.516677  1
  Na  Na2  1  0.100635  0.444833  0.070311  1
  Br  Br3  1  0.820673  0.713164  0.583637  1
  O  O4  1  0.634398  0.488176  0.995267  1
  O  O5  1  0.862203  0.078146  0.578350  1
  O  O6  1  0.461013  0.681096  0.576855  1
  O  O7  1  0.042850  0.886431  0.189389  1
