# generated using pymatgen
data_Sc12InFeCo4
_symmetry_space_group_name_H-M   'P 1'
_cell_length_a   7.70168716
_cell_length_b   7.70168709
_cell_length_c   7.70168703
_cell_angle_alpha   111.05174145
_cell_angle_beta   111.66085270
_cell_angle_gamma   105.76410180
_symmetry_Int_Tables_number   1
_chemical_formula_structural   Sc12InFeCo4
_chemical_formula_sum   'Sc12 In1 Fe1 Co4'
_cell_volume   350.56477449
_cell_formula_units_Z   1
loop_
 _symmetry_equiv_pos_site_id
 _symmetry_equiv_pos_as_xyz
  1  'x, y, z'
loop_
 _atom_site_type_symbol
 _atom_site_label
 _atom_site_symmetry_multiplicity
 _atom_site_fract_x
 _atom_site_fract_y
 _atom_site_fract_z
 _atom_site_occupancy
  Sc  Sc0  1  0.416122  0.221890  0.194231  1
  Sc  Sc1  1  0.583878  0.778110  0.805769  1
  Sc  Sc2  1  0.027659  0.221890  0.805769  1
  Sc  Sc3  1  0.972341  0.778110  0.194231  1
  Sc  Sc4  1  0.312617  0.614245  0.301628  1
  Sc  Sc5  1  0.687383  0.385755  0.698372  1
  Sc  Sc6  1  0.312617  0.010988  0.698372  1
  Sc  Sc7  1  0.687383  0.989012  0.301628  1
  Sc  Sc8  1  0.183655  0.275215  0.458871  1
  Sc  Sc9  1  0.816345  0.724784  0.541129  1
  Sc  Sc10  1  0.183655  0.724784  0.908439  1
  Sc  Sc11  1  0.816345  0.275215  0.091561  1
  In  In12  1  0.500000  0.500000  0.000000  1
  Fe  Fe13  1  0.000000  0.000000  0.000000  1
  Co  Co14  1  0.367132  0.000000  0.367132  1
  Co  Co15  1  0.632868  0.000000  0.632868  1
  Co  Co16  1  0.118107  0.618107  0.500000  1
  Co  Co17  1  0.881893  0.381893  0.500000  1
