# generated using pymatgen
data_Tb10Nd6Cd4FePd3
_symmetry_space_group_name_H-M   'P 1'
_cell_length_a   9.82259966
_cell_length_b   9.82260088
_cell_length_c   9.82260134
_cell_angle_alpha   59.77517842
_cell_angle_beta   59.77517363
_cell_angle_gamma   59.77517951
_symmetry_Int_Tables_number   1
_chemical_formula_structural   Tb10Nd6Cd4FePd3
_chemical_formula_sum   'Tb10 Nd6 Cd4 Fe1 Pd3'
_cell_volume   666.71764224
_cell_formula_units_Z   1
loop_
 _symmetry_equiv_pos_site_id
 _symmetry_equiv_pos_as_xyz
  1  'x, y, z'
loop_
 _atom_site_type_symbol
 _atom_site_label
 _atom_site_symmetry_multiplicity
 _atom_site_fract_x
 _atom_site_fract_y
 _atom_site_fract_z
 _atom_site_occupancy
  Tb  Tb0  1  0.352629  0.352629  0.352629  1
  Tb  Tb1  1  0.344794  0.344794  0.952453  1
  Tb  Tb2  1  0.344794  0.952453  0.344794  1
  Tb  Tb3  1  0.952453  0.344794  0.344794  1
  Tb  Tb4  1  0.823415  0.186547  0.186547  1
  Tb  Tb5  1  0.186324  0.811931  0.811931  1
  Tb  Tb6  1  0.186547  0.823415  0.186547  1
  Tb  Tb7  1  0.811931  0.186324  0.811931  1
  Tb  Tb8  1  0.186547  0.186547  0.823415  1
  Tb  Tb9  1  0.811931  0.811931  0.186324  1
  Nd  Nd10  1  0.937184  0.562119  0.562119  1
  Nd  Nd11  1  0.558602  0.938634  0.938634  1
  Nd  Nd12  1  0.562119  0.937184  0.562119  1
  Nd  Nd13  1  0.938634  0.558602  0.938634  1
  Nd  Nd14  1  0.562119  0.562119  0.937184  1
  Nd  Nd15  1  0.938634  0.938634  0.558602  1
  Cd  Cd16  1  0.578934  0.578934  0.578934  1
  Cd  Cd17  1  0.580193  0.580193  0.259262  1
  Cd  Cd18  1  0.580193  0.259262  0.580193  1
  Cd  Cd19  1  0.259262  0.580193  0.580193  1
  Fe  Fe20  1  0.142856  0.142856  0.142856  1
  Pd  Pd21  1  0.145112  0.145112  0.569680  1
  Pd  Pd22  1  0.145112  0.569680  0.145112  1
  Pd  Pd23  1  0.569680  0.145112  0.145112  1
