# generated using pymatgen
data_LiLaCeAlIr2
_symmetry_space_group_name_H-M   'P 1'
_cell_length_a   7.08664800
_cell_length_b   4.08617400
_cell_length_c   8.53096600
_cell_angle_alpha   90.00000000
_cell_angle_beta   90.00000000
_cell_angle_gamma   90.00000000
_symmetry_Int_Tables_number   1
_chemical_formula_structural   LiLaCeAlIr2
_chemical_formula_sum   'Li2 La2 Ce2 Al2 Ir4'
_cell_volume   247.03354387
_cell_formula_units_Z   2
loop_
 _symmetry_equiv_pos_site_id
 _symmetry_equiv_pos_as_xyz
  1  'x, y, z'
loop_
 _atom_site_type_symbol
 _atom_site_label
 _atom_site_symmetry_multiplicity
 _atom_site_fract_x
 _atom_site_fract_y
 _atom_site_fract_z
 _atom_site_occupancy
  Li  Li0  1  0.130544  0.750000  0.450556  1
  Li  Li1  1  0.630544  0.750000  0.049444  1
  La  La2  1  0.954524  0.250000  0.187123  1
  La  La3  1  0.454524  0.250000  0.312877  1
  Ce  Ce4  1  0.038367  0.750000  0.815668  1
  Ce  Ce5  1  0.538367  0.750000  0.684332  1
  Al  Al6  1  0.874347  0.250000  0.559808  1
  Al  Al7  1  0.374347  0.250000  0.940192  1
  Ir  Ir8  1  0.746823  0.250000  0.853343  1
  Ir  Ir9  1  0.246823  0.250000  0.646657  1
  Ir  Ir10  1  0.255395  0.750000  0.097588  1
  Ir  Ir11  1  0.755395  0.750000  0.402412  1
