# generated using pymatgen
data_Sc4Tc4B8(IrRu)3
_symmetry_space_group_name_H-M   'P 1'
_cell_length_a   3.06368600
_cell_length_b   8.57994184
_cell_length_c   9.97463613
_cell_angle_alpha   90.60508370
_cell_angle_beta   90.00000000
_cell_angle_gamma   90.00000000
_symmetry_Int_Tables_number   1
_chemical_formula_structural   Sc4Tc4B8(IrRu)3
_chemical_formula_sum   'Sc4 Tc4 B8 Ir3 Ru3'
_cell_volume   262.18113507
_cell_formula_units_Z   1
loop_
 _symmetry_equiv_pos_site_id
 _symmetry_equiv_pos_as_xyz
  1  'x, y, z'
loop_
 _atom_site_type_symbol
 _atom_site_label
 _atom_site_symmetry_multiplicity
 _atom_site_fract_x
 _atom_site_fract_y
 _atom_site_fract_z
 _atom_site_occupancy
  Sc  Sc0  1  0.500000  0.843193  0.185006  1
  Sc  Sc1  1  0.500000  0.156807  0.814994  1
  Sc  Sc2  1  0.500000  0.662992  0.678926  1
  Sc  Sc3  1  0.500000  0.337008  0.321074  1
  Tc  Tc4  1  0.000000  0.660799  0.954149  1
  Tc  Tc5  1  0.000000  0.339201  0.045851  1
  Tc  Tc6  1  0.000000  0.839735  0.451903  1
  Tc  Tc7  1  0.000000  0.160265  0.548097  1
  B  B8  1  0.500000  0.965537  0.586985  1
  B  B9  1  0.500000  0.034463  0.413015  1
  B  B10  1  0.500000  0.847180  0.897818  1
  B  B11  1  0.500000  0.152820  0.102182  1
  B  B12  1  0.500000  0.651526  0.403744  1
  B  B13  1  0.500000  0.348474  0.596256  1
  B  B14  1  0.500000  0.465557  0.913036  1
  B  B15  1  0.500000  0.534443  0.086964  1
  Ir  Ir16  1  0.000000  0.000000  0.000000  1
  Ir  Ir17  1  0.000000  0.407054  0.760772  1
  Ir  Ir18  1  0.000000  0.592946  0.239228  1
  Ru  Ru19  1  0.000000  0.500000  0.500000  1
  Ru  Ru20  1  0.000000  0.905892  0.739449  1
  Ru  Ru21  1  0.000000  0.094108  0.260551  1
