# generated using pymatgen
data_Nd3Tm5(Si4W3)4
_symmetry_space_group_name_H-M   'P 1'
_cell_length_a   6.80432194
_cell_length_b   6.96025975
_cell_length_c   12.94205799
_cell_angle_alpha   89.87761815
_cell_angle_beta   89.98862653
_cell_angle_gamma   89.93235161
_symmetry_Int_Tables_number   1
_chemical_formula_structural   Nd3Tm5(Si4W3)4
_chemical_formula_sum   'Nd3 Tm5 Si16 W12'
_cell_volume   612.93206370
_cell_formula_units_Z   1
loop_
 _symmetry_equiv_pos_site_id
 _symmetry_equiv_pos_as_xyz
  1  'x, y, z'
loop_
 _atom_site_type_symbol
 _atom_site_label
 _atom_site_symmetry_multiplicity
 _atom_site_fract_x
 _atom_site_fract_y
 _atom_site_fract_z
 _atom_site_occupancy
  Nd  Nd0  1  0.003351  0.165858  0.093281  1
  Nd  Nd1  1  0.496683  0.665717  0.908101  1
  Nd  Nd2  1  0.997271  0.833468  0.590840  1
  Tm  Tm3  1  0.495420  0.668209  0.593668  1
  Tm  Tm4  1  0.994797  0.832335  0.905045  1
  Tm  Tm5  1  0.505310  0.331905  0.094871  1
  Tm  Tm6  1  0.005422  0.168477  0.405006  1
  Tm  Tm7  1  0.505362  0.332628  0.407002  1
  Si  Si8  1  0.660831  0.958910  0.451908  1
  Si  Si9  1  0.161647  0.546016  0.048464  1
  Si  Si10  1  0.337925  0.045730  0.952550  1
  Si  Si11  1  0.835710  0.454047  0.545698  1
  Si  Si12  1  0.342677  0.044137  0.545934  1
  Si  Si13  1  0.842577  0.458034  0.952309  1
  Si  Si14  1  0.657675  0.957777  0.048263  1
  Si  Si15  1  0.162923  0.538733  0.451396  1
  Si  Si16  1  0.463630  0.368748  0.748292  1
  Si  Si17  1  0.963387  0.131889  0.750743  1
  Si  Si18  1  0.535092  0.628363  0.250124  1
  Si  Si19  1  0.035800  0.867261  0.252627  1
  Si  Si20  1  0.695901  0.869675  0.749347  1
  Si  Si21  1  0.196315  0.631133  0.749350  1
  Si  Si22  1  0.306517  0.134115  0.252116  1
  Si  Si23  1  0.800518  0.367970  0.251668  1
  W  W24  1  0.667388  0.164787  0.625211  1
  W  W25  1  0.168174  0.337290  0.873072  1
  W  W26  1  0.331752  0.837042  0.127984  1
  W  W27  1  0.828806  0.660787  0.374353  1
  W  W28  1  0.333417  0.836116  0.374797  1
  W  W29  1  0.831919  0.663172  0.126548  1
  W  W30  1  0.667165  0.163948  0.874375  1
  W  W31  1  0.167972  0.336570  0.624273  1
  W  W32  1  0.834410  0.497835  0.748996  1
  W  W33  1  0.334065  0.002651  0.749530  1
  W  W34  1  0.166777  0.499842  0.251036  1
  W  W35  1  0.665412  0.998823  0.251224  1
