# generated using pymatgen
data_La11In9(AgPt)2
_symmetry_space_group_name_H-M   'P 1'
_cell_length_a   13.97937800
_cell_length_b   14.03650288
_cell_length_c   3.85986300
_cell_angle_alpha   90.00000000
_cell_angle_beta   90.00000000
_cell_angle_gamma   110.98692403
_symmetry_Int_Tables_number   1
_chemical_formula_structural   La11In9(AgPt)2
_chemical_formula_sum   'La11 In9 Ag2 Pt2'
_cell_volume   707.14492496
_cell_formula_units_Z   1
loop_
 _symmetry_equiv_pos_site_id
 _symmetry_equiv_pos_as_xyz
  1  'x, y, z'
loop_
 _atom_site_type_symbol
 _atom_site_label
 _atom_site_symmetry_multiplicity
 _atom_site_fract_x
 _atom_site_fract_y
 _atom_site_fract_z
 _atom_site_occupancy
  La  La0  1  0.414498  0.063290  0.000000  1
  La  La1  1  0.585502  0.936710  0.000000  1
  La  La2  1  0.071585  0.417568  0.000000  1
  La  La3  1  0.928415  0.582432  0.000000  1
  La  La4  1  0.160932  0.839258  0.000000  1
  La  La5  1  0.839068  0.160742  0.000000  1
  La  La6  1  0.360758  0.620829  0.000000  1
  La  La7  1  0.639242  0.379171  0.000000  1
  La  La8  1  0.301212  0.313197  0.000000  1
  La  La9  1  0.698788  0.686803  0.000000  1
  La  La10  1  0.000000  0.000000  0.000000  1
  In  In11  1  0.366772  0.838205  0.500000  1
  In  In12  1  0.633228  0.161795  0.500000  1
  In  In13  1  0.844110  0.365302  0.500000  1
  In  In14  1  0.155890  0.634698  0.500000  1
  In  In15  1  0.218500  0.076661  0.500000  1
  In  In16  1  0.781500  0.923339  0.500000  1
  In  In17  1  0.072579  0.216169  0.500000  1
  In  In18  1  0.927421  0.783831  0.500000  1
  In  In19  1  0.500000  0.500000  0.500000  1
  Ag  Ag20  1  0.452546  0.251227  0.500000  1
  Ag  Ag21  1  0.547454  0.748773  0.500000  1
  Pt  Pt22  1  0.246545  0.452594  0.500000  1
  Pt  Pt23  1  0.753455  0.547406  0.500000  1
