# generated using pymatgen
data_Er9LuCd3Ru
_symmetry_space_group_name_H-M   'P 1'
_cell_length_a   9.49041600
_cell_length_b   9.49041656
_cell_length_c   9.77080100
_cell_angle_alpha   90.00000000
_cell_angle_beta   90.00000000
_cell_angle_gamma   119.99999803
_symmetry_Int_Tables_number   1
_chemical_formula_structural   Er9LuCd3Ru
_chemical_formula_sum   'Er18 Lu2 Cd6 Ru2'
_cell_volume   762.13399445
_cell_formula_units_Z   2
loop_
 _symmetry_equiv_pos_site_id
 _symmetry_equiv_pos_as_xyz
  1  'x, y, z'
loop_
 _atom_site_type_symbol
 _atom_site_label
 _atom_site_symmetry_multiplicity
 _atom_site_fract_x
 _atom_site_fract_y
 _atom_site_fract_z
 _atom_site_occupancy
  Er  Er0  1  0.209742  0.790258  0.440870  1
  Er  Er1  1  0.209742  0.419487  0.440870  1
  Er  Er2  1  0.580513  0.790258  0.440870  1
  Er  Er3  1  0.790258  0.209742  0.559130  1
  Er  Er4  1  0.790258  0.580513  0.559130  1
  Er  Er5  1  0.419487  0.209742  0.559130  1
  Er  Er6  1  0.790258  0.209742  0.940870  1
  Er  Er7  1  0.790258  0.580513  0.940870  1
  Er  Er8  1  0.419487  0.209742  0.940870  1
  Er  Er9  1  0.209742  0.790258  0.059130  1
  Er  Er10  1  0.209742  0.419487  0.059130  1
  Er  Er11  1  0.580513  0.790258  0.059130  1
  Er  Er12  1  0.540819  0.459181  0.250000  1
  Er  Er13  1  0.540819  0.081637  0.250000  1
  Er  Er14  1  0.918363  0.459181  0.250000  1
  Er  Er15  1  0.459181  0.540819  0.750000  1
  Er  Er16  1  0.459181  0.918363  0.750000  1
  Er  Er17  1  0.081637  0.540819  0.750000  1
  Lu  Lu18  1  0.000000  0.000000  0.500000  1
  Lu  Lu19  1  0.000000  0.000000  0.000000  1
  Cd  Cd20  1  0.886275  0.113725  0.250000  1
  Cd  Cd21  1  0.886275  0.772551  0.250000  1
  Cd  Cd22  1  0.227449  0.113725  0.250000  1
  Cd  Cd23  1  0.113725  0.886275  0.750000  1
  Cd  Cd24  1  0.113725  0.227449  0.750000  1
  Cd  Cd25  1  0.772551  0.886275  0.750000  1
  Ru  Ru26  1  0.333333  0.666667  0.250000  1
  Ru  Ru27  1  0.666667  0.333333  0.750000  1
