# generated using pymatgen
data_Dy5InSnBi
_symmetry_space_group_name_H-M   'P 1'
_cell_length_a   9.03087438
_cell_length_b   9.01099634
_cell_length_c   6.59073300
_cell_angle_alpha   90.00000000
_cell_angle_beta   90.00000000
_cell_angle_gamma   119.92721545
_symmetry_Int_Tables_number   1
_chemical_formula_structural   Dy5InSnBi
_chemical_formula_sum   'Dy10 In2 Sn2 Bi2'
_cell_volume   464.82022858
_cell_formula_units_Z   2
loop_
 _symmetry_equiv_pos_site_id
 _symmetry_equiv_pos_as_xyz
  1  'x, y, z'
loop_
 _atom_site_type_symbol
 _atom_site_label
 _atom_site_symmetry_multiplicity
 _atom_site_fract_x
 _atom_site_fract_y
 _atom_site_fract_z
 _atom_site_occupancy
  Dy  Dy0  1  0.994421  0.756825  0.750000  1
  Dy  Dy1  1  0.994421  0.237596  0.250000  1
  Dy  Dy2  1  0.765093  0.762302  0.250000  1
  Dy  Dy3  1  0.765093  0.002791  0.750000  1
  Dy  Dy4  1  0.235513  0.244187  0.750000  1
  Dy  Dy5  1  0.235513  0.991325  0.250000  1
  Dy  Dy6  1  0.330393  0.665196  0.500000  1
  Dy  Dy7  1  0.676059  0.338029  0.000000  1
  Dy  Dy8  1  0.676059  0.338029  0.500000  1
  Dy  Dy9  1  0.330393  0.665196  0.000000  1
  In  In10  1  0.001351  0.605209  0.250000  1
  In  In11  1  0.001351  0.396142  0.750000  1
  Sn  Sn12  1  0.604579  0.606168  0.750000  1
  Sn  Sn13  1  0.604579  0.998410  0.250000  1
  Bi  Bi14  1  0.392592  0.002407  0.750000  1
  Bi  Bi15  1  0.392592  0.390185  0.250000  1
