# generated using pymatgen
data_Ti5(Re7Tc)3
_symmetry_space_group_name_H-M   'P 1'
_cell_length_a   8.36604312
_cell_length_b   8.35954420
_cell_length_c   8.35948632
_cell_angle_alpha   109.45534298
_cell_angle_beta   109.48695258
_cell_angle_gamma   109.48732370
_symmetry_Int_Tables_number   1
_chemical_formula_structural   Ti5(Re7Tc)3
_chemical_formula_sum   'Ti5 Re21 Tc3'
_cell_volume   449.96093097
_cell_formula_units_Z   1
loop_
 _symmetry_equiv_pos_site_id
 _symmetry_equiv_pos_as_xyz
  1  'x, y, z'
loop_
 _atom_site_type_symbol
 _atom_site_label
 _atom_site_symmetry_multiplicity
 _atom_site_fract_x
 _atom_site_fract_y
 _atom_site_fract_z
 _atom_site_occupancy
  Ti  Ti0  1  0.999910  0.000002  0.000000  1
  Ti  Ti1  1  0.631311  0.999998  0.000000  1
  Ti  Ti2  1  0.999892  0.632213  0.000000  1
  Ti  Ti3  1  0.999893  0.000000  0.632220  1
  Ti  Ti4  1  0.367675  0.367779  0.367780  1
  Re  Re5  1  0.681181  0.399561  0.000005  1
  Re  Re6  1  0.000552  0.400191  0.681800  1
  Re  Re7  1  0.318750  0.718393  0.318195  1
  Re  Re8  1  0.318751  0.318193  0.718391  1
  Re  Re9  1  0.000551  0.681797  0.400188  1
  Re  Re10  1  0.681181  0.000003  0.399556  1
  Re  Re11  1  0.600366  0.599806  0.281609  1
  Re  Re12  1  0.281618  0.600447  0.600444  1
  Re  Re13  1  0.600369  0.281610  0.599806  1
  Re  Re14  1  0.374517  0.193615  0.000002  1
  Re  Re15  1  0.180896  0.806388  0.806389  1
  Re  Re16  1  0.374515  0.000003  0.193613  1
  Re  Re17  1  0.193169  0.375491  0.999999  1
  Re  Re18  1  0.000304  0.375077  0.192997  1
  Re  Re19  1  0.807313  0.182081  0.807004  1
  Re  Re20  1  0.807318  0.807005  0.182081  1
  Re  Re21  1  0.000304  0.192993  0.375071  1
  Re  Re22  1  0.193163  0.999990  0.375486  1
  Re  Re23  1  0.625245  0.624929  0.817927  1
  Re  Re24  1  0.817679  0.624505  0.624505  1
  Re  Re25  1  0.625240  0.817926  0.624928  1
  Tc  Tc26  1  0.400260  0.682441  0.000005  1
  Tc  Tc27  1  0.717822  0.317563  0.317562  1
  Tc  Tc28  1  0.400256  0.000001  0.682438  1
