# generated using pymatgen
data_TbYEr2(NiP)4
_symmetry_space_group_name_H-M   'P 1'
_cell_length_a   3.88852800
_cell_length_b   3.88852934
_cell_length_c   15.38269000
_cell_angle_alpha   90.00000000
_cell_angle_beta   90.00000000
_cell_angle_gamma   120.00000562
_symmetry_Int_Tables_number   1
_chemical_formula_structural   TbYEr2(NiP)4
_chemical_formula_sum   'Tb1 Y1 Er2 Ni4 P4'
_cell_volume   201.43433802
_cell_formula_units_Z   1
loop_
 _symmetry_equiv_pos_site_id
 _symmetry_equiv_pos_as_xyz
  1  'x, y, z'
loop_
 _atom_site_type_symbol
 _atom_site_label
 _atom_site_symmetry_multiplicity
 _atom_site_fract_x
 _atom_site_fract_y
 _atom_site_fract_z
 _atom_site_occupancy
  Tb  Tb0  1  0.000000  0.000000  0.500000  1
  Y  Y1  1  0.000000  0.000000  0.000000  1
  Er  Er2  1  0.000000  0.000000  0.250064  1
  Er  Er3  1  0.000000  0.000000  0.749936  1
  Ni  Ni4  1  0.333333  0.666667  0.131338  1
  Ni  Ni5  1  0.666667  0.333333  0.868662  1
  Ni  Ni6  1  0.666667  0.333333  0.631339  1
  Ni  Ni7  1  0.333333  0.666667  0.368661  1
  P  P8  1  0.333333  0.666667  0.623879  1
  P  P9  1  0.666667  0.333333  0.376121  1
  P  P10  1  0.666667  0.333333  0.123584  1
  P  P11  1  0.333333  0.666667  0.876416  1
