# generated using pymatgen
data_Yb12InGa12Sb6RhO48
_symmetry_space_group_name_H-M   'P 1'
_cell_length_a   10.87751015
_cell_length_b   10.87751044
_cell_length_c   10.87751100
_cell_angle_alpha   109.60981895
_cell_angle_beta   109.60981950
_cell_angle_gamma   109.60981274
_symmetry_Int_Tables_number   1
_chemical_formula_structural   Yb12InGa12Sb6RhO48
_chemical_formula_sum   'Yb12 In1 Ga12 Sb6 Rh1 O48'
_cell_volume   985.63911567
_cell_formula_units_Z   1
loop_
 _symmetry_equiv_pos_site_id
 _symmetry_equiv_pos_as_xyz
  1  'x, y, z'
loop_
 _atom_site_type_symbol
 _atom_site_label
 _atom_site_symmetry_multiplicity
 _atom_site_fract_x
 _atom_site_fract_y
 _atom_site_fract_z
 _atom_site_occupancy
  Yb  Yb0  1  0.245211  0.364651  0.127765  1
  Yb  Yb1  1  0.374559  0.749467  0.124695  1
  Yb  Yb2  1  0.364651  0.127765  0.245211  1
  Yb  Yb3  1  0.875303  0.625441  0.250533  1
  Yb  Yb4  1  0.127765  0.245211  0.364651  1
  Yb  Yb5  1  0.749467  0.124695  0.374559  1
  Yb  Yb6  1  0.250533  0.875303  0.625441  1
  Yb  Yb7  1  0.872235  0.754789  0.635349  1
  Yb  Yb8  1  0.124695  0.374559  0.749467  1
  Yb  Yb9  1  0.635349  0.872235  0.754789  1
  Yb  Yb10  1  0.625441  0.250533  0.875303  1
  Yb  Yb11  1  0.754789  0.635349  0.872235  1
  In  In12  1  0.499999  0.499999  0.499999  1
  Ga  Ga13  1  0.751644  0.875976  0.121473  1
  Ga  Ga14  1  0.878527  0.248357  0.124024  1
  Ga  Ga15  1  0.621061  0.373233  0.247793  1
  Ga  Ga16  1  0.124024  0.878527  0.248357  1
  Ga  Ga17  1  0.626767  0.752207  0.378939  1
  Ga  Ga18  1  0.247793  0.621061  0.373233  1
  Ga  Ga19  1  0.752207  0.378939  0.626767  1
  Ga  Ga20  1  0.373233  0.247793  0.621061  1
  Ga  Ga21  1  0.875976  0.121473  0.751644  1
  Ga  Ga22  1  0.378939  0.626767  0.752207  1
  Ga  Ga23  1  0.248357  0.124024  0.878527  1
  Ga  Ga24  1  0.121473  0.751644  0.875976  1
  Sb  Sb25  1  0.499999  0.000000  0.000000  1
  Sb  Sb26  1  0.500000  0.500000  0.000000  1
  Sb  Sb27  1  0.000000  0.499999  0.000000  1
  Sb  Sb28  1  0.500000  0.000000  0.500000  1
  Sb  Sb29  1  0.000000  0.500000  0.500000  1
  Sb  Sb30  1  0.000000  0.000000  0.499999  1
  Rh  Rh31  1  0.000000  0.000000  0.000000  1
  O  O32  1  0.323290  0.900727  0.023192  1
  O  O33  1  0.208315  0.120762  0.026891  1
  O  O34  1  0.702113  0.677797  0.082508  1
  O  O35  1  0.880110  0.403617  0.081850  1
  O  O36  1  0.976808  0.676710  0.099273  1
  O  O37  1  0.622355  0.419235  0.095254  1
  O  O38  1  0.596383  0.918150  0.119890  1
  O  O39  1  0.026891  0.208315  0.120762  1
  O  O40  1  0.478507  0.600213  0.177863  1
  O  O41  1  0.202409  0.583892  0.176513  1
  O  O42  1  0.120762  0.026891  0.208315  1
  O  O43  1  0.583892  0.176513  0.202409  1
  O  O44  1  0.468808  0.372021  0.281066  1
  O  O45  1  0.322203  0.917491  0.297887  1
  O  O46  1  0.900727  0.023192  0.323290  1
  O  O47  1  0.917491  0.297887  0.322203  1
  O  O48  1  0.281066  0.468808  0.372021  1
  O  O49  1  0.580765  0.904746  0.377644  1
  O  O50  1  0.822136  0.521492  0.399785  1
  O  O51  1  0.081850  0.880110  0.403617  1
  O  O52  1  0.823487  0.797591  0.416108  1
  O  O53  1  0.095254  0.622355  0.419235  1
  O  O54  1  0.600213  0.177863  0.478507  1
  O  O55  1  0.372021  0.281066  0.468808  1
  O  O56  1  0.627979  0.718934  0.531192  1
  O  O57  1  0.399785  0.822136  0.521492  1
  O  O58  1  0.904746  0.377644  0.580765  1
  O  O59  1  0.176513  0.202409  0.583892  1
  O  O60  1  0.918150  0.119890  0.596383  1
  O  O61  1  0.177863  0.478507  0.600213  1
  O  O62  1  0.419235  0.095254  0.622355  1
  O  O63  1  0.718934  0.531192  0.627979  1
  O  O64  1  0.082508  0.702113  0.677797  1
  O  O65  1  0.099273  0.976808  0.676710  1
  O  O66  1  0.677797  0.082508  0.702113  1
  O  O67  1  0.531192  0.627979  0.718934  1
  O  O68  1  0.416108  0.823487  0.797591  1
  O  O69  1  0.879237  0.973108  0.791683  1
  O  O70  1  0.797591  0.416108  0.823487  1
  O  O71  1  0.521492  0.399785  0.822136  1
  O  O72  1  0.973108  0.791683  0.879237  1
  O  O73  1  0.403617  0.081850  0.880110  1
  O  O74  1  0.377644  0.580765  0.904746  1
  O  O75  1  0.023192  0.323290  0.900727  1
  O  O76  1  0.119890  0.596383  0.918150  1
  O  O77  1  0.297887  0.322203  0.917491  1
  O  O78  1  0.676710  0.099273  0.976808  1
  O  O79  1  0.791683  0.879237  0.973108  1
