# generated using pymatgen
data_Cs6Er3NpBr18
_symmetry_space_group_name_H-M   'P 1'
_cell_length_a   10.55782731
_cell_length_b   10.55775996
_cell_length_c   10.55709058
_cell_angle_alpha   83.06385283
_cell_angle_beta   83.06510052
_cell_angle_gamma   83.05894362
_symmetry_Int_Tables_number   1
_chemical_formula_structural   Cs6Er3NpBr18
_chemical_formula_sum   'Cs6 Er3 Np1 Br18'
_cell_volume   1152.84622540
_cell_formula_units_Z   1
loop_
 _symmetry_equiv_pos_site_id
 _symmetry_equiv_pos_as_xyz
  1  'x, y, z'
loop_
 _atom_site_type_symbol
 _atom_site_label
 _atom_site_symmetry_multiplicity
 _atom_site_fract_x
 _atom_site_fract_y
 _atom_site_fract_z
 _atom_site_occupancy
  Cs  Cs0  1  0.585578  0.910403  0.257290  1
  Cs  Cs1  1  0.257234  0.585618  0.910390  1
  Cs  Cs2  1  0.910401  0.257286  0.585627  1
  Cs  Cs3  1  0.748927  0.409148  0.088729  1
  Cs  Cs4  1  0.088773  0.748905  0.409097  1
  Cs  Cs5  1  0.409145  0.088725  0.748918  1
  Er  Er6  1  0.345550  0.345533  0.345569  1
  Er  Er7  1  0.154566  0.154572  0.154568  1
  Er  Er8  1  0.653262  0.653281  0.653276  1
  Np  Np9  1  0.847849  0.847847  0.847815  1
  Br  Br10  1  0.096723  0.402389  0.251277  1
  Br  Br11  1  0.251260  0.096711  0.402413  1
  Br  Br12  1  0.402392  0.251251  0.096725  1
  Br  Br13  1  0.748109  0.901087  0.590543  1
  Br  Br14  1  0.590584  0.748167  0.901113  1
  Br  Br15  1  0.901062  0.590565  0.748139  1
  Br  Br16  1  0.234550  0.411887  0.575601  1
  Br  Br17  1  0.575547  0.234498  0.411937  1
  Br  Br18  1  0.411897  0.575558  0.234567  1
  Br  Br19  1  0.086699  0.918538  0.732223  1
  Br  Br20  1  0.732266  0.086715  0.918511  1
  Br  Br21  1  0.918641  0.732240  0.086662  1
  Br  Br22  1  0.762874  0.584237  0.423112  1
  Br  Br23  1  0.423100  0.762908  0.584250  1
  Br  Br24  1  0.584228  0.423132  0.762869  1
  Br  Br25  1  0.924826  0.088063  0.265900  1
  Br  Br26  1  0.265900  0.924828  0.088061  1
  Br  Br27  1  0.088056  0.265911  0.924816  1
