# generated using pymatgen
data_Er2GeP6(Ir2Rh)4
_symmetry_space_group_name_H-M   'P 1'
_cell_length_a   9.66867801
_cell_length_b   9.63267858
_cell_length_c   3.93950677
_cell_angle_alpha   90.13110446
_cell_angle_beta   89.68655853
_cell_angle_gamma   119.96202891
_symmetry_Int_Tables_number   1
_chemical_formula_structural   Er2GeP6(Ir2Rh)4
_chemical_formula_sum   'Er2 Ge1 P6 Ir8 Rh4'
_cell_volume   317.86750792
_cell_formula_units_Z   1
loop_
 _symmetry_equiv_pos_site_id
 _symmetry_equiv_pos_as_xyz
  1  'x, y, z'
loop_
 _atom_site_type_symbol
 _atom_site_label
 _atom_site_symmetry_multiplicity
 _atom_site_fract_x
 _atom_site_fract_y
 _atom_site_fract_z
 _atom_site_occupancy
  Er  Er0  1  0.332825  0.666263  0.750481  1
  Er  Er1  1  0.667747  0.334422  0.243837  1
  Ge  Ge2  1  0.999854  0.000469  0.565244  1
  P  P3  1  0.410576  0.284510  0.749598  1
  P  P4  1  0.713655  0.123830  0.745273  1
  P  P5  1  0.877624  0.592141  0.744879  1
  P  P6  1  0.596242  0.719159  0.244706  1
  P  P7  1  0.281297  0.877077  0.246889  1
  P  P8  1  0.122599  0.402998  0.249835  1
  Ir  Ir9  1  0.452016  0.068556  0.746194  1
  Ir  Ir10  1  0.928452  0.381790  0.742513  1
  Ir  Ir11  1  0.617692  0.546118  0.745083  1
  Ir  Ir12  1  0.541843  0.930627  0.247771  1
  Ir  Ir13  1  0.069783  0.611354  0.248418  1
  Ir  Ir14  1  0.390140  0.459224  0.251045  1
  Ir  Ir15  1  0.167830  0.283179  0.757322  1
  Ir  Ir16  1  0.717470  0.882917  0.749033  1
  Rh  Rh17  1  0.115985  0.836139  0.754479  1
  Rh  Rh18  1  0.842565  0.728223  0.237698  1
  Rh  Rh19  1  0.270992  0.116900  0.245411  1
  Rh  Rh20  1  0.882814  0.154102  0.234292  1
