# generated using pymatgen
data_ZrTlSnF7
_symmetry_space_group_name_H-M   'P 1'
_cell_length_a   6.05310200
_cell_length_b   8.54287500
_cell_length_c   12.67308400
_cell_angle_alpha   90.00000000
_cell_angle_beta   90.00000000
_cell_angle_gamma   90.00000000
_symmetry_Int_Tables_number   1
_chemical_formula_structural   ZrTlSnF7
_chemical_formula_sum   'Zr4 Tl4 Sn4 F28'
_cell_volume   655.33650019
_cell_formula_units_Z   4
loop_
 _symmetry_equiv_pos_site_id
 _symmetry_equiv_pos_as_xyz
  1  'x, y, z'
loop_
 _atom_site_type_symbol
 _atom_site_label
 _atom_site_symmetry_multiplicity
 _atom_site_fract_x
 _atom_site_fract_y
 _atom_site_fract_z
 _atom_site_occupancy
  Zr  Zr0  1  0.250893  0.000000  0.915706  1
  Zr  Zr1  1  0.749107  0.000000  0.084294  1
  Zr  Zr2  1  0.749107  0.500000  0.415706  1
  Zr  Zr3  1  0.250893  0.500000  0.584294  1
  Tl  Tl4  1  0.220753  0.750000  0.250000  1
  Tl  Tl5  1  0.220753  0.250000  0.250000  1
  Tl  Tl6  1  0.779247  0.250000  0.750000  1
  Tl  Tl7  1  0.779247  0.750000  0.750000  1
  Sn  Sn8  1  0.237696  0.000000  0.593040  1
  Sn  Sn9  1  0.762304  0.000000  0.406960  1
  Sn  Sn10  1  0.762304  0.500000  0.093040  1
  Sn  Sn11  1  0.237696  0.500000  0.906960  1
  F  F12  1  0.503001  0.000000  0.193466  1
  F  F13  1  0.161249  0.266769  0.608642  1
  F  F14  1  0.161249  0.233231  0.891358  1
  F  F15  1  0.874609  0.000000  0.927829  1
  F  F16  1  0.879080  0.000000  0.582951  1
  F  F17  1  0.096990  0.500000  0.740197  1
  F  F18  1  0.903010  0.000000  0.240197  1
  F  F19  1  0.500000  0.358091  0.500000  1
  F  F20  1  0.838751  0.733231  0.391358  1
  F  F21  1  0.161249  0.766769  0.891358  1
  F  F22  1  0.838751  0.766769  0.108642  1
  F  F23  1  0.500000  0.141909  0.000000  1
  F  F24  1  0.125391  0.000000  0.072171  1
  F  F25  1  0.125391  0.500000  0.427829  1
  F  F26  1  0.496999  0.000000  0.806534  1
  F  F27  1  0.496999  0.500000  0.693466  1
  F  F28  1  0.161249  0.733231  0.608642  1
  F  F29  1  0.120920  0.500000  0.082951  1
  F  F30  1  0.120920  0.000000  0.417049  1
  F  F31  1  0.096990  0.000000  0.759803  1
  F  F32  1  0.879080  0.500000  0.917049  1
  F  F33  1  0.903010  0.500000  0.259803  1
  F  F34  1  0.503001  0.500000  0.306534  1
  F  F35  1  0.874609  0.500000  0.572171  1
  F  F36  1  0.500000  0.858091  0.000000  1
  F  F37  1  0.500000  0.641909  0.500000  1
  F  F38  1  0.838751  0.233231  0.108642  1
  F  F39  1  0.838751  0.266769  0.391358  1
