# generated using pymatgen
data_Ba9Sr(Si2Sn)2
_symmetry_space_group_name_H-M   'P 1'
_cell_length_a   10.52130570
_cell_length_b   10.52130625
_cell_length_c   10.52130528
_cell_angle_alpha   131.75515902
_cell_angle_beta   131.75515132
_cell_angle_gamma   70.61600379
_symmetry_Int_Tables_number   1
_chemical_formula_structural   Ba9Sr(Si2Sn)2
_chemical_formula_sum   'Ba9 Sr1 Si4 Sn2'
_cell_volume   634.99806066
_cell_formula_units_Z   1
loop_
 _symmetry_equiv_pos_site_id
 _symmetry_equiv_pos_as_xyz
  1  'x, y, z'
loop_
 _atom_site_type_symbol
 _atom_site_label
 _atom_site_symmetry_multiplicity
 _atom_site_fract_x
 _atom_site_fract_y
 _atom_site_fract_z
 _atom_site_occupancy
  Ba  Ba0  1  0.539819  0.043343  0.859779  1
  Ba  Ba1  1  0.183565  0.680040  0.140221  1
  Ba  Ba2  1  0.043343  0.183565  0.503525  1
  Ba  Ba3  1  0.680040  0.539819  0.496475  1
  Ba  Ba4  1  0.460181  0.956657  0.140221  1
  Ba  Ba5  1  0.816435  0.319960  0.859779  1
  Ba  Ba6  1  0.956657  0.816435  0.496475  1
  Ba  Ba7  1  0.319960  0.460181  0.503525  1
  Ba  Ba8  1  0.000000  0.000000  0.000000  1
  Sr  Sr9  1  0.500000  0.500000  0.000000  1
  Si  Si10  1  0.896131  0.400643  0.296774  1
  Si  Si11  1  0.103869  0.599357  0.703226  1
  Si  Si12  1  0.400643  0.103869  0.504512  1
  Si  Si13  1  0.599357  0.896131  0.495488  1
  Sn  Sn14  1  0.249614  0.249614  0.000000  1
  Sn  Sn15  1  0.750386  0.750386  0.000000  1
