# generated using pymatgen
data_Dy10Sn3Bi3C2
_symmetry_space_group_name_H-M   'P 1'
_cell_length_a   9.05803741
_cell_length_b   9.03577823
_cell_length_c   6.56280700
_cell_angle_alpha   90.00000000
_cell_angle_beta   90.00000000
_cell_angle_gamma   120.16951475
_symmetry_Int_Tables_number   1
_chemical_formula_structural   Dy10Sn3Bi3C2
_chemical_formula_sum   'Dy10 Sn3 Bi3 C2'
_cell_volume   464.38219884
_cell_formula_units_Z   1
loop_
 _symmetry_equiv_pos_site_id
 _symmetry_equiv_pos_as_xyz
  1  'x, y, z'
loop_
 _atom_site_type_symbol
 _atom_site_label
 _atom_site_symmetry_multiplicity
 _atom_site_fract_x
 _atom_site_fract_y
 _atom_site_fract_z
 _atom_site_occupancy
  Dy  Dy0  1  0.333220  0.658851  0.497621  1
  Dy  Dy1  1  0.666562  0.338362  0.497843  1
  Dy  Dy2  1  0.666562  0.338362  0.002157  1
  Dy  Dy3  1  0.333220  0.658851  0.002379  1
  Dy  Dy4  1  0.210537  0.004410  0.750000  1
  Dy  Dy5  1  0.791339  0.999891  0.250000  1
  Dy  Dy6  1  0.005357  0.213195  0.750000  1
  Dy  Dy7  1  0.994849  0.787587  0.250000  1
  Dy  Dy8  1  0.789760  0.788941  0.750000  1
  Dy  Dy9  1  0.208591  0.214112  0.250000  1
  Sn  Sn10  1  0.998387  0.402280  0.250000  1
  Sn  Sn11  1  0.407277  0.405471  0.750000  1
  Sn  Sn12  1  0.594424  0.594872  0.250000  1
  Bi  Bi13  1  0.599204  0.000138  0.750000  1
  Bi  Bi14  1  0.399180  0.998989  0.250000  1
  Bi  Bi15  1  0.001702  0.597856  0.750000  1
  C  C16  1  0.999914  0.998915  0.500729  1
  C  C17  1  0.999914  0.998915  0.999271  1
