# generated using pymatgen
data_Dy3Tm2Lu3(CdIr)2
_symmetry_space_group_name_H-M   'P 1'
_cell_length_a   9.53521435
_cell_length_b   9.53506745
_cell_length_c   9.55202500
_cell_angle_alpha   59.94114872
_cell_angle_beta   59.94165956
_cell_angle_gamma   59.86475763
_symmetry_Int_Tables_number   1
_chemical_formula_structural   Dy3Tm2Lu3(CdIr)2
_chemical_formula_sum   'Dy6 Tm4 Lu6 Cd4 Ir4'
_cell_volume   612.92085553
_cell_formula_units_Z   2
loop_
 _symmetry_equiv_pos_site_id
 _symmetry_equiv_pos_as_xyz
  1  'x, y, z'
loop_
 _atom_site_type_symbol
 _atom_site_label
 _atom_site_symmetry_multiplicity
 _atom_site_fract_x
 _atom_site_fract_y
 _atom_site_fract_z
 _atom_site_occupancy
  Dy  Dy0  1  0.189619  0.810647  0.810758  1
  Dy  Dy1  1  0.810651  0.189597  0.189004  1
  Dy  Dy2  1  0.810651  0.189597  0.810748  1
  Dy  Dy3  1  0.189619  0.810647  0.188977  1
  Dy  Dy4  1  0.810812  0.810834  0.189177  1
  Dy  Dy5  1  0.189273  0.189266  0.810731  1
  Tm  Tm6  1  0.599175  0.599188  0.598109  1
  Tm  Tm7  1  0.599175  0.599188  0.203527  1
  Tm  Tm8  1  0.599487  0.203325  0.598594  1
  Tm  Tm9  1  0.203328  0.599500  0.598586  1
  Lu  Lu10  1  0.061729  0.437179  0.438597  1
  Lu  Lu11  1  0.437200  0.061725  0.062453  1
  Lu  Lu12  1  0.437200  0.061725  0.438623  1
  Lu  Lu13  1  0.061729  0.437179  0.062495  1
  Lu  Lu14  1  0.437950  0.437961  0.062045  1
  Lu  Lu15  1  0.062206  0.062213  0.437790  1
  Cd  Cd16  1  0.830152  0.830136  0.830691  1
  Cd  Cd17  1  0.830152  0.830136  0.509021  1
  Cd  Cd18  1  0.830549  0.507371  0.831040  1
  Cd  Cd19  1  0.507326  0.830549  0.831063  1
  Ir  Ir20  1  0.391974  0.391959  0.390640  1
  Ir  Ir21  1  0.391974  0.391959  0.825427  1
  Ir  Ir22  1  0.392232  0.825869  0.390949  1
  Ir  Ir23  1  0.825836  0.392250  0.390957  1
