# generated using pymatgen
data_DyTm2In3Pt2Rh
_symmetry_space_group_name_H-M   'P 1'
_cell_length_a   7.67101720
_cell_length_b   7.66094973
_cell_length_c   3.79854100
_cell_angle_alpha   90.00000000
_cell_angle_beta   90.00000000
_cell_angle_gamma   119.95659810
_symmetry_Int_Tables_number   1
_chemical_formula_structural   DyTm2In3Pt2Rh
_chemical_formula_sum   'Dy1 Tm2 In3 Pt2 Rh1'
_cell_volume   193.40726785
_cell_formula_units_Z   1
loop_
 _symmetry_equiv_pos_site_id
 _symmetry_equiv_pos_as_xyz
  1  'x, y, z'
loop_
 _atom_site_type_symbol
 _atom_site_label
 _atom_site_symmetry_multiplicity
 _atom_site_fract_x
 _atom_site_fract_y
 _atom_site_fract_z
 _atom_site_occupancy
  Dy  Dy0  1  0.000000  0.403684  0.500000  1
  Tm  Tm1  1  0.596420  0.596389  0.500000  1
  Tm  Tm2  1  0.403580  0.999969  0.500000  1
  In  In3  1  0.259073  0.258501  0.000000  1
  In  In4  1  0.000000  0.741959  0.000000  1
  In  In5  1  0.740927  0.999428  0.000000  1
  Pt  Pt6  1  0.334599  0.667679  0.000000  1
  Pt  Pt7  1  0.665401  0.333079  0.000000  1
  Rh  Rh8  1  0.000000  0.999311  0.500000  1
