# generated using pymatgen
data_DyEr3Pa4(ReB6)4
_symmetry_space_group_name_H-M   'P 1'
_cell_length_a   3.70824400
_cell_length_b   9.15749917
_cell_length_c   11.50602921
_cell_angle_alpha   90.02180457
_cell_angle_beta   90.00000000
_cell_angle_gamma   90.00000000
_symmetry_Int_Tables_number   1
_chemical_formula_structural   DyEr3Pa4(ReB6)4
_chemical_formula_sum   'Dy1 Er3 Pa4 Re4 B24'
_cell_volume   390.72448839
_cell_formula_units_Z   1
loop_
 _symmetry_equiv_pos_site_id
 _symmetry_equiv_pos_as_xyz
  1  'x, y, z'
loop_
 _atom_site_type_symbol
 _atom_site_label
 _atom_site_symmetry_multiplicity
 _atom_site_fract_x
 _atom_site_fract_y
 _atom_site_fract_z
 _atom_site_occupancy
  Dy  Dy0  1  0.000000  0.945135  0.374641  1
  Er  Er1  1  0.000000  0.055043  0.625786  1
  Er  Er2  1  0.000000  0.445072  0.125373  1
  Er  Er3  1  0.000000  0.554975  0.874459  1
  Pa  Pa4  1  0.000000  0.323199  0.413460  1
  Pa  Pa5  1  0.000000  0.676858  0.586874  1
  Pa  Pa6  1  0.000000  0.822831  0.086443  1
  Pa  Pa7  1  0.000000  0.177203  0.913315  1
  Re  Re8  1  0.000000  0.638145  0.321364  1
  Re  Re9  1  0.000000  0.361235  0.678758  1
  Re  Re10  1  0.000000  0.139316  0.178165  1
  Re  Re11  1  0.000000  0.861065  0.821437  1
  B  B12  1  0.500000  0.552515  0.433295  1
  B  B13  1  0.500000  0.447048  0.566922  1
  B  B14  1  0.500000  0.053104  0.066457  1
  B  B15  1  0.500000  0.947071  0.933222  1
  B  B16  1  0.500000  0.747827  0.420213  1
  B  B17  1  0.500000  0.251631  0.580130  1
  B  B18  1  0.500000  0.248850  0.079759  1
  B  B19  1  0.500000  0.751297  0.920086  1
  B  B20  1  0.500000  0.792882  0.265601  1
  B  B21  1  0.500000  0.206595  0.734254  1
  B  B22  1  0.500000  0.293761  0.233884  1
  B  B23  1  0.500000  0.706469  0.766033  1
  B  B24  1  0.500000  0.632896  0.184776  1
  B  B25  1  0.500000  0.366884  0.815118  1
  B  B26  1  0.500000  0.133866  0.314735  1
  B  B27  1  0.500000  0.866683  0.685231  1
  B  B28  1  0.500000  0.982875  0.213158  1
  B  B29  1  0.500000  0.017401  0.786405  1
  B  B30  1  0.500000  0.482445  0.286254  1
  B  B31  1  0.500000  0.517389  0.713762  1
  B  B32  1  0.500000  0.610417  0.030396  1
  B  B33  1  0.500000  0.389601  0.969394  1
  B  B34  1  0.500000  0.112349  0.469496  1
  B  B35  1  0.500000  0.888065  0.531345  1
