# generated using pymatgen
data_YEr9In8NiPd3
_symmetry_space_group_name_H-M   'P 1'
_cell_length_a   3.60765300
_cell_length_b   8.05079640
_cell_length_c   18.09223563
_cell_angle_alpha   90.04886904
_cell_angle_beta   90.00000000
_cell_angle_gamma   90.00000000
_symmetry_Int_Tables_number   1
_chemical_formula_structural   YEr9In8NiPd3
_chemical_formula_sum   'Y1 Er9 In8 Ni1 Pd3'
_cell_volume   525.47938064
_cell_formula_units_Z   1
loop_
 _symmetry_equiv_pos_site_id
 _symmetry_equiv_pos_as_xyz
  1  'x, y, z'
loop_
 _atom_site_type_symbol
 _atom_site_label
 _atom_site_symmetry_multiplicity
 _atom_site_fract_x
 _atom_site_fract_y
 _atom_site_fract_z
 _atom_site_occupancy
  Y  Y0  1  0.000000  0.499713  0.499431  1
  Er  Er1  1  0.000000  0.999875  0.000788  1
  Er  Er2  1  0.000000  0.731365  0.277242  1
  Er  Er3  1  0.000000  0.260437  0.719576  1
  Er  Er4  1  0.000000  0.760451  0.780758  1
  Er  Er5  1  0.000000  0.249576  0.218661  1
  Er  Er6  1  0.000000  0.613208  0.088727  1
  Er  Er7  1  0.000000  0.383629  0.917217  1
  Er  Er8  1  0.000000  0.882473  0.583665  1
  Er  Er9  1  0.000000  0.117619  0.415511  1
  In  In10  1  0.500000  0.709380  0.933350  1
  In  In11  1  0.500000  0.292854  0.068898  1
  In  In12  1  0.500000  0.792920  0.431102  1
  In  In13  1  0.500000  0.207315  0.567673  1
  In  In14  1  0.500000  0.581021  0.650163  1
  In  In15  1  0.500000  0.420649  0.347187  1
  In  In16  1  0.500000  0.919121  0.149856  1
  In  In17  1  0.500000  0.081062  0.851297  1
  Ni  Ni18  1  0.500000  0.521040  0.194670  1
  Pd  Pd19  1  0.500000  0.476759  0.805060  1
  Pd  Pd20  1  0.500000  0.976708  0.695858  1
  Pd  Pd21  1  0.500000  0.022822  0.303310  1
