# generated using pymatgen
data_RbEuMnSe3
_symmetry_space_group_name_H-M   'P 1'
_cell_length_a   7.98258022
_cell_length_b   7.98257980
_cell_length_c   11.58163700
_cell_angle_alpha   90.00000000
_cell_angle_beta   90.00000000
_cell_angle_gamma   148.80159842
_symmetry_Int_Tables_number   1
_chemical_formula_structural   RbEuMnSe3
_chemical_formula_sum   'Rb2 Eu2 Mn2 Se6'
_cell_volume   382.28645184
_cell_formula_units_Z   2
loop_
 _symmetry_equiv_pos_site_id
 _symmetry_equiv_pos_as_xyz
  1  'x, y, z'
loop_
 _atom_site_type_symbol
 _atom_site_label
 _atom_site_symmetry_multiplicity
 _atom_site_fract_x
 _atom_site_fract_y
 _atom_site_fract_z
 _atom_site_occupancy
  Rb  Rb0  1  0.257141  0.742859  0.250000  1
  Rb  Rb1  1  0.742859  0.257141  0.750000  1
  Eu  Eu2  1  0.000000  0.000000  0.000000  1
  Eu  Eu3  1  0.000000  0.000000  0.500000  1
  Mn  Mn4  1  0.537810  0.462190  0.250000  1
  Mn  Mn5  1  0.462190  0.537810  0.750000  1
  Se  Se6  1  0.623555  0.376445  0.073614  1
  Se  Se7  1  0.376445  0.623555  0.926386  1
  Se  Se8  1  0.376445  0.623555  0.573614  1
  Se  Se9  1  0.623555  0.376445  0.426386  1
  Se  Se10  1  0.945828  0.054172  0.250000  1
  Se  Se11  1  0.054172  0.945828  0.750000  1
