# generated using pymatgen
data_Y16Tl5CoSnOs
_symmetry_space_group_name_H-M   'P 1'
_cell_length_a   10.40383300
_cell_length_b   10.39725078
_cell_length_c   7.15757600
_cell_angle_alpha   90.00724102
_cell_angle_beta   90.00000000
_cell_angle_gamma   120.02094727
_symmetry_Int_Tables_number   1
_chemical_formula_structural   Y16Tl5CoSnOs
_chemical_formula_sum   'Y16 Tl5 Co1 Sn1 Os1'
_cell_volume   670.37340705
_cell_formula_units_Z   1
loop_
 _symmetry_equiv_pos_site_id
 _symmetry_equiv_pos_as_xyz
  1  'x, y, z'
loop_
 _atom_site_type_symbol
 _atom_site_label
 _atom_site_symmetry_multiplicity
 _atom_site_fract_x
 _atom_site_fract_y
 _atom_site_fract_z
 _atom_site_occupancy
  Y  Y0  1  0.464405  0.536669  0.480758  1
  Y  Y1  1  0.072264  0.536669  0.480758  1
  Y  Y2  1  0.463552  0.927101  0.479679  1
  Y  Y3  1  0.537644  0.462098  0.979873  1
  Y  Y4  1  0.924454  0.462098  0.979873  1
  Y  Y5  1  0.538154  0.076307  0.980181  1
  Y  Y6  1  0.822602  0.178190  0.278744  1
  Y  Y7  1  0.355588  0.178190  0.278744  1
  Y  Y8  1  0.822051  0.644104  0.275359  1
  Y  Y9  1  0.178533  0.825095  0.780790  1
  Y  Y10  1  0.646562  0.825095  0.780790  1
  Y  Y11  1  0.176071  0.352144  0.779574  1
  Y  Y12  1  0.333004  0.666008  0.100263  1
  Y  Y13  1  0.666125  0.332251  0.589063  1
  Y  Y14  1  0.998954  0.997909  0.496201  1
  Y  Y15  1  0.999269  0.998538  0.000704  1
  Tl  Tl16  1  0.162239  0.837520  0.231401  1
  Tl  Tl17  1  0.675282  0.837520  0.231401  1
  Tl  Tl18  1  0.162294  0.324587  0.231885  1
  Tl  Tl19  1  0.836114  0.164089  0.729141  1
  Tl  Tl20  1  0.327974  0.164089  0.729141  1
  Co  Co21  1  0.666902  0.333802  0.208719  1
  Sn  Sn22  1  0.836464  0.672930  0.731276  1
  Os  Os23  1  0.333498  0.666998  0.710236  1
