# generated using pymatgen
data_Dy16GaHg5Ir2
_symmetry_space_group_name_H-M   'P 1'
_cell_length_a   10.14762800
_cell_length_b   10.17029241
_cell_length_c   7.20252803
_cell_angle_alpha   90.13831015
_cell_angle_beta   90.00000000
_cell_angle_gamma   119.92630942
_symmetry_Int_Tables_number   1
_chemical_formula_structural   Dy16GaHg5Ir2
_chemical_formula_sum   'Dy16 Ga1 Hg5 Ir2'
_cell_volume   644.21953660
_cell_formula_units_Z   1
loop_
 _symmetry_equiv_pos_site_id
 _symmetry_equiv_pos_as_xyz
  1  'x, y, z'
loop_
 _atom_site_type_symbol
 _atom_site_label
 _atom_site_symmetry_multiplicity
 _atom_site_fract_x
 _atom_site_fract_y
 _atom_site_fract_z
 _atom_site_occupancy
  Dy  Dy0  1  0.170216  0.826334  0.514046  1
  Dy  Dy1  1  0.656118  0.826334  0.514046  1
  Dy  Dy2  1  0.171365  0.342729  0.515917  1
  Dy  Dy3  1  0.829684  0.173656  0.016183  1
  Dy  Dy4  1  0.343972  0.173656  0.016183  1
  Dy  Dy5  1  0.827665  0.655331  0.017885  1
  Dy  Dy6  1  0.333330  0.666661  0.826255  1
  Dy  Dy7  1  0.668575  0.337150  0.331112  1
  Dy  Dy8  1  0.464088  0.537345  0.208367  1
  Dy  Dy9  1  0.073256  0.537345  0.208367  1
  Dy  Dy10  1  0.463637  0.927274  0.208171  1
  Dy  Dy11  1  0.539930  0.464448  0.706436  1
  Dy  Dy12  1  0.924519  0.464448  0.706436  1
  Dy  Dy13  1  0.538068  0.076136  0.708471  1
  Dy  Dy14  1  0.995358  0.990717  0.233978  1
  Dy  Dy15  1  0.996023  0.992047  0.731313  1
  Ga  Ga16  1  0.836052  0.672104  0.454433  1
  Hg  Hg17  1  0.166617  0.833704  0.953239  1
  Hg  Hg18  1  0.667087  0.833704  0.953239  1
  Hg  Hg19  1  0.167475  0.334951  0.952392  1
  Hg  Hg20  1  0.831849  0.165896  0.452681  1
  Hg  Hg21  1  0.334047  0.165896  0.452681  1
  Ir  Ir22  1  0.333350  0.666701  0.445138  1
  Ir  Ir23  1  0.667716  0.335433  0.947865  1
