# generated using pymatgen
data_K7Rb3(Sb2Au)2
_symmetry_space_group_name_H-M   'P 1'
_cell_length_a   6.12796800
_cell_length_b   6.12796717
_cell_length_c   20.87250000
_cell_angle_alpha   90.00000000
_cell_angle_beta   90.00000000
_cell_angle_gamma   120.00000450
_symmetry_Int_Tables_number   1
_chemical_formula_structural   K7Rb3(Sb2Au)2
_chemical_formula_sum   'K7 Rb3 Sb4 Au2'
_cell_volume   678.79400846
_cell_formula_units_Z   1
loop_
 _symmetry_equiv_pos_site_id
 _symmetry_equiv_pos_as_xyz
  1  'x, y, z'
loop_
 _atom_site_type_symbol
 _atom_site_label
 _atom_site_symmetry_multiplicity
 _atom_site_fract_x
 _atom_site_fract_y
 _atom_site_fract_z
 _atom_site_occupancy
  K  K0  1  0.666667  0.333333  0.049643  1
  K  K1  1  0.666667  0.333333  0.450251  1
  K  K2  1  0.333333  0.666667  0.950341  1
  K  K3  1  0.000000  0.000000  0.145365  1
  K  K4  1  0.000000  0.000000  0.645549  1
  K  K5  1  0.000000  0.000000  0.854620  1
  K  K6  1  0.000000  0.000000  0.354548  1
  Rb  Rb7  1  0.333333  0.666667  0.549730  1
  Rb  Rb8  1  0.333333  0.666667  0.750106  1
  Rb  Rb9  1  0.666667  0.333333  0.249964  1
  Sb  Sb10  1  0.333333  0.666667  0.121131  1
  Sb  Sb11  1  0.666667  0.333333  0.621514  1
  Sb  Sb12  1  0.333333  0.666667  0.378393  1
  Sb  Sb13  1  0.666667  0.333333  0.878858  1
  Au  Au14  1  0.666667  0.333333  0.750056  1
  Au  Au15  1  0.333333  0.666667  0.249931  1
