# generated using pymatgen
data_LiNdSm(PRh2)6
_symmetry_space_group_name_H-M   'P 1'
_cell_length_a   9.68327000
_cell_length_b   9.68327116
_cell_length_c   3.92466100
_cell_angle_alpha   90.00000000
_cell_angle_beta   90.00000000
_cell_angle_gamma   120.00000969
_symmetry_Int_Tables_number   1
_chemical_formula_structural   LiNdSm(PRh2)6
_chemical_formula_sum   'Li1 Nd1 Sm1 P6 Rh12'
_cell_volume   318.69619194
_cell_formula_units_Z   1
loop_
 _symmetry_equiv_pos_site_id
 _symmetry_equiv_pos_as_xyz
  1  'x, y, z'
loop_
 _atom_site_type_symbol
 _atom_site_label
 _atom_site_symmetry_multiplicity
 _atom_site_fract_x
 _atom_site_fract_y
 _atom_site_fract_z
 _atom_site_occupancy
  Li  Li0  1  0.000000  0.000000  0.500153  1
  Nd  Nd1  1  0.666667  0.333333  0.248583  1
  Sm  Sm2  1  0.333333  0.666667  0.751518  1
  P  P3  1  0.886913  0.603068  0.748802  1
  P  P4  1  0.396932  0.283846  0.748802  1
  P  P5  1  0.716154  0.113087  0.748802  1
  P  P6  1  0.113662  0.397717  0.251163  1
  P  P7  1  0.602283  0.715943  0.251163  1
  P  P8  1  0.284057  0.886338  0.251163  1
  Rh  Rh9  1  0.613150  0.550049  0.749359  1
  Rh  Rh10  1  0.449951  0.063102  0.749359  1
  Rh  Rh11  1  0.936898  0.386850  0.749359  1
  Rh  Rh12  1  0.386365  0.450981  0.250644  1
  Rh  Rh13  1  0.549019  0.935382  0.250644  1
  Rh  Rh14  1  0.064618  0.613635  0.250644  1
  Rh  Rh15  1  0.127649  0.843021  0.750879  1
  Rh  Rh16  1  0.156979  0.284629  0.750879  1
  Rh  Rh17  1  0.715371  0.872351  0.750879  1
  Rh  Rh18  1  0.872698  0.156844  0.249069  1
  Rh  Rh19  1  0.843156  0.715853  0.249069  1
  Rh  Rh20  1  0.284147  0.127302  0.249069  1
