# generated using pymatgen
data_TbBi(IO4)2
_symmetry_space_group_name_H-M   'P 1'
_cell_length_a   5.58134744
_cell_length_b   5.64959800
_cell_length_c   10.92657500
_cell_angle_alpha   90.00000000
_cell_angle_beta   89.28265319
_cell_angle_gamma   90.00000000
_symmetry_Int_Tables_number   1
_chemical_formula_structural   TbBi(IO4)2
_chemical_formula_sum   'Tb2 Bi2 I4 O16'
_cell_volume   344.51379496
_cell_formula_units_Z   2
loop_
 _symmetry_equiv_pos_site_id
 _symmetry_equiv_pos_as_xyz
  1  'x, y, z'
loop_
 _atom_site_type_symbol
 _atom_site_label
 _atom_site_symmetry_multiplicity
 _atom_site_fract_x
 _atom_site_fract_y
 _atom_site_fract_z
 _atom_site_occupancy
  Tb  Tb0  1  0.493699  0.312620  0.888709  1
  Tb  Tb1  1  0.506301  0.812620  0.111291  1
  Bi  Bi2  1  0.012026  0.813922  0.896447  1
  Bi  Bi3  1  0.987974  0.313922  0.103553  1
  I  I4  1  0.004205  0.335089  0.634136  1
  I  I5  1  0.995795  0.835089  0.365864  1
  I  I6  1  0.502371  0.829550  0.634688  1
  I  I7  1  0.497629  0.329550  0.365312  1
  O  O8  1  0.247489  0.063472  0.007373  1
  O  O9  1  0.752511  0.563472  0.992627  1
  O  O10  1  0.258846  0.568759  0.004133  1
  O  O11  1  0.741154  0.068759  0.995867  1
  O  O12  1  0.140954  0.415781  0.781129  1
  O  O13  1  0.859046  0.915781  0.218871  1
  O  O14  1  0.383060  0.941865  0.781640  1
  O  O15  1  0.616940  0.441865  0.218360  1
  O  O16  1  0.827392  0.096158  0.711606  1
  O  O17  1  0.172608  0.596158  0.288394  1
  O  O18  1  0.642473  0.569158  0.713211  1
  O  O19  1  0.357527  0.069158  0.286789  1
  O  O20  1  0.249678  0.159921  0.560734  1
  O  O21  1  0.750322  0.659921  0.439266  1
  O  O22  1  0.242986  0.670527  0.567221  1
  O  O23  1  0.757014  0.170527  0.432779  1
