# generated using pymatgen
data_LiHo9Tl3Pd
_symmetry_space_group_name_H-M   'P 1'
_cell_length_a   9.51018400
_cell_length_b   9.51018355
_cell_length_c   9.58111500
_cell_angle_alpha   90.00000000
_cell_angle_beta   90.00000000
_cell_angle_gamma   119.99999460
_symmetry_Int_Tables_number   1
_chemical_formula_structural   LiHo9Tl3Pd
_chemical_formula_sum   'Li2 Ho18 Tl6 Pd2'
_cell_volume   750.45477812
_cell_formula_units_Z   2
loop_
 _symmetry_equiv_pos_site_id
 _symmetry_equiv_pos_as_xyz
  1  'x, y, z'
loop_
 _atom_site_type_symbol
 _atom_site_label
 _atom_site_symmetry_multiplicity
 _atom_site_fract_x
 _atom_site_fract_y
 _atom_site_fract_z
 _atom_site_occupancy
  Li  Li0  1  0.000000  0.000000  0.000000  1
  Li  Li1  1  0.000000  0.000000  0.500000  1
  Ho  Ho2  1  0.204789  0.795211  0.939628  1
  Ho  Ho3  1  0.204789  0.409579  0.939628  1
  Ho  Ho4  1  0.590421  0.795211  0.939628  1
  Ho  Ho5  1  0.795211  0.204789  0.060372  1
  Ho  Ho6  1  0.795211  0.590421  0.060372  1
  Ho  Ho7  1  0.409579  0.204789  0.060372  1
  Ho  Ho8  1  0.795211  0.204789  0.439628  1
  Ho  Ho9  1  0.795211  0.590421  0.439628  1
  Ho  Ho10  1  0.409579  0.204789  0.439628  1
  Ho  Ho11  1  0.204789  0.795211  0.560372  1
  Ho  Ho12  1  0.204789  0.409579  0.560372  1
  Ho  Ho13  1  0.590421  0.795211  0.560372  1
  Ho  Ho14  1  0.541714  0.458286  0.750000  1
  Ho  Ho15  1  0.541714  0.083425  0.750000  1
  Ho  Ho16  1  0.916575  0.458286  0.750000  1
  Ho  Ho17  1  0.458286  0.541714  0.250000  1
  Ho  Ho18  1  0.458286  0.916575  0.250000  1
  Ho  Ho19  1  0.083425  0.541714  0.250000  1
  Tl  Tl20  1  0.887086  0.112914  0.750000  1
  Tl  Tl21  1  0.887086  0.774172  0.750000  1
  Tl  Tl22  1  0.225828  0.112914  0.750000  1
  Tl  Tl23  1  0.112914  0.887086  0.250000  1
  Tl  Tl24  1  0.112914  0.225828  0.250000  1
  Tl  Tl25  1  0.774172  0.887086  0.250000  1
  Pd  Pd26  1  0.333333  0.666667  0.750000  1
  Pd  Pd27  1  0.666667  0.333333  0.250000  1
