# generated using pymatgen
data_NdCuAu(SO4)4
_symmetry_space_group_name_H-M   'P 1'
_cell_length_a   6.40858586
_cell_length_b   6.40859133
_cell_length_c   8.86876409
_cell_angle_alpha   74.51071546
_cell_angle_beta   74.51092539
_cell_angle_gamma   88.80844745
_symmetry_Int_Tables_number   1
_chemical_formula_structural   NdCuAu(SO4)4
_chemical_formula_sum   'Nd1 Cu1 Au1 S4 O16'
_cell_volume   337.76195265
_cell_formula_units_Z   1
loop_
 _symmetry_equiv_pos_site_id
 _symmetry_equiv_pos_as_xyz
  1  'x, y, z'
loop_
 _atom_site_type_symbol
 _atom_site_label
 _atom_site_symmetry_multiplicity
 _atom_site_fract_x
 _atom_site_fract_y
 _atom_site_fract_z
 _atom_site_occupancy
  Nd  Nd0  1  0.000000  0.000000  0.000000  1
  Cu  Cu1  1  0.000000  0.000000  0.500000  1
  Au  Au2  1  0.500000  0.500000  0.500000  1
  S  S3  1  0.081351  0.590627  0.739186  1
  S  S4  1  0.590628  0.081349  0.739186  1
  S  S5  1  0.918649  0.409373  0.260814  1
  S  S6  1  0.409372  0.918651  0.260814  1
  O  O7  1  0.330132  0.630526  0.678155  1
  O  O8  1  0.630528  0.330130  0.678155  1
  O  O9  1  0.669868  0.369474  0.321845  1
  O  O10  1  0.369472  0.669870  0.321845  1
  O  O11  1  0.018402  0.703488  0.866625  1
  O  O12  1  0.703490  0.018396  0.866625  1
  O  O13  1  0.981598  0.296512  0.133375  1
  O  O14  1  0.296510  0.981604  0.133375  1
  O  O15  1  0.985275  0.685318  0.601507  1
  O  O16  1  0.685318  0.985275  0.601506  1
  O  O17  1  0.014725  0.314682  0.398493  1
  O  O18  1  0.314682  0.014725  0.398494  1
  O  O19  1  0.025915  0.356635  0.797349  1
  O  O20  1  0.356636  0.025915  0.797349  1
  O  O21  1  0.974085  0.643365  0.202651  1
  O  O22  1  0.643364  0.974085  0.202651  1
