# generated using pymatgen
data_Sr2CdIn3Pt2
_symmetry_space_group_name_H-M   'P 1'
_cell_length_a   5.92213582
_cell_length_b   5.92213664
_cell_length_c   8.20418684
_cell_angle_alpha   89.84018299
_cell_angle_beta   90.15981798
_cell_angle_gamma   135.86691297
_symmetry_Int_Tables_number   1
_chemical_formula_structural   Sr2CdIn3Pt2
_chemical_formula_sum   'Sr2 Cd1 In3 Pt2'
_cell_volume   200.35668412
_cell_formula_units_Z   1
loop_
 _symmetry_equiv_pos_site_id
 _symmetry_equiv_pos_as_xyz
  1  'x, y, z'
loop_
 _atom_site_type_symbol
 _atom_site_label
 _atom_site_symmetry_multiplicity
 _atom_site_fract_x
 _atom_site_fract_y
 _atom_site_fract_z
 _atom_site_occupancy
  Sr  Sr0  1  0.938471  0.061529  0.753095  1
  Sr  Sr1  1  0.062523  0.937477  0.247896  1
  Cd  Cd2  1  0.648277  0.351723  0.947247  1
  In  In3  1  0.649871  0.350129  0.556632  1
  In  In4  1  0.346087  0.653913  0.051127  1
  In  In5  1  0.350848  0.649152  0.445896  1
  Pt  Pt6  1  0.224781  0.775219  0.744395  1
  Pt  Pt7  1  0.779142  0.220858  0.253712  1
