# generated using pymatgen
data_Pr3Si2Ni
_symmetry_space_group_name_H-M   'P 1'
_cell_length_a   4.26374700
_cell_length_b   11.79147600
_cell_length_c   11.81574600
_cell_angle_alpha   90.00000000
_cell_angle_beta   90.00000000
_cell_angle_gamma   90.00000000
_symmetry_Int_Tables_number   1
_chemical_formula_structural   Pr3Si2Ni
_chemical_formula_sum   'Pr12 Si8 Ni4'
_cell_volume   594.04691482
_cell_formula_units_Z   4
loop_
 _symmetry_equiv_pos_site_id
 _symmetry_equiv_pos_as_xyz
  1  'x, y, z'
loop_
 _atom_site_type_symbol
 _atom_site_label
 _atom_site_symmetry_multiplicity
 _atom_site_fract_x
 _atom_site_fract_y
 _atom_site_fract_z
 _atom_site_occupancy
  Pr  Pr0  1  0.250000  0.376175  0.559692  1
  Pr  Pr1  1  0.750000  0.558382  0.116011  1
  Pr  Pr2  1  0.750000  0.197091  0.788774  1
  Pr  Pr3  1  0.250000  0.697091  0.711226  1
  Pr  Pr4  1  0.750000  0.623825  0.440308  1
  Pr  Pr5  1  0.750000  0.876175  0.940308  1
  Pr  Pr6  1  0.250000  0.802909  0.211226  1
  Pr  Pr7  1  0.250000  0.441618  0.883989  1
  Pr  Pr8  1  0.750000  0.302909  0.288774  1
  Pr  Pr9  1  0.250000  0.123825  0.059692  1
  Pr  Pr10  1  0.750000  0.941618  0.616011  1
  Pr  Pr11  1  0.250000  0.058382  0.383989  1
  Si  Si12  1  0.250000  0.490090  0.300216  1
  Si  Si13  1  0.250000  0.814034  0.469308  1
  Si  Si14  1  0.250000  0.685966  0.969308  1
  Si  Si15  1  0.750000  0.990090  0.199784  1
  Si  Si16  1  0.750000  0.509910  0.699784  1
  Si  Si17  1  0.250000  0.009910  0.800216  1
  Si  Si18  1  0.750000  0.185966  0.530692  1
  Si  Si19  1  0.750000  0.314034  0.030692  1
  Ni  Ni20  1  0.250000  0.135196  0.629591  1
  Ni  Ni21  1  0.750000  0.864804  0.370409  1
  Ni  Ni22  1  0.250000  0.364804  0.129591  1
  Ni  Ni23  1  0.750000  0.635196  0.870409  1
