# generated using pymatgen
data_CaNd5YOsBr12
_symmetry_space_group_name_H-M   'P 1'
_cell_length_a   9.58853206
_cell_length_b   9.52421146
_cell_length_c   9.49866091
_cell_angle_alpha   107.17133392
_cell_angle_beta   107.22802672
_cell_angle_gamma   106.62564495
_symmetry_Int_Tables_number   1
_chemical_formula_structural   CaNd5YOsBr12
_chemical_formula_sum   'Ca1 Nd5 Y1 Os1 Br12'
_cell_volume   722.23601718
_cell_formula_units_Z   1
loop_
 _symmetry_equiv_pos_site_id
 _symmetry_equiv_pos_as_xyz
  1  'x, y, z'
loop_
 _atom_site_type_symbol
 _atom_site_label
 _atom_site_symmetry_multiplicity
 _atom_site_fract_x
 _atom_site_fract_y
 _atom_site_fract_z
 _atom_site_occupancy
  Ca  Ca0  1  0.500483  0.499604  0.499239  1
  Nd  Nd1  1  0.025577  0.311945  0.104468  1
  Nd  Nd2  1  0.106716  0.027433  0.314144  1
  Nd  Nd3  1  0.897011  0.973590  0.687440  1
  Nd  Nd4  1  0.974708  0.688845  0.895761  1
  Nd  Nd5  1  0.676788  0.891975  0.972931  1
  Y  Y6  1  0.316220  0.106452  0.027700  1
  Os  Os7  1  0.000538  0.000643  0.001037  1
  Br  Br8  1  0.675312  0.218663  0.068350  1
  Br  Br9  1  0.379780  0.448727  0.159560  1
  Br  Br10  1  0.069996  0.683293  0.222018  1
  Br  Br11  1  0.780953  0.931269  0.318165  1
  Br  Br12  1  0.457765  0.163534  0.372205  1
  Br  Br13  1  0.167352  0.382152  0.460164  1
  Br  Br14  1  0.833583  0.618140  0.540153  1
  Br  Br15  1  0.542213  0.834891  0.618330  1
  Br  Br16  1  0.225906  0.071174  0.692087  1
  Br  Br17  1  0.930260  0.316722  0.778189  1
  Br  Br18  1  0.620452  0.541210  0.834726  1
  Br  Br19  1  0.318391  0.789739  0.933335  1
