# generated using pymatgen
data_NdDy(NbSe2)6
_symmetry_space_group_name_H-M   'P 1'
_cell_length_a   6.09304100
_cell_length_b   6.09304186
_cell_length_c   14.66453700
_cell_angle_alpha   90.00000000
_cell_angle_beta   90.00000000
_cell_angle_gamma   120.00000074
_symmetry_Int_Tables_number   1
_chemical_formula_structural   NdDy(NbSe2)6
_chemical_formula_sum   'Nd1 Dy1 Nb6 Se12'
_cell_volume   471.48431182
_cell_formula_units_Z   1
loop_
 _symmetry_equiv_pos_site_id
 _symmetry_equiv_pos_as_xyz
  1  'x, y, z'
loop_
 _atom_site_type_symbol
 _atom_site_label
 _atom_site_symmetry_multiplicity
 _atom_site_fract_x
 _atom_site_fract_y
 _atom_site_fract_z
 _atom_site_occupancy
  Nd  Nd0  1  0.666667  0.333333  0.750000  1
  Dy  Dy1  1  0.333333  0.666667  0.250000  1
  Nb  Nb2  1  0.333333  0.666667  0.004734  1
  Nb  Nb3  1  0.000000  0.000000  0.003531  1
  Nb  Nb4  1  0.666667  0.333333  0.000932  1
  Nb  Nb5  1  0.333333  0.666667  0.495266  1
  Nb  Nb6  1  0.000000  0.000000  0.496469  1
  Nb  Nb7  1  0.666667  0.333333  0.499068  1
  Se  Se8  1  0.672214  0.664823  0.382619  1
  Se  Se9  1  0.666108  0.675743  0.610954  1
  Se  Se10  1  0.009635  0.675743  0.889046  1
  Se  Se11  1  0.666108  0.990365  0.889046  1
  Se  Se12  1  0.672214  0.007391  0.117381  1
  Se  Se13  1  0.335177  0.007391  0.382619  1
  Se  Se14  1  0.009635  0.333892  0.610954  1
  Se  Se15  1  0.324257  0.990365  0.610954  1
  Se  Se16  1  0.992609  0.664823  0.117381  1
  Se  Se17  1  0.324257  0.333892  0.889046  1
  Se  Se18  1  0.992609  0.327786  0.382619  1
  Se  Se19  1  0.335177  0.327786  0.117381  1
