# generated using pymatgen
data_Er6Ir11Rh7
_symmetry_space_group_name_H-M   'P 1'
_cell_length_a   5.27263300
_cell_length_b   5.27214514
_cell_length_c   17.50603828
_cell_angle_alpha   89.98234604
_cell_angle_beta   90.00000000
_cell_angle_gamma   120.00305481
_symmetry_Int_Tables_number   1
_chemical_formula_structural   Er6Ir11Rh7
_chemical_formula_sum   'Er6 Ir11 Rh7'
_cell_volume   421.42472277
_cell_formula_units_Z   1
loop_
 _symmetry_equiv_pos_site_id
 _symmetry_equiv_pos_as_xyz
  1  'x, y, z'
loop_
 _atom_site_type_symbol
 _atom_site_label
 _atom_site_symmetry_multiplicity
 _atom_site_fract_x
 _atom_site_fract_y
 _atom_site_fract_z
 _atom_site_occupancy
  Er  Er0  1  0.333238  0.666477  0.041614  1
  Er  Er1  1  0.333306  0.666613  0.249976  1
  Er  Er2  1  0.333325  0.666650  0.458307  1
  Er  Er3  1  0.666658  0.333317  0.541632  1
  Er  Er4  1  0.666676  0.333351  0.749602  1
  Er  Er5  1  0.667095  0.334190  0.958571  1
  Ir  Ir6  1  0.001190  0.002379  0.999768  1
  Ir  Ir7  1  0.335353  0.167539  0.125010  1
  Ir  Ir8  1  0.832184  0.167539  0.125010  1
  Ir  Ir9  1  0.832180  0.664361  0.125294  1
  Ir  Ir10  1  0.335489  0.167938  0.374532  1
  Ir  Ir11  1  0.832447  0.167938  0.374532  1
  Ir  Ir12  1  0.832159  0.664318  0.374512  1
  Ir  Ir13  1  0.167896  0.335790  0.625578  1
  Ir  Ir14  1  0.167399  0.832116  0.625757  1
  Ir  Ir15  1  0.664718  0.832116  0.625757  1
  Ir  Ir16  1  0.166776  0.333551  0.874614  1
  Rh  Rh17  1  0.000084  0.000168  0.250214  1
  Rh  Rh18  1  0.666619  0.333238  0.250099  1
  Rh  Rh19  1  0.999891  0.999781  0.499992  1
  Rh  Rh20  1  0.000596  0.001192  0.749602  1
  Rh  Rh21  1  0.333324  0.666647  0.749874  1
  Rh  Rh22  1  0.166700  0.831395  0.875077  1
  Rh  Rh23  1  0.664697  0.831395  0.875077  1
