# generated using pymatgen
data_La8TbHoPb6
_symmetry_space_group_name_H-M   'P 1'
_cell_length_a   6.31753582
_cell_length_b   9.55187316
_cell_length_c   9.55187300
_cell_angle_alpha   83.72157539
_cell_angle_beta   70.68896342
_cell_angle_gamma   70.68896908
_symmetry_Int_Tables_number   1
_chemical_formula_structural   La8TbHoPb6
_chemical_formula_sum   'La8 Tb1 Ho1 Pb6'
_cell_volume   513.36591029
_cell_formula_units_Z   1
loop_
 _symmetry_equiv_pos_site_id
 _symmetry_equiv_pos_as_xyz
  1  'x, y, z'
loop_
 _atom_site_type_symbol
 _atom_site_label
 _atom_site_symmetry_multiplicity
 _atom_site_fract_x
 _atom_site_fract_y
 _atom_site_fract_z
 _atom_site_occupancy
  La  La0  1  0.722895  0.864845  0.689678  1
  La  La1  1  0.277419  0.135155  0.310322  1
  La  La2  1  0.777105  0.310322  0.135155  1
  La  La3  1  0.222581  0.689678  0.864845  1
  La  La4  1  0.587426  0.689678  0.135155  1
  La  La5  1  0.412260  0.310322  0.864845  1
  La  La6  1  0.087740  0.135155  0.689678  1
  La  La7  1  0.912574  0.864845  0.310322  1
  Tb  Tb8  1  0.750000  0.500000  0.500000  1
  Ho  Ho9  1  0.250000  0.500000  0.500000  1
  Pb  Pb10  1  0.156467  0.500000  0.187933  1
  Pb  Pb11  1  0.844399  0.500000  0.812067  1
  Pb  Pb12  1  0.343533  0.812067  0.500000  1
  Pb  Pb13  1  0.655601  0.187933  0.500000  1
  Pb  Pb14  1  0.250000  0.000000  0.000000  1
  Pb  Pb15  1  0.750000  0.000000  0.000000  1
