# generated using pymatgen
data_Sm5Ho3Sc12Si15As
_symmetry_space_group_name_H-M   'P 1'
_cell_length_a   7.18513067
_cell_length_b   7.41145684
_cell_length_c   14.06238486
_cell_angle_alpha   90.03314485
_cell_angle_beta   88.83057269
_cell_angle_gamma   90.21711524
_symmetry_Int_Tables_number   1
_chemical_formula_structural   Sm5Ho3Sc12Si15As
_chemical_formula_sum   'Sm5 Ho3 Sc12 Si15 As1'
_cell_volume   748.69269523
_cell_formula_units_Z   1
loop_
 _symmetry_equiv_pos_site_id
 _symmetry_equiv_pos_as_xyz
  1  'x, y, z'
loop_
 _atom_site_type_symbol
 _atom_site_label
 _atom_site_symmetry_multiplicity
 _atom_site_fract_x
 _atom_site_fract_y
 _atom_site_fract_z
 _atom_site_occupancy
  Sm  Sm0  1  0.010609  0.174142  0.098117  1
  Sm  Sm1  1  0.990021  0.826382  0.901450  1
  Sm  Sm2  1  0.489781  0.673356  0.902852  1
  Sm  Sm3  1  0.994935  0.822333  0.594845  1
  Sm  Sm4  1  0.510744  0.326890  0.098163  1
  Ho  Ho5  1  0.003176  0.178818  0.403328  1
  Ho  Ho6  1  0.501633  0.320894  0.401842  1
  Ho  Ho7  1  0.502549  0.677224  0.596953  1
  Sc  Sc8  1  0.167406  0.500036  0.748970  1
  Sc  Sc9  1  0.832598  0.499554  0.254086  1
  Sc  Sc10  1  0.332459  0.999986  0.252793  1
  Sc  Sc11  1  0.667572  0.000315  0.748125  1
  Sc  Sc12  1  0.343578  0.170783  0.625716  1
  Sc  Sc13  1  0.657487  0.827798  0.374446  1
  Sc  Sc14  1  0.155351  0.670891  0.378157  1
  Sc  Sc15  1  0.667031  0.824522  0.126849  1
  Sc  Sc16  1  0.841966  0.329687  0.621114  1
  Sc  Sc17  1  0.333023  0.175122  0.873463  1
  Sc  Sc18  1  0.833329  0.323700  0.873940  1
  Sc  Sc19  1  0.166594  0.676477  0.126296  1
  Si  Si20  1  0.039796  0.121777  0.747998  1
  Si  Si21  1  0.960537  0.880444  0.251633  1
  Si  Si22  1  0.456856  0.619393  0.250739  1
  Si  Si23  1  0.542002  0.380632  0.749135  1
  Si  Si24  1  0.293701  0.873757  0.748568  1
  Si  Si25  1  0.709281  0.125534  0.251890  1
  Si  Si26  1  0.207299  0.375944  0.252443  1
  Si  Si27  1  0.792068  0.622625  0.748509  1
  Si  Si28  1  0.807302  0.538055  0.456312  1
  Si  Si29  1  0.331271  0.963501  0.459883  1
  Si  Si30  1  0.845569  0.537117  0.039402  1
  Si  Si31  1  0.667570  0.039502  0.538892  1
  Si  Si32  1  0.153686  0.463840  0.960594  1
  Si  Si33  1  0.654252  0.036195  0.960068  1
  Si  Si34  1  0.346135  0.964412  0.040432  1
  As  As35  1  0.190835  0.458359  0.542000  1
