# generated using pymatgen
data_YEr2Lu(MoN3)4
_symmetry_space_group_name_H-M   'P 1'
_cell_length_a   7.29857231
_cell_length_b   7.29857245
_cell_length_c   6.23211874
_cell_angle_alpha   73.44888644
_cell_angle_beta   73.44888676
_cell_angle_gamma   81.11226568
_symmetry_Int_Tables_number   1
_chemical_formula_structural   YEr2Lu(MoN3)4
_chemical_formula_sum   'Y1 Er2 Lu1 Mo4 N12'
_cell_volume   304.06572519
_cell_formula_units_Z   1
loop_
 _symmetry_equiv_pos_site_id
 _symmetry_equiv_pos_as_xyz
  1  'x, y, z'
loop_
 _atom_site_type_symbol
 _atom_site_label
 _atom_site_symmetry_multiplicity
 _atom_site_fract_x
 _atom_site_fract_y
 _atom_site_fract_z
 _atom_site_occupancy
  Y  Y0  1  0.292553  0.707447  0.750000  1
  Er  Er1  1  0.708897  0.291103  0.250000  1
  Er  Er2  1  0.085702  0.914298  0.250000  1
  Lu  Lu3  1  0.912426  0.087574  0.750000  1
  Mo  Mo4  1  0.801461  0.618186  0.772343  1
  Mo  Mo5  1  0.198360  0.379963  0.230256  1
  Mo  Mo6  1  0.620037  0.801640  0.269744  1
  Mo  Mo7  1  0.381814  0.198539  0.727657  1
  N  N8  1  0.214994  0.002423  0.846052  1
  N  N9  1  0.370489  0.346490  0.429453  1
  N  N10  1  0.634191  0.654252  0.567126  1
  N  N11  1  0.627934  0.109870  0.664463  1
  N  N12  1  0.997577  0.785006  0.653948  1
  N  N13  1  0.782350  0.002251  0.148074  1
  N  N14  1  0.109553  0.625478  0.165175  1
  N  N15  1  0.890130  0.372066  0.835537  1
  N  N16  1  0.997749  0.217650  0.351926  1
  N  N17  1  0.345748  0.365809  0.932874  1
  N  N18  1  0.653510  0.629511  0.070547  1
  N  N19  1  0.374522  0.890447  0.334825  1
