# generated using pymatgen
data_TbEr9In8(CuPd)2
_symmetry_space_group_name_H-M   'P 1'
_cell_length_a   3.61426800
_cell_length_b   8.06904186
_cell_length_c   18.09020471
_cell_angle_alpha   89.84471587
_cell_angle_beta   90.00000000
_cell_angle_gamma   90.00000000
_symmetry_Int_Tables_number   1
_chemical_formula_structural   TbEr9In8(CuPd)2
_chemical_formula_sum   'Tb1 Er9 In8 Cu2 Pd2'
_cell_volume   527.57499988
_cell_formula_units_Z   1
loop_
 _symmetry_equiv_pos_site_id
 _symmetry_equiv_pos_as_xyz
  1  'x, y, z'
loop_
 _atom_site_type_symbol
 _atom_site_label
 _atom_site_symmetry_multiplicity
 _atom_site_fract_x
 _atom_site_fract_y
 _atom_site_fract_z
 _atom_site_occupancy
  Tb  Tb0  1  0.000000  0.500000  0.500000  1
  Er  Er1  1  0.000000  0.000000  0.000000  1
  Er  Er2  1  0.000000  0.744453  0.280327  1
  Er  Er3  1  0.000000  0.255547  0.719673  1
  Er  Er4  1  0.000000  0.756549  0.781469  1
  Er  Er5  1  0.000000  0.243451  0.218531  1
  Er  Er6  1  0.000000  0.617784  0.084216  1
  Er  Er7  1  0.000000  0.382216  0.915784  1
  Er  Er8  1  0.000000  0.881041  0.583434  1
  Er  Er9  1  0.000000  0.118959  0.416566  1
  In  In10  1  0.500000  0.706763  0.932308  1
  In  In11  1  0.500000  0.293237  0.067692  1
  In  In12  1  0.500000  0.793875  0.432012  1
  In  In13  1  0.500000  0.206125  0.567988  1
  In  In14  1  0.500000  0.577297  0.652068  1
  In  In15  1  0.500000  0.422703  0.347932  1
  In  In16  1  0.500000  0.921935  0.148574  1
  In  In17  1  0.500000  0.078065  0.851426  1
  Cu  Cu18  1  0.500000  0.528639  0.197492  1
  Cu  Cu19  1  0.500000  0.471361  0.802508  1
  Pd  Pd20  1  0.500000  0.970993  0.697389  1
  Pd  Pd21  1  0.500000  0.029007  0.302611  1
