# generated using pymatgen
data_Ba6La(RhO6)2
_symmetry_space_group_name_H-M   'P 1'
_cell_length_a   9.44338286
_cell_length_b   9.44338172
_cell_length_c   7.44269000
_cell_angle_alpha   67.78560728
_cell_angle_beta   67.78561009
_cell_angle_gamma   36.70470585
_symmetry_Int_Tables_number   1
_chemical_formula_structural   Ba6La(RhO6)2
_chemical_formula_sum   'Ba6 La1 Rh2 O12'
_cell_volume   363.86905852
_cell_formula_units_Z   1
loop_
 _symmetry_equiv_pos_site_id
 _symmetry_equiv_pos_as_xyz
  1  'x, y, z'
loop_
 _atom_site_type_symbol
 _atom_site_label
 _atom_site_symmetry_multiplicity
 _atom_site_fract_x
 _atom_site_fract_y
 _atom_site_fract_z
 _atom_site_occupancy
  Ba  Ba0  1  0.876319  0.876319  0.717194  1
  Ba  Ba1  1  0.217986  0.217986  0.707714  1
  Ba  Ba2  1  0.550540  0.550540  0.701502  1
  Ba  Ba3  1  0.449460  0.449460  0.298498  1
  Ba  Ba4  1  0.782014  0.782014  0.292286  1
  Ba  Ba5  1  0.123681  0.123681  0.282806  1
  La  La6  1  0.000000  0.000000  0.000000  1
  Rh  Rh7  1  0.671777  0.671777  0.999817  1
  Rh  Rh8  1  0.328223  0.328223  0.000183  1
  O  O9  1  0.938021  0.938021  0.343942  1
  O  O10  1  0.280683  0.280683  0.306924  1
  O  O11  1  0.619047  0.619047  0.306067  1
  O  O12  1  0.380953  0.380953  0.693933  1
  O  O13  1  0.719317  0.719317  0.693076  1
  O  O14  1  0.061979  0.061979  0.656058  1
  O  O15  1  0.500000  0.000000  0.000000  1
  O  O16  1  0.820391  0.365464  0.999126  1
  O  O17  1  0.179609  0.634536  0.000874  1
  O  O18  1  0.000000  0.500000  0.000000  1
  O  O19  1  0.365464  0.820391  0.999126  1
  O  O20  1  0.634536  0.179609  0.000874  1
