# generated using pymatgen
data_HfTiV3Os
_symmetry_space_group_name_H-M   'P 1'
_cell_length_a   5.10696262
_cell_length_b   5.10696289
_cell_length_c   5.11350207
_cell_angle_alpha   60.04230827
_cell_angle_beta   60.04230073
_cell_angle_gamma   60.00000824
_symmetry_Int_Tables_number   1
_chemical_formula_structural   HfTiV3Os
_chemical_formula_sum   'Hf1 Ti1 V3 Os1'
_cell_volume   94.36398067
_cell_formula_units_Z   1
loop_
 _symmetry_equiv_pos_site_id
 _symmetry_equiv_pos_as_xyz
  1  'x, y, z'
loop_
 _atom_site_type_symbol
 _atom_site_label
 _atom_site_symmetry_multiplicity
 _atom_site_fract_x
 _atom_site_fract_y
 _atom_site_fract_z
 _atom_site_occupancy
  Hf  Hf0  1  0.250346  0.250346  0.248962  1
  Ti  Ti1  1  0.000261  0.000261  0.999217  1
  V  V2  1  0.624962  0.124572  0.625506  1
  V  V3  1  0.124572  0.624962  0.625506  1
  V  V4  1  0.624962  0.624962  0.625506  1
  Os  Os5  1  0.624899  0.624899  0.125304  1
