# generated using pymatgen
data_Pr2Tm3Ga4
_symmetry_space_group_name_H-M   'P 1'
_cell_length_a   7.62133100
_cell_length_b   7.93333100
_cell_length_c   15.25406200
_cell_angle_alpha   90.00000000
_cell_angle_beta   90.00000000
_cell_angle_gamma   90.00000000
_symmetry_Int_Tables_number   1
_chemical_formula_structural   Pr2Tm3Ga4
_chemical_formula_sum   'Pr8 Tm12 Ga16'
_cell_volume   922.29935647
_cell_formula_units_Z   4
loop_
 _symmetry_equiv_pos_site_id
 _symmetry_equiv_pos_as_xyz
  1  'x, y, z'
loop_
 _atom_site_type_symbol
 _atom_site_label
 _atom_site_symmetry_multiplicity
 _atom_site_fract_x
 _atom_site_fract_y
 _atom_site_fract_z
 _atom_site_occupancy
  Pr  Pr0  1  0.020063  0.177030  0.404337  1
  Pr  Pr1  1  0.520063  0.322970  0.404337  1
  Pr  Pr2  1  0.479937  0.677030  0.904337  1
  Pr  Pr3  1  0.479937  0.677030  0.595663  1
  Pr  Pr4  1  0.979937  0.822970  0.595663  1
  Pr  Pr5  1  0.979937  0.822970  0.904337  1
  Pr  Pr6  1  0.520063  0.322970  0.095663  1
  Pr  Pr7  1  0.020063  0.177030  0.095663  1
  Tm  Tm8  1  0.323500  0.177173  0.622457  1
  Tm  Tm9  1  0.676500  0.822827  0.377543  1
  Tm  Tm10  1  0.657012  0.990825  0.750000  1
  Tm  Tm11  1  0.176500  0.677173  0.377543  1
  Tm  Tm12  1  0.823500  0.322827  0.877543  1
  Tm  Tm13  1  0.823500  0.322827  0.622457  1
  Tm  Tm14  1  0.842988  0.490825  0.250000  1
  Tm  Tm15  1  0.342988  0.009175  0.250000  1
  Tm  Tm16  1  0.323500  0.177173  0.877543  1
  Tm  Tm17  1  0.176500  0.677173  0.122457  1
  Tm  Tm18  1  0.676500  0.822827  0.122457  1
  Tm  Tm19  1  0.157012  0.509175  0.750000  1
  Ga  Ga20  1  0.274376  0.879705  0.750000  1
  Ga  Ga21  1  0.471368  0.614469  0.250000  1
  Ga  Ga22  1  0.028632  0.114469  0.750000  1
  Ga  Ga23  1  0.528632  0.385531  0.750000  1
  Ga  Ga24  1  0.150956  0.468020  0.540446  1
  Ga  Ga25  1  0.971368  0.885531  0.250000  1
  Ga  Ga26  1  0.725624  0.120295  0.250000  1
  Ga  Ga27  1  0.849044  0.531980  0.040446  1
  Ga  Ga28  1  0.349044  0.968020  0.040446  1
  Ga  Ga29  1  0.150956  0.468020  0.959554  1
  Ga  Ga30  1  0.650956  0.031980  0.540446  1
  Ga  Ga31  1  0.349044  0.968020  0.459554  1
  Ga  Ga32  1  0.849044  0.531980  0.459554  1
  Ga  Ga33  1  0.774376  0.620295  0.750000  1
  Ga  Ga34  1  0.225624  0.379705  0.250000  1
  Ga  Ga35  1  0.650956  0.031980  0.959554  1
