# generated using pymatgen
data_Pr2Co6Tc6P7
_symmetry_space_group_name_H-M   'P 1'
_cell_length_a   9.32625700
_cell_length_b   9.32625756
_cell_length_c   3.81244300
_cell_angle_alpha   90.00000000
_cell_angle_beta   90.00000000
_cell_angle_gamma   119.99999351
_symmetry_Int_Tables_number   1
_chemical_formula_structural   Pr2Co6Tc6P7
_chemical_formula_sum   'Pr2 Co6 Tc6 P7'
_cell_volume   287.17643739
_cell_formula_units_Z   1
loop_
 _symmetry_equiv_pos_site_id
 _symmetry_equiv_pos_as_xyz
  1  'x, y, z'
loop_
 _atom_site_type_symbol
 _atom_site_label
 _atom_site_symmetry_multiplicity
 _atom_site_fract_x
 _atom_site_fract_y
 _atom_site_fract_z
 _atom_site_occupancy
  Pr  Pr0  1  0.333333  0.666667  0.000000  1
  Pr  Pr1  1  0.666667  0.333333  0.500000  1
  Co  Co2  1  0.421017  0.062312  0.000000  1
  Co  Co3  1  0.937688  0.358704  0.000000  1
  Co  Co4  1  0.641296  0.578983  0.000000  1
  Co  Co5  1  0.151198  0.267610  0.000000  1
  Co  Co6  1  0.732390  0.883589  0.000000  1
  Co  Co7  1  0.116411  0.848802  0.000000  1
  Tc  Tc8  1  0.389057  0.435221  0.500000  1
  Tc  Tc9  1  0.564779  0.953836  0.500000  1
  Tc  Tc10  1  0.046164  0.610943  0.500000  1
  Tc  Tc11  1  0.207948  0.091668  0.500000  1
  Tc  Tc12  1  0.908332  0.116281  0.500000  1
  Tc  Tc13  1  0.883719  0.792052  0.500000  1
  P  P14  1  0.111054  0.394309  0.500000  1
  P  P15  1  0.605691  0.716745  0.500000  1
  P  P16  1  0.283255  0.888946  0.500000  1
  P  P17  1  0.000000  0.000000  0.000000  1
  P  P18  1  0.407412  0.299445  0.000000  1
  P  P19  1  0.700555  0.107967  0.000000  1
  P  P20  1  0.892033  0.592588  0.000000  1
