# generated using pymatgen
data_Hg2BiRh4PbO14
_symmetry_space_group_name_H-M   'P 1'
_cell_length_a   7.26468431
_cell_length_b   7.15830158
_cell_length_c   7.30739990
_cell_angle_alpha   60.67268765
_cell_angle_beta   61.26929307
_cell_angle_gamma   60.48324648
_symmetry_Int_Tables_number   1
_chemical_formula_structural   Hg2BiRh4PbO14
_chemical_formula_sum   'Hg2 Bi1 Rh4 Pb1 O14'
_cell_volume   273.57604729
_cell_formula_units_Z   1
loop_
 _symmetry_equiv_pos_site_id
 _symmetry_equiv_pos_as_xyz
  1  'x, y, z'
loop_
 _atom_site_type_symbol
 _atom_site_label
 _atom_site_symmetry_multiplicity
 _atom_site_fract_x
 _atom_site_fract_y
 _atom_site_fract_z
 _atom_site_occupancy
  Hg  Hg0  1  0.125000  0.125000  0.125000  1
  Hg  Hg1  1  0.125000  0.625000  0.125000  1
  Bi  Bi2  1  0.125000  0.125000  0.625000  1
  Rh  Rh3  1  0.625000  0.625000  0.625000  1
  Rh  Rh4  1  0.625000  0.625000  0.125000  1
  Rh  Rh5  1  0.125000  0.625000  0.625000  1
  Rh  Rh6  1  0.625000  0.125000  0.625000  1
  Pb  Pb7  1  0.625000  0.125000  0.125000  1
  O  O8  1  0.238260  0.257302  0.247136  1
  O  O9  1  0.306157  0.693976  0.305892  1
  O  O10  1  0.951915  0.956307  0.554890  1
  O  O11  1  0.540330  0.958262  0.543146  1
  O  O12  1  0.693164  0.711938  0.300044  1
  O  O13  1  0.951915  0.536890  0.554890  1
  O  O14  1  0.709670  0.291738  0.706854  1
  O  O15  1  0.298085  0.293693  0.695110  1
  O  O16  1  0.693164  0.294853  0.300044  1
  O  O17  1  0.298085  0.713110  0.695110  1
  O  O18  1  0.943843  0.556024  0.944108  1
  O  O19  1  0.556836  0.538062  0.949956  1
  O  O20  1  0.011740  0.992698  0.002864  1
  O  O21  1  0.556836  0.955147  0.949956  1
