# generated using pymatgen
data_Ag7Sn(SO4)6
_symmetry_space_group_name_H-M   'P 1'
_cell_length_a   8.72198053
_cell_length_b   8.72198126
_cell_length_c   8.72198198
_cell_angle_alpha   107.98581518
_cell_angle_beta   107.98581310
_cell_angle_gamma   107.98581363
_symmetry_Int_Tables_number   1
_chemical_formula_structural   Ag7Sn(SO4)6
_chemical_formula_sum   'Ag7 Sn1 S6 O24'
_cell_volume   537.02256937
_cell_formula_units_Z   1
loop_
 _symmetry_equiv_pos_site_id
 _symmetry_equiv_pos_as_xyz
  1  'x, y, z'
loop_
 _atom_site_type_symbol
 _atom_site_label
 _atom_site_symmetry_multiplicity
 _atom_site_fract_x
 _atom_site_fract_y
 _atom_site_fract_z
 _atom_site_occupancy
  Ag  Ag0  1  0.500000  0.500000  0.500000  1
  Ag  Ag1  1  0.658060  0.165487  0.318763  1
  Ag  Ag2  1  0.318763  0.658060  0.165487  1
  Ag  Ag3  1  0.165487  0.318763  0.658060  1
  Ag  Ag4  1  0.341940  0.834513  0.681237  1
  Ag  Ag5  1  0.681237  0.341940  0.834513  1
  Ag  Ag6  1  0.834513  0.681237  0.341940  1
  Sn  Sn7  1  0.000000  0.000000  0.000000  1
  S  S8  1  0.248009  0.029565  0.398843  1
  S  S9  1  0.398843  0.248009  0.029565  1
  S  S10  1  0.029565  0.398843  0.248009  1
  S  S11  1  0.751991  0.970435  0.601157  1
  S  S12  1  0.601157  0.751991  0.970435  1
  S  S13  1  0.970435  0.601157  0.751991  1
  O  O14  1  0.088785  0.526095  0.826755  1
  O  O15  1  0.826755  0.088785  0.526095  1
  O  O16  1  0.526095  0.826755  0.088785  1
  O  O17  1  0.911215  0.473905  0.173245  1
  O  O18  1  0.173245  0.911215  0.473905  1
  O  O19  1  0.473905  0.173245  0.911215  1
  O  O20  1  0.024466  0.680457  0.639326  1
  O  O21  1  0.639326  0.024466  0.680457  1
  O  O22  1  0.680457  0.639326  0.024466  1
  O  O23  1  0.975534  0.319543  0.360674  1
  O  O24  1  0.360674  0.975534  0.319543  1
  O  O25  1  0.319543  0.360674  0.975534  1
  O  O26  1  0.015688  0.255582  0.082017  1
  O  O27  1  0.082017  0.015688  0.255582  1
  O  O28  1  0.538545  0.349949  0.223162  1
  O  O29  1  0.349949  0.223162  0.538545  1
  O  O30  1  0.223162  0.538545  0.349949  1
  O  O31  1  0.461455  0.650051  0.776838  1
  O  O32  1  0.650051  0.776838  0.461455  1
  O  O33  1  0.776838  0.461455  0.650051  1
  O  O34  1  0.744418  0.917983  0.984312  1
  O  O35  1  0.917983  0.984312  0.744418  1
  O  O36  1  0.984312  0.744418  0.917983  1
  O  O37  1  0.255582  0.082017  0.015688  1
