# generated using pymatgen
data_Tm2CoSi5Rh2
_symmetry_space_group_name_H-M   'P 1'
_cell_length_a   8.01707129
_cell_length_b   7.98629037
_cell_length_c   7.98629064
_cell_angle_alpha   138.42526831
_cell_angle_beta   105.15809868
_cell_angle_gamma   89.39601355
_symmetry_Int_Tables_number   1
_chemical_formula_structural   Tm2CoSi5Rh2
_chemical_formula_sum   'Tm4 Co2 Si10 Rh4'
_cell_volume   313.54479235
_cell_formula_units_Z   2
loop_
 _symmetry_equiv_pos_site_id
 _symmetry_equiv_pos_as_xyz
  1  'x, y, z'
loop_
 _atom_site_type_symbol
 _atom_site_label
 _atom_site_symmetry_multiplicity
 _atom_site_fract_x
 _atom_site_fract_y
 _atom_site_fract_z
 _atom_site_occupancy
  Tm  Tm0  1  0.362996  0.632578  0.730418  1
  Tm  Tm1  1  0.901419  0.134205  0.767213  1
  Tm  Tm2  1  0.098581  0.865795  0.232787  1
  Tm  Tm3  1  0.637004  0.367422  0.269582  1
  Co  Co4  1  0.251935  0.140161  0.111776  1
  Co  Co5  1  0.748065  0.859839  0.888224  1
  Si  Si6  1  0.279035  0.513162  0.244723  1
  Si  Si7  1  0.720965  0.965688  0.234127  1
  Si  Si8  1  0.000000  0.777511  0.777511  1
  Si  Si9  1  0.234391  0.393790  0.840600  1
  Si  Si10  1  0.765609  0.606210  0.159400  1
  Si  Si11  1  0.442046  0.106863  0.335183  1
  Si  Si12  1  0.000000  0.222489  0.222489  1
  Si  Si13  1  0.557954  0.893137  0.664817  1
  Si  Si14  1  0.720965  0.486838  0.755277  1
  Si  Si15  1  0.279035  0.034312  0.765873  1
  Rh  Rh16  1  0.031745  0.636861  0.394884  1
  Rh  Rh17  1  0.968255  0.363139  0.605116  1
  Rh  Rh18  1  0.500000  0.750438  0.250438  1
  Rh  Rh19  1  0.500000  0.249562  0.749562  1
