# generated using pymatgen
data_La3Nd2Pb3Se
_symmetry_space_group_name_H-M   'P 1'
_cell_length_a   9.68346900
_cell_length_b   9.68346825
_cell_length_c   7.12116300
_cell_angle_alpha   90.00000000
_cell_angle_beta   90.00000000
_cell_angle_gamma   120.00000597
_symmetry_Int_Tables_number   1
_chemical_formula_structural   La3Nd2Pb3Se
_chemical_formula_sum   'La6 Nd4 Pb6 Se2'
_cell_volume   578.28700337
_cell_formula_units_Z   2
loop_
 _symmetry_equiv_pos_site_id
 _symmetry_equiv_pos_as_xyz
  1  'x, y, z'
loop_
 _atom_site_type_symbol
 _atom_site_label
 _atom_site_symmetry_multiplicity
 _atom_site_fract_x
 _atom_site_fract_y
 _atom_site_fract_z
 _atom_site_occupancy
  La  La0  1  0.748539  0.748539  0.750000  1
  La  La1  1  0.251461  0.000000  0.750000  1
  La  La2  1  0.000000  0.251461  0.750000  1
  La  La3  1  0.251461  0.251461  0.250000  1
  La  La4  1  0.748539  0.000000  0.250000  1
  La  La5  1  0.000000  0.748539  0.250000  1
  Nd  Nd6  1  0.666667  0.333333  0.000000  1
  Nd  Nd7  1  0.333333  0.666667  0.000000  1
  Nd  Nd8  1  0.333333  0.666667  0.500000  1
  Nd  Nd9  1  0.666667  0.333333  0.500000  1
  Pb  Pb10  1  0.396102  0.396102  0.750000  1
  Pb  Pb11  1  0.603898  0.000000  0.750000  1
  Pb  Pb12  1  0.000000  0.603898  0.750000  1
  Pb  Pb13  1  0.603898  0.603898  0.250000  1
  Pb  Pb14  1  0.396102  0.000000  0.250000  1
  Pb  Pb15  1  0.000000  0.396102  0.250000  1
  Se  Se16  1  0.000000  0.000000  0.000000  1
  Se  Se17  1  0.000000  0.000000  0.500000  1
