# generated using pymatgen
data_Ba12GaSn11Au12
_symmetry_space_group_name_H-M   'P 1'
_cell_length_a   5.01317300
_cell_length_b   8.62445971
_cell_length_c   24.92497100
_cell_angle_alpha   89.91855183
_cell_angle_beta   90.00000000
_cell_angle_gamma   90.00000000
_symmetry_Int_Tables_number   1
_chemical_formula_structural   Ba12GaSn11Au12
_chemical_formula_sum   'Ba12 Ga1 Sn11 Au12'
_cell_volume   1077.65267862
_cell_formula_units_Z   1
loop_
 _symmetry_equiv_pos_site_id
 _symmetry_equiv_pos_as_xyz
  1  'x, y, z'
loop_
 _atom_site_type_symbol
 _atom_site_label
 _atom_site_symmetry_multiplicity
 _atom_site_fract_x
 _atom_site_fract_y
 _atom_site_fract_z
 _atom_site_occupancy
  Ba  Ba0  1  0.750000  0.207672  0.497713  1
  Ba  Ba1  1  0.250000  0.796318  0.166271  1
  Ba  Ba2  1  0.250000  0.790399  0.502864  1
  Ba  Ba3  1  0.250000  0.798577  0.830918  1
  Ba  Ba4  1  0.250000  0.705697  0.332418  1
  Ba  Ba5  1  0.750000  0.197859  0.832671  1
  Ba  Ba6  1  0.750000  0.289099  0.997541  1
  Ba  Ba7  1  0.750000  0.290458  0.668821  1
  Ba  Ba8  1  0.750000  0.295202  0.333550  1
  Ba  Ba9  1  0.250000  0.710250  0.667894  1
  Ba  Ba10  1  0.250000  0.710929  0.002866  1
  Ba  Ba11  1  0.750000  0.205419  0.167332  1
  Ga  Ga12  1  0.750000  0.921547  0.727030  1
  Sn  Sn13  1  0.250000  0.413806  0.563782  1
  Sn  Sn14  1  0.250000  0.080149  0.395429  1
  Sn  Sn15  1  0.250000  0.086833  0.064974  1
  Sn  Sn16  1  0.250000  0.420048  0.895377  1
  Sn  Sn17  1  0.750000  0.581115  0.104659  1
  Sn  Sn18  1  0.250000  0.422060  0.772254  1
  Sn  Sn19  1  0.750000  0.580081  0.228062  1
  Sn  Sn20  1  0.750000  0.585570  0.435082  1
  Sn  Sn21  1  0.750000  0.912531  0.936576  1
  Sn  Sn22  1  0.250000  0.079934  0.271797  1
  Sn  Sn23  1  0.750000  0.919349  0.605762  1
  Au  Au24  1  0.250000  0.085110  0.594123  1
  Au  Au25  1  0.250000  0.077612  0.737961  1
  Au  Au26  1  0.750000  0.587150  0.906157  1
  Au  Au27  1  0.750000  0.912687  0.404530  1
  Au  Au28  1  0.750000  0.579462  0.566835  1
  Au  Au29  1  0.750000  0.595630  0.760425  1
  Au  Au30  1  0.250000  0.418767  0.432643  1
  Au  Au31  1  0.250000  0.413817  0.238787  1
  Au  Au32  1  0.750000  0.919339  0.067785  1
  Au  Au33  1  0.250000  0.413576  0.095169  1
  Au  Au34  1  0.250000  0.081898  0.932671  1
  Au  Au35  1  0.750000  0.914053  0.261271  1
