# generated using pymatgen
data_Ca2Cu9Pd
_symmetry_space_group_name_H-M   'P 1'
_cell_length_a   5.08734148
_cell_length_b   5.08957906
_cell_length_c   8.26489900
_cell_angle_alpha   90.00000000
_cell_angle_beta   90.00000000
_cell_angle_gamma   120.01670329
_symmetry_Int_Tables_number   1
_chemical_formula_structural   Ca2Cu9Pd
_chemical_formula_sum   'Ca2 Cu9 Pd1'
_cell_volume   185.29675557
_cell_formula_units_Z   1
loop_
 _symmetry_equiv_pos_site_id
 _symmetry_equiv_pos_as_xyz
  1  'x, y, z'
loop_
 _atom_site_type_symbol
 _atom_site_label
 _atom_site_symmetry_multiplicity
 _atom_site_fract_x
 _atom_site_fract_y
 _atom_site_fract_z
 _atom_site_occupancy
  Ca  Ca0  1  0.999915  0.999924  0.000000  1
  Ca  Ca1  1  0.999955  0.999890  0.500000  1
  Cu  Cu2  1  0.667855  0.334175  0.000000  1
  Cu  Cu3  1  0.332214  0.665984  0.000000  1
  Cu  Cu4  1  0.501484  0.002884  0.244239  1
  Cu  Cu5  1  0.501703  0.498589  0.244669  1
  Cu  Cu6  1  0.996682  0.498427  0.245042  1
  Cu  Cu7  1  0.666079  0.332401  0.500000  1
  Cu  Cu8  1  0.996682  0.498427  0.754957  1
  Cu  Cu9  1  0.501703  0.498589  0.755331  1
  Cu  Cu10  1  0.501484  0.002884  0.755761  1
  Pd  Pd11  1  0.334243  0.667825  0.500000  1
