# generated using pymatgen
data_Dy17(TmBi4)3
_symmetry_space_group_name_H-M   'P 1'
_cell_length_a   8.26122355
_cell_length_b   9.51295402
_cell_length_c   12.05366477
_cell_angle_alpha   89.99743498
_cell_angle_beta   90.04101177
_cell_angle_gamma   89.99285197
_symmetry_Int_Tables_number   1
_chemical_formula_structural   Dy17(TmBi4)3
_chemical_formula_sum   'Dy17 Tm3 Bi12'
_cell_volume   947.28086757
_cell_formula_units_Z   1
loop_
 _symmetry_equiv_pos_site_id
 _symmetry_equiv_pos_as_xyz
  1  'x, y, z'
loop_
 _atom_site_type_symbol
 _atom_site_label
 _atom_site_symmetry_multiplicity
 _atom_site_fract_x
 _atom_site_fract_y
 _atom_site_fract_z
 _atom_site_occupancy
  Dy  Dy0  1  0.352287  0.749957  0.215629  1
  Dy  Dy1  1  0.852168  0.749817  0.284436  1
  Dy  Dy2  1  0.647278  0.249668  0.784633  1
  Dy  Dy3  1  0.147947  0.249704  0.715764  1
  Dy  Dy4  1  0.807692  0.436323  0.558368  1
  Dy  Dy5  1  0.307273  0.435997  0.941521  1
  Dy  Dy6  1  0.807443  0.063643  0.558562  1
  Dy  Dy7  1  0.692775  0.936036  0.058476  1
  Dy  Dy8  1  0.192613  0.564039  0.441497  1
  Dy  Dy9  1  0.475024  0.249784  0.488109  1
  Dy  Dy10  1  0.975549  0.249913  0.011795  1
  Dy  Dy11  1  0.524194  0.750186  0.511734  1
  Dy  Dy12  1  0.024392  0.749845  0.988312  1
  Dy  Dy13  1  0.312604  0.249764  0.218630  1
  Dy  Dy14  1  0.812573  0.249974  0.281142  1
  Dy  Dy15  1  0.687461  0.749815  0.781328  1
  Dy  Dy16  1  0.187264  0.750227  0.718674  1
  Tm  Tm17  1  0.692521  0.564695  0.058402  1
  Tm  Tm18  1  0.192704  0.935432  0.441570  1
  Tm  Tm19  1  0.307448  0.064681  0.941653  1
  Bi  Bi20  1  0.407309  0.751023  0.956952  1
  Bi  Bi21  1  0.907754  0.750484  0.542895  1
  Bi  Bi22  1  0.592622  0.251019  0.043098  1
  Bi  Bi23  1  0.093057  0.248489  0.456736  1
  Bi  Bi24  1  0.564929  0.995469  0.325356  1
  Bi  Bi25  1  0.065166  0.504441  0.174516  1
  Bi  Bi26  1  0.434706  0.495478  0.674739  1
  Bi  Bi27  1  0.935038  0.004397  0.825465  1
  Bi  Bi28  1  0.434583  0.004433  0.674671  1
  Bi  Bi29  1  0.934768  0.495398  0.825575  1
  Bi  Bi30  1  0.565425  0.504448  0.325200  1
  Bi  Bi31  1  0.065433  0.995420  0.174562  1
