# generated using pymatgen
data_SnBSbS4
_symmetry_space_group_name_H-M   'P 1'
_cell_length_a   6.35038359
_cell_length_b   6.29768900
_cell_length_c   9.60997597
_cell_angle_alpha   90.00000000
_cell_angle_beta   107.33949268
_cell_angle_gamma   90.00000000
_symmetry_Int_Tables_number   1
_chemical_formula_structural   SnBSbS4
_chemical_formula_sum   'Sn2 B2 Sb2 S8'
_cell_volume   366.86366464
_cell_formula_units_Z   2
loop_
 _symmetry_equiv_pos_site_id
 _symmetry_equiv_pos_as_xyz
  1  'x, y, z'
loop_
 _atom_site_type_symbol
 _atom_site_label
 _atom_site_symmetry_multiplicity
 _atom_site_fract_x
 _atom_site_fract_y
 _atom_site_fract_z
 _atom_site_occupancy
  Sn  Sn0  1  0.712629  0.326215  0.434006  1
  Sn  Sn1  1  0.287371  0.826215  0.565994  1
  B  B2  1  0.173625  0.247998  0.204983  1
  B  B3  1  0.826375  0.747998  0.795017  1
  Sb  Sb4  1  0.699851  0.247163  0.831584  1
  Sb  Sb5  1  0.300149  0.747163  0.168416  1
  S  S6  1  0.424206  0.232117  0.582881  1
  S  S7  1  0.575794  0.732117  0.417119  1
  S  S8  1  0.022396  0.489241  0.212032  1
  S  S9  1  0.977604  0.989241  0.787968  1
  S  S10  1  0.966787  0.504245  0.773787  1
  S  S11  1  0.033213  0.004245  0.226213  1
  S  S12  1  0.439437  0.245220  0.170744  1
  S  S13  1  0.560563  0.745220  0.829256  1
