# generated using pymatgen
data_Hf4Zr6ZnGeBiPb5
_symmetry_space_group_name_H-M   'P 1'
_cell_length_a   8.81049300
_cell_length_b   8.81049296
_cell_length_c   5.95128000
_cell_angle_alpha   90.00000000
_cell_angle_beta   90.00000000
_cell_angle_gamma   119.99999640
_symmetry_Int_Tables_number   1
_chemical_formula_structural   Hf4Zr6ZnGeBiPb5
_chemical_formula_sum   'Hf4 Zr6 Zn1 Ge1 Bi1 Pb5'
_cell_volume   400.07503340
_cell_formula_units_Z   1
loop_
 _symmetry_equiv_pos_site_id
 _symmetry_equiv_pos_as_xyz
  1  'x, y, z'
loop_
 _atom_site_type_symbol
 _atom_site_label
 _atom_site_symmetry_multiplicity
 _atom_site_fract_x
 _atom_site_fract_y
 _atom_site_fract_z
 _atom_site_occupancy
  Hf  Hf0  1  0.333113  0.666592  0.999700  1
  Hf  Hf1  1  0.666695  0.333534  0.500309  1
  Hf  Hf2  1  0.666522  0.333408  0.999700  1
  Hf  Hf3  1  0.333160  0.666466  0.500309  1
  Zr  Zr4  1  0.262940  0.000000  0.249078  1
  Zr  Zr5  1  0.262728  0.262702  0.750963  1
  Zr  Zr6  1  0.000026  0.737298  0.750963  1
  Zr  Zr7  1  0.000853  0.263544  0.248955  1
  Zr  Zr8  1  0.737309  0.736456  0.248955  1
  Zr  Zr9  1  0.737005  0.000000  0.750803  1
  Zn  Zn10  1  0.000236  0.000000  0.500094  1
  Ge  Ge11  1  0.000274  0.000000  0.999813  1
  Bi  Bi12  1  0.610046  0.000000  0.252776  1
  Pb  Pb13  1  0.610513  0.610311  0.747246  1
  Pb  Pb14  1  0.000202  0.389689  0.747246  1
  Pb  Pb15  1  0.000011  0.610616  0.252750  1
  Pb  Pb16  1  0.389395  0.389384  0.252750  1
  Pb  Pb17  1  0.388973  0.000000  0.747590  1
