# generated using pymatgen
data_Dy7Lu3(RuRh)2
_symmetry_space_group_name_H-M   'P 1'
_cell_length_a   6.35243111
_cell_length_b   7.21218060
_cell_length_c   8.47802807
_cell_angle_alpha   96.71847023
_cell_angle_beta   112.19873199
_cell_angle_gamma   89.97215516
_symmetry_Int_Tables_number   1
_chemical_formula_structural   Dy7Lu3(RuRh)2
_chemical_formula_sum   'Dy7 Lu3 Ru2 Rh2'
_cell_volume   356.75631481
_cell_formula_units_Z   1
loop_
 _symmetry_equiv_pos_site_id
 _symmetry_equiv_pos_as_xyz
  1  'x, y, z'
loop_
 _atom_site_type_symbol
 _atom_site_label
 _atom_site_symmetry_multiplicity
 _atom_site_fract_x
 _atom_site_fract_y
 _atom_site_fract_z
 _atom_site_occupancy
  Dy  Dy0  1  0.524040  0.080399  0.815715  1
  Dy  Dy1  1  0.474690  0.918141  0.184120  1
  Dy  Dy2  1  0.712302  0.416638  0.187413  1
  Dy  Dy3  1  0.289132  0.584696  0.812385  1
  Dy  Dy4  1  0.288565  0.311310  0.434093  1
  Dy  Dy5  1  0.711233  0.688802  0.566100  1
  Dy  Dy6  1  0.858393  0.183392  0.563422  1
  Lu  Lu7  1  0.140508  0.816593  0.434693  1
  Lu  Lu8  1  0.076550  0.248025  0.999065  1
  Lu  Lu9  1  0.924003  0.752406  0.002156  1
  Ru  Ru10  1  0.104864  0.923842  0.782827  1
  Ru  Ru11  1  0.896382  0.074701  0.216243  1
  Rh  Rh12  1  0.319581  0.574991  0.221931  1
  Rh  Rh13  1  0.679756  0.426063  0.779838  1
