# generated using pymatgen
data_Dy5Ho7(TcRu)2
_symmetry_space_group_name_H-M   'P 1'
_cell_length_a   6.28438808
_cell_length_b   7.36595205
_cell_length_c   9.10707510
_cell_angle_alpha   89.99256302
_cell_angle_beta   90.01481469
_cell_angle_gamma   90.01062714
_symmetry_Int_Tables_number   1
_chemical_formula_structural   Dy5Ho7(TcRu)2
_chemical_formula_sum   'Dy5 Ho7 Tc2 Ru2'
_cell_volume   421.57104610
_cell_formula_units_Z   1
loop_
 _symmetry_equiv_pos_site_id
 _symmetry_equiv_pos_as_xyz
  1  'x, y, z'
loop_
 _atom_site_type_symbol
 _atom_site_label
 _atom_site_symmetry_multiplicity
 _atom_site_fract_x
 _atom_site_fract_y
 _atom_site_fract_z
 _atom_site_occupancy
  Dy  Dy0  1  0.333959  0.675828  0.063453  1
  Dy  Dy1  1  0.874236  0.539861  0.250098  1
  Dy  Dy2  1  0.625766  0.040040  0.250061  1
  Dy  Dy3  1  0.132022  0.456497  0.749907  1
  Dy  Dy4  1  0.367950  0.956630  0.749932  1
  Ho  Ho5  1  0.165973  0.175789  0.436518  1
  Ho  Ho6  1  0.664450  0.324565  0.562763  1
  Ho  Ho7  1  0.835515  0.824577  0.937177  1
  Ho  Ho8  1  0.664586  0.324426  0.937183  1
  Ho  Ho9  1  0.835556  0.824535  0.562770  1
  Ho  Ho10  1  0.333977  0.675777  0.436639  1
  Ho  Ho11  1  0.165884  0.175774  0.063506  1
  Tc  Tc12  1  0.038245  0.886213  0.250084  1
  Tc  Tc13  1  0.461753  0.385951  0.250042  1
  Ru  Ru14  1  0.960509  0.116776  0.750023  1
  Ru  Ru15  1  0.539619  0.616759  0.749843  1
