# generated using pymatgen
data_Ga12Co2ReTc
_symmetry_space_group_name_H-M   'P 1'
_cell_length_a   6.42171352
_cell_length_b   6.45486652
_cell_length_c   6.78748200
_cell_angle_alpha   90.00000000
_cell_angle_beta   90.00000000
_cell_angle_gamma   89.95395543
_symmetry_Int_Tables_number   1
_chemical_formula_structural   Ga12Co2ReTc
_chemical_formula_sum   'Ga12 Co2 Re1 Tc1'
_cell_volume   281.34988620
_cell_formula_units_Z   1
loop_
 _symmetry_equiv_pos_site_id
 _symmetry_equiv_pos_as_xyz
  1  'x, y, z'
loop_
 _atom_site_type_symbol
 _atom_site_label
 _atom_site_symmetry_multiplicity
 _atom_site_fract_x
 _atom_site_fract_y
 _atom_site_fract_z
 _atom_site_occupancy
  Ga  Ga0  1  0.495067  0.994867  0.000000  1
  Ga  Ga1  1  0.491910  0.006536  0.500000  1
  Ga  Ga2  1  0.008361  0.507697  0.000000  1
  Ga  Ga3  1  0.003789  0.495582  0.500000  1
  Ga  Ga4  1  0.652396  0.345846  0.736504  1
  Ga  Ga5  1  0.846795  0.844425  0.762214  1
  Ga  Ga6  1  0.159863  0.159184  0.761315  1
  Ga  Ga7  1  0.341073  0.658833  0.737978  1
  Ga  Ga8  1  0.341073  0.658833  0.262022  1
  Ga  Ga9  1  0.652396  0.345846  0.263496  1
  Ga  Ga10  1  0.846795  0.844425  0.237786  1
  Ga  Ga11  1  0.159863  0.159184  0.238685  1
  Co  Co12  1  0.335978  0.336767  0.500000  1
  Co  Co13  1  0.164456  0.836571  0.000000  1
  Re  Re14  1  0.850082  0.152724  0.000000  1
  Tc  Tc15  1  0.650101  0.652679  0.500000  1
