# generated using pymatgen
data_Y4InHgPd4
_symmetry_space_group_name_H-M   'P 1'
_cell_length_a   7.74641600
_cell_length_b   7.74641600
_cell_length_c   3.73782100
_cell_angle_alpha   90.00000000
_cell_angle_beta   90.00000000
_cell_angle_gamma   90.00000000
_symmetry_Int_Tables_number   1
_chemical_formula_structural   Y4InHgPd4
_chemical_formula_sum   'Y4 In1 Hg1 Pd4'
_cell_volume   224.29527839
_cell_formula_units_Z   1
loop_
 _symmetry_equiv_pos_site_id
 _symmetry_equiv_pos_as_xyz
  1  'x, y, z'
loop_
 _atom_site_type_symbol
 _atom_site_label
 _atom_site_symmetry_multiplicity
 _atom_site_fract_x
 _atom_site_fract_y
 _atom_site_fract_z
 _atom_site_occupancy
  Y  Y0  1  0.673414  0.172689  0.500000  1
  Y  Y1  1  0.326586  0.827311  0.500000  1
  Y  Y2  1  0.172689  0.326586  0.500000  1
  Y  Y3  1  0.827311  0.673414  0.500000  1
  In  In4  1  0.000000  0.000000  0.000000  1
  Hg  Hg5  1  0.500000  0.500000  0.000000  1
  Pd  Pd6  1  0.126508  0.629982  0.000000  1
  Pd  Pd7  1  0.873492  0.370018  0.000000  1
  Pd  Pd8  1  0.629982  0.873492  0.000000  1
  Pd  Pd9  1  0.370018  0.126508  0.000000  1
