# generated using pymatgen
data_LuTa5(NbN3)4
_symmetry_space_group_name_H-M   'P 1'
_cell_length_a   5.28257399
_cell_length_b   5.28515970
_cell_length_c   10.48324104
_cell_angle_alpha   89.97354519
_cell_angle_beta   89.97549161
_cell_angle_gamma   120.10315632
_symmetry_Int_Tables_number   1
_chemical_formula_structural   LuTa5(NbN3)4
_chemical_formula_sum   'Lu1 Ta5 Nb4 N12'
_cell_volume   253.20796241
_cell_formula_units_Z   1
loop_
 _symmetry_equiv_pos_site_id
 _symmetry_equiv_pos_as_xyz
  1  'x, y, z'
loop_
 _atom_site_type_symbol
 _atom_site_label
 _atom_site_symmetry_multiplicity
 _atom_site_fract_x
 _atom_site_fract_y
 _atom_site_fract_z
 _atom_site_occupancy
  Lu  Lu0  1  0.665069  0.333080  0.000354  1
  Ta  Ta1  1  0.677611  0.001351  0.253293  1
  Ta  Ta2  1  0.998542  0.676160  0.253292  1
  Ta  Ta3  1  0.333303  0.665627  0.998986  1
  Ta  Ta4  1  0.333736  0.665460  0.499318  1
  Ta  Ta5  1  0.665455  0.333593  0.499479  1
  Nb  Nb6  1  0.677129  0.675753  0.746429  1
  Nb  Nb7  1  0.324811  0.001790  0.746500  1
  Nb  Nb8  1  0.998768  0.323476  0.746554  1
  Nb  Nb9  1  0.324729  0.323421  0.254572  1
  N  N10  1  0.663553  0.663662  0.382334  1
  N  N11  1  0.341552  0.995909  0.381740  1
  N  N12  1  0.995917  0.341645  0.381857  1
  N  N13  1  0.341774  0.341738  0.616848  1
  N  N14  1  0.657200  0.000107  0.616920  1
  N  N15  1  0.999910  0.657221  0.616924  1
  N  N16  1  0.336203  0.350923  0.873245  1
  N  N17  1  0.648347  0.985316  0.873113  1
  N  N18  1  0.015008  0.663208  0.873133  1
  N  N19  1  0.653655  0.667568  0.128049  1
  N  N20  1  0.337614  0.981348  0.128496  1
  N  N21  1  0.010112  0.351647  0.128563  1
