# generated using pymatgen
data_Er16MgNi4Au3
_symmetry_space_group_name_H-M   'P 1'
_cell_length_a   9.34711194
_cell_length_b   9.33101732
_cell_length_c   9.33101600
_cell_angle_alpha   60.00000468
_cell_angle_beta   60.05694771
_cell_angle_gamma   60.05694497
_symmetry_Int_Tables_number   1
_chemical_formula_structural   Er16MgNi4Au3
_chemical_formula_sum   'Er16 Mg1 Ni4 Au3'
_cell_volume   575.96178796
_cell_formula_units_Z   1
loop_
 _symmetry_equiv_pos_site_id
 _symmetry_equiv_pos_as_xyz
  1  'x, y, z'
loop_
 _atom_site_type_symbol
 _atom_site_label
 _atom_site_symmetry_multiplicity
 _atom_site_fract_x
 _atom_site_fract_y
 _atom_site_fract_z
 _atom_site_occupancy
  Er  Er0  1  0.598913  0.597461  0.597461  1
  Er  Er1  1  0.598913  0.597461  0.206164  1
  Er  Er2  1  0.598913  0.206164  0.597461  1
  Er  Er3  1  0.182786  0.605738  0.605738  1
  Er  Er4  1  0.055395  0.443197  0.443197  1
  Er  Er5  1  0.438840  0.061960  0.061960  1
  Er  Er6  1  0.438840  0.061960  0.437241  1
  Er  Er7  1  0.055395  0.443197  0.058211  1
  Er  Er8  1  0.438840  0.437241  0.061960  1
  Er  Er9  1  0.055395  0.058211  0.443197  1
  Er  Er10  1  0.182904  0.813985  0.813985  1
  Er  Er11  1  0.813748  0.185655  0.185655  1
  Er  Er12  1  0.813748  0.185655  0.814943  1
  Er  Er13  1  0.182904  0.813985  0.189125  1
  Er  Er14  1  0.813748  0.814943  0.185655  1
  Er  Er15  1  0.182904  0.189125  0.813985  1
  Mg  Mg16  1  0.557049  0.814317  0.814317  1
  Ni  Ni17  1  0.386394  0.395718  0.395718  1
  Ni  Ni18  1  0.386394  0.395718  0.822171  1
  Ni  Ni19  1  0.386394  0.822171  0.395718  1
  Ni  Ni20  1  0.822774  0.392409  0.392409  1
  Au  Au21  1  0.836271  0.840066  0.840066  1
  Au  Au22  1  0.836271  0.840066  0.483596  1
  Au  Au23  1  0.836271  0.483596  0.840066  1
