# generated using pymatgen
data_Fe5MoP6(PbO12)2
_symmetry_space_group_name_H-M   'P 1'
_cell_length_a   9.37076889
_cell_length_b   9.37085915
_cell_length_c   9.37077006
_cell_angle_alpha   138.50124825
_cell_angle_beta   109.68814736
_cell_angle_gamma   85.07354340
_symmetry_Int_Tables_number   1
_chemical_formula_structural   Fe5MoP6(PbO12)2
_chemical_formula_sum   'Fe5 Mo1 P6 Pb2 O24'
_cell_volume   494.75166017
_cell_formula_units_Z   1
loop_
 _symmetry_equiv_pos_site_id
 _symmetry_equiv_pos_as_xyz
  1  'x, y, z'
loop_
 _atom_site_type_symbol
 _atom_site_label
 _atom_site_symmetry_multiplicity
 _atom_site_fract_x
 _atom_site_fract_y
 _atom_site_fract_z
 _atom_site_occupancy
  Fe  Fe0  1  0.619230  0.620309  0.504806  1
  Fe  Fe1  1  0.380770  0.379691  0.495194  1
  Fe  Fe2  1  0.115502  0.620309  0.001079  1
  Fe  Fe3  1  0.884498  0.379691  0.998921  1
  Fe  Fe4  1  0.000000  0.000000  0.000000  1
  Mo  Mo5  1  0.500000  0.500000  0.000000  1
  P  P6  1  0.322535  0.825203  0.999768  1
  P  P7  1  0.748040  0.651813  0.903773  1
  P  P8  1  0.174566  0.174797  0.497332  1
  P  P9  1  0.677465  0.174797  0.000232  1
  P  P10  1  0.251960  0.348187  0.096227  1
  P  P11  1  0.825434  0.825203  0.502668  1
  Pb  Pb12  1  0.753441  0.147551  0.394110  1
  Pb  Pb13  1  0.246559  0.852449  0.605890  1
  O  O14  1  0.575375  0.931521  0.778249  1
  O  O15  1  0.079425  0.297691  0.649287  1
  O  O16  1  0.834427  0.883665  0.049238  1
  O  O17  1  0.351596  0.702309  0.781734  1
  O  O18  1  0.144734  0.207823  0.351239  1
  O  O19  1  0.346425  0.312852  0.966427  1
  O  O20  1  0.638396  0.707173  0.344625  1
  O  O21  1  0.855266  0.792177  0.648761  1
  O  O22  1  0.366726  0.488650  0.353561  1
  O  O23  1  0.153273  0.931521  0.356146  1
  O  O24  1  0.637454  0.292827  0.931223  1
  O  O25  1  0.633274  0.511350  0.646439  1
  O  O26  1  0.856584  0.207823  0.063089  1
  O  O27  1  0.846727  0.068479  0.643854  1
  O  O28  1  0.362546  0.707173  0.068777  1
  O  O29  1  0.361604  0.292827  0.655375  1
  O  O30  1  0.653575  0.687148  0.033573  1
  O  O31  1  0.920575  0.702309  0.350713  1
  O  O32  1  0.165573  0.116334  0.950762  1
  O  O33  1  0.864910  0.511350  0.878076  1
  O  O34  1  0.135090  0.488650  0.121924  1
  O  O35  1  0.143416  0.792177  0.936911  1
  O  O36  1  0.648404  0.297691  0.218266  1
  O  O37  1  0.424625  0.068479  0.221751  1
