# generated using pymatgen
data_Dy3Ho13(In3Ir)2
_symmetry_space_group_name_H-M   'P 1'
_cell_length_a   10.39211400
_cell_length_b   10.39211424
_cell_length_c   7.04286200
_cell_angle_alpha   90.00000000
_cell_angle_beta   90.00000000
_cell_angle_gamma   119.99999924
_symmetry_Int_Tables_number   1
_chemical_formula_structural   Dy3Ho13(In3Ir)2
_chemical_formula_sum   'Dy3 Ho13 In6 Ir2'
_cell_volume   658.69994673
_cell_formula_units_Z   1
loop_
 _symmetry_equiv_pos_site_id
 _symmetry_equiv_pos_as_xyz
  1  'x, y, z'
loop_
 _atom_site_type_symbol
 _atom_site_label
 _atom_site_symmetry_multiplicity
 _atom_site_fract_x
 _atom_site_fract_y
 _atom_site_fract_z
 _atom_site_occupancy
  Dy  Dy0  1  0.533298  0.066596  0.506403  1
  Dy  Dy1  1  0.933404  0.466702  0.506403  1
  Dy  Dy2  1  0.533298  0.466702  0.506403  1
  Ho  Ho3  1  0.466268  0.932535  0.006624  1
  Ho  Ho4  1  0.067465  0.533732  0.006624  1
  Ho  Ho5  1  0.466268  0.533732  0.006624  1
  Ho  Ho6  1  0.176470  0.352939  0.713458  1
  Ho  Ho7  1  0.647061  0.823530  0.713458  1
  Ho  Ho8  1  0.176470  0.823530  0.713458  1
  Ho  Ho9  1  0.823521  0.647042  0.212577  1
  Ho  Ho10  1  0.352958  0.176479  0.212577  1
  Ho  Ho11  1  0.823521  0.176479  0.212577  1
  Ho  Ho12  1  0.666667  0.333333  0.887951  1
  Ho  Ho13  1  0.333333  0.666667  0.387836  1
  Ho  Ho14  1  0.000000  0.000000  0.492777  1
  Ho  Ho15  1  0.000000  0.000000  0.992949  1
  In  In16  1  0.837442  0.674884  0.752588  1
  In  In17  1  0.325116  0.162558  0.752588  1
  In  In18  1  0.837442  0.162558  0.752588  1
  In  In19  1  0.162750  0.325500  0.252378  1
  In  In20  1  0.674500  0.837250  0.252378  1
  In  In21  1  0.162750  0.837250  0.252378  1
  Ir  Ir22  1  0.666667  0.333333  0.281871  1
  Ir  Ir23  1  0.333333  0.666667  0.782577  1
