# generated using pymatgen
data_HoTm3CoCu3
_symmetry_space_group_name_H-M   'P 1'
_cell_length_a   4.32292100
_cell_length_b   5.36731044
_cell_length_c   7.00578491
_cell_angle_alpha   90.43870027
_cell_angle_beta   90.00000000
_cell_angle_gamma   90.00000000
_symmetry_Int_Tables_number   1
_chemical_formula_structural   HoTm3CoCu3
_chemical_formula_sum   'Ho1 Tm3 Co1 Cu3'
_cell_volume   162.54667254
_cell_formula_units_Z   1
loop_
 _symmetry_equiv_pos_site_id
 _symmetry_equiv_pos_as_xyz
  1  'x, y, z'
loop_
 _atom_site_type_symbol
 _atom_site_label
 _atom_site_symmetry_multiplicity
 _atom_site_fract_x
 _atom_site_fract_y
 _atom_site_fract_z
 _atom_site_occupancy
  Ho  Ho0  1  0.500000  0.135421  0.194031  1
  Tm  Tm1  1  0.000000  0.629498  0.325931  1
  Tm  Tm2  1  0.000000  0.873837  0.811754  1
  Tm  Tm3  1  0.500000  0.358954  0.669308  1
  Co  Co4  1  0.000000  0.130400  0.469050  1
  Cu  Cu5  1  0.000000  0.378937  0.963499  1
  Cu  Cu6  1  0.500000  0.868295  0.537137  1
  Cu  Cu7  1  0.500000  0.624656  0.029292  1
