# generated using pymatgen
data_Tb2SmU(ReB6)2
_symmetry_space_group_name_H-M   'P 1'
_cell_length_a   3.70575500
_cell_length_b   9.24482708
_cell_length_c   11.52007623
_cell_angle_alpha   89.43974917
_cell_angle_beta   90.00000000
_cell_angle_gamma   90.00000000
_symmetry_Int_Tables_number   1
_chemical_formula_structural   Tb2SmU(ReB6)2
_chemical_formula_sum   'Tb4 Sm2 U2 Re4 B24'
_cell_volume   394.64816340
_cell_formula_units_Z   2
loop_
 _symmetry_equiv_pos_site_id
 _symmetry_equiv_pos_as_xyz
  1  'x, y, z'
loop_
 _atom_site_type_symbol
 _atom_site_label
 _atom_site_symmetry_multiplicity
 _atom_site_fract_x
 _atom_site_fract_y
 _atom_site_fract_z
 _atom_site_occupancy
  Tb  Tb0  1  0.000000  0.834867  0.089153  1
  Tb  Tb1  1  0.000000  0.165133  0.910847  1
  Tb  Tb2  1  0.000000  0.945532  0.370554  1
  Tb  Tb3  1  0.000000  0.054468  0.629446  1
  Sm  Sm4  1  0.000000  0.325556  0.411841  1
  Sm  Sm5  1  0.000000  0.674444  0.588159  1
  U  U6  1  0.000000  0.454573  0.105313  1
  U  U7  1  0.000000  0.545427  0.894687  1
  Re  Re8  1  0.000000  0.637385  0.312561  1
  Re  Re9  1  0.000000  0.362615  0.687439  1
  Re  Re10  1  0.000000  0.149448  0.175788  1
  Re  Re11  1  0.000000  0.850552  0.824212  1
  B  B12  1  0.500000  0.555237  0.430335  1
  B  B13  1  0.500000  0.444763  0.569665  1
  B  B14  1  0.500000  0.053283  0.067292  1
  B  B15  1  0.500000  0.946717  0.932708  1
  B  B16  1  0.500000  0.749002  0.417027  1
  B  B17  1  0.500000  0.250998  0.582973  1
  B  B18  1  0.500000  0.246145  0.079089  1
  B  B19  1  0.500000  0.753855  0.920911  1
  B  B20  1  0.500000  0.796538  0.266939  1
  B  B21  1  0.500000  0.203462  0.733061  1
  B  B22  1  0.500000  0.297899  0.228466  1
  B  B23  1  0.500000  0.702101  0.771534  1
  B  B24  1  0.500000  0.637857  0.185827  1
  B  B25  1  0.500000  0.362143  0.814173  1
  B  B26  1  0.500000  0.135931  0.312302  1
  B  B27  1  0.500000  0.864069  0.687698  1
  B  B28  1  0.500000  0.988730  0.212606  1
  B  B29  1  0.500000  0.011270  0.787394  1
  B  B30  1  0.500000  0.485855  0.280899  1
  B  B31  1  0.500000  0.514145  0.719101  1
  B  B32  1  0.500000  0.631224  0.035602  1
  B  B33  1  0.500000  0.368776  0.964398  1
  B  B34  1  0.500000  0.106009  0.470957  1
  B  B35  1  0.500000  0.893991  0.529043  1
