# generated using pymatgen
data_Tb3Dy(Lu3Sn4)2
_symmetry_space_group_name_H-M   'P 1'
_cell_length_a   7.95339400
_cell_length_b   8.08377701
_cell_length_c   15.26924002
_cell_angle_alpha   89.99389075
_cell_angle_beta   90.00000000
_cell_angle_gamma   90.00000000
_symmetry_Int_Tables_number   1
_chemical_formula_structural   Tb3Dy(Lu3Sn4)2
_chemical_formula_sum   'Tb6 Dy2 Lu12 Sn16'
_cell_volume   981.71232166
_cell_formula_units_Z   2
loop_
 _symmetry_equiv_pos_site_id
 _symmetry_equiv_pos_as_xyz
  1  'x, y, z'
loop_
 _atom_site_type_symbol
 _atom_site_label
 _atom_site_symmetry_multiplicity
 _atom_site_fract_x
 _atom_site_fract_y
 _atom_site_fract_z
 _atom_site_occupancy
  Tb  Tb0  1  0.521771  0.320497  0.902962  1
  Tb  Tb1  1  0.021771  0.179503  0.597038  1
  Tb  Tb2  1  0.478166  0.679453  0.402956  1
  Tb  Tb3  1  0.978166  0.820547  0.097044  1
  Tb  Tb4  1  0.478176  0.679470  0.097065  1
  Tb  Tb5  1  0.978176  0.820530  0.402935  1
  Dy  Dy6  1  0.521868  0.320503  0.597137  1
  Dy  Dy7  1  0.021868  0.179497  0.902863  1
  Lu  Lu8  1  0.367296  0.836440  0.877205  1
  Lu  Lu9  1  0.867296  0.663560  0.622795  1
  Lu  Lu10  1  0.632664  0.163675  0.377269  1
  Lu  Lu11  1  0.132664  0.336325  0.122731  1
  Lu  Lu12  1  0.632673  0.163655  0.122758  1
  Lu  Lu13  1  0.132673  0.336345  0.377242  1
  Lu  Lu14  1  0.367303  0.836403  0.622783  1
  Lu  Lu15  1  0.867303  0.663597  0.877217  1
  Lu  Lu16  1  0.197572  0.504721  0.749992  1
  Lu  Lu17  1  0.697572  0.995279  0.750008  1
  Lu  Lu18  1  0.802450  0.495170  0.249989  1
  Lu  Lu19  1  0.302450  0.004830  0.250011  1
  Sn  Sn20  1  0.294589  0.037504  0.041589  1
  Sn  Sn21  1  0.794589  0.462496  0.458411  1
  Sn  Sn22  1  0.705107  0.962717  0.541731  1
  Sn  Sn23  1  0.205107  0.537283  0.958269  1
  Sn  Sn24  1  0.705483  0.962772  0.958262  1
  Sn  Sn25  1  0.205483  0.537228  0.541738  1
  Sn  Sn26  1  0.294803  0.037436  0.458310  1
  Sn  Sn27  1  0.794803  0.462564  0.041690  1
  Sn  Sn28  1  0.563968  0.621378  0.749981  1
  Sn  Sn29  1  0.063968  0.878622  0.750019  1
  Sn  Sn30  1  0.436041  0.378513  0.250003  1
  Sn  Sn31  1  0.936041  0.121487  0.249997  1
  Sn  Sn32  1  0.330576  0.147539  0.749902  1
  Sn  Sn33  1  0.830576  0.352461  0.750098  1
  Sn  Sn34  1  0.669495  0.852667  0.250004  1
  Sn  Sn35  1  0.169495  0.647333  0.249996  1
