# generated using pymatgen
data_Li3Pr8Si12Ir
_symmetry_space_group_name_H-M   'P 1'
_cell_length_a   11.13899028
_cell_length_b   9.43478517
_cell_length_c   8.37093000
_cell_angle_alpha   77.20139173
_cell_angle_beta   55.64782539
_cell_angle_gamma   47.10592886
_symmetry_Int_Tables_number   1
_chemical_formula_structural   Li3Pr8Si12Ir
_chemical_formula_sum   'Li3 Pr8 Si12 Ir1'
_cell_volume   512.51812173
_cell_formula_units_Z   1
loop_
 _symmetry_equiv_pos_site_id
 _symmetry_equiv_pos_as_xyz
  1  'x, y, z'
loop_
 _atom_site_type_symbol
 _atom_site_label
 _atom_site_symmetry_multiplicity
 _atom_site_fract_x
 _atom_site_fract_y
 _atom_site_fract_z
 _atom_site_occupancy
  Li  Li0  1  0.832964  0.166524  0.833293  1
  Li  Li1  1  0.167544  0.832476  0.167240  1
  Li  Li2  1  0.416687  0.083447  0.416942  1
  Pr  Pr3  1  0.373415  0.378896  0.629497  1
  Pr  Pr4  1  0.629153  0.618637  0.373270  1
  Pr  Pr5  1  0.873952  0.870491  0.625174  1
  Pr  Pr6  1  0.626043  0.629776  0.874085  1
  Pr  Pr7  1  0.883193  0.865472  0.122436  1
  Pr  Pr8  1  0.121893  0.128890  0.882830  1
  Pr  Pr9  1  0.370181  0.377715  0.123145  1
  Pr  Pr10  1  0.121621  0.130303  0.371065  1
  Si  Si11  1  0.665674  0.335254  0.665204  1
  Si  Si12  1  0.333408  0.665936  0.334717  1
  Si  Si13  1  0.585344  0.913394  0.586728  1
  Si  Si14  1  0.918574  0.581794  0.917610  1
  Si  Si15  1  0.332909  0.666275  0.832917  1
  Si  Si16  1  0.173590  0.834687  0.661115  1
  Si  Si17  1  0.832144  0.167567  0.334019  1
  Si  Si18  1  0.662064  0.331798  0.172672  1
  Si  Si19  1  0.923108  0.586837  0.408718  1
  Si  Si20  1  0.072998  0.418179  0.590121  1
  Si  Si21  1  0.410630  0.083005  0.920979  1
  Si  Si22  1  0.590165  0.916825  0.073122  1
  Ir  Ir23  1  0.082744  0.415824  0.083101  1
