# generated using pymatgen
data_Tl2Cd5(MoO4)6
_symmetry_space_group_name_H-M   'P 1'
_cell_length_a   7.44584460
_cell_length_b   9.44482224
_cell_length_c   11.06498500
_cell_angle_alpha   106.40240383
_cell_angle_beta   106.81865853
_cell_angle_gamma   102.95298894
_symmetry_Int_Tables_number   1
_chemical_formula_structural   Tl2Cd5(MoO4)6
_chemical_formula_sum   'Tl2 Cd5 Mo6 O24'
_cell_volume   673.74126050
_cell_formula_units_Z   1
loop_
 _symmetry_equiv_pos_site_id
 _symmetry_equiv_pos_as_xyz
  1  'x, y, z'
loop_
 _atom_site_type_symbol
 _atom_site_label
 _atom_site_symmetry_multiplicity
 _atom_site_fract_x
 _atom_site_fract_y
 _atom_site_fract_z
 _atom_site_occupancy
  Tl  Tl0  1  0.996117  0.496109  0.994715  1
  Tl  Tl1  1  0.312403  0.321179  0.311739  1
  Cd  Cd2  1  0.376994  0.946689  0.104777  1
  Cd  Cd3  1  0.637592  0.047230  0.896969  1
  Cd  Cd4  1  0.947242  0.783870  0.464878  1
  Cd  Cd5  1  0.029495  0.200548  0.526907  1
  Cd  Cd6  1  0.710945  0.706829  0.688995  1
  Mo  Mo7  1  0.402714  0.756544  0.377033  1
  Mo  Mo8  1  0.598634  0.276810  0.642287  1
  Mo  Mo9  1  0.882309  0.901040  0.166829  1
  Mo  Mo10  1  0.109111  0.070019  0.823495  1
  Mo  Mo11  1  0.785205  0.330834  0.238770  1
  Mo  Mo12  1  0.224853  0.669320  0.755922  1
  O  O13  1  0.265300  0.827268  0.474000  1
  O  O14  1  0.735653  0.205051  0.545626  1
  O  O15  1  0.682979  0.962880  0.079228  1
  O  O16  1  0.318843  0.012241  0.901160  1
  O  O17  1  0.815507  0.698482  0.088959  1
  O  O18  1  0.163994  0.267871  0.912325  1
  O  O19  1  0.108546  0.992565  0.148879  1
  O  O20  1  0.879241  0.963321  0.835410  1
  O  O21  1  0.457678  0.874317  0.283249  1
  O  O22  1  0.611836  0.195693  0.771465  1
  O  O23  1  0.245573  0.567535  0.256833  1
  O  O24  1  0.707533  0.488881  0.721264  1
  O  O25  1  0.813929  0.287163  0.077254  1
  O  O26  1  0.239565  0.709892  0.927480  1
  O  O27  1  0.808069  0.531098  0.314470  1
  O  O28  1  0.169901  0.466034  0.679337  1
  O  O29  1  0.918757  0.946422  0.345973  1
  O  O30  1  0.066388  0.041556  0.647179  1
  O  O31  1  0.970924  0.283606  0.351173  1
  O  O32  1  0.021408  0.724579  0.662851  1
  O  O33  1  0.633105  0.741278  0.488658  1
  O  O34  1  0.346054  0.227128  0.530167  1
  O  O35  1  0.542520  0.209572  0.211487  1
  O  O36  1  0.463086  0.768541  0.752259  1
