# generated using pymatgen
data_Ac2ZnNi9
_symmetry_space_group_name_H-M   'P 1'
_cell_length_a   5.11246319
_cell_length_b   5.11246477
_cell_length_c   8.05997600
_cell_angle_alpha   90.00000000
_cell_angle_beta   90.00000000
_cell_angle_gamma   120.16830847
_symmetry_Int_Tables_number   1
_chemical_formula_structural   Ac2ZnNi9
_chemical_formula_sum   'Ac2 Zn1 Ni9'
_cell_volume   182.13182646
_cell_formula_units_Z   1
loop_
 _symmetry_equiv_pos_site_id
 _symmetry_equiv_pos_as_xyz
  1  'x, y, z'
loop_
 _atom_site_type_symbol
 _atom_site_label
 _atom_site_symmetry_multiplicity
 _atom_site_fract_x
 _atom_site_fract_y
 _atom_site_fract_z
 _atom_site_occupancy
  Ac  Ac0  1  0.000000  0.000000  0.760936  1
  Ac  Ac1  1  0.000000  0.000000  0.239064  1
  Zn  Zn2  1  0.500000  0.500000  0.500000  1
  Ni  Ni3  1  0.672976  0.327024  0.750861  1
  Ni  Ni4  1  0.672976  0.327024  0.249139  1
  Ni  Ni5  1  0.500000  0.500000  0.000000  1
  Ni  Ni6  1  0.327024  0.672976  0.750861  1
  Ni  Ni7  1  0.500000  0.000000  0.500000  1
  Ni  Ni8  1  0.000000  0.500000  0.000000  1
  Ni  Ni9  1  0.500000  0.000000  0.000000  1
  Ni  Ni10  1  0.327024  0.672976  0.249139  1
  Ni  Ni11  1  0.000000  0.500000  0.500000  1
