# generated using pymatgen
data_Rb2VAs2
_symmetry_space_group_name_H-M   'P 1'
_cell_length_a   8.62762860
_cell_length_b   8.62762830
_cell_length_c   8.62762877
_cell_angle_alpha   136.91361975
_cell_angle_beta   127.86643887
_cell_angle_gamma   69.87023160
_symmetry_Int_Tables_number   1
_chemical_formula_structural   Rb2VAs2
_chemical_formula_sum   'Rb4 V2 As4'
_cell_volume   339.80257051
_cell_formula_units_Z   2
loop_
 _symmetry_equiv_pos_site_id
 _symmetry_equiv_pos_as_xyz
  1  'x, y, z'
loop_
 _atom_site_type_symbol
 _atom_site_label
 _atom_site_symmetry_multiplicity
 _atom_site_fract_x
 _atom_site_fract_y
 _atom_site_fract_z
 _atom_site_occupancy
  Rb  Rb0  1  0.688069  0.349183  0.338885  1
  Rb  Rb1  1  0.010298  0.849183  0.161115  1
  Rb  Rb2  1  0.989702  0.150817  0.838885  1
  Rb  Rb3  1  0.311931  0.650817  0.661115  1
  V  V4  1  0.500000  0.750000  0.250000  1
  V  V5  1  0.500000  0.250000  0.750000  1
  As  As6  1  0.237308  0.404778  0.832530  1
  As  As7  1  0.762692  0.595222  0.167470  1
  As  As8  1  0.427752  0.095222  0.332530  1
  As  As9  1  0.572248  0.904778  0.667470  1
