# generated using pymatgen
data_Ho7Tm5TlCo4Ni
_symmetry_space_group_name_H-M   'P 1'
_cell_length_a   8.22414063
_cell_length_b   8.22410747
_cell_length_c   8.22772128
_cell_angle_alpha   110.80829351
_cell_angle_beta   110.73253418
_cell_angle_gamma   106.88446757
_symmetry_Int_Tables_number   1
_chemical_formula_structural   Ho7Tm5TlCo4Ni
_chemical_formula_sum   'Ho7 Tm5 Tl1 Co4 Ni1'
_cell_volume   427.83871218
_cell_formula_units_Z   1
loop_
 _symmetry_equiv_pos_site_id
 _symmetry_equiv_pos_as_xyz
  1  'x, y, z'
loop_
 _atom_site_type_symbol
 _atom_site_label
 _atom_site_symmetry_multiplicity
 _atom_site_fract_x
 _atom_site_fract_y
 _atom_site_fract_z
 _atom_site_occupancy
  Ho  Ho0  1  0.813531  0.708032  0.521531  1
  Ho  Ho1  1  0.186349  0.707266  0.893577  1
  Ho  Ho2  1  0.814766  0.291108  0.105841  1
  Ho  Ho3  1  0.406296  0.211380  0.195224  1
  Ho  Ho4  1  0.590738  0.786264  0.803574  1
  Ho  Ho5  1  0.017317  0.212904  0.803514  1
  Ho  Ho6  1  0.983853  0.788989  0.195161  1
  Tm  Tm7  1  0.315314  0.620504  0.305661  1
  Tm  Tm8  1  0.683605  0.378195  0.693577  1
  Tm  Tm9  1  0.315346  0.009902  0.693542  1
  Tm  Tm10  1  0.685119  0.990274  0.305626  1
  Tm  Tm11  1  0.185861  0.291367  0.477221  1
  Tl  Tl12  1  0.500316  0.499579  0.000071  1
  Co  Co13  1  0.114061  0.612483  0.500714  1
  Co  Co14  1  0.888118  0.386535  0.500719  1
  Co  Co15  1  0.378638  0.000279  0.378920  1
  Co  Co16  1  0.622434  0.999442  0.621877  1
  Ni  Ni17  1  0.998338  0.005500  0.003651  1
