# generated using pymatgen
data_Zr8Ti2SnBi5B2
_symmetry_space_group_name_H-M   'P 1'
_cell_length_a   8.63126622
_cell_length_b   8.59466331
_cell_length_c   5.79668710
_cell_angle_alpha   89.97866013
_cell_angle_beta   90.01063021
_cell_angle_gamma   119.85982442
_symmetry_Int_Tables_number   1
_chemical_formula_structural   Zr8Ti2SnBi5B2
_chemical_formula_sum   'Zr8 Ti2 Sn1 Bi5 B2'
_cell_volume   372.92847943
_cell_formula_units_Z   1
loop_
 _symmetry_equiv_pos_site_id
 _symmetry_equiv_pos_as_xyz
  1  'x, y, z'
loop_
 _atom_site_type_symbol
 _atom_site_label
 _atom_site_symmetry_multiplicity
 _atom_site_fract_x
 _atom_site_fract_y
 _atom_site_fract_z
 _atom_site_occupancy
  Zr  Zr0  1  0.331043  0.664991  0.497885  1
  Zr  Zr1  1  0.668957  0.333945  0.497885  1
  Zr  Zr2  1  0.772873  0.771494  0.748294  1
  Zr  Zr3  1  0.227127  0.998621  0.748294  1
  Zr  Zr4  1  0.000000  0.229729  0.748526  1
  Zr  Zr5  1  0.225569  0.230716  0.251460  1
  Zr  Zr6  1  0.774431  0.005147  0.251460  1
  Zr  Zr7  1  0.000000  0.768562  0.251654  1
  Ti  Ti8  1  0.669672  0.334039  0.001787  1
  Ti  Ti9  1  0.330328  0.664369  0.001787  1
  Sn  Sn10  1  0.000000  0.402303  0.242193  1
  Bi  Bi11  1  0.400945  0.400642  0.757664  1
  Bi  Bi12  1  0.599055  0.999697  0.757664  1
  Bi  Bi13  1  0.000000  0.594896  0.759152  1
  Bi  Bi14  1  0.600151  0.600792  0.242155  1
  Bi  Bi15  1  0.399849  0.000641  0.242155  1
  B  B16  1  0.000000  0.999712  0.000140  1
  B  B17  1  0.000000  0.999702  0.499845  1
