# generated using pymatgen
data_Dy10In3Bi3Cl2
_symmetry_space_group_name_H-M   'P 1'
_cell_length_a   9.23510714
_cell_length_b   9.19253602
_cell_length_c   6.58893500
_cell_angle_alpha   90.00000000
_cell_angle_beta   90.00000000
_cell_angle_gamma   120.28607890
_symmetry_Int_Tables_number   1
_chemical_formula_structural   Dy10In3Bi3Cl2
_chemical_formula_sum   'Dy10 In3 Bi3 Cl2'
_cell_volume   483.01870787
_cell_formula_units_Z   1
loop_
 _symmetry_equiv_pos_site_id
 _symmetry_equiv_pos_as_xyz
  1  'x, y, z'
loop_
 _atom_site_type_symbol
 _atom_site_label
 _atom_site_symmetry_multiplicity
 _atom_site_fract_x
 _atom_site_fract_y
 _atom_site_fract_z
 _atom_site_occupancy
  Dy  Dy0  1  0.261383  0.992763  0.750000  1
  Dy  Dy1  1  0.735120  0.000032  0.250000  1
  Dy  Dy2  1  0.993349  0.259754  0.750000  1
  Dy  Dy3  1  0.006869  0.744064  0.250000  1
  Dy  Dy4  1  0.742650  0.741606  0.750000  1
  Dy  Dy5  1  0.261658  0.255219  0.250000  1
  Dy  Dy6  1  0.332179  0.674174  0.501015  1
  Dy  Dy7  1  0.667468  0.327579  0.500977  1
  Dy  Dy8  1  0.667468  0.327579  0.999023  1
  Dy  Dy9  1  0.332179  0.674174  0.998985  1
  In  In10  1  0.610056  0.998786  0.750000  1
  In  In11  1  0.392000  0.001595  0.250000  1
  In  In12  1  0.997212  0.609633  0.750000  1
  Bi  Bi13  1  0.001857  0.389485  0.250000  1
  Bi  Bi14  1  0.385770  0.386827  0.750000  1
  Bi  Bi15  1  0.612933  0.611509  0.250000  1
  Cl  Cl16  1  0.999924  0.002610  0.498907  1
  Cl  Cl17  1  0.999924  0.002610  0.001093  1
