# generated using pymatgen
data_Tb5IrPt2
_symmetry_space_group_name_H-M   'P 1'
_cell_length_a   11.10950300
_cell_length_b   11.10950300
_cell_length_c   6.36398400
_cell_angle_alpha   90.00000000
_cell_angle_beta   90.00000000
_cell_angle_gamma   90.00000000
_symmetry_Int_Tables_number   1
_chemical_formula_structural   Tb5IrPt2
_chemical_formula_sum   'Tb20 Ir4 Pt8'
_cell_volume   785.44963142
_cell_formula_units_Z   4
loop_
 _symmetry_equiv_pos_site_id
 _symmetry_equiv_pos_as_xyz
  1  'x, y, z'
loop_
 _atom_site_type_symbol
 _atom_site_label
 _atom_site_symmetry_multiplicity
 _atom_site_fract_x
 _atom_site_fract_y
 _atom_site_fract_z
 _atom_site_occupancy
  Tb  Tb0  1  0.294591  0.087771  0.375820  1
  Tb  Tb1  1  0.294591  0.912229  0.875820  1
  Tb  Tb2  1  0.705409  0.087771  0.875820  1
  Tb  Tb3  1  0.705409  0.912229  0.375820  1
  Tb  Tb4  1  0.587771  0.794591  0.875820  1
  Tb  Tb5  1  0.587771  0.205409  0.375820  1
  Tb  Tb6  1  0.412229  0.794591  0.375820  1
  Tb  Tb7  1  0.412229  0.205409  0.875820  1
  Tb  Tb8  1  0.205409  0.412229  0.624180  1
  Tb  Tb9  1  0.205409  0.587771  0.124180  1
  Tb  Tb10  1  0.794591  0.412229  0.124180  1
  Tb  Tb11  1  0.794591  0.587771  0.624180  1
  Tb  Tb12  1  0.912229  0.705409  0.124180  1
  Tb  Tb13  1  0.912229  0.294591  0.624180  1
  Tb  Tb14  1  0.087771  0.705409  0.624180  1
  Tb  Tb15  1  0.087771  0.294591  0.124180  1
  Tb  Tb16  1  0.000000  0.000000  0.500000  1
  Tb  Tb17  1  0.000000  0.000000  0.000000  1
  Tb  Tb18  1  0.500000  0.500000  0.000000  1
  Tb  Tb19  1  0.500000  0.500000  0.500000  1
  Ir  Ir20  1  0.500000  0.000000  0.119781  1
  Ir  Ir21  1  0.500000  0.000000  0.619781  1
  Ir  Ir22  1  0.000000  0.500000  0.880219  1
  Ir  Ir23  1  0.000000  0.500000  0.380219  1
  Pt  Pt24  1  0.846356  0.153644  0.250000  1
  Pt  Pt25  1  0.846356  0.846356  0.750000  1
  Pt  Pt26  1  0.153644  0.153644  0.750000  1
  Pt  Pt27  1  0.153644  0.846356  0.250000  1
  Pt  Pt28  1  0.653644  0.346356  0.750000  1
  Pt  Pt29  1  0.653644  0.653644  0.250000  1
  Pt  Pt30  1  0.346356  0.346356  0.250000  1
  Pt  Pt31  1  0.346356  0.653644  0.750000  1
