# generated using pymatgen
data_Tb4Y12Cd4TcNi3
_symmetry_space_group_name_H-M   'P 1'
_cell_length_a   9.64917072
_cell_length_b   9.64917118
_cell_length_c   9.64917008
_cell_angle_alpha   59.40288613
_cell_angle_beta   59.40288301
_cell_angle_gamma   59.40287898
_symmetry_Int_Tables_number   1
_chemical_formula_structural   Tb4Y12Cd4TcNi3
_chemical_formula_sum   'Tb4 Y12 Cd4 Tc1 Ni3'
_cell_volume   626.63305723
_cell_formula_units_Z   1
loop_
 _symmetry_equiv_pos_site_id
 _symmetry_equiv_pos_as_xyz
  1  'x, y, z'
loop_
 _atom_site_type_symbol
 _atom_site_label
 _atom_site_symmetry_multiplicity
 _atom_site_fract_x
 _atom_site_fract_y
 _atom_site_fract_z
 _atom_site_occupancy
  Tb  Tb0  1  0.597401  0.597401  0.597401  1
  Tb  Tb1  1  0.601506  0.601506  0.203912  1
  Tb  Tb2  1  0.601506  0.203912  0.601506  1
  Tb  Tb3  1  0.203912  0.601506  0.601506  1
  Y  Y4  1  0.061394  0.437782  0.437782  1
  Y  Y5  1  0.437729  0.060550  0.060550  1
  Y  Y6  1  0.437782  0.061394  0.437782  1
  Y  Y7  1  0.060550  0.437729  0.060550  1
  Y  Y8  1  0.437782  0.437782  0.061394  1
  Y  Y9  1  0.060550  0.060550  0.437729  1
  Y  Y10  1  0.186650  0.814819  0.814819  1
  Y  Y11  1  0.805544  0.189278  0.189278  1
  Y  Y12  1  0.814819  0.186650  0.814819  1
  Y  Y13  1  0.189278  0.805544  0.189278  1
  Y  Y14  1  0.814819  0.814819  0.186650  1
  Y  Y15  1  0.189278  0.189278  0.805544  1
  Cd  Cd16  1  0.829586  0.829586  0.829586  1
  Cd  Cd17  1  0.829521  0.829521  0.505977  1
  Cd  Cd18  1  0.829521  0.505977  0.829521  1
  Cd  Cd19  1  0.505977  0.829521  0.829521  1
  Tc  Tc20  1  0.394713  0.394713  0.394713  1
  Ni  Ni21  1  0.393004  0.393004  0.824168  1
  Ni  Ni22  1  0.393004  0.824168  0.393004  1
  Ni  Ni23  1  0.824168  0.393004  0.393004  1
