# generated using pymatgen
data_Ho3Mg2ZnPt3
_symmetry_space_group_name_H-M   'P 1'
_cell_length_a   7.32372600
_cell_length_b   7.33534837
_cell_length_c   3.99887100
_cell_angle_alpha   90.00000000
_cell_angle_beta   90.00000000
_cell_angle_gamma   119.94761023
_symmetry_Int_Tables_number   1
_chemical_formula_structural   Ho3Mg2ZnPt3
_chemical_formula_sum   'Ho3 Mg2 Zn1 Pt3'
_cell_volume   186.14436170
_cell_formula_units_Z   1
loop_
 _symmetry_equiv_pos_site_id
 _symmetry_equiv_pos_as_xyz
  1  'x, y, z'
loop_
 _atom_site_type_symbol
 _atom_site_label
 _atom_site_symmetry_multiplicity
 _atom_site_fract_x
 _atom_site_fract_y
 _atom_site_fract_z
 _atom_site_occupancy
  Ho  Ho0  1  0.421883  0.000000  0.000000  1
  Ho  Ho1  1  0.990478  0.396251  0.000000  1
  Ho  Ho2  1  0.594226  0.603748  0.000000  1
  Mg  Mg3  1  0.246867  0.245852  0.499999  1
  Mg  Mg4  1  0.001016  0.754148  0.499999  1
  Zn  Zn5  1  0.748928  0.000000  0.499999  1
  Pt  Pt6  1  0.997308  0.000000  0.000000  1
  Pt  Pt7  1  0.666525  0.333756  0.499999  1
  Pt  Pt8  1  0.332769  0.666245  0.499999  1
