# generated using pymatgen
data_Er5Be2P10Ir19
_symmetry_space_group_name_H-M   'P 1'
_cell_length_a   12.57933493
_cell_length_b   12.63969355
_cell_length_c   3.94836700
_cell_angle_alpha   90.00000000
_cell_angle_beta   90.00000000
_cell_angle_gamma   119.47281715
_symmetry_Int_Tables_number   1
_chemical_formula_structural   Er5Be2P10Ir19
_chemical_formula_sum   'Er5 Be2 P10 Ir19'
_cell_volume   546.54386450
_cell_formula_units_Z   1
loop_
 _symmetry_equiv_pos_site_id
 _symmetry_equiv_pos_as_xyz
  1  'x, y, z'
loop_
 _atom_site_type_symbol
 _atom_site_label
 _atom_site_symmetry_multiplicity
 _atom_site_fract_x
 _atom_site_fract_y
 _atom_site_fract_z
 _atom_site_occupancy
  Er  Er0  1  0.664650  0.325894  0.000000  1
  Er  Er1  1  0.339014  0.664493  0.000000  1
  Er  Er2  1  0.808361  0.809862  0.500000  1
  Er  Er3  1  0.181107  0.998507  0.500000  1
  Er  Er4  1  0.992341  0.182835  0.500000  1
  Be  Be5  1  0.689016  0.171960  0.500000  1
  Be  Be6  1  0.635161  0.633523  0.000000  1
  P  P7  1  0.822599  0.512532  0.500000  1
  P  P8  1  0.482362  0.315721  0.500000  1
  P  P9  1  0.180607  0.693893  0.500000  1
  P  P10  1  0.519238  0.825722  0.500000  1
  P  P11  1  0.319788  0.482177  0.500000  1
  P  P12  1  0.363514  0.004616  0.000000  1
  P  P13  1  0.994140  0.356814  0.000000  1
  P  P14  1  0.171169  0.175041  0.000000  1
  P  P15  1  0.816785  0.000471  0.000000  1
  P  P16  1  0.996756  0.816442  0.000000  1
  Ir  Ir17  1  0.804987  0.182355  0.000000  1
  Ir  Ir18  1  0.822273  0.618105  0.000000  1
  Ir  Ir19  1  0.368982  0.192814  0.000000  1
  Ir  Ir20  1  0.185940  0.808320  0.000000  1
  Ir  Ir21  1  0.620726  0.821739  0.000000  1
  Ir  Ir22  1  0.185947  0.369467  0.000000  1
  Ir  Ir23  1  0.450574  0.455110  0.000000  1
  Ir  Ir24  1  0.553010  0.017784  0.000000  1
  Ir  Ir25  1  0.012034  0.546211  0.000000  1
  Ir  Ir26  1  0.278725  0.280689  0.500000  1
  Ir  Ir27  1  0.711794  0.001678  0.500000  1
  Ir  Ir28  1  0.003326  0.712481  0.500000  1
  Ir  Ir29  1  0.876734  0.365744  0.500000  1
  Ir  Ir30  1  0.636869  0.510934  0.500000  1
  Ir  Ir31  1  0.488749  0.135918  0.500000  1
  Ir  Ir32  1  0.368652  0.875547  0.500000  1
  Ir  Ir33  1  0.514640  0.639768  0.500000  1
  Ir  Ir34  1  0.144138  0.499944  0.500000  1
  Ir  Ir35  1  0.995291  0.994883  0.000000  1
