# generated using pymatgen
data_Yb3Zn3(IrO6)2
_symmetry_space_group_name_H-M   'P 1'
_cell_length_a   10.66930890
_cell_length_b   10.66930839
_cell_length_c   10.66930900
_cell_angle_alpha   109.47121989
_cell_angle_beta   109.47121893
_cell_angle_gamma   109.47122060
_symmetry_Int_Tables_number   1
_chemical_formula_structural   Yb3Zn3(IrO6)2
_chemical_formula_sum   'Yb12 Zn12 Ir8 O48'
_cell_volume   934.94695850
_cell_formula_units_Z   4
loop_
 _symmetry_equiv_pos_site_id
 _symmetry_equiv_pos_as_xyz
  1  'x, y, z'
loop_
 _atom_site_type_symbol
 _atom_site_label
 _atom_site_symmetry_multiplicity
 _atom_site_fract_x
 _atom_site_fract_y
 _atom_site_fract_z
 _atom_site_occupancy
  Yb  Yb0  1  0.875000  0.750000  0.125000  1
  Yb  Yb1  1  0.750001  0.375001  0.125001  1
  Yb  Yb2  1  0.875001  0.125000  0.249999  1
  Yb  Yb3  1  0.375000  0.625000  0.250001  1
  Yb  Yb4  1  0.250001  0.125000  0.375000  1
  Yb  Yb5  1  0.625002  0.250001  0.375000  1
  Yb  Yb6  1  0.375000  0.750000  0.625000  1
  Yb  Yb7  1  0.750001  0.875002  0.625002  1
  Yb  Yb8  1  0.125001  0.875000  0.750001  1
  Yb  Yb9  1  0.624999  0.375000  0.750001  1
  Yb  Yb10  1  0.125000  0.249999  0.875000  1
  Yb  Yb11  1  0.250001  0.625000  0.875000  1
  Zn  Zn12  1  0.375000  0.250001  0.124999  1
  Zn  Zn13  1  0.250000  0.875002  0.125000  1
  Zn  Zn14  1  0.625001  0.875001  0.250001  1
  Zn  Zn15  1  0.124999  0.375000  0.250002  1
  Zn  Zn16  1  0.750000  0.624999  0.375000  1
  Zn  Zn17  1  0.125001  0.750001  0.375001  1
  Zn  Zn18  1  0.875001  0.250001  0.625001  1
  Zn  Zn19  1  0.250001  0.375000  0.625001  1
  Zn  Zn20  1  0.375000  0.125001  0.750001  1
  Zn  Zn21  1  0.875001  0.625001  0.750002  1
  Zn  Zn22  1  0.750001  0.124999  0.874999  1
  Zn  Zn23  1  0.625000  0.750001  0.875000  1
  Ir  Ir24  1  0.000000  0.000000  0.000000  1
  Ir  Ir25  1  0.500001  0.000000  0.000000  1
  Ir  Ir26  1  0.500000  0.500000  0.000000  1
  Ir  Ir27  1  0.000000  0.500001  0.000000  1
  Ir  Ir28  1  0.000000  0.500001  0.500000  1
  Ir  Ir29  1  0.500002  0.000000  0.500000  1
  Ir  Ir30  1  0.000000  0.000000  0.500001  1
  Ir  Ir31  1  0.500001  0.500001  0.500001  1
  O  O32  1  0.828027  0.914720  0.030735  1
  O  O33  1  0.702708  0.116015  0.030735  1
  O  O34  1  0.116015  0.413308  0.085280  1
  O  O35  1  0.469266  0.671974  0.085280  1
  O  O36  1  0.202708  0.671972  0.086693  1
  O  O37  1  0.383986  0.414720  0.086693  1
  O  O38  1  0.085281  0.913307  0.116014  1
  O  O39  1  0.530734  0.202706  0.116014  1
  O  O40  1  0.702707  0.586694  0.171972  1
  O  O41  1  0.969265  0.585280  0.171972  1
  O  O42  1  0.086692  0.171972  0.202707  1
  O  O43  1  0.616014  0.030735  0.202707  1
  O  O44  1  0.969266  0.383986  0.297293  1
  O  O45  1  0.828028  0.913308  0.297294  1
  O  O46  1  0.414721  0.030735  0.328028  1
  O  O47  1  0.413307  0.297293  0.328028  1
  O  O48  1  0.086693  0.914720  0.383986  1
  O  O49  1  0.797294  0.469266  0.383986  1
  O  O50  1  0.328027  0.797293  0.413307  1
  O  O51  1  0.585280  0.616015  0.413308  1
  O  O52  1  0.328028  0.530735  0.414720  1
  O  O53  1  0.586693  0.883986  0.414721  1
  O  O54  1  0.085280  0.171971  0.469265  1
  O  O55  1  0.883987  0.297293  0.469265  1
  O  O56  1  0.116014  0.702707  0.530735  1
  O  O57  1  0.914722  0.828028  0.530735  1
  O  O58  1  0.671972  0.469267  0.585280  1
  O  O59  1  0.413308  0.116015  0.585282  1
  O  O60  1  0.414720  0.383986  0.586692  1
  O  O61  1  0.671974  0.202708  0.586693  1
  O  O62  1  0.202708  0.530734  0.616014  1
  O  O63  1  0.913308  0.085280  0.616014  1
  O  O64  1  0.586692  0.702707  0.671972  1
  O  O65  1  0.585280  0.969267  0.671972  1
  O  O66  1  0.171973  0.086692  0.702707  1
  O  O67  1  0.030735  0.616014  0.702707  1
  O  O68  1  0.383986  0.969265  0.797293  1
  O  O69  1  0.913306  0.828027  0.797293  1
  O  O70  1  0.297293  0.413307  0.828026  1
  O  O71  1  0.030734  0.414720  0.828028  1
  O  O72  1  0.914721  0.086693  0.883985  1
  O  O73  1  0.469266  0.797294  0.883986  1
  O  O74  1  0.616014  0.585281  0.913307  1
  O  O75  1  0.797293  0.328028  0.913307  1
  O  O76  1  0.530733  0.328027  0.914718  1
  O  O77  1  0.883987  0.586693  0.914721  1
  O  O78  1  0.171973  0.085280  0.969265  1
  O  O79  1  0.297294  0.883986  0.969267  1
