# generated using pymatgen
data_Sn16IrPt3
_symmetry_space_group_name_H-M   'P 1'
_cell_length_a   12.73168598
_cell_length_b   12.73168621
_cell_length_c   12.73378642
_cell_angle_alpha   150.75588890
_cell_angle_beta   150.75589020
_cell_angle_gamma   41.80821410
_symmetry_Int_Tables_number   1
_chemical_formula_structural   Sn16IrPt3
_chemical_formula_sum   'Sn16 Ir1 Pt3'
_cell_volume   491.52071776
_cell_formula_units_Z   1
loop_
 _symmetry_equiv_pos_site_id
 _symmetry_equiv_pos_as_xyz
  1  'x, y, z'
loop_
 _atom_site_type_symbol
 _atom_site_label
 _atom_site_symmetry_multiplicity
 _atom_site_fract_x
 _atom_site_fract_y
 _atom_site_fract_z
 _atom_site_occupancy
  Sn  Sn0  1  0.985754  0.485634  0.843240  1
  Sn  Sn1  1  0.357486  0.857607  0.843240  1
  Sn  Sn2  1  0.014366  0.514246  0.156760  1
  Sn  Sn3  1  0.262744  0.606003  0.994858  1
  Sn  Sn4  1  0.105830  0.111289  0.343186  1
  Sn  Sn5  1  0.857281  0.014325  0.500111  1
  Sn  Sn6  1  0.514214  0.357170  0.499889  1
  Sn  Sn7  1  0.142830  0.985786  0.500111  1
  Sn  Sn8  1  0.485675  0.642719  0.499889  1
  Sn  Sn9  1  0.737356  0.731897  0.343186  1
  Sn  Sn10  1  0.388711  0.394170  0.656814  1
  Sn  Sn11  1  0.768103  0.762644  0.656814  1
  Sn  Sn12  1  0.642393  0.142514  0.156760  1
  Sn  Sn13  1  0.893997  0.237256  0.005142  1
  Sn  Sn14  1  0.232114  0.888855  0.994858  1
  Sn  Sn15  1  0.611145  0.267886  0.005142  1
  Ir  Ir16  1  0.000000  0.500000  0.500000  1
  Pt  Pt17  1  0.500000  0.000000  0.500000  1
  Pt  Pt18  1  0.750000  0.750000  0.000000  1
  Pt  Pt19  1  0.250000  0.250000  0.000000  1
