# generated using pymatgen
data_CaLaGa5Ir3
_symmetry_space_group_name_H-M   'P 1'
_cell_length_a   8.67856842
_cell_length_b   8.67856717
_cell_length_c   8.67856705
_cell_angle_alpha   140.82810420
_cell_angle_beta   107.60822328
_cell_angle_gamma   85.54012000
_symmetry_Int_Tables_number   1
_chemical_formula_structural   CaLaGa5Ir3
_chemical_formula_sum   'Ca2 La2 Ga10 Ir6'
_cell_volume   379.95834263
_cell_formula_units_Z   2
loop_
 _symmetry_equiv_pos_site_id
 _symmetry_equiv_pos_as_xyz
  1  'x, y, z'
loop_
 _atom_site_type_symbol
 _atom_site_label
 _atom_site_symmetry_multiplicity
 _atom_site_fract_x
 _atom_site_fract_y
 _atom_site_fract_z
 _atom_site_occupancy
  Ca  Ca0  1  0.088603  0.860722  0.227880  1
  Ca  Ca1  1  0.632843  0.360722  0.272120  1
  La  La2  1  0.913394  0.139745  0.773649  1
  La  La3  1  0.366095  0.639745  0.726351  1
  Ga  Ga4  1  0.293619  0.043619  0.750000  1
  Ga  Ga5  1  0.293619  0.543619  0.250000  1
  Ga  Ga6  1  0.998977  0.248977  0.250000  1
  Ga  Ga7  1  0.237156  0.408208  0.828948  1
  Ga  Ga8  1  0.758012  0.587566  0.170446  1
  Ga  Ga9  1  0.709777  0.459777  0.750000  1
  Ga  Ga10  1  0.579260  0.908208  0.671052  1
  Ga  Ga11  1  0.709777  0.959777  0.250000  1
  Ga  Ga12  1  0.417119  0.087566  0.329554  1
  Ga  Ga13  1  0.998977  0.748977  0.750000  1
  Ir  Ir14  1  0.047147  0.646101  0.401045  1
  Ir  Ir15  1  0.758056  0.853822  0.904234  1
  Ir  Ir16  1  0.949588  0.353822  0.595766  1
  Ir  Ir17  1  0.245056  0.146101  0.098955  1
  Ir  Ir18  1  0.501463  0.751463  0.250000  1
  Ir  Ir19  1  0.501463  0.251463  0.750000  1
