# generated using pymatgen
data_KMnF5
_symmetry_space_group_name_H-M   'P 1'
_cell_length_a   5.40134800
_cell_length_b   7.66162400
_cell_length_c   10.54674400
_cell_angle_alpha   90.00000000
_cell_angle_beta   90.00000000
_cell_angle_gamma   90.00000000
_symmetry_Int_Tables_number   1
_chemical_formula_structural   KMnF5
_chemical_formula_sum   'K4 Mn4 F20'
_cell_volume   436.45693493
_cell_formula_units_Z   4
loop_
 _symmetry_equiv_pos_site_id
 _symmetry_equiv_pos_as_xyz
  1  'x, y, z'
loop_
 _atom_site_type_symbol
 _atom_site_label
 _atom_site_symmetry_multiplicity
 _atom_site_fract_x
 _atom_site_fract_y
 _atom_site_fract_z
 _atom_site_occupancy
  K  K0  1  0.500000  0.893594  0.970167  1
  K  K1  1  0.500000  0.106406  0.470167  1
  K  K2  1  0.000000  0.354381  0.116060  1
  K  K3  1  0.000000  0.645619  0.616060  1
  Mn  Mn4  1  0.000000  0.874604  0.241722  1
  Mn  Mn5  1  0.500000  0.572158  0.339502  1
  Mn  Mn6  1  0.500000  0.427842  0.839502  1
  Mn  Mn7  1  0.000000  0.125396  0.741722  1
  F  F8  1  0.261912  0.544401  0.922848  1
  F  F9  1  0.749384  0.691651  0.237347  1
  F  F10  1  0.237284  0.039568  0.236261  1
  F  F11  1  0.749384  0.308349  0.737347  1
  F  F12  1  0.500000  0.251651  0.954456  1
  F  F13  1  0.762716  0.960432  0.736261  1
  F  F14  1  0.500000  0.591064  0.713844  1
  F  F15  1  0.237284  0.960432  0.736261  1
  F  F16  1  0.000000  0.854145  0.070047  1
  F  F17  1  0.762716  0.039568  0.236261  1
  F  F18  1  0.500000  0.408936  0.213844  1
  F  F19  1  0.738088  0.455599  0.422848  1
  F  F20  1  0.250616  0.691651  0.237347  1
  F  F21  1  0.000000  0.867993  0.412798  1
  F  F22  1  0.000000  0.145855  0.570047  1
  F  F23  1  0.250616  0.308349  0.737347  1
  F  F24  1  0.000000  0.132007  0.912798  1
  F  F25  1  0.261912  0.455599  0.422848  1
  F  F26  1  0.500000  0.748349  0.454456  1
  F  F27  1  0.738088  0.544401  0.922848  1
