# generated using pymatgen
data_Ho5Tm3Sc12Si15Se
_symmetry_space_group_name_H-M   'P 1'
_cell_length_a   7.12840744
_cell_length_b   7.32035038
_cell_length_c   13.91530665
_cell_angle_alpha   89.87834019
_cell_angle_beta   88.13514242
_cell_angle_gamma   90.09079958
_symmetry_Int_Tables_number   1
_chemical_formula_structural   Ho5Tm3Sc12Si15Se
_chemical_formula_sum   'Ho5 Tm3 Sc12 Si15 Se1'
_cell_volume   725.74743997
_cell_formula_units_Z   1
loop_
 _symmetry_equiv_pos_site_id
 _symmetry_equiv_pos_as_xyz
  1  'x, y, z'
loop_
 _atom_site_type_symbol
 _atom_site_label
 _atom_site_symmetry_multiplicity
 _atom_site_fract_x
 _atom_site_fract_y
 _atom_site_fract_z
 _atom_site_occupancy
  Ho  Ho0  1  0.009966  0.176291  0.097103  1
  Ho  Ho1  1  0.990405  0.824981  0.902589  1
  Ho  Ho2  1  0.490538  0.676373  0.903181  1
  Ho  Ho3  1  0.999710  0.825094  0.596283  1
  Ho  Ho4  1  0.509705  0.324490  0.097143  1
  Tm  Tm5  1  0.994331  0.174199  0.401441  1
  Tm  Tm6  1  0.499954  0.316125  0.400744  1
  Tm  Tm7  1  0.510390  0.683080  0.598850  1
  Sc  Sc8  1  0.169811  0.501083  0.752287  1
  Sc  Sc9  1  0.829925  0.498392  0.253482  1
  Sc  Sc10  1  0.328689  0.000692  0.252092  1
  Sc  Sc11  1  0.671249  0.999076  0.748628  1
  Sc  Sc12  1  0.352116  0.166036  0.626131  1
  Sc  Sc13  1  0.649711  0.829576  0.374774  1
  Sc  Sc14  1  0.148509  0.669627  0.377239  1
  Sc  Sc15  1  0.664694  0.823013  0.125650  1
  Sc  Sc16  1  0.846107  0.332042  0.621452  1
  Sc  Sc17  1  0.334495  0.176414  0.873753  1
  Sc  Sc18  1  0.835170  0.323953  0.873889  1
  Sc  Sc19  1  0.164968  0.676454  0.125663  1
  Si  Si20  1  0.043054  0.118131  0.748343  1
  Si  Si21  1  0.956300  0.883053  0.249880  1
  Si  Si22  1  0.454688  0.614929  0.250063  1
  Si  Si23  1  0.543737  0.385515  0.749121  1
  Si  Si24  1  0.294407  0.869091  0.750185  1
  Si  Si25  1  0.706304  0.128224  0.248739  1
  Si  Si26  1  0.205412  0.371025  0.250287  1
  Si  Si27  1  0.796746  0.629471  0.750089  1
  Si  Si28  1  0.798999  0.538839  0.457147  1
  Si  Si29  1  0.314522  0.961074  0.459980  1
  Si  Si30  1  0.842028  0.534945  0.039229  1
  Si  Si31  1  0.682788  0.040343  0.540447  1
  Si  Si32  1  0.157177  0.466165  0.960467  1
  Si  Si33  1  0.657074  0.035297  0.959922  1
  Si  Si34  1  0.342280  0.965901  0.039885  1
  Se  Se35  1  0.204044  0.461005  0.543841  1
