# generated using pymatgen
data_LaPr4ReRuO12
_symmetry_space_group_name_H-M   'P 1'
_cell_length_a   7.14703626
_cell_length_b   7.14703549
_cell_length_c   7.92092351
_cell_angle_alpha   73.76170867
_cell_angle_beta   73.76170888
_cell_angle_gamma   48.04188823
_symmetry_Int_Tables_number   1
_chemical_formula_structural   LaPr4ReRuO12
_chemical_formula_sum   'La1 Pr4 Re1 Ru1 O12'
_cell_volume   286.42886150
_cell_formula_units_Z   1
loop_
 _symmetry_equiv_pos_site_id
 _symmetry_equiv_pos_as_xyz
  1  'x, y, z'
loop_
 _atom_site_type_symbol
 _atom_site_label
 _atom_site_symmetry_multiplicity
 _atom_site_fract_x
 _atom_site_fract_y
 _atom_site_fract_z
 _atom_site_occupancy
  La  La0  1  0.991909  0.008091  0.500000  1
  Pr  Pr1  1  0.292852  0.321729  0.353978  1
  Pr  Pr2  1  0.678271  0.707148  0.646022  1
  Pr  Pr3  1  0.681870  0.691158  0.168180  1
  Pr  Pr4  1  0.308842  0.318130  0.831820  1
  Re  Re5  1  0.796911  0.203089  0.000000  1
  Ru  Ru6  1  0.229896  0.770104  0.000000  1
  O  O7  1  0.085521  0.596681  0.581119  1
  O  O8  1  0.995311  0.004364  0.193078  1
  O  O9  1  0.403319  0.914479  0.418881  1
  O  O10  1  0.514198  0.484390  0.163405  1
  O  O11  1  0.086607  0.577811  0.080522  1
  O  O12  1  0.895303  0.409394  0.426994  1
  O  O13  1  0.995636  0.004689  0.806922  1
  O  O14  1  0.590606  0.104696  0.573006  1
  O  O15  1  0.515610  0.485802  0.836595  1
  O  O16  1  0.605671  0.090522  0.077026  1
  O  O17  1  0.422189  0.913393  0.919478  1
  O  O18  1  0.909478  0.394329  0.922974  1
