# generated using pymatgen
data_Dy10Y6Cd4Ni3Os
_symmetry_space_group_name_H-M   'P 1'
_cell_length_a   9.60919032
_cell_length_b   9.60919099
_cell_length_c   9.60919063
_cell_angle_alpha   59.57522358
_cell_angle_beta   59.57521380
_cell_angle_gamma   59.57522262
_symmetry_Int_Tables_number   1
_chemical_formula_structural   Dy10Y6Cd4Ni3Os
_chemical_formula_sum   'Dy10 Y6 Cd4 Ni3 Os1'
_cell_volume   621.34300228
_cell_formula_units_Z   1
loop_
 _symmetry_equiv_pos_site_id
 _symmetry_equiv_pos_as_xyz
  1  'x, y, z'
loop_
 _atom_site_type_symbol
 _atom_site_label
 _atom_site_symmetry_multiplicity
 _atom_site_fract_x
 _atom_site_fract_y
 _atom_site_fract_z
 _atom_site_occupancy
  Dy  Dy0  1  0.597445  0.597445  0.597445  1
  Dy  Dy1  1  0.600349  0.600349  0.204889  1
  Dy  Dy2  1  0.600349  0.204889  0.600349  1
  Dy  Dy3  1  0.204889  0.600349  0.600349  1
  Dy  Dy4  1  0.060621  0.438293  0.438293  1
  Dy  Dy5  1  0.436805  0.061212  0.061212  1
  Dy  Dy6  1  0.438293  0.060621  0.438293  1
  Dy  Dy7  1  0.061212  0.436805  0.061212  1
  Dy  Dy8  1  0.438293  0.438293  0.060621  1
  Dy  Dy9  1  0.061212  0.061212  0.436805  1
  Y  Y10  1  0.186583  0.814976  0.814976  1
  Y  Y11  1  0.806988  0.189027  0.189027  1
  Y  Y12  1  0.814976  0.186583  0.814976  1
  Y  Y13  1  0.189027  0.806988  0.189027  1
  Y  Y14  1  0.814976  0.814976  0.186583  1
  Y  Y15  1  0.189027  0.189027  0.806988  1
  Cd  Cd16  1  0.830136  0.830136  0.830136  1
  Cd  Cd17  1  0.830194  0.830194  0.506063  1
  Cd  Cd18  1  0.830194  0.506063  0.830194  1
  Cd  Cd19  1  0.506063  0.830194  0.830194  1
  Ni  Ni20  1  0.392216  0.392216  0.824999  1
  Ni  Ni21  1  0.392216  0.824999  0.392216  1
  Ni  Ni22  1  0.824999  0.392216  0.392216  1
  Os  Os23  1  0.392938  0.392938  0.392938  1
