# generated using pymatgen
data_Tb4Sm(In2Rh)2
_symmetry_space_group_name_H-M   'P 1'
_cell_length_a   3.67380500
_cell_length_b   8.04937200
_cell_length_c   18.39678800
_cell_angle_alpha   90.00000000
_cell_angle_beta   90.00000000
_cell_angle_gamma   90.00000000
_symmetry_Int_Tables_number   1
_chemical_formula_structural   Tb4Sm(In2Rh)2
_chemical_formula_sum   'Tb8 Sm2 In8 Rh4'
_cell_volume   544.02656035
_cell_formula_units_Z   2
loop_
 _symmetry_equiv_pos_site_id
 _symmetry_equiv_pos_as_xyz
  1  'x, y, z'
loop_
 _atom_site_type_symbol
 _atom_site_label
 _atom_site_symmetry_multiplicity
 _atom_site_fract_x
 _atom_site_fract_y
 _atom_site_fract_z
 _atom_site_occupancy
  Tb  Tb0  1  0.000000  0.116589  0.411215  1
  Tb  Tb1  1  0.000000  0.883411  0.588785  1
  Tb  Tb2  1  0.000000  0.383411  0.911215  1
  Tb  Tb3  1  0.000000  0.616589  0.088785  1
  Tb  Tb4  1  0.000000  0.244747  0.220691  1
  Tb  Tb5  1  0.000000  0.755253  0.779309  1
  Tb  Tb6  1  0.000000  0.255253  0.720691  1
  Tb  Tb7  1  0.000000  0.744747  0.279309  1
  Sm  Sm8  1  0.000000  0.000000  0.000000  1
  Sm  Sm9  1  0.000000  0.500000  0.500000  1
  In  In10  1  0.500000  0.425783  0.348704  1
  In  In11  1  0.500000  0.574217  0.651296  1
  In  In12  1  0.500000  0.074217  0.848704  1
  In  In13  1  0.500000  0.925783  0.151296  1
  In  In14  1  0.500000  0.294869  0.068889  1
  In  In15  1  0.500000  0.705131  0.931111  1
  In  In16  1  0.500000  0.205131  0.568889  1
  In  In17  1  0.500000  0.794869  0.431111  1
  Rh  Rh18  1  0.500000  0.022610  0.304871  1
  Rh  Rh19  1  0.500000  0.977390  0.695129  1
  Rh  Rh20  1  0.500000  0.477390  0.804871  1
  Rh  Rh21  1  0.500000  0.522610  0.195129  1
