# generated using pymatgen
data_Dy2Y8(BiPb)3
_symmetry_space_group_name_H-M   'P 1'
_cell_length_a   9.15318600
_cell_length_b   9.15318548
_cell_length_c   6.50930100
_cell_angle_alpha   90.00000000
_cell_angle_beta   90.00000000
_cell_angle_gamma   120.00000188
_symmetry_Int_Tables_number   1
_chemical_formula_structural   Dy2Y8(BiPb)3
_chemical_formula_sum   'Dy2 Y8 Bi3 Pb3'
_cell_volume   472.29084643
_cell_formula_units_Z   1
loop_
 _symmetry_equiv_pos_site_id
 _symmetry_equiv_pos_as_xyz
  1  'x, y, z'
loop_
 _atom_site_type_symbol
 _atom_site_label
 _atom_site_symmetry_multiplicity
 _atom_site_fract_x
 _atom_site_fract_y
 _atom_site_fract_z
 _atom_site_occupancy
  Dy  Dy0  1  0.666667  0.333333  0.002654  1
  Dy  Dy1  1  0.333333  0.666667  0.002654  1
  Y  Y2  1  0.333333  0.666667  0.497400  1
  Y  Y3  1  0.666667  0.333333  0.497400  1
  Y  Y4  1  0.761629  0.761629  0.750010  1
  Y  Y5  1  0.238371  0.000000  0.750010  1
  Y  Y6  1  0.000000  0.238371  0.750010  1
  Y  Y7  1  0.238841  0.238841  0.249966  1
  Y  Y8  1  0.761159  0.000000  0.249966  1
  Y  Y9  1  0.000000  0.761159  0.249966  1
  Bi  Bi10  1  0.393474  0.393474  0.750125  1
  Bi  Bi11  1  0.606526  0.000000  0.750125  1
  Bi  Bi12  1  0.000000  0.606526  0.750125  1
  Pb  Pb13  1  0.606646  0.606646  0.249863  1
  Pb  Pb14  1  0.393354  0.000000  0.249863  1
  Pb  Pb15  1  0.000000  0.393354  0.249863  1
