# generated using pymatgen
data_YHf3(Al3Ir)6
_symmetry_space_group_name_H-M   'P 1'
_cell_length_a   7.49085421
_cell_length_b   7.48195353
_cell_length_c   9.28002300
_cell_angle_alpha   90.00000000
_cell_angle_beta   90.00000000
_cell_angle_gamma   119.78347947
_symmetry_Int_Tables_number   1
_chemical_formula_structural   YHf3(Al3Ir)6
_chemical_formula_sum   'Y1 Hf3 Al18 Ir6'
_cell_volume   451.40820848
_cell_formula_units_Z   1
loop_
 _symmetry_equiv_pos_site_id
 _symmetry_equiv_pos_as_xyz
  1  'x, y, z'
loop_
 _atom_site_type_symbol
 _atom_site_label
 _atom_site_symmetry_multiplicity
 _atom_site_fract_x
 _atom_site_fract_y
 _atom_site_fract_z
 _atom_site_occupancy
  Y  Y0  1  0.329298  0.005699  0.750000  1
  Hf  Hf1  1  0.994068  0.671374  0.250000  1
  Hf  Hf2  1  0.005307  0.329222  0.750000  1
  Hf  Hf3  1  0.671858  0.994452  0.250000  1
  Al  Al4  1  0.123291  0.124380  0.250000  1
  Al  Al5  1  0.871613  0.875302  0.750000  1
  Al  Al6  1  0.997755  0.334651  0.077819  1
  Al  Al7  1  0.999682  0.662683  0.925621  1
  Al  Al8  1  0.999682  0.662683  0.574379  1
  Al  Al9  1  0.334878  0.998116  0.419089  1
  Al  Al10  1  0.997755  0.334651  0.422181  1
  Al  Al11  1  0.667975  0.002077  0.574426  1
  Al  Al12  1  0.667975  0.002077  0.925574  1
  Al  Al13  1  0.334878  0.998116  0.080911  1
  Al  Al14  1  0.331173  0.333646  0.555488  1
  Al  Al15  1  0.668291  0.668258  0.439923  1
  Al  Al16  1  0.668291  0.668258  0.060077  1
  Al  Al17  1  0.331173  0.333646  0.944512  1
  Al  Al18  1  0.338800  0.552519  0.250000  1
  Al  Al19  1  0.666184  0.452694  0.750000  1
  Al  Al20  1  0.553484  0.339809  0.250000  1
  Al  Al21  1  0.447104  0.656302  0.750000  1
  Ir  Ir22  1  0.673213  0.327998  0.001599  1
  Ir  Ir23  1  0.327935  0.673082  0.001902  1
  Ir  Ir24  1  0.327935  0.673082  0.498098  1
  Ir  Ir25  1  0.673213  0.327998  0.498401  1
  Ir  Ir26  1  0.998595  0.998612  0.001931  1
  Ir  Ir27  1  0.998595  0.998612  0.498069  1
