# generated using pymatgen
data_Tm3Np(AgS4)2
_symmetry_space_group_name_H-M   'P 1'
_cell_length_a   7.89525400
_cell_length_b   8.00518200
_cell_length_c   11.25834900
_cell_angle_alpha   90.00000000
_cell_angle_beta   90.00000000
_cell_angle_gamma   90.00000000
_symmetry_Int_Tables_number   1
_chemical_formula_structural   Tm3Np(AgS4)2
_chemical_formula_sum   'Tm6 Np2 Ag4 S16'
_cell_volume   711.56081496
_cell_formula_units_Z   2
loop_
 _symmetry_equiv_pos_site_id
 _symmetry_equiv_pos_as_xyz
  1  'x, y, z'
loop_
 _atom_site_type_symbol
 _atom_site_label
 _atom_site_symmetry_multiplicity
 _atom_site_fract_x
 _atom_site_fract_y
 _atom_site_fract_z
 _atom_site_occupancy
  Tm  Tm0  1  0.754655  0.000000  0.500000  1
  Tm  Tm1  1  0.753425  0.500000  0.500000  1
  Tm  Tm2  1  0.246575  0.500000  0.000000  1
  Tm  Tm3  1  0.000000  0.754255  0.250000  1
  Tm  Tm4  1  0.245345  0.000000  0.000000  1
  Tm  Tm5  1  0.000000  0.245745  0.750000  1
  Np  Np6  1  0.500000  0.754273  0.250000  1
  Np  Np7  1  0.500000  0.245727  0.750000  1
  Ag  Ag8  1  0.758586  0.740174  0.877402  1
  Ag  Ag9  1  0.241414  0.259826  0.377402  1
  Ag  Ag10  1  0.241414  0.740174  0.622598  1
  Ag  Ag11  1  0.758586  0.259826  0.122598  1
  S  S12  1  0.743670  0.983449  0.258046  1
  S  S13  1  0.511740  0.750933  0.482433  1
  S  S14  1  0.743687  0.524654  0.257964  1
  S  S15  1  0.488260  0.249067  0.982433  1
  S  S16  1  0.256313  0.524654  0.242036  1
  S  S17  1  0.022273  0.749687  0.008467  1
  S  S18  1  0.256330  0.983449  0.241954  1
  S  S19  1  0.488260  0.750933  0.017567  1
  S  S20  1  0.256313  0.475346  0.757964  1
  S  S21  1  0.022273  0.250313  0.991533  1
  S  S22  1  0.256330  0.016551  0.758046  1
  S  S23  1  0.977727  0.749687  0.491533  1
  S  S24  1  0.743670  0.016551  0.741954  1
  S  S25  1  0.511740  0.249067  0.517567  1
  S  S26  1  0.743687  0.475346  0.742036  1
  S  S27  1  0.977727  0.250313  0.508467  1
