# generated using pymatgen
data_NaSm6RuBr12
_symmetry_space_group_name_H-M   'P 1'
_cell_length_a   9.44287893
_cell_length_b   9.44036854
_cell_length_c   9.44224946
_cell_angle_alpha   107.15312001
_cell_angle_beta   107.17276708
_cell_angle_gamma   107.15010328
_symmetry_Int_Tables_number   1
_chemical_formula_structural   NaSm6RuBr12
_chemical_formula_sum   'Na1 Sm6 Ru1 Br12'
_cell_volume   697.93813216
_cell_formula_units_Z   1
loop_
 _symmetry_equiv_pos_site_id
 _symmetry_equiv_pos_as_xyz
  1  'x, y, z'
loop_
 _atom_site_type_symbol
 _atom_site_label
 _atom_site_symmetry_multiplicity
 _atom_site_fract_x
 _atom_site_fract_y
 _atom_site_fract_z
 _atom_site_occupancy
  Na  Na0  1  0.500000  0.500000  0.500000  1
  Sm  Sm1  1  0.112599  0.318421  0.031286  1
  Sm  Sm2  1  0.318383  0.031001  0.112666  1
  Sm  Sm3  1  0.030926  0.112027  0.317872  1
  Sm  Sm4  1  0.969075  0.887973  0.682129  1
  Sm  Sm5  1  0.681617  0.969000  0.887334  1
  Sm  Sm6  1  0.887401  0.681579  0.968714  1
  Ru  Ru7  1  0.000000  0.000000  0.000000  1
  Br  Br8  1  0.217024  0.683525  0.072560  1
  Br  Br9  1  0.455366  0.372282  0.154942  1
  Br  Br10  1  0.684023  0.073502  0.216816  1
  Br  Br11  1  0.926950  0.782697  0.316054  1
  Br  Br12  1  0.154637  0.455122  0.372239  1
  Br  Br13  1  0.372240  0.154766  0.455268  1
  Br  Br14  1  0.627760  0.845234  0.544733  1
  Br  Br15  1  0.845364  0.544878  0.627761  1
  Br  Br16  1  0.073051  0.217303  0.683947  1
  Br  Br17  1  0.315978  0.926499  0.783184  1
  Br  Br18  1  0.544634  0.627718  0.845059  1
  Br  Br19  1  0.782976  0.316475  0.927440  1
