# generated using pymatgen
data_Yb3Ho(Ga8Pt3)3
_symmetry_space_group_name_H-M   'P 1'
_cell_length_a   7.48333916
_cell_length_b   7.57714465
_cell_length_c   13.42127672
_cell_angle_alpha   84.57377525
_cell_angle_beta   79.44503140
_cell_angle_gamma   60.39942283
_symmetry_Int_Tables_number   1
_chemical_formula_structural   Yb3Ho(Ga8Pt3)3
_chemical_formula_sum   'Yb3 Ho1 Ga24 Pt9'
_cell_volume   650.49377645
_cell_formula_units_Z   1
loop_
 _symmetry_equiv_pos_site_id
 _symmetry_equiv_pos_as_xyz
  1  'x, y, z'
loop_
 _atom_site_type_symbol
 _atom_site_label
 _atom_site_symmetry_multiplicity
 _atom_site_fract_x
 _atom_site_fract_y
 _atom_site_fract_z
 _atom_site_occupancy
  Yb  Yb0  1  0.397333  0.168691  0.807679  1
  Yb  Yb1  1  0.601986  0.831267  0.192368  1
  Yb  Yb2  1  0.734191  0.499242  0.808566  1
  Ho  Ho3  1  0.265971  0.502235  0.190511  1
  Ga  Ga4  1  0.687577  0.833411  0.939808  1
  Ga  Ga5  1  0.314170  0.164570  0.059864  1
  Ga  Ga6  1  0.146492  0.831832  0.559230  1
  Ga  Ga7  1  0.854234  0.167730  0.440575  1
  Ga  Ga8  1  0.478390  0.165924  0.555980  1
  Ga  Ga9  1  0.522350  0.833759  0.443540  1
  Ga  Ga10  1  0.220732  0.163950  0.322924  1
  Ga  Ga11  1  0.779699  0.835694  0.676688  1
  Ga  Ga12  1  0.436736  0.505110  0.675880  1
  Ga  Ga13  1  0.563364  0.495781  0.324645  1
  Ga  Ga14  1  0.107871  0.161495  0.673956  1
  Ga  Ga15  1  0.891756  0.838787  0.324845  1
  Ga  Ga16  1  0.360455  0.495980  0.939198  1
  Ga  Ga17  1  0.641540  0.502994  0.059076  1
  Ga  Ga18  1  0.020347  0.168933  0.945905  1
  Ga  Ga19  1  0.977879  0.830788  0.055541  1
  Ga  Ga20  1  0.187485  0.498720  0.443889  1
  Ga  Ga21  1  0.812096  0.501820  0.555880  1
  Ga  Ga22  1  0.731621  0.167452  0.182085  1
  Ga  Ga23  1  0.267116  0.835603  0.818705  1
  Ga  Ga24  1  0.061745  0.629485  0.817632  1
  Ga  Ga25  1  0.939671  0.368868  0.182952  1
  Ga  Ga26  1  0.855675  0.041841  0.816688  1
  Ga  Ga27  1  0.141895  0.958908  0.183944  1
  Pt  Pt28  1  0.116839  0.493940  0.639549  1
  Pt  Pt29  1  0.883578  0.506000  0.359989  1
  Pt  Pt30  1  0.660940  0.168524  0.000056  1
  Pt  Pt31  1  0.338253  0.830339  0.002161  1
  Pt  Pt32  1  0.539819  0.167070  0.360156  1
  Pt  Pt33  1  0.460027  0.833209  0.639167  1
  Pt  Pt34  1  0.777945  0.174868  0.636333  1
  Pt  Pt35  1  0.221760  0.825609  0.363079  1
  Pt  Pt36  1  0.000459  0.499572  0.000955  1
