# generated using pymatgen
data_Nd7Th(CdOs)2
_symmetry_space_group_name_H-M   'P 1'
_cell_length_a   9.96164030
_cell_length_b   9.96164044
_cell_length_c   10.04012000
_cell_angle_alpha   59.73904137
_cell_angle_beta   59.73904090
_cell_angle_gamma   59.67669761
_symmetry_Int_Tables_number   1
_chemical_formula_structural   Nd7Th(CdOs)2
_chemical_formula_sum   'Nd14 Th2 Cd4 Os4'
_cell_volume   699.99882154
_cell_formula_units_Z   2
loop_
 _symmetry_equiv_pos_site_id
 _symmetry_equiv_pos_as_xyz
  1  'x, y, z'
loop_
 _atom_site_type_symbol
 _atom_site_label
 _atom_site_symmetry_multiplicity
 _atom_site_fract_x
 _atom_site_fract_y
 _atom_site_fract_z
 _atom_site_occupancy
  Nd  Nd0  1  0.347081  0.957072  0.347923  1
  Nd  Nd1  1  0.957072  0.347081  0.347923  1
  Nd  Nd2  1  0.809748  0.191233  0.190929  1
  Nd  Nd3  1  0.191233  0.809748  0.808090  1
  Nd  Nd4  1  0.191233  0.809748  0.190929  1
  Nd  Nd5  1  0.809748  0.191233  0.808090  1
  Nd  Nd6  1  0.191335  0.191335  0.808665  1
  Nd  Nd7  1  0.809233  0.809233  0.190767  1
  Nd  Nd8  1  0.941788  0.559223  0.559746  1
  Nd  Nd9  1  0.559223  0.941788  0.939242  1
  Nd  Nd10  1  0.559223  0.941788  0.559746  1
  Nd  Nd11  1  0.941788  0.559223  0.939242  1
  Nd  Nd12  1  0.559725  0.559725  0.940275  1
  Nd  Nd13  1  0.940766  0.940766  0.559234  1
  Th  Th14  1  0.342679  0.342679  0.344402  1
  Th  Th15  1  0.342679  0.342679  0.970240  1
  Cd  Cd16  1  0.578707  0.578707  0.581271  1
  Cd  Cd17  1  0.578707  0.578707  0.261315  1
  Cd  Cd18  1  0.577888  0.260198  0.580956  1
  Cd  Cd19  1  0.260198  0.577888  0.580956  1
  Os  Os20  1  0.144087  0.144087  0.134064  1
  Os  Os21  1  0.144087  0.144087  0.577762  1
  Os  Os22  1  0.148064  0.573704  0.139116  1
  Os  Os23  1  0.573704  0.148064  0.139116  1
