# generated using pymatgen
data_Nd3SmY2(AlC3)2
_symmetry_space_group_name_H-M   'P 1'
_cell_length_a   3.69165400
_cell_length_b   7.33066257
_cell_length_c   10.09678250
_cell_angle_alpha   89.24086981
_cell_angle_beta   90.00000000
_cell_angle_gamma   90.00000000
_symmetry_Int_Tables_number   1
_chemical_formula_structural   Nd3SmY2(AlC3)2
_chemical_formula_sum   'Nd3 Sm1 Y2 Al2 C6'
_cell_volume   273.21786930
_cell_formula_units_Z   1
loop_
 _symmetry_equiv_pos_site_id
 _symmetry_equiv_pos_as_xyz
  1  'x, y, z'
loop_
 _atom_site_type_symbol
 _atom_site_label
 _atom_site_symmetry_multiplicity
 _atom_site_fract_x
 _atom_site_fract_y
 _atom_site_fract_z
 _atom_site_occupancy
  Nd  Nd0  1  0.500000  0.513495  0.191476  1
  Nd  Nd1  1  0.500000  0.486245  0.808192  1
  Nd  Nd2  1  0.000000  0.750784  0.462169  1
  Sm  Sm3  1  0.000000  0.249253  0.542105  1
  Y  Y4  1  0.500000  0.989184  0.200819  1
  Y  Y5  1  0.500000  0.010989  0.798512  1
  Al  Al6  1  0.000000  0.779231  0.007155  1
  Al  Al7  1  0.000000  0.220990  0.992183  1
  C  C8  1  0.500000  0.502172  0.564700  1
  C  C9  1  0.500000  0.488741  0.434509  1
  C  C10  1  0.500000  0.996370  0.564525  1
  C  C11  1  0.500000  0.012520  0.434244  1
  C  C12  1  0.000000  0.759650  0.207074  1
  C  C13  1  0.000000  0.240375  0.792338  1
