# generated using pymatgen
data_Be8VRu3
_symmetry_space_group_name_H-M   'P 1'
_cell_length_a   4.32184800
_cell_length_b   4.32184923
_cell_length_c   7.07377800
_cell_angle_alpha   90.00000000
_cell_angle_beta   90.00000000
_cell_angle_gamma   120.00000591
_symmetry_Int_Tables_number   1
_chemical_formula_structural   Be8VRu3
_chemical_formula_sum   'Be8 V1 Ru3'
_cell_volume   114.42505570
_cell_formula_units_Z   1
loop_
 _symmetry_equiv_pos_site_id
 _symmetry_equiv_pos_as_xyz
  1  'x, y, z'
loop_
 _atom_site_type_symbol
 _atom_site_label
 _atom_site_symmetry_multiplicity
 _atom_site_fract_x
 _atom_site_fract_y
 _atom_site_fract_z
 _atom_site_occupancy
  Be  Be0  1  0.000000  0.000000  0.999985  1
  Be  Be1  1  0.000000  0.000000  0.500420  1
  Be  Be2  1  0.830189  0.660377  0.246582  1
  Be  Be3  1  0.168215  0.831785  0.752725  1
  Be  Be4  1  0.663569  0.831785  0.752725  1
  Be  Be5  1  0.339623  0.169811  0.246582  1
  Be  Be6  1  0.830189  0.169811  0.246582  1
  Be  Be7  1  0.168215  0.336431  0.752725  1
  V  V8  1  0.333333  0.666667  0.435024  1
  Ru  Ru9  1  0.333333  0.666667  0.076929  1
  Ru  Ru10  1  0.666667  0.333333  0.550320  1
  Ru  Ru11  1  0.666667  0.333333  0.939401  1
