# generated using pymatgen
data_Sm4Ga18Co4PdPt
_symmetry_space_group_name_H-M   'P 1'
_cell_length_a   7.54871233
_cell_length_b   7.54871127
_cell_length_c   9.53897496
_cell_angle_alpha   90.02584794
_cell_angle_beta   90.02584932
_cell_angle_gamma   119.74934390
_symmetry_Int_Tables_number   1
_chemical_formula_structural   Sm4Ga18Co4PdPt
_chemical_formula_sum   'Sm4 Ga18 Co4 Pd1 Pt1'
_cell_volume   471.92094634
_cell_formula_units_Z   1
loop_
 _symmetry_equiv_pos_site_id
 _symmetry_equiv_pos_as_xyz
  1  'x, y, z'
loop_
 _atom_site_type_symbol
 _atom_site_label
 _atom_site_symmetry_multiplicity
 _atom_site_fract_x
 _atom_site_fract_y
 _atom_site_fract_z
 _atom_site_occupancy
  Sm  Sm0  1  0.503220  0.834865  0.250651  1
  Sm  Sm1  1  0.496808  0.165199  0.750727  1
  Sm  Sm2  1  0.165135  0.496780  0.749349  1
  Sm  Sm3  1  0.834801  0.503192  0.249273  1
  Ga  Ga4  1  0.160313  0.955162  0.241979  1
  Ga  Ga5  1  0.839778  0.044344  0.741760  1
  Ga  Ga6  1  0.044839  0.839687  0.758021  1
  Ga  Ga7  1  0.955655  0.160222  0.258240  1
  Ga  Ga8  1  0.618135  0.618047  0.750017  1
  Ga  Ga9  1  0.381953  0.381865  0.249983  1
  Ga  Ga10  1  0.169504  0.175193  0.558832  1
  Ga  Ga11  1  0.830531  0.824363  0.058798  1
  Ga  Ga12  1  0.824807  0.830496  0.441168  1
  Ga  Ga13  1  0.175637  0.169469  0.941202  1
  Ga  Ga14  1  0.509951  0.833013  0.574796  1
  Ga  Ga15  1  0.489635  0.167008  0.074789  1
  Ga  Ga16  1  0.166987  0.490049  0.425204  1
  Ga  Ga17  1  0.832992  0.510365  0.925211  1
  Ga  Ga18  1  0.509457  0.175874  0.425712  1
  Ga  Ga19  1  0.489879  0.823845  0.925576  1
  Ga  Ga20  1  0.824126  0.490543  0.574288  1
  Ga  Ga21  1  0.176155  0.510121  0.074424  1
  Co  Co22  1  0.500310  0.499690  0.500000  1
  Co  Co23  1  0.499641  0.500359  0.000000  1
  Co  Co24  1  0.830102  0.169898  0.500000  1
  Co  Co25  1  0.169934  0.830066  0.000000  1
  Pd  Pd26  1  0.171199  0.828801  0.500000  1
  Pt  Pt27  1  0.828513  0.171487  0.000000  1
