# generated using pymatgen
data_Ho6ZnSi5Rh2
_symmetry_space_group_name_H-M   'P 1'
_cell_length_a   5.70502699
_cell_length_b   5.70502630
_cell_length_c   13.63465858
_cell_angle_alpha   109.23194046
_cell_angle_beta   109.23193887
_cell_angle_gamma   43.38830488
_symmetry_Int_Tables_number   1
_chemical_formula_structural   Ho6ZnSi5Rh2
_chemical_formula_sum   'Ho6 Zn1 Si5 Rh2'
_cell_volume   285.04611857
_cell_formula_units_Z   1
loop_
 _symmetry_equiv_pos_site_id
 _symmetry_equiv_pos_as_xyz
  1  'x, y, z'
loop_
 _atom_site_type_symbol
 _atom_site_label
 _atom_site_symmetry_multiplicity
 _atom_site_fract_x
 _atom_site_fract_y
 _atom_site_fract_z
 _atom_site_occupancy
  Ho  Ho0  1  0.397954  0.397954  0.078655  1
  Ho  Ho1  1  0.744577  0.744577  0.233298  1
  Ho  Ho2  1  0.522914  0.522914  0.376728  1
  Ho  Ho3  1  0.477080  0.477080  0.624467  1
  Ho  Ho4  1  0.255758  0.255758  0.770492  1
  Ho  Ho5  1  0.602296  0.602296  0.915940  1
  Zn  Zn6  1  0.110128  0.110128  0.074679  1
  Si  Si7  1  0.045635  0.045635  0.238807  1
  Si  Si8  1  0.871373  0.871373  0.458917  1
  Si  Si9  1  0.130498  0.130498  0.544071  1
  Si  Si10  1  0.952025  0.952025  0.761749  1
  Si  Si11  1  0.888290  0.888290  0.922278  1
  Rh  Rh12  1  0.249790  0.249790  0.415832  1
  Rh  Rh13  1  0.751683  0.751683  0.584086  1
