# generated using pymatgen
data_Sm5Sn3Br
_symmetry_space_group_name_H-M   'P 1'
_cell_length_a   9.39420400
_cell_length_b   9.39420373
_cell_length_c   6.74708800
_cell_angle_alpha   90.00000000
_cell_angle_beta   90.00000000
_cell_angle_gamma   120.00000095
_symmetry_Int_Tables_number   1
_chemical_formula_structural   Sm5Sn3Br
_chemical_formula_sum   'Sm10 Sn6 Br2'
_cell_volume   515.66417837
_cell_formula_units_Z   2
loop_
 _symmetry_equiv_pos_site_id
 _symmetry_equiv_pos_as_xyz
  1  'x, y, z'
loop_
 _atom_site_type_symbol
 _atom_site_label
 _atom_site_symmetry_multiplicity
 _atom_site_fract_x
 _atom_site_fract_y
 _atom_site_fract_z
 _atom_site_occupancy
  Sm  Sm0  1  0.268394  0.268394  0.750000  1
  Sm  Sm1  1  0.000000  0.731606  0.750000  1
  Sm  Sm2  1  0.731606  0.000000  0.750000  1
  Sm  Sm3  1  0.000000  0.268394  0.250000  1
  Sm  Sm4  1  0.333333  0.666667  0.500000  1
  Sm  Sm5  1  0.731606  0.731606  0.250000  1
  Sm  Sm6  1  0.666667  0.333333  0.500000  1
  Sm  Sm7  1  0.268394  0.000000  0.250000  1
  Sm  Sm8  1  0.333333  0.666667  0.000000  1
  Sm  Sm9  1  0.666667  0.333333  0.000000  1
  Sn  Sn10  1  0.613378  0.000000  0.250000  1
  Sn  Sn11  1  0.000000  0.386622  0.750000  1
  Sn  Sn12  1  0.386622  0.000000  0.750000  1
  Sn  Sn13  1  0.613378  0.613378  0.750000  1
  Sn  Sn14  1  0.000000  0.613378  0.250000  1
  Sn  Sn15  1  0.386622  0.386622  0.250000  1
  Br  Br16  1  0.000000  0.000000  0.000000  1
  Br  Br17  1  0.000000  0.000000  0.500000  1
