# generated using pymatgen
data_TbTm3B12MoRh
_symmetry_space_group_name_H-M   'P 1'
_cell_length_a   3.64476100
_cell_length_b   9.13996358
_cell_length_c   11.54965000
_cell_angle_alpha   90.40588834
_cell_angle_beta   90.00000000
_cell_angle_gamma   90.00000000
_symmetry_Int_Tables_number   1
_chemical_formula_structural   TbTm3B12MoRh
_chemical_formula_sum   'Tb2 Tm6 B24 Mo2 Rh2'
_cell_volume   384.74363735
_cell_formula_units_Z   2
loop_
 _symmetry_equiv_pos_site_id
 _symmetry_equiv_pos_as_xyz
  1  'x, y, z'
loop_
 _atom_site_type_symbol
 _atom_site_label
 _atom_site_symmetry_multiplicity
 _atom_site_fract_x
 _atom_site_fract_y
 _atom_site_fract_z
 _atom_site_occupancy
  Tb  Tb0  1  0.500000  0.319471  0.412059  1
  Tb  Tb1  1  0.500000  0.680529  0.587941  1
  Tm  Tm2  1  0.500000  0.174950  0.917133  1
  Tm  Tm3  1  0.500000  0.825050  0.082867  1
  Tm  Tm4  1  0.500000  0.443363  0.126363  1
  Tm  Tm5  1  0.500000  0.556637  0.873637  1
  Tm  Tm6  1  0.500000  0.054895  0.628669  1
  Tm  Tm7  1  0.500000  0.945105  0.371331  1
  B  B8  1  0.000000  0.104127  0.472540  1
  B  B9  1  0.000000  0.895873  0.527460  1
  B  B10  1  0.000000  0.395056  0.970365  1
  B  B11  1  0.000000  0.604944  0.029635  1
  B  B12  1  0.000000  0.131643  0.317074  1
  B  B13  1  0.000000  0.868357  0.682926  1
  B  B14  1  0.000000  0.368232  0.816674  1
  B  B15  1  0.000000  0.631768  0.183326  1
  B  B16  1  0.000000  0.051726  0.065608  1
  B  B17  1  0.000000  0.948274  0.934392  1
  B  B18  1  0.000000  0.445391  0.566428  1
  B  B19  1  0.000000  0.554609  0.433572  1
  B  B20  1  0.000000  0.483897  0.287259  1
  B  B21  1  0.000000  0.516103  0.712741  1
  B  B22  1  0.000000  0.020915  0.786854  1
  B  B23  1  0.000000  0.979085  0.213146  1
  B  B24  1  0.000000  0.250485  0.078862  1
  B  B25  1  0.000000  0.749515  0.921138  1
  B  B26  1  0.000000  0.249601  0.580244  1
  B  B27  1  0.000000  0.750399  0.419756  1
  B  B28  1  0.000000  0.295601  0.235575  1
  B  B29  1  0.000000  0.704399  0.764425  1
  B  B30  1  0.000000  0.208394  0.735166  1
  B  B31  1  0.000000  0.791606  0.264834  1
  Mo  Mo32  1  0.500000  0.139125  0.180866  1
  Mo  Mo33  1  0.500000  0.860875  0.819134  1
  Rh  Rh34  1  0.500000  0.360957  0.679480  1
  Rh  Rh35  1  0.500000  0.639043  0.320520  1
