# generated using pymatgen
data_Yb2CdO3
_symmetry_space_group_name_H-M   'P 1'
_cell_length_a   5.83742100
_cell_length_b   5.83742076
_cell_length_c   5.76683028
_cell_angle_alpha   99.58471413
_cell_angle_beta   99.58471766
_cell_angle_gamma   120.09595166
_symmetry_Int_Tables_number   1
_chemical_formula_structural   Yb2CdO3
_chemical_formula_sum   'Yb4 Cd2 O6'
_cell_volume   160.28263030
_cell_formula_units_Z   2
loop_
 _symmetry_equiv_pos_site_id
 _symmetry_equiv_pos_as_xyz
  1  'x, y, z'
loop_
 _atom_site_type_symbol
 _atom_site_label
 _atom_site_symmetry_multiplicity
 _atom_site_fract_x
 _atom_site_fract_y
 _atom_site_fract_z
 _atom_site_occupancy
  Yb  Yb0  1  0.500000  0.500000  0.000000  1
  Yb  Yb1  1  0.000000  0.000000  0.499998  1
  Yb  Yb2  1  0.669042  0.330958  0.500000  1
  Yb  Yb3  1  0.330958  0.669042  0.500000  1
  Cd  Cd4  1  0.834079  0.165921  0.000000  1
  Cd  Cd5  1  0.165921  0.834079  0.000000  1
  O  O6  1  0.913482  0.586317  0.256661  1
  O  O7  1  0.586317  0.913482  0.256661  1
  O  O8  1  0.259796  0.259796  0.259694  1
  O  O9  1  0.740205  0.740205  0.740305  1
  O  O10  1  0.413684  0.086518  0.743340  1
  O  O11  1  0.086518  0.413684  0.743340  1
