# generated using pymatgen
data_TbTm2Mg3Sn2Ir
_symmetry_space_group_name_H-M   'P 1'
_cell_length_a   7.39095100
_cell_length_b   7.41738736
_cell_length_c   4.46421100
_cell_angle_alpha   90.00000000
_cell_angle_beta   90.00000000
_cell_angle_gamma   119.88217464
_symmetry_Int_Tables_number   1
_chemical_formula_structural   TbTm2Mg3Sn2Ir
_chemical_formula_sum   'Tb1 Tm2 Mg3 Sn2 Ir1'
_cell_volume   212.19787778
_cell_formula_units_Z   1
loop_
 _symmetry_equiv_pos_site_id
 _symmetry_equiv_pos_as_xyz
  1  'x, y, z'
loop_
 _atom_site_type_symbol
 _atom_site_label
 _atom_site_symmetry_multiplicity
 _atom_site_fract_x
 _atom_site_fract_y
 _atom_site_fract_z
 _atom_site_occupancy
  Tb  Tb0  1  0.605028  0.000000  0.000000  1
  Tm  Tm1  1  0.000173  0.608443  0.000000  1
  Tm  Tm2  1  0.391730  0.391557  0.000000  1
  Mg  Mg3  1  0.229048  0.000000  0.500000  1
  Mg  Mg4  1  0.000603  0.229405  0.500000  1
  Mg  Mg5  1  0.771199  0.770595  0.500000  1
  Sn  Sn6  1  0.331634  0.664388  0.500000  1
  Sn  Sn7  1  0.667247  0.335612  0.500000  1
  Ir  Ir8  1  0.003338  0.000000  0.000000  1
