# generated using pymatgen
data_Ho2Pu6CoNiB28
_symmetry_space_group_name_H-M   'P 1'
_cell_length_a   7.21413208
_cell_length_b   7.22834565
_cell_length_c   7.49077600
_cell_angle_alpha   90.00000000
_cell_angle_beta   90.00000000
_cell_angle_gamma   90.27818972
_symmetry_Int_Tables_number   1
_chemical_formula_structural   Ho2Pu6CoNiB28
_chemical_formula_sum   'Ho2 Pu6 Co1 Ni1 B28'
_cell_volume   390.61120097
_cell_formula_units_Z   1
loop_
 _symmetry_equiv_pos_site_id
 _symmetry_equiv_pos_as_xyz
  1  'x, y, z'
loop_
 _atom_site_type_symbol
 _atom_site_label
 _atom_site_symmetry_multiplicity
 _atom_site_fract_x
 _atom_site_fract_y
 _atom_site_fract_z
 _atom_site_occupancy
  Ho  Ho0  1  0.831253  0.694472  0.500000  1
  Ho  Ho1  1  0.168747  0.305528  0.500000  1
  Pu  Pu2  1  0.197201  0.329251  0.000000  1
  Pu  Pu3  1  0.671045  0.197249  0.000000  1
  Pu  Pu4  1  0.328955  0.802751  0.000000  1
  Pu  Pu5  1  0.696717  0.168254  0.500000  1
  Pu  Pu6  1  0.303283  0.831746  0.500000  1
  Pu  Pu7  1  0.802799  0.670749  0.000000  1
  Co  Co8  1  0.000000  0.000000  0.000000  1
  Ni  Ni9  1  0.500000  0.500000  0.500000  1
  B  B10  1  0.174510  0.040390  0.229505  1
  B  B11  1  0.961090  0.174460  0.229983  1
  B  B12  1  0.038910  0.825540  0.229983  1
  B  B13  1  0.675300  0.458145  0.267988  1
  B  B14  1  0.324700  0.541855  0.267988  1
  B  B15  1  0.825490  0.959610  0.229505  1
  B  B16  1  0.538897  0.675832  0.268884  1
  B  B17  1  0.461103  0.324168  0.268884  1
  B  B18  1  0.825490  0.959610  0.770495  1
  B  B19  1  0.038910  0.825540  0.770017  1
  B  B20  1  0.961090  0.174460  0.770017  1
  B  B21  1  0.324700  0.541855  0.732012  1
  B  B22  1  0.675300  0.458145  0.732012  1
  B  B23  1  0.174510  0.040390  0.770495  1
  B  B24  1  0.461103  0.324168  0.731116  1
  B  B25  1  0.538897  0.675832  0.731116  1
  B  B26  1  0.089400  0.589665  0.245933  1
  B  B27  1  0.411560  0.088779  0.248593  1
  B  B28  1  0.588440  0.911221  0.248593  1
  B  B29  1  0.910600  0.410335  0.245933  1
  B  B30  1  0.910600  0.410335  0.754067  1
  B  B31  1  0.588440  0.911221  0.751407  1
  B  B32  1  0.411560  0.088779  0.751407  1
  B  B33  1  0.089400  0.589665  0.754067  1
  B  B34  1  0.000000  0.000000  0.389254  1
  B  B35  1  0.500000  0.500000  0.110903  1
  B  B36  1  0.000000  0.000000  0.610746  1
  B  B37  1  0.500000  0.500000  0.889097  1
