# generated using pymatgen
data_Sm3Th5(Ta3Si4)4
_symmetry_space_group_name_H-M   'P 1'
_cell_length_a   6.98575106
_cell_length_b   7.18962779
_cell_length_c   13.55643407
_cell_angle_alpha   89.94745066
_cell_angle_beta   90.36374035
_cell_angle_gamma   90.01230496
_symmetry_Int_Tables_number   1
_chemical_formula_structural   Sm3Th5(Ta3Si4)4
_chemical_formula_sum   'Sm3 Th5 Ta12 Si16'
_cell_volume   680.85720079
_cell_formula_units_Z   1
loop_
 _symmetry_equiv_pos_site_id
 _symmetry_equiv_pos_as_xyz
  1  'x, y, z'
loop_
 _atom_site_type_symbol
 _atom_site_label
 _atom_site_symmetry_multiplicity
 _atom_site_fract_x
 _atom_site_fract_y
 _atom_site_fract_z
 _atom_site_occupancy
  Sm  Sm0  1  0.004665  0.169720  0.404851  1
  Sm  Sm1  1  0.504470  0.330347  0.404747  1
  Sm  Sm2  1  0.496429  0.669962  0.594563  1
  Th  Th3  1  0.002667  0.169355  0.096674  1
  Th  Th4  1  0.998591  0.830692  0.903902  1
  Th  Th5  1  0.498444  0.668963  0.904464  1
  Th  Th6  1  0.995810  0.831031  0.593581  1
  Th  Th7  1  0.502715  0.330362  0.096646  1
  Ta  Ta8  1  0.160382  0.491393  0.748816  1
  Ta  Ta9  1  0.838038  0.510423  0.250224  1
  Ta  Ta10  1  0.338241  0.989412  0.249891  1
  Ta  Ta11  1  0.662690  0.010468  0.749956  1
  Ta  Ta12  1  0.332795  0.172095  0.624739  1
  Ta  Ta13  1  0.665994  0.826381  0.375417  1
  Ta  Ta14  1  0.164490  0.674449  0.375506  1
  Ta  Ta15  1  0.665934  0.828296  0.125405  1
  Ta  Ta16  1  0.835811  0.326713  0.624674  1
  Ta  Ta17  1  0.335344  0.172020  0.874789  1
  Ta  Ta18  1  0.833806  0.329370  0.874788  1
  Ta  Ta19  1  0.164970  0.671682  0.125569  1
  Si  Si20  1  0.039018  0.130708  0.749600  1
  Si  Si21  1  0.961180  0.870578  0.251591  1
  Si  Si22  1  0.461158  0.629654  0.251755  1
  Si  Si23  1  0.538060  0.370484  0.748115  1
  Si  Si24  1  0.300286  0.881767  0.747726  1
  Si  Si25  1  0.702229  0.118053  0.253537  1
  Si  Si26  1  0.202462  0.382050  0.253518  1
  Si  Si27  1  0.795776  0.616934  0.747396  1
  Si  Si28  1  0.161991  0.458133  0.542456  1
  Si  Si29  1  0.839519  0.536566  0.455973  1
  Si  Si30  1  0.340718  0.960902  0.456280  1
  Si  Si31  1  0.840277  0.544148  0.044222  1
  Si  Si32  1  0.655315  0.041292  0.542648  1
  Si  Si33  1  0.159507  0.456172  0.955881  1
  Si  Si34  1  0.660090  0.043616  0.955979  1
  Si  Si35  1  0.340131  0.955808  0.044120  1
