# generated using pymatgen
data_Ti5CuSnBi2
_symmetry_space_group_name_H-M   'P 1'
_cell_length_a   8.35612426
_cell_length_b   8.35612425
_cell_length_c   5.58627900
_cell_angle_alpha   90.00000000
_cell_angle_beta   90.00000000
_cell_angle_gamma   120.31842663
_symmetry_Int_Tables_number   1
_chemical_formula_structural   Ti5CuSnBi2
_chemical_formula_sum   'Ti10 Cu2 Sn2 Bi4'
_cell_volume   336.71352372
_cell_formula_units_Z   2
loop_
 _symmetry_equiv_pos_site_id
 _symmetry_equiv_pos_as_xyz
  1  'x, y, z'
loop_
 _atom_site_type_symbol
 _atom_site_label
 _atom_site_symmetry_multiplicity
 _atom_site_fract_x
 _atom_site_fract_y
 _atom_site_fract_z
 _atom_site_occupancy
  Ti  Ti0  1  0.267700  0.007728  0.750000  1
  Ti  Ti1  1  0.732300  0.992272  0.250000  1
  Ti  Ti2  1  0.007728  0.267700  0.750000  1
  Ti  Ti3  1  0.992272  0.732300  0.250000  1
  Ti  Ti4  1  0.730880  0.730880  0.750000  1
  Ti  Ti5  1  0.269120  0.269120  0.250000  1
  Ti  Ti6  1  0.336375  0.663625  0.500000  1
  Ti  Ti7  1  0.663625  0.336375  0.500000  1
  Ti  Ti8  1  0.663625  0.336375  0.000000  1
  Ti  Ti9  1  0.336375  0.663625  0.000000  1
  Cu  Cu10  1  0.000000  0.000000  0.500000  1
  Cu  Cu11  1  0.000000  0.000000  0.000000  1
  Sn  Sn12  1  0.385952  0.385952  0.750000  1
  Sn  Sn13  1  0.614048  0.614048  0.250000  1
  Bi  Bi14  1  0.619457  0.001369  0.750000  1
  Bi  Bi15  1  0.380543  0.998631  0.250000  1
  Bi  Bi16  1  0.001369  0.619457  0.750000  1
  Bi  Bi17  1  0.998631  0.380543  0.250000  1
