# generated using pymatgen
data_Sm3PaZn2Rh3
_symmetry_space_group_name_H-M   'P 1'
_cell_length_a   7.52386232
_cell_length_b   7.52386084
_cell_length_c   4.01353800
_cell_angle_alpha   90.00000000
_cell_angle_beta   90.00000000
_cell_angle_gamma   120.97021364
_symmetry_Int_Tables_number   1
_chemical_formula_structural   Sm3PaZn2Rh3
_chemical_formula_sum   'Sm3 Pa1 Zn2 Rh3'
_cell_volume   194.80950760
_cell_formula_units_Z   1
loop_
 _symmetry_equiv_pos_site_id
 _symmetry_equiv_pos_as_xyz
  1  'x, y, z'
loop_
 _atom_site_type_symbol
 _atom_site_label
 _atom_site_symmetry_multiplicity
 _atom_site_fract_x
 _atom_site_fract_y
 _atom_site_fract_z
 _atom_site_occupancy
  Sm  Sm0  1  0.963966  0.413754  0.500000  1
  Sm  Sm1  1  0.633929  0.633929  0.500000  1
  Sm  Sm2  1  0.413754  0.963966  0.500000  1
  Pa  Pa3  1  0.256907  0.256907  0.000000  1
  Zn  Zn4  1  0.010089  0.754874  0.000000  1
  Zn  Zn5  1  0.754874  0.010089  0.000000  1
  Rh  Rh6  1  0.319729  0.629079  0.000000  1
  Rh  Rh7  1  0.017672  0.017672  0.500000  1
  Rh  Rh8  1  0.629079  0.319729  0.000000  1
