# generated using pymatgen
data_ErTh2As4Pd7
_symmetry_space_group_name_H-M   'P 1'
_cell_length_a   8.21674577
_cell_length_b   8.21674736
_cell_length_c   9.72014636
_cell_angle_alpha   55.43471269
_cell_angle_beta   55.43470588
_cell_angle_gamma   29.56476578
_symmetry_Int_Tables_number   1
_chemical_formula_structural   ErTh2As4Pd7
_chemical_formula_sum   'Er1 Th2 As4 Pd7'
_cell_volume   262.19988165
_cell_formula_units_Z   1
loop_
 _symmetry_equiv_pos_site_id
 _symmetry_equiv_pos_as_xyz
  1  'x, y, z'
loop_
 _atom_site_type_symbol
 _atom_site_label
 _atom_site_symmetry_multiplicity
 _atom_site_fract_x
 _atom_site_fract_y
 _atom_site_fract_z
 _atom_site_occupancy
  Er  Er0  1  0.321374  0.321374  0.672626  1
  Th  Th1  1  0.676763  0.676763  0.331656  1
  Th  Th2  1  0.001941  0.001941  0.995964  1
  As  As3  1  0.343366  0.343366  0.249567  1
  As  As4  1  0.662376  0.662376  0.745017  1
  As  As5  1  0.890318  0.890318  0.821998  1
  As  As6  1  0.106305  0.106305  0.174644  1
  Pd  Pd7  1  0.308258  0.308258  0.022772  1
  Pd  Pd8  1  0.691310  0.691310  0.976767  1
  Pd  Pd9  1  0.511748  0.511748  0.706683  1
  Pd  Pd10  1  0.834795  0.834795  0.431058  1
  Pd  Pd11  1  0.487913  0.487913  0.295860  1
  Pd  Pd12  1  0.165599  0.165599  0.572804  1
  Pd  Pd13  1  0.997935  0.997935  0.502583  1
