# generated using pymatgen
data_Li2HoPt3
_symmetry_space_group_name_H-M   'P 1'
_cell_length_a   5.02318934
_cell_length_b   5.02318962
_cell_length_c   5.02318741
_cell_angle_alpha   65.72104770
_cell_angle_beta   65.72103002
_cell_angle_gamma   65.72104059
_symmetry_Int_Tables_number   1
_chemical_formula_structural   Li2HoPt3
_chemical_formula_sum   'Li2 Ho1 Pt3'
_cell_volume   100.74843614
_cell_formula_units_Z   1
loop_
 _symmetry_equiv_pos_site_id
 _symmetry_equiv_pos_as_xyz
  1  'x, y, z'
loop_
 _atom_site_type_symbol
 _atom_site_label
 _atom_site_symmetry_multiplicity
 _atom_site_fract_x
 _atom_site_fract_y
 _atom_site_fract_z
 _atom_site_occupancy
  Li  Li0  1  0.628837  0.628837  0.628837  1
  Li  Li1  1  0.991488  0.991488  0.991488  1
  Ho  Ho2  1  0.244540  0.244540  0.244540  1
  Pt  Pt3  1  0.629259  0.629259  0.126617  1
  Pt  Pt4  1  0.629259  0.126617  0.629259  1
  Pt  Pt5  1  0.126617  0.629259  0.629259  1
