# generated using pymatgen
data_Li7Zn(PPt3)2
_symmetry_space_group_name_H-M   'P 1'
_cell_length_a   6.79471890
_cell_length_b   6.79471773
_cell_length_c   6.79471748
_cell_angle_alpha   61.34370003
_cell_angle_beta   61.34370333
_cell_angle_gamma   61.34370787
_symmetry_Int_Tables_number   1
_chemical_formula_structural   Li7Zn(PPt3)2
_chemical_formula_sum   'Li7 Zn1 P2 Pt6'
_cell_volume   228.51725670
_cell_formula_units_Z   1
loop_
 _symmetry_equiv_pos_site_id
 _symmetry_equiv_pos_as_xyz
  1  'x, y, z'
loop_
 _atom_site_type_symbol
 _atom_site_label
 _atom_site_symmetry_multiplicity
 _atom_site_fract_x
 _atom_site_fract_y
 _atom_site_fract_z
 _atom_site_occupancy
  Li  Li0  1  0.724273  0.724273  0.724273  1
  Li  Li1  1  0.561696  0.839926  0.346621  1
  Li  Li2  1  0.346621  0.561696  0.839926  1
  Li  Li3  1  0.839926  0.346621  0.561696  1
  Li  Li4  1  0.649982  0.156631  0.449213  1
  Li  Li5  1  0.156631  0.449213  0.649982  1
  Li  Li6  1  0.449213  0.649982  0.156631  1
  Zn  Zn7  1  0.285858  0.285858  0.285858  1
  P  P8  1  0.891195  0.891195  0.891195  1
  P  P9  1  0.098804  0.098804  0.098804  1
  Pt  Pt10  1  0.903889  0.491223  0.103962  1
  Pt  Pt11  1  0.103962  0.903889  0.491223  1
  Pt  Pt12  1  0.491223  0.103962  0.903889  1
  Pt  Pt13  1  0.251194  0.008401  0.737131  1
  Pt  Pt14  1  0.737131  0.251194  0.008401  1
  Pt  Pt15  1  0.008401  0.737131  0.251194  1
