# generated using pymatgen
data_Cs3YbInI6
_symmetry_space_group_name_H-M   'P 1'
_cell_length_a   10.40775070
_cell_length_b   10.40775197
_cell_length_c   10.40775201
_cell_angle_alpha   91.77297413
_cell_angle_beta   91.77297048
_cell_angle_gamma   91.77297725
_symmetry_Int_Tables_number   1
_chemical_formula_structural   Cs3YbInI6
_chemical_formula_sum   'Cs6 Yb2 In2 I12'
_cell_volume   1125.72773848
_cell_formula_units_Z   2
loop_
 _symmetry_equiv_pos_site_id
 _symmetry_equiv_pos_as_xyz
  1  'x, y, z'
loop_
 _atom_site_type_symbol
 _atom_site_label
 _atom_site_symmetry_multiplicity
 _atom_site_fract_x
 _atom_site_fract_y
 _atom_site_fract_z
 _atom_site_occupancy
  Cs  Cs0  1  0.250000  0.629026  0.870974  1
  Cs  Cs1  1  0.870974  0.250000  0.629026  1
  Cs  Cs2  1  0.629026  0.870974  0.250000  1
  Cs  Cs3  1  0.750000  0.370974  0.129026  1
  Cs  Cs4  1  0.129026  0.750000  0.370974  1
  Cs  Cs5  1  0.370974  0.129026  0.750000  1
  Yb  Yb6  1  0.000000  0.000000  0.000000  1
  Yb  Yb7  1  0.500000  0.500000  0.500000  1
  In  In8  1  0.250000  0.250000  0.250000  1
  In  In9  1  0.750000  0.750000  0.750000  1
  I  I10  1  0.546781  0.211311  0.420564  1
  I  I11  1  0.420564  0.546781  0.211311  1
  I  I12  1  0.211311  0.420564  0.546781  1
  I  I13  1  0.953219  0.079436  0.288689  1
  I  I14  1  0.288689  0.953219  0.079436  1
  I  I15  1  0.079436  0.288689  0.953219  1
  I  I16  1  0.453219  0.788689  0.579436  1
  I  I17  1  0.579436  0.453219  0.788689  1
  I  I18  1  0.788689  0.579436  0.453219  1
  I  I19  1  0.046781  0.920564  0.711311  1
  I  I20  1  0.920564  0.711311  0.046781  1
  I  I21  1  0.711311  0.046781  0.920564  1
