# generated using pymatgen
data_CeNdHf2(NiP)4
_symmetry_space_group_name_H-M   'P 1'
_cell_length_a   3.88881800
_cell_length_b   3.88881698
_cell_length_c   14.89550800
_cell_angle_alpha   90.00000000
_cell_angle_beta   90.00000000
_cell_angle_gamma   120.00000868
_symmetry_Int_Tables_number   1
_chemical_formula_structural   CeNdHf2(NiP)4
_chemical_formula_sum   'Ce1 Nd1 Hf2 Ni4 P4'
_cell_volume   195.08372309
_cell_formula_units_Z   1
loop_
 _symmetry_equiv_pos_site_id
 _symmetry_equiv_pos_as_xyz
  1  'x, y, z'
loop_
 _atom_site_type_symbol
 _atom_site_label
 _atom_site_symmetry_multiplicity
 _atom_site_fract_x
 _atom_site_fract_y
 _atom_site_fract_z
 _atom_site_occupancy
  Ce  Ce0  1  0.000000  0.000000  0.000000  1
  Nd  Nd1  1  0.000000  0.000000  0.500000  1
  Hf  Hf2  1  0.000000  0.000000  0.249940  1
  Hf  Hf3  1  0.000000  0.000000  0.750060  1
  Ni  Ni4  1  0.333333  0.666667  0.342373  1
  Ni  Ni5  1  0.666667  0.333333  0.657627  1
  Ni  Ni6  1  0.666667  0.333333  0.848090  1
  Ni  Ni7  1  0.333333  0.666667  0.151910  1
  P  P8  1  0.333333  0.666667  0.874264  1
  P  P9  1  0.666667  0.333333  0.125736  1
  P  P10  1  0.666667  0.333333  0.369195  1
  P  P11  1  0.333333  0.666667  0.630805  1
