# generated using pymatgen
data_Nd20PdRh15
_symmetry_space_group_name_H-M   'P 1'
_cell_length_a   7.61691567
_cell_length_b   7.69879683
_cell_length_c   14.98925103
_cell_angle_alpha   89.92635003
_cell_angle_beta   90.03858545
_cell_angle_gamma   89.97011581
_symmetry_Int_Tables_number   1
_chemical_formula_structural   Nd20PdRh15
_chemical_formula_sum   'Nd20 Pd1 Rh15'
_cell_volume   878.98491665
_cell_formula_units_Z   1
loop_
 _symmetry_equiv_pos_site_id
 _symmetry_equiv_pos_as_xyz
  1  'x, y, z'
loop_
 _atom_site_type_symbol
 _atom_site_label
 _atom_site_symmetry_multiplicity
 _atom_site_fract_x
 _atom_site_fract_y
 _atom_site_fract_z
 _atom_site_occupancy
  Nd  Nd0  1  0.661832  0.174385  0.625044  1
  Nd  Nd1  1  0.163580  0.331258  0.878120  1
  Nd  Nd2  1  0.335432  0.832630  0.121295  1
  Nd  Nd3  1  0.840800  0.662861  0.376511  1
  Nd  Nd4  1  0.331073  0.829015  0.377640  1
  Nd  Nd5  1  0.835892  0.668260  0.121376  1
  Nd  Nd6  1  0.664464  0.168299  0.878563  1
  Nd  Nd7  1  0.160685  0.329511  0.621423  1
  Nd  Nd8  1  0.509672  0.677922  0.596815  1
  Nd  Nd9  1  0.014247  0.819757  0.906174  1
  Nd  Nd10  1  0.487312  0.318659  0.092491  1
  Nd  Nd11  1  0.992617  0.183176  0.403190  1
  Nd  Nd12  1  0.485963  0.324422  0.405676  1
  Nd  Nd13  1  0.986441  0.181480  0.092915  1
  Nd  Nd14  1  0.513134  0.680712  0.906269  1
  Nd  Nd15  1  0.014516  0.818407  0.595327  1
  Nd  Nd16  1  0.826674  0.511773  0.750896  1
  Nd  Nd17  1  0.326676  0.990473  0.750187  1
  Nd  Nd18  1  0.176712  0.489130  0.247485  1
  Nd  Nd19  1  0.673182  0.009559  0.248122  1
  Pd  Pd20  1  0.673305  0.967955  0.460829  1
  Rh  Rh21  1  0.174478  0.530636  0.040918  1
  Rh  Rh22  1  0.325842  0.030182  0.958414  1
  Rh  Rh23  1  0.822475  0.470869  0.540792  1
  Rh  Rh24  1  0.326782  0.028820  0.540980  1
  Rh  Rh25  1  0.825178  0.470140  0.958434  1
  Rh  Rh26  1  0.674239  0.971254  0.042717  1
  Rh  Rh27  1  0.172687  0.527088  0.457837  1
  Rh  Rh28  1  0.457166  0.401681  0.750820  1
  Rh  Rh29  1  0.957722  0.098108  0.749751  1
  Rh  Rh30  1  0.544072  0.599812  0.251602  1
  Rh  Rh31  1  0.041109  0.902495  0.251037  1
  Rh  Rh32  1  0.696509  0.855360  0.749814  1
  Rh  Rh33  1  0.197457  0.645826  0.749472  1
  Rh  Rh34  1  0.305574  0.145124  0.250448  1
  Rh  Rh35  1  0.804499  0.352960  0.250617  1
