# generated using pymatgen
data_DyHo3(CoOs3)2
_symmetry_space_group_name_H-M   'P 1'
_cell_length_a   5.24964600
_cell_length_b   5.24964618
_cell_length_c   8.71766100
_cell_angle_alpha   90.00000000
_cell_angle_beta   90.00000000
_cell_angle_gamma   119.99999889
_symmetry_Int_Tables_number   1
_chemical_formula_structural   DyHo3(CoOs3)2
_chemical_formula_sum   'Dy1 Ho3 Co2 Os6'
_cell_volume   208.06099210
_cell_formula_units_Z   1
loop_
 _symmetry_equiv_pos_site_id
 _symmetry_equiv_pos_as_xyz
  1  'x, y, z'
loop_
 _atom_site_type_symbol
 _atom_site_label
 _atom_site_symmetry_multiplicity
 _atom_site_fract_x
 _atom_site_fract_y
 _atom_site_fract_z
 _atom_site_occupancy
  Dy  Dy0  1  0.333333  0.666667  0.066497  1
  Ho  Ho1  1  0.333333  0.666667  0.433490  1
  Ho  Ho2  1  0.666667  0.333333  0.566494  1
  Ho  Ho3  1  0.666667  0.333333  0.933411  1
  Co  Co4  1  0.000000  0.000000  0.499925  1
  Co  Co5  1  0.000000  0.000000  0.999820  1
  Os  Os6  1  0.831606  0.168394  0.250428  1
  Os  Os7  1  0.831606  0.663212  0.250428  1
  Os  Os8  1  0.336788  0.168394  0.250428  1
  Os  Os9  1  0.168363  0.831637  0.749692  1
  Os  Os10  1  0.168363  0.336728  0.749692  1
  Os  Os11  1  0.663272  0.831637  0.749692  1
