# generated using pymatgen
data_Li2TaNb5(Co4P3)4
_symmetry_space_group_name_H-M   'P 1'
_cell_length_a   11.95711500
_cell_length_b   11.95645505
_cell_length_c   3.57700100
_cell_angle_alpha   90.00000000
_cell_angle_beta   90.00000000
_cell_angle_gamma   120.00182867
_symmetry_Int_Tables_number   1
_chemical_formula_structural   Li2TaNb5(Co4P3)4
_chemical_formula_sum   'Li2 Ta1 Nb5 Co16 P12'
_cell_volume   442.86415644
_cell_formula_units_Z   1
loop_
 _symmetry_equiv_pos_site_id
 _symmetry_equiv_pos_as_xyz
  1  'x, y, z'
loop_
 _atom_site_type_symbol
 _atom_site_label
 _atom_site_symmetry_multiplicity
 _atom_site_fract_x
 _atom_site_fract_y
 _atom_site_fract_z
 _atom_site_occupancy
  Li  Li0  1  0.333336  0.666570  0.000000  1
  Li  Li1  1  0.666766  0.333430  0.000000  1
  Ta  Ta2  1  0.443815  0.000000  0.000000  1
  Nb  Nb3  1  0.820770  0.000000  0.500000  1
  Nb  Nb4  1  0.000185  0.820712  0.500000  1
  Nb  Nb5  1  0.179473  0.179288  0.500000  1
  Nb  Nb6  1  0.000081  0.444628  0.000000  1
  Nb  Nb7  1  0.555453  0.555372  0.000000  1
  Co  Co8  1  0.276914  0.000000  0.500000  1
  Co  Co9  1  0.999939  0.276119  0.500000  1
  Co  Co10  1  0.723820  0.723881  0.500000  1
  Co  Co11  1  0.633953  0.807948  0.000000  1
  Co  Co12  1  0.192715  0.826609  0.000000  1
  Co  Co13  1  0.173822  0.365953  0.000000  1
  Co  Co14  1  0.366106  0.173391  0.000000  1
  Co  Co15  1  0.807869  0.634047  0.000000  1
  Co  Co16  1  0.826005  0.192052  0.000000  1
  Co  Co17  1  0.522687  0.874373  0.500000  1
  Co  Co18  1  0.126456  0.649529  0.500000  1
  Co  Co19  1  0.350685  0.477041  0.500000  1
  Co  Co20  1  0.476927  0.350471  0.500000  1
  Co  Co21  1  0.873643  0.522959  0.500000  1
  Co  Co22  1  0.648314  0.125627  0.500000  1
  Co  Co23  1  0.999692  0.000000  0.000000  1
  P  P24  1  0.172741  0.000000  0.000000  1
  P  P25  1  0.000064  0.173143  0.000000  1
  P  P26  1  0.826920  0.826857  0.000000  1
  P  P27  1  0.512044  0.686075  0.500000  1
  P  P28  1  0.314102  0.825891  0.500000  1
  P  P29  1  0.174049  0.488024  0.500000  1
  P  P30  1  0.488209  0.174109  0.500000  1
  P  P31  1  0.686025  0.511976  0.500000  1
  P  P32  1  0.825968  0.313925  0.500000  1
  P  P33  1  0.649376  0.000000  0.000000  1
  P  P34  1  0.999868  0.648663  0.000000  1
  P  P35  1  0.351205  0.351337  0.000000  1
