# generated using pymatgen
data_Pa8Si8PdPt7
_symmetry_space_group_name_H-M   'P 1'
_cell_length_a   4.26017100
_cell_length_b   7.46457788
_cell_length_c   13.94460400
_cell_angle_alpha   89.94967818
_cell_angle_beta   90.00000000
_cell_angle_gamma   90.00000000
_symmetry_Int_Tables_number   1
_chemical_formula_structural   Pa8Si8PdPt7
_chemical_formula_sum   'Pa8 Si8 Pd1 Pt7'
_cell_volume   443.44351012
_cell_formula_units_Z   1
loop_
 _symmetry_equiv_pos_site_id
 _symmetry_equiv_pos_as_xyz
  1  'x, y, z'
loop_
 _atom_site_type_symbol
 _atom_site_label
 _atom_site_symmetry_multiplicity
 _atom_site_fract_x
 _atom_site_fract_y
 _atom_site_fract_z
 _atom_site_occupancy
  Pa  Pa0  1  0.000000  0.286119  0.999515  1
  Pa  Pa1  1  0.500000  0.715406  0.499728  1
  Pa  Pa2  1  0.000000  0.294109  0.500047  1
  Pa  Pa3  1  0.500000  0.703787  0.000146  1
  Pa  Pa4  1  0.000000  0.206596  0.248834  1
  Pa  Pa5  1  0.500000  0.793923  0.251256  1
  Pa  Pa6  1  0.000000  0.204549  0.750164  1
  Pa  Pa7  1  0.500000  0.793866  0.749439  1
  Si  Si8  1  0.000000  0.910115  0.605265  1
  Si  Si9  1  0.500000  0.089183  0.894636  1
  Si  Si10  1  0.000000  0.912789  0.393377  1
  Si  Si11  1  0.500000  0.087933  0.106109  1
  Si  Si12  1  0.000000  0.589117  0.147713  1
  Si  Si13  1  0.500000  0.411146  0.352814  1
  Si  Si14  1  0.000000  0.589778  0.853168  1
  Si  Si15  1  0.500000  0.411284  0.644952  1
  Pd  Pd16  1  0.000000  0.582190  0.648985  1
  Pt  Pt17  1  0.500000  0.084028  0.603619  1
  Pt  Pt18  1  0.000000  0.916334  0.896852  1
  Pt  Pt19  1  0.500000  0.085621  0.397165  1
  Pt  Pt20  1  0.000000  0.914578  0.103075  1
  Pt  Pt21  1  0.500000  0.416824  0.146145  1
  Pt  Pt22  1  0.000000  0.583584  0.355264  1
  Pt  Pt23  1  0.500000  0.417140  0.851731  1
