# generated using pymatgen
data_TbY5Mn2(Co4P3)4
_symmetry_space_group_name_H-M   'P 1'
_cell_length_a   3.69830400
_cell_length_b   10.54880300
_cell_length_c   12.19800100
_cell_angle_alpha   90.00000000
_cell_angle_beta   90.00000000
_cell_angle_gamma   90.00000000
_symmetry_Int_Tables_number   1
_chemical_formula_structural   TbY5Mn2(Co4P3)4
_chemical_formula_sum   'Tb1 Y5 Mn2 Co16 P12'
_cell_volume   475.87671368
_cell_formula_units_Z   1
loop_
 _symmetry_equiv_pos_site_id
 _symmetry_equiv_pos_as_xyz
  1  'x, y, z'
loop_
 _atom_site_type_symbol
 _atom_site_label
 _atom_site_symmetry_multiplicity
 _atom_site_fract_x
 _atom_site_fract_y
 _atom_site_fract_z
 _atom_site_occupancy
  Tb  Tb0  1  0.500000  0.000000  0.477358  1
  Y  Y1  1  0.000000  0.500000  0.522460  1
  Y  Y2  1  0.500000  0.817804  0.205126  1
  Y  Y3  1  0.500000  0.182196  0.205126  1
  Y  Y4  1  0.000000  0.682076  0.794777  1
  Y  Y5  1  0.000000  0.317924  0.794777  1
  Mn  Mn6  1  0.500000  0.500000  0.158732  1
  Mn  Mn7  1  0.000000  0.000000  0.841430  1
  Co  Co8  1  0.500000  0.500000  0.702907  1
  Co  Co9  1  0.000000  0.000000  0.297054  1
  Co  Co10  1  0.000000  0.500000  0.986350  1
  Co  Co11  1  0.500000  0.000000  0.013650  1
  Co  Co12  1  0.500000  0.333178  0.994032  1
  Co  Co13  1  0.500000  0.666822  0.994032  1
  Co  Co14  1  0.000000  0.166781  0.006015  1
  Co  Co15  1  0.000000  0.833219  0.006015  1
  Co  Co16  1  0.500000  0.296693  0.430445  1
  Co  Co17  1  0.500000  0.703307  0.430445  1
  Co  Co18  1  0.000000  0.203502  0.569560  1
  Co  Co19  1  0.000000  0.796498  0.569560  1
  Co  Co20  1  0.500000  0.879668  0.709510  1
  Co  Co21  1  0.500000  0.120332  0.709510  1
  Co  Co22  1  0.000000  0.620267  0.290477  1
  Co  Co23  1  0.000000  0.379733  0.290477  1
  P  P24  1  0.500000  0.500000  0.882754  1
  P  P25  1  0.000000  0.000000  0.117132  1
  P  P26  1  0.500000  0.500000  0.344469  1
  P  P27  1  0.000000  0.000000  0.655605  1
  P  P28  1  0.500000  0.310785  0.616082  1
  P  P29  1  0.500000  0.689215  0.616082  1
  P  P30  1  0.000000  0.189436  0.383941  1
  P  P31  1  0.000000  0.810564  0.383941  1
  P  P32  1  0.500000  0.847464  0.893363  1
  P  P33  1  0.500000  0.152536  0.893363  1
  P  P34  1  0.000000  0.652476  0.106721  1
  P  P35  1  0.000000  0.347524  0.106721  1
