# generated using pymatgen
data_Gd6Sc8Al8Ru7
_symmetry_space_group_name_H-M   'P 1'
_cell_length_a   9.27727180
_cell_length_b   9.27727189
_cell_length_c   9.27727200
_cell_angle_alpha   59.99999962
_cell_angle_beta   59.99999929
_cell_angle_gamma   60.00000397
_symmetry_Int_Tables_number   1
_chemical_formula_structural   Gd6Sc8Al8Ru7
_chemical_formula_sum   'Gd6 Sc8 Al8 Ru7'
_cell_volume   564.60649117
_cell_formula_units_Z   1
loop_
 _symmetry_equiv_pos_site_id
 _symmetry_equiv_pos_as_xyz
  1  'x, y, z'
loop_
 _atom_site_type_symbol
 _atom_site_label
 _atom_site_symmetry_multiplicity
 _atom_site_fract_x
 _atom_site_fract_y
 _atom_site_fract_z
 _atom_site_occupancy
  Gd  Gd0  1  0.689217  0.689217  0.310783  1
  Gd  Gd1  1  0.310783  0.689217  0.310783  1
  Gd  Gd2  1  0.689217  0.310783  0.310783  1
  Gd  Gd3  1  0.310783  0.310783  0.689217  1
  Gd  Gd4  1  0.689217  0.310783  0.689217  1
  Gd  Gd5  1  0.310783  0.689217  0.689217  1
  Sc  Sc6  1  0.876711  0.876711  0.369867  1
  Sc  Sc7  1  0.876711  0.369867  0.876711  1
  Sc  Sc8  1  0.369867  0.876711  0.876711  1
  Sc  Sc9  1  0.876711  0.876711  0.876711  1
  Sc  Sc10  1  0.123289  0.123289  0.630133  1
  Sc  Sc11  1  0.123289  0.630133  0.123289  1
  Sc  Sc12  1  0.630133  0.123289  0.123289  1
  Sc  Sc13  1  0.123289  0.123289  0.123289  1
  Al  Al14  1  0.669191  0.669191  0.992426  1
  Al  Al15  1  0.669191  0.992426  0.669191  1
  Al  Al16  1  0.992426  0.669191  0.669191  1
  Al  Al17  1  0.669191  0.669191  0.669191  1
  Al  Al18  1  0.330809  0.330809  0.007574  1
  Al  Al19  1  0.330809  0.007574  0.330809  1
  Al  Al20  1  0.007574  0.330809  0.330809  1
  Al  Al21  1  0.330809  0.330809  0.330809  1
  Ru  Ru22  1  0.000000  0.000000  0.000000  1
  Ru  Ru23  1  0.000000  0.000000  0.500000  1
  Ru  Ru24  1  0.500000  0.000000  0.500000  1
  Ru  Ru25  1  0.000000  0.500000  0.500000  1
  Ru  Ru26  1  0.500000  0.500000  0.000000  1
  Ru  Ru27  1  0.000000  0.500000  0.000000  1
  Ru  Ru28  1  0.500000  0.000000  0.000000  1
