# generated using pymatgen
data_Tb3ThAl6(Ga2Ir)6
_symmetry_space_group_name_H-M   'P 1'
_cell_length_a   7.59932053
_cell_length_b   7.60747502
_cell_length_c   9.52131998
_cell_angle_alpha   90.11555015
_cell_angle_beta   89.95979471
_cell_angle_gamma   119.66194535
_symmetry_Int_Tables_number   1
_chemical_formula_structural   Tb3ThAl6(Ga2Ir)6
_chemical_formula_sum   'Tb3 Th1 Al6 Ga12 Ir6'
_cell_volume   478.31228236
_cell_formula_units_Z   1
loop_
 _symmetry_equiv_pos_site_id
 _symmetry_equiv_pos_as_xyz
  1  'x, y, z'
loop_
 _atom_site_type_symbol
 _atom_site_label
 _atom_site_symmetry_multiplicity
 _atom_site_fract_x
 _atom_site_fract_y
 _atom_site_fract_z
 _atom_site_occupancy
  Tb  Tb0  1  0.000996  0.331608  0.748612  1
  Tb  Tb1  1  0.673050  0.998742  0.254066  1
  Tb  Tb2  1  0.327584  0.999875  0.745716  1
  Th  Th3  1  0.997601  0.668664  0.251626  1
  Al  Al4  1  0.664041  0.998694  0.926122  1
  Al  Al5  1  0.340208  0.006212  0.070970  1
  Al  Al6  1  0.331870  0.331844  0.556548  1
  Al  Al7  1  0.663359  0.667121  0.451579  1
  Al  Al8  1  0.664079  0.666884  0.049499  1
  Al  Al9  1  0.331380  0.331755  0.942590  1
  Ga  Ga10  1  0.131617  0.131761  0.249426  1
  Ga  Ga11  1  0.871561  0.876669  0.750436  1
  Ga  Ga12  1  0.998843  0.328888  0.075508  1
  Ga  Ga13  1  0.001543  0.666324  0.916087  1
  Ga  Ga14  1  0.998744  0.664506  0.585543  1
  Ga  Ga15  1  0.340892  0.004782  0.420867  1
  Ga  Ga16  1  0.001269  0.330072  0.423036  1
  Ga  Ga17  1  0.664659  0.001343  0.582281  1
  Ga  Ga18  1  0.350413  0.550830  0.249769  1
  Ga  Ga19  1  0.652554  0.447638  0.750221  1
  Ga  Ga20  1  0.543584  0.340828  0.249253  1
  Ga  Ga21  1  0.450312  0.656454  0.750652  1
  Ir  Ir22  1  0.668755  0.327886  0.999872  1
  Ir  Ir23  1  0.331237  0.674007  0.001600  1
  Ir  Ir24  1  0.328038  0.668083  0.499596  1
  Ir  Ir25  1  0.671697  0.333822  0.498747  1
  Ir  Ir26  1  0.000141  0.997507  0.001163  1
  Ir  Ir27  1  0.999973  0.997203  0.498614  1
