# generated using pymatgen
data_Pd(SeBr2)2
_symmetry_space_group_name_H-M   'P 1'
_cell_length_a   11.13857536
_cell_length_b   11.03672155
_cell_length_c   11.11671331
_cell_angle_alpha   115.18460691
_cell_angle_beta   115.50839673
_cell_angle_gamma   98.41203626
_symmetry_Int_Tables_number   1
_chemical_formula_structural   Pd(SeBr2)2
_chemical_formula_sum   'Pd4 Se8 Br16'
_cell_volume   1021.26221687
_cell_formula_units_Z   4
loop_
 _symmetry_equiv_pos_site_id
 _symmetry_equiv_pos_as_xyz
  1  'x, y, z'
loop_
 _atom_site_type_symbol
 _atom_site_label
 _atom_site_symmetry_multiplicity
 _atom_site_fract_x
 _atom_site_fract_y
 _atom_site_fract_z
 _atom_site_occupancy
  Pd  Pd0  1  0.511476  0.198928  0.395835  1
  Pd  Pd1  1  0.803558  0.114593  0.603655  1
  Pd  Pd2  1  0.884732  0.490621  0.689878  1
  Pd  Pd3  1  0.798447  0.196930  0.312598  1
  Se  Se4  1  0.330815  0.308756  0.410041  1
  Se  Se5  1  0.897576  0.917625  0.588526  1
  Se  Se6  1  0.083876  0.672672  0.979750  1
  Se  Se7  1  0.688741  0.101338  0.021811  1
  Se  Se8  1  0.708426  0.310525  0.675583  1
  Se  Se9  1  0.634582  0.031572  0.324709  1
  Se  Se10  1  0.966438  0.292839  0.603150  1
  Se  Se11  1  0.688783  0.366502  0.399325  1
  Br  Br12  1  0.391215  0.436719  0.678441  1
  Br  Br13  1  0.757279  0.710403  0.318410  1
  Br  Br14  1  0.290767  0.609804  0.043753  1
  Br  Br15  1  0.557273  0.239948  0.953158  1
  Br  Br16  1  0.331481  0.043787  0.410325  1
  Br  Br17  1  0.633144  0.915072  0.583513  1
  Br  Br18  1  0.079258  0.667014  0.711061  1
  Br  Br19  1  0.948395  0.366911  0.283040  1
  Br  Br20  1  0.310740  0.114252  0.117104  1
  Br  Br21  1  0.996823  0.189657  0.881696  1
  Br  Br22  1  0.812346  0.695355  0.810455  1
  Br  Br23  1  0.884813  0.004260  0.198218  1
  Br  Br24  1  0.383272  0.516536  0.392529  1
  Br  Br25  1  0.122730  0.991948  0.610315  1
  Br  Br26  1  0.017389  0.622856  0.136822  1
  Br  Br27  1  0.485625  0.872578  0.866300  1
