# generated using pymatgen
data_Nb2V(Co10B3)2
_symmetry_space_group_name_H-M   'P 1'
_cell_length_a   7.42437646
_cell_length_b   7.42429767
_cell_length_c   7.42409700
_cell_angle_alpha   60.00088965
_cell_angle_beta   60.00124068
_cell_angle_gamma   59.99766865
_symmetry_Int_Tables_number   1
_chemical_formula_structural   Nb2V(Co10B3)2
_chemical_formula_sum   'Nb2 V1 Co20 B6'
_cell_volume   289.36322778
_cell_formula_units_Z   1
loop_
 _symmetry_equiv_pos_site_id
 _symmetry_equiv_pos_as_xyz
  1  'x, y, z'
loop_
 _atom_site_type_symbol
 _atom_site_label
 _atom_site_symmetry_multiplicity
 _atom_site_fract_x
 _atom_site_fract_y
 _atom_site_fract_z
 _atom_site_occupancy
  Nb  Nb0  1  0.750099  0.749865  0.750018  1
  Nb  Nb1  1  0.249901  0.250135  0.249982  1
  V  V2  1  0.000000  0.000000  0.000000  1
  Co  Co3  1  0.616406  0.616407  0.150784  1
  Co  Co4  1  0.616441  0.150783  0.616388  1
  Co  Co5  1  0.150759  0.616449  0.616396  1
  Co  Co6  1  0.616406  0.616407  0.616403  1
  Co  Co7  1  0.383594  0.383593  0.849216  1
  Co  Co8  1  0.383559  0.849217  0.383612  1
  Co  Co9  1  0.849241  0.383551  0.383604  1
  Co  Co10  1  0.383594  0.383593  0.383597  1
  Co  Co11  1  0.000000  0.000000  0.338654  1
  Co  Co12  1  0.661380  0.999989  0.338640  1
  Co  Co13  1  0.000014  0.661307  0.338666  1
  Co  Co14  1  0.661360  0.338688  0.999976  1
  Co  Co15  1  0.999986  0.338693  0.999985  1
  Co  Co16  1  0.999986  0.338693  0.661334  1
  Co  Co17  1  0.338640  0.661312  0.000024  1
  Co  Co18  1  0.338620  0.000011  0.661360  1
  Co  Co19  1  0.338620  0.000011  0.000009  1
  Co  Co20  1  0.000000  0.000000  0.661346  1
  Co  Co21  1  0.000014  0.661307  0.000015  1
  Co  Co22  1  0.661380  0.999989  0.999991  1
  B  B23  1  0.727593  0.727412  0.272498  1
  B  B24  1  0.272418  0.727493  0.272498  1
  B  B25  1  0.727582  0.272507  0.272410  1
  B  B26  1  0.272407  0.272588  0.727502  1
  B  B27  1  0.727582  0.272507  0.727502  1
  B  B28  1  0.272418  0.727493  0.727590  1
