# generated using pymatgen
data_TaPt5Rh3
_symmetry_space_group_name_H-M   'P 1'
_cell_length_a   6.25569362
_cell_length_b   6.25569346
_cell_length_c   6.23393496
_cell_angle_alpha   95.65935914
_cell_angle_beta   95.65935557
_cell_angle_gamma   143.46161435
_symmetry_Int_Tables_number   1
_chemical_formula_structural   TaPt5Rh3
_chemical_formula_sum   'Ta1 Pt5 Rh3'
_cell_volume   137.86887474
_cell_formula_units_Z   1
loop_
 _symmetry_equiv_pos_site_id
 _symmetry_equiv_pos_as_xyz
  1  'x, y, z'
loop_
 _atom_site_type_symbol
 _atom_site_label
 _atom_site_symmetry_multiplicity
 _atom_site_fract_x
 _atom_site_fract_y
 _atom_site_fract_z
 _atom_site_occupancy
  Ta  Ta0  1  0.002188  0.997812  0.000000  1
  Pt  Pt1  1  0.337498  0.662502  0.000000  1
  Pt  Pt2  1  0.002004  0.329087  0.331090  1
  Pt  Pt3  1  0.998271  0.672712  0.670983  1
  Pt  Pt4  1  0.670913  0.997996  0.668910  1
  Pt  Pt5  1  0.327288  0.001729  0.329017  1
  Rh  Rh6  1  0.338491  0.337167  0.675658  1
  Rh  Rh7  1  0.662833  0.661509  0.324342  1
  Rh  Rh8  1  0.660513  0.339487  0.000000  1
