# generated using pymatgen
data_Tb3Yb2U3(Nb3Si4)4
_symmetry_space_group_name_H-M   'P 1'
_cell_length_a   7.08541078
_cell_length_b   7.08775560
_cell_length_c   13.06599746
_cell_angle_alpha   90.01503014
_cell_angle_beta   89.97357066
_cell_angle_gamma   90.10352992
_symmetry_Int_Tables_number   1
_chemical_formula_structural   Tb3Yb2U3(Nb3Si4)4
_chemical_formula_sum   'Tb3 Yb2 U3 Nb12 Si16'
_cell_volume   656.16878604
_cell_formula_units_Z   1
loop_
 _symmetry_equiv_pos_site_id
 _symmetry_equiv_pos_as_xyz
  1  'x, y, z'
loop_
 _atom_site_type_symbol
 _atom_site_label
 _atom_site_symmetry_multiplicity
 _atom_site_fract_x
 _atom_site_fract_y
 _atom_site_fract_z
 _atom_site_occupancy
  Tb  Tb0  1  0.160836  0.498191  0.467142  1
  Tb  Tb1  1  0.502681  0.839342  0.032413  1
  Tb  Tb2  1  0.840032  0.501207  0.966324  1
  Yb  Yb3  1  0.995321  0.335832  0.218491  1
  Yb  Yb4  1  0.003726  0.664480  0.718212  1
  U  U5  1  0.498222  0.159655  0.531938  1
  U  U6  1  0.337656  0.996895  0.779631  1
  U  U7  1  0.662340  0.004312  0.284062  1
  Nb  Nb8  1  0.172577  0.168745  0.997959  1
  Nb  Nb9  1  0.824476  0.834910  0.499016  1
  Nb  Nb10  1  0.334260  0.674172  0.250757  1
  Nb  Nb11  1  0.664571  0.324087  0.749128  1
  Nb  Nb12  1  0.156104  0.993887  0.377196  1
  Nb  Nb13  1  0.847640  0.007199  0.875327  1
  Nb  Nb14  1  0.505246  0.655640  0.625603  1
  Nb  Nb15  1  0.345521  0.494403  0.874662  1
  Nb  Nb16  1  0.493957  0.343350  0.125828  1
  Nb  Nb17  1  0.651521  0.502658  0.375991  1
  Nb  Nb18  1  0.996969  0.152194  0.624994  1
  Nb  Nb19  1  0.004567  0.847948  0.125224  1
  Si  Si20  1  0.293827  0.043886  0.186107  1
  Si  Si21  1  0.705417  0.956537  0.685575  1
  Si  Si22  1  0.457432  0.795053  0.435207  1
  Si  Si23  1  0.205719  0.543577  0.065095  1
  Si  Si24  1  0.542839  0.203962  0.934921  1
  Si  Si25  1  0.794043  0.456103  0.564960  1
  Si  Si26  1  0.043878  0.295853  0.812179  1
  Si  Si27  1  0.954921  0.705889  0.313195  1
  Si  Si28  1  0.369538  0.292821  0.317361  1
  Si  Si29  1  0.630507  0.705983  0.816298  1
  Si  Si30  1  0.207597  0.869703  0.567084  1
  Si  Si31  1  0.133177  0.795930  0.933645  1
  Si  Si32  1  0.794813  0.131660  0.066561  1
  Si  Si33  1  0.867780  0.204317  0.434580  1
  Si  Si34  1  0.295942  0.367878  0.683206  1
  Si  Si35  1  0.704347  0.631743  0.184129  1
