# generated using pymatgen
data_La2SmEr(Mo2O7)2
_symmetry_space_group_name_H-M   'P 1'
_cell_length_a   7.54206005
_cell_length_b   7.50799328
_cell_length_c   7.50208450
_cell_angle_alpha   59.53668838
_cell_angle_beta   59.82358034
_cell_angle_gamma   59.84979288
_symmetry_Int_Tables_number   1
_chemical_formula_structural   La2SmEr(Mo2O7)2
_chemical_formula_sum   'La2 Sm1 Er1 Mo4 O14'
_cell_volume   298.58501441
_cell_formula_units_Z   1
loop_
 _symmetry_equiv_pos_site_id
 _symmetry_equiv_pos_as_xyz
  1  'x, y, z'
loop_
 _atom_site_type_symbol
 _atom_site_label
 _atom_site_symmetry_multiplicity
 _atom_site_fract_x
 _atom_site_fract_y
 _atom_site_fract_z
 _atom_site_occupancy
  La  La0  1  0.125000  0.125000  0.125000  1
  La  La1  1  0.625000  0.125000  0.125000  1
  Sm  Sm2  1  0.125000  0.625000  0.125000  1
  Er  Er3  1  0.125000  0.125000  0.625000  1
  Mo  Mo4  1  0.625000  0.625000  0.625000  1
  Mo  Mo5  1  0.125000  0.625000  0.625000  1
  Mo  Mo6  1  0.625000  0.125000  0.625000  1
  Mo  Mo7  1  0.625000  0.625000  0.125000  1
  O  O8  1  0.288243  0.293767  0.696757  1
  O  O9  1  0.294490  0.707813  0.290232  1
  O  O10  1  0.955510  0.542187  0.959768  1
  O  O11  1  0.709480  0.285677  0.295362  1
  O  O12  1  0.006605  0.999790  0.987000  1
  O  O13  1  0.542535  0.542187  0.959768  1
  O  O14  1  0.285512  0.707953  0.721022  1
  O  O15  1  0.528767  0.956233  0.553243  1
  O  O16  1  0.540520  0.964323  0.954638  1
  O  O17  1  0.707465  0.707813  0.290232  1
  O  O18  1  0.243395  0.250210  0.263000  1
  O  O19  1  0.961757  0.956233  0.553243  1
  O  O20  1  0.964488  0.542047  0.528978  1
  O  O21  1  0.721233  0.293767  0.696757  1
