# generated using pymatgen
data_Tm5TcOsO12
_symmetry_space_group_name_H-M   'P 1'
_cell_length_a   6.76329083
_cell_length_b   6.76328981
_cell_length_c   7.40229911
_cell_angle_alpha   73.91565375
_cell_angle_beta   73.91564845
_cell_angle_gamma   49.01036512
_symmetry_Int_Tables_number   1
_chemical_formula_structural   Tm5TcOsO12
_chemical_formula_sum   'Tm5 Tc1 Os1 O12'
_cell_volume   243.44708810
_cell_formula_units_Z   1
loop_
 _symmetry_equiv_pos_site_id
 _symmetry_equiv_pos_as_xyz
  1  'x, y, z'
loop_
 _atom_site_type_symbol
 _atom_site_label
 _atom_site_symmetry_multiplicity
 _atom_site_fract_x
 _atom_site_fract_y
 _atom_site_fract_z
 _atom_site_occupancy
  Tm  Tm0  1  0.802898  0.800340  0.358595  1
  Tm  Tm1  1  0.199660  0.197102  0.641405  1
  Tm  Tm2  1  0.187100  0.185021  0.175127  1
  Tm  Tm3  1  0.814979  0.812900  0.824873  1
  Tm  Tm4  1  0.500186  0.499814  0.500000  1
  Tc  Tc5  1  0.712369  0.287631  0.000000  1
  Os  Os6  1  0.280918  0.719082  0.000000  1
  O  O7  1  0.413619  0.924336  0.912318  1
  O  O8  1  0.075664  0.586381  0.087682  1
  O  O9  1  0.589191  0.079018  0.086590  1
  O  O10  1  0.920982  0.410809  0.913410  1
  O  O11  1  0.599301  0.096004  0.571680  1
  O  O12  1  0.903996  0.400699  0.428320  1
  O  O13  1  0.401718  0.904813  0.427398  1
  O  O14  1  0.003110  0.998504  0.820794  1
  O  O15  1  0.001496  0.996890  0.179206  1
  O  O16  1  0.496724  0.499098  0.794295  1
  O  O17  1  0.500902  0.503276  0.205705  1
  O  O18  1  0.095187  0.598282  0.572602  1
