# generated using pymatgen
data_DyP2Ru2Rh
_symmetry_space_group_name_H-M   'P 1'
_cell_length_a   3.95024000
_cell_length_b   11.26336300
_cell_length_c   12.56991000
_cell_angle_alpha   90.00000000
_cell_angle_beta   90.00000000
_cell_angle_gamma   90.00000000
_symmetry_Int_Tables_number   1
_chemical_formula_structural   DyP2Ru2Rh
_chemical_formula_sum   'Dy6 P12 Ru12 Rh6'
_cell_volume   559.27284294
_cell_formula_units_Z   6
loop_
 _symmetry_equiv_pos_site_id
 _symmetry_equiv_pos_as_xyz
  1  'x, y, z'
loop_
 _atom_site_type_symbol
 _atom_site_label
 _atom_site_symmetry_multiplicity
 _atom_site_fract_x
 _atom_site_fract_y
 _atom_site_fract_z
 _atom_site_occupancy
  Dy  Dy0  1  0.000000  0.500000  0.523012  1
  Dy  Dy1  1  0.500000  0.000000  0.476988  1
  Dy  Dy2  1  0.500000  0.819605  0.204414  1
  Dy  Dy3  1  0.500000  0.180395  0.204414  1
  Dy  Dy4  1  0.000000  0.680395  0.795586  1
  Dy  Dy5  1  0.000000  0.319605  0.795586  1
  P  P6  1  0.500000  0.500000  0.882357  1
  P  P7  1  0.000000  0.000000  0.117643  1
  P  P8  1  0.500000  0.500000  0.345563  1
  P  P9  1  0.000000  0.000000  0.654437  1
  P  P10  1  0.500000  0.306640  0.615331  1
  P  P11  1  0.500000  0.693360  0.615331  1
  P  P12  1  0.000000  0.193360  0.384669  1
  P  P13  1  0.000000  0.806640  0.384669  1
  P  P14  1  0.500000  0.844019  0.896218  1
  P  P15  1  0.500000  0.155981  0.896218  1
  P  P16  1  0.000000  0.655981  0.103782  1
  P  P17  1  0.000000  0.344019  0.103782  1
  Ru  Ru18  1  0.500000  0.500000  0.158946  1
  Ru  Ru19  1  0.000000  0.000000  0.841054  1
  Ru  Ru20  1  0.000000  0.500000  0.987881  1
  Ru  Ru21  1  0.500000  0.000000  0.012119  1
  Ru  Ru22  1  0.500000  0.332745  0.991567  1
  Ru  Ru23  1  0.500000  0.667255  0.991567  1
  Ru  Ru24  1  0.000000  0.167255  0.008433  1
  Ru  Ru25  1  0.000000  0.832745  0.008433  1
  Ru  Ru26  1  0.500000  0.297204  0.428265  1
  Ru  Ru27  1  0.500000  0.702796  0.428265  1
  Ru  Ru28  1  0.000000  0.202796  0.571735  1
  Ru  Ru29  1  0.000000  0.797204  0.571735  1
  Rh  Rh30  1  0.500000  0.500000  0.695981  1
  Rh  Rh31  1  0.000000  0.000000  0.304019  1
  Rh  Rh32  1  0.500000  0.875956  0.714584  1
  Rh  Rh33  1  0.500000  0.124044  0.714584  1
  Rh  Rh34  1  0.000000  0.624044  0.285416  1
  Rh  Rh35  1  0.000000  0.375956  0.285416  1
