# generated using pymatgen
data_YbErZr2(Al8Pt3)3
_symmetry_space_group_name_H-M   'P 1'
_cell_length_a   7.49506989
_cell_length_b   7.50442806
_cell_length_c   13.06809113
_cell_angle_alpha   84.46747387
_cell_angle_beta   100.95110841
_cell_angle_gamma   119.90430650
_symmetry_Int_Tables_number   1
_chemical_formula_structural   YbErZr2(Al8Pt3)3
_chemical_formula_sum   'Yb1 Er1 Zr2 Al24 Pt9'
_cell_volume   625.56382157
_cell_formula_units_Z   1
loop_
 _symmetry_equiv_pos_site_id
 _symmetry_equiv_pos_as_xyz
  1  'x, y, z'
loop_
 _atom_site_type_symbol
 _atom_site_label
 _atom_site_symmetry_multiplicity
 _atom_site_fract_x
 _atom_site_fract_y
 _atom_site_fract_z
 _atom_site_occupancy
  Yb  Yb0  1  0.061701  0.667848  0.192068  1
  Er  Er1  1  0.938462  0.332506  0.808207  1
  Zr  Zr2  1  0.732132  0.999284  0.190742  1
  Zr  Zr3  1  0.267482  0.000190  0.809583  1
  Al  Al4  1  0.812452  0.869811  0.815398  1
  Al  Al5  1  0.186648  0.131184  0.184432  1
  Al  Al6  1  0.983558  0.668327  0.943283  1
  Al  Al7  1  0.016429  0.331722  0.057850  1
  Al  Al8  1  0.399006  0.669051  0.816724  1
  Al  Al9  1  0.600387  0.329389  0.183069  1
  Al  Al10  1  0.885304  0.667386  0.673650  1
  Al  Al11  1  0.114614  0.333418  0.326263  1
  Al  Al12  1  0.597875  0.452577  0.815926  1
  Al  Al13  1  0.403739  0.548133  0.183912  1
  Al  Al14  1  0.230621  0.337604  0.672193  1
  Al  Al15  1  0.770493  0.662898  0.327656  1
  Al  Al16  1  0.853073  0.333078  0.558923  1
  Al  Al17  1  0.186448  0.999310  0.560340  1
  Al  Al18  1  0.813277  0.000284  0.439426  1
  Al  Al19  1  0.354211  0.998041  0.056767  1
  Al  Al20  1  0.645829  0.001917  0.943316  1
  Al  Al21  1  0.554596  0.993127  0.673590  1
  Al  Al22  1  0.444571  0.005643  0.326286  1
  Al  Al23  1  0.521213  0.667699  0.562407  1
  Al  Al24  1  0.478496  0.332411  0.437596  1
  Al  Al25  1  0.684460  0.670196  0.049108  1
  Al  Al26  1  0.315679  0.329652  0.951167  1
  Al  Al27  1  0.146967  0.667170  0.440308  1
  Pt  Pt28  1  0.327660  0.670978  0.999130  1
  Pt  Pt29  1  0.545999  0.323927  0.637520  1
  Pt  Pt30  1  0.455377  0.675583  0.363341  1
  Pt  Pt31  1  0.888363  0.009411  0.639089  1
  Pt  Pt32  1  0.112645  0.991964  0.361819  1
  Pt  Pt33  1  0.671424  0.328459  0.999003  1
  Pt  Pt34  1  0.203006  0.666015  0.639620  1
  Pt  Pt35  1  0.795784  0.333227  0.361263  1
  Pt  Pt36  1  0.000020  0.000581  0.999026  1
