# generated using pymatgen
data_Pr15NdMg3AgIr4
_symmetry_space_group_name_H-M   'P 1'
_cell_length_a   10.06658303
_cell_length_b   10.06658340
_cell_length_c   10.06658456
_cell_angle_alpha   60.17076736
_cell_angle_beta   60.17076659
_cell_angle_gamma   60.17076835
_symmetry_Int_Tables_number   1
_chemical_formula_structural   Pr15NdMg3AgIr4
_chemical_formula_sum   'Pr15 Nd1 Mg3 Ag1 Ir4'
_cell_volume   724.11531570
_cell_formula_units_Z   1
loop_
 _symmetry_equiv_pos_site_id
 _symmetry_equiv_pos_as_xyz
  1  'x, y, z'
loop_
 _atom_site_type_symbol
 _atom_site_label
 _atom_site_symmetry_multiplicity
 _atom_site_fract_x
 _atom_site_fract_y
 _atom_site_fract_z
 _atom_site_occupancy
  Pr  Pr0  1  0.347321  0.347321  0.959249  1
  Pr  Pr1  1  0.347321  0.959249  0.347321  1
  Pr  Pr2  1  0.959249  0.347321  0.347321  1
  Pr  Pr3  1  0.810898  0.188795  0.188795  1
  Pr  Pr4  1  0.189128  0.809627  0.809627  1
  Pr  Pr5  1  0.188795  0.810898  0.188795  1
  Pr  Pr6  1  0.809627  0.189128  0.809627  1
  Pr  Pr7  1  0.188795  0.188795  0.810898  1
  Pr  Pr8  1  0.809627  0.809627  0.189128  1
  Pr  Pr9  1  0.935011  0.561310  0.561310  1
  Pr  Pr10  1  0.561358  0.937488  0.937488  1
  Pr  Pr11  1  0.561310  0.935011  0.561310  1
  Pr  Pr12  1  0.937488  0.561358  0.937488  1
  Pr  Pr13  1  0.561310  0.561310  0.935011  1
  Pr  Pr14  1  0.937488  0.937488  0.561358  1
  Nd  Nd15  1  0.345860  0.345860  0.345860  1
  Mg  Mg16  1  0.579163  0.579163  0.267669  1
  Mg  Mg17  1  0.579163  0.267669  0.579163  1
  Mg  Mg18  1  0.267669  0.579163  0.579163  1
  Ag  Ag19  1  0.580534  0.580534  0.580534  1
  Ir  Ir20  1  0.141509  0.141509  0.141509  1
  Ir  Ir21  1  0.142697  0.142697  0.575982  1
  Ir  Ir22  1  0.142697  0.575982  0.142697  1
  Ir  Ir23  1  0.575982  0.142697  0.142697  1
