# generated using pymatgen
data_Ho3Ni2Sn3Rh
_symmetry_space_group_name_H-M   'P 1'
_cell_length_a   7.47821400
_cell_length_b   7.47821374
_cell_length_c   3.77257600
_cell_angle_alpha   90.00000000
_cell_angle_beta   90.00000000
_cell_angle_gamma   119.99999348
_symmetry_Int_Tables_number   1
_chemical_formula_structural   Ho3Ni2Sn3Rh
_chemical_formula_sum   'Ho3 Ni2 Sn3 Rh1'
_cell_volume   182.71088477
_cell_formula_units_Z   1
loop_
 _symmetry_equiv_pos_site_id
 _symmetry_equiv_pos_as_xyz
  1  'x, y, z'
loop_
 _atom_site_type_symbol
 _atom_site_label
 _atom_site_symmetry_multiplicity
 _atom_site_fract_x
 _atom_site_fract_y
 _atom_site_fract_z
 _atom_site_occupancy
  Ho  Ho0  1  0.405840  0.404608  0.500000  1
  Ho  Ho1  1  0.595392  0.001232  0.500000  1
  Ho  Ho2  1  0.998768  0.594160  0.500000  1
  Ni  Ni3  1  0.000000  0.000000  0.500000  1
  Ni  Ni4  1  0.333333  0.666667  0.000000  1
  Sn  Sn5  1  0.740590  0.745167  0.000000  1
  Sn  Sn6  1  0.254833  0.995423  0.000000  1
  Sn  Sn7  1  0.004577  0.259410  0.000000  1
  Rh  Rh8  1  0.666667  0.333333  0.000000  1
