# generated using pymatgen
data_Zr6Ti4Al12VPd6
_symmetry_space_group_name_H-M   'P 1'
_cell_length_a   8.84873312
_cell_length_b   8.84873250
_cell_length_c   8.84873200
_cell_angle_alpha   60.00000187
_cell_angle_beta   60.00000420
_cell_angle_gamma   60.00000263
_symmetry_Int_Tables_number   1
_chemical_formula_structural   Zr6Ti4Al12VPd6
_chemical_formula_sum   'Zr6 Ti4 Al12 V1 Pd6'
_cell_volume   489.92345983
_cell_formula_units_Z   1
loop_
 _symmetry_equiv_pos_site_id
 _symmetry_equiv_pos_as_xyz
  1  'x, y, z'
loop_
 _atom_site_type_symbol
 _atom_site_label
 _atom_site_symmetry_multiplicity
 _atom_site_fract_x
 _atom_site_fract_y
 _atom_site_fract_z
 _atom_site_occupancy
  Zr  Zr0  1  0.690860  0.309140  0.309140  1
  Zr  Zr1  1  0.690860  0.309140  0.690860  1
  Zr  Zr2  1  0.690860  0.690860  0.309140  1
  Zr  Zr3  1  0.309140  0.690860  0.690860  1
  Zr  Zr4  1  0.309140  0.690860  0.309140  1
  Zr  Zr5  1  0.309140  0.309140  0.690860  1
  Ti  Ti6  1  0.650741  0.116420  0.116420  1
  Ti  Ti7  1  0.116420  0.650741  0.116420  1
  Ti  Ti8  1  0.116420  0.116420  0.650741  1
  Ti  Ti9  1  0.116420  0.116420  0.116420  1
  Al  Al10  1  0.354251  0.881916  0.881916  1
  Al  Al11  1  0.881916  0.354251  0.881916  1
  Al  Al12  1  0.881916  0.881916  0.354251  1
  Al  Al13  1  0.881916  0.881916  0.881916  1
  Al  Al14  1  0.001817  0.332728  0.332728  1
  Al  Al15  1  0.332728  0.001817  0.332728  1
  Al  Al16  1  0.332728  0.332728  0.001817  1
  Al  Al17  1  0.332728  0.332728  0.332728  1
  Al  Al18  1  0.000816  0.666394  0.666394  1
  Al  Al19  1  0.666394  0.000816  0.666394  1
  Al  Al20  1  0.666394  0.666394  0.000816  1
  Al  Al21  1  0.666394  0.666394  0.666394  1
  V  V22  1  0.000000  0.000000  0.000000  1
  Pd  Pd23  1  0.500321  0.999679  0.999679  1
  Pd  Pd24  1  0.500321  0.999679  0.500321  1
  Pd  Pd25  1  0.500321  0.500321  0.999679  1
  Pd  Pd26  1  0.999679  0.500321  0.500321  1
  Pd  Pd27  1  0.999679  0.500321  0.999679  1
  Pd  Pd28  1  0.999679  0.999679  0.500321  1
