# generated using pymatgen
data_ReMoCl10
_symmetry_space_group_name_H-M   'P 1'
_cell_length_a   6.51055684
_cell_length_b   7.02241443
_cell_length_c   9.50557667
_cell_angle_alpha   109.26448066
_cell_angle_beta   91.26133120
_cell_angle_gamma   115.52518206
_symmetry_Int_Tables_number   1
_chemical_formula_structural   ReMoCl10
_chemical_formula_sum   'Re1 Mo1 Cl10'
_cell_volume   363.27470099
_cell_formula_units_Z   1
loop_
 _symmetry_equiv_pos_site_id
 _symmetry_equiv_pos_as_xyz
  1  'x, y, z'
loop_
 _atom_site_type_symbol
 _atom_site_label
 _atom_site_symmetry_multiplicity
 _atom_site_fract_x
 _atom_site_fract_y
 _atom_site_fract_z
 _atom_site_occupancy
  Re  Re0  1  0.901575  0.797578  0.795442  1
  Mo  Mo1  1  0.100899  0.209140  0.211500  1
  Cl  Cl2  1  0.770386  0.820725  0.040529  1
  Cl  Cl3  1  0.883731  0.353608  0.137641  1
  Cl  Cl4  1  0.289664  0.007441  0.229983  1
  Cl  Cl5  1  0.416502  0.552219  0.328592  1
  Cl  Cl6  1  0.941761  0.186902  0.418887  1
  Cl  Cl7  1  0.056828  0.814328  0.585335  1
  Cl  Cl8  1  0.589775  0.453417  0.673993  1
  Cl  Cl9  1  0.707006  0.990006  0.766284  1
  Cl  Cl10  1  0.116229  0.641671  0.858316  1
  Cl  Cl11  1  0.225644  0.172962  0.953497  1
