# generated using pymatgen
data_LaPr4AlSn2
_symmetry_space_group_name_H-M   'P 1'
_cell_length_a   9.48081250
_cell_length_b   9.48081261
_cell_length_c   9.44749376
_cell_angle_alpha   96.21326705
_cell_angle_beta   96.13929398
_cell_angle_gamma   141.77440776
_symmetry_Int_Tables_number   1
_chemical_formula_structural   LaPr4AlSn2
_chemical_formula_sum   'La2 Pr8 Al2 Sn4'
_cell_volume   496.27205502
_cell_formula_units_Z   2
loop_
 _symmetry_equiv_pos_site_id
 _symmetry_equiv_pos_as_xyz
  1  'x, y, z'
loop_
 _atom_site_type_symbol
 _atom_site_label
 _atom_site_symmetry_multiplicity
 _atom_site_fract_x
 _atom_site_fract_y
 _atom_site_fract_z
 _atom_site_occupancy
  La  La0  1  0.584068  0.716758  0.300825  1
  La  La1  1  0.415932  0.283242  0.699175  1
  Pr  Pr2  1  0.750580  0.250580  0.500000  1
  Pr  Pr3  1  0.249420  0.749420  0.500000  1
  Pr  Pr4  1  0.916380  0.215394  0.131774  1
  Pr  Pr5  1  0.215725  0.084043  0.299767  1
  Pr  Pr6  1  0.784275  0.915957  0.700233  1
  Pr  Pr7  1  0.083620  0.784606  0.868226  1
  Pr  Pr8  1  0.714718  0.415954  0.130672  1
  Pr  Pr9  1  0.285282  0.584046  0.869328  1
  Al  Al10  1  0.751750  0.751750  0.000000  1
  Al  Al11  1  0.248250  0.248250  0.000000  1
  Sn  Sn12  1  0.840228  0.659286  0.499514  1
  Sn  Sn13  1  0.660723  0.159696  0.820418  1
  Sn  Sn14  1  0.339277  0.840304  0.179582  1
  Sn  Sn15  1  0.159772  0.340714  0.500486  1
