# generated using pymatgen
data_Sr9Tb7(YbPb4)4
_symmetry_space_group_name_H-M   'P 1'
_cell_length_a   8.22185890
_cell_length_b   8.72463648
_cell_length_c   16.67981830
_cell_angle_alpha   89.98023784
_cell_angle_beta   89.99120336
_cell_angle_gamma   89.96862422
_symmetry_Int_Tables_number   1
_chemical_formula_structural   Sr9Tb7(YbPb4)4
_chemical_formula_sum   'Sr9 Tb7 Yb4 Pb16'
_cell_volume   1196.48863946
_cell_formula_units_Z   1
loop_
 _symmetry_equiv_pos_site_id
 _symmetry_equiv_pos_as_xyz
  1  'x, y, z'
loop_
 _atom_site_type_symbol
 _atom_site_label
 _atom_site_symmetry_multiplicity
 _atom_site_fract_x
 _atom_site_fract_y
 _atom_site_fract_z
 _atom_site_occupancy
  Sr  Sr0  1  0.498221  0.680221  0.594237  1
  Sr  Sr1  1  0.998198  0.820446  0.905228  1
  Sr  Sr2  1  0.499818  0.320699  0.091829  1
  Sr  Sr3  1  0.001634  0.180593  0.409404  1
  Sr  Sr4  1  0.500108  0.319461  0.408995  1
  Sr  Sr5  1  0.001367  0.181187  0.090401  1
  Sr  Sr6  1  0.497630  0.679606  0.905812  1
  Sr  Sr7  1  0.997119  0.820824  0.594954  1
  Sr  Sr8  1  0.672844  0.012714  0.249957  1
  Tb  Tb9  1  0.168485  0.338071  0.875847  1
  Tb  Tb10  1  0.330561  0.836413  0.121707  1
  Tb  Tb11  1  0.830598  0.662343  0.378069  1
  Tb  Tb12  1  0.331362  0.837706  0.378552  1
  Tb  Tb13  1  0.830901  0.662398  0.121736  1
  Tb  Tb14  1  0.669291  0.162301  0.875332  1
  Tb  Tb15  1  0.168976  0.338210  0.624665  1
  Yb  Yb16  1  0.670178  0.161156  0.623551  1
  Yb  Yb17  1  0.830763  0.505423  0.749319  1
  Yb  Yb18  1  0.332429  0.995184  0.749004  1
  Yb  Yb19  1  0.172009  0.492678  0.250344  1
  Pb  Pb20  1  0.668055  0.953514  0.460411  1
  Pb  Pb21  1  0.169076  0.541969  0.040628  1
  Pb  Pb22  1  0.329135  0.041323  0.957153  1
  Pb  Pb23  1  0.834108  0.459012  0.542155  1
  Pb  Pb24  1  0.326298  0.040704  0.541803  1
  Pb  Pb25  1  0.830154  0.458250  0.957703  1
  Pb  Pb26  1  0.669259  0.956507  0.038158  1
  Pb  Pb27  1  0.169645  0.543221  0.459716  1
  Pb  Pb28  1  0.467666  0.371403  0.750023  1
  Pb  Pb29  1  0.970622  0.129588  0.751988  1
  Pb  Pb30  1  0.529700  0.630511  0.249468  1
  Pb  Pb31  1  0.039637  0.856804  0.249906  1
  Pb  Pb32  1  0.707558  0.870064  0.752118  1
  Pb  Pb33  1  0.205997  0.629057  0.750822  1
  Pb  Pb34  1  0.281153  0.128415  0.249413  1
  Pb  Pb35  1  0.799442  0.382021  0.249591  1
