# generated using pymatgen
data_Sc3Nb2Fe16Si7Mo
_symmetry_space_group_name_H-M   'P 1'
_cell_length_a   7.97728703
_cell_length_b   7.97853030
_cell_length_c   8.00676636
_cell_angle_alpha   59.87257844
_cell_angle_beta   59.88795986
_cell_angle_gamma   60.23946853
_symmetry_Int_Tables_number   1
_chemical_formula_structural   Sc3Nb2Fe16Si7Mo
_chemical_formula_sum   'Sc3 Nb2 Fe16 Si7 Mo1'
_cell_volume   360.33701382
_cell_formula_units_Z   1
loop_
 _symmetry_equiv_pos_site_id
 _symmetry_equiv_pos_as_xyz
  1  'x, y, z'
loop_
 _atom_site_type_symbol
 _atom_site_label
 _atom_site_symmetry_multiplicity
 _atom_site_fract_x
 _atom_site_fract_y
 _atom_site_fract_z
 _atom_site_occupancy
  Sc  Sc0  1  0.799875  0.801937  0.198063  1
  Sc  Sc1  1  0.205426  0.794574  0.205426  1
  Sc  Sc2  1  0.198063  0.200125  0.799875  1
  Nb  Nb3  1  0.204797  0.795203  0.791205  1
  Nb  Nb4  1  0.791205  0.208795  0.204797  1
  Fe  Fe5  1  0.856416  0.373952  0.388526  1
  Fe  Fe6  1  0.626392  0.615910  0.135700  1
  Fe  Fe7  1  0.388526  0.381104  0.856416  1
  Fe  Fe8  1  0.823900  0.521314  0.825520  1
  Fe  Fe9  1  0.825520  0.829267  0.823900  1
  Fe  Fe10  1  0.822018  0.826098  0.526986  1
  Fe  Fe11  1  0.384090  0.373608  0.378001  1
  Fe  Fe12  1  0.135700  0.621999  0.626392  1
  Fe  Fe13  1  0.618896  0.611474  0.626048  1
  Fe  Fe14  1  0.173902  0.177982  0.175100  1
  Fe  Fe15  1  0.175100  0.473014  0.173902  1
  Fe  Fe16  1  0.526986  0.824900  0.822018  1
  Fe  Fe17  1  0.626048  0.143584  0.618896  1
  Fe  Fe18  1  0.170733  0.174480  0.478686  1
  Fe  Fe19  1  0.378001  0.864300  0.384090  1
  Fe  Fe20  1  0.478686  0.176100  0.170733  1
  Si  Si21  1  0.499223  0.999048  0.000952  1
  Si  Si22  1  0.999255  0.500745  0.999255  1
  Si  Si23  1  0.497000  0.503000  0.001551  1
  Si  Si24  1  0.493429  0.506571  0.493429  1
  Si  Si25  1  0.000952  0.500777  0.499223  1
  Si  Si26  1  0.001551  0.998449  0.497000  1
  Si  Si27  1  0.499255  0.000745  0.499255  1
  Mo  Mo28  1  0.799053  0.200947  0.799053  1
