# generated using pymatgen
data_Zr8Fe2PtRh
_symmetry_space_group_name_H-M   'P 1'
_cell_length_a   8.70583162
_cell_length_b   8.70583290
_cell_length_c   8.70972100
_cell_angle_alpha   59.98523662
_cell_angle_beta   59.98523175
_cell_angle_gamma   59.97399103
_symmetry_Int_Tables_number   1
_chemical_formula_structural   Zr8Fe2PtRh
_chemical_formula_sum   'Zr16 Fe4 Pt2 Rh2'
_cell_volume   466.58145299
_cell_formula_units_Z   2
loop_
 _symmetry_equiv_pos_site_id
 _symmetry_equiv_pos_as_xyz
  1  'x, y, z'
loop_
 _atom_site_type_symbol
 _atom_site_label
 _atom_site_symmetry_multiplicity
 _atom_site_fract_x
 _atom_site_fract_y
 _atom_site_fract_z
 _atom_site_occupancy
  Zr  Zr0  1  0.059621  0.646590  0.646895  1
  Zr  Zr1  1  0.646590  0.059621  0.646895  1
  Zr  Zr2  1  0.646468  0.646468  0.060178  1
  Zr  Zr3  1  0.646468  0.646468  0.646887  1
  Zr  Zr4  1  0.806235  0.806235  0.193765  1
  Zr  Zr5  1  0.193665  0.193665  0.806335  1
  Zr  Zr6  1  0.805783  0.193522  0.806925  1
  Zr  Zr7  1  0.193522  0.805783  0.193769  1
  Zr  Zr8  1  0.193522  0.805783  0.806925  1
  Zr  Zr9  1  0.805783  0.193522  0.193769  1
  Zr  Zr10  1  0.438711  0.438711  0.061289  1
  Zr  Zr11  1  0.061457  0.061457  0.438543  1
  Zr  Zr12  1  0.438956  0.063746  0.438467  1
  Zr  Zr13  1  0.063746  0.438956  0.058831  1
  Zr  Zr14  1  0.063746  0.438956  0.438467  1
  Zr  Zr15  1  0.438956  0.063746  0.058831  1
  Fe  Fe16  1  0.423627  0.858683  0.858844  1
  Fe  Fe17  1  0.858683  0.423627  0.858844  1
  Fe  Fe18  1  0.858676  0.858676  0.423574  1
  Fe  Fe19  1  0.858676  0.858676  0.859073  1
  Pt  Pt20  1  0.752245  0.415107  0.416324  1
  Pt  Pt21  1  0.415107  0.752245  0.416324  1
  Rh  Rh22  1  0.414879  0.414879  0.754783  1
  Rh  Rh23  1  0.414879  0.414879  0.415461  1
