# generated using pymatgen
data_Tb3PrY3FeI12
_symmetry_space_group_name_H-M   'P 1'
_cell_length_a   9.83826612
_cell_length_b   9.80657268
_cell_length_c   9.84971217
_cell_angle_alpha   106.81766144
_cell_angle_beta   106.83005050
_cell_angle_gamma   107.18402552
_symmetry_Int_Tables_number   1
_chemical_formula_structural   Tb3PrY3FeI12
_chemical_formula_sum   'Tb3 Pr1 Y3 Fe1 I12'
_cell_volume   792.61608822
_cell_formula_units_Z   1
loop_
 _symmetry_equiv_pos_site_id
 _symmetry_equiv_pos_as_xyz
  1  'x, y, z'
loop_
 _atom_site_type_symbol
 _atom_site_label
 _atom_site_symmetry_multiplicity
 _atom_site_fract_x
 _atom_site_fract_y
 _atom_site_fract_z
 _atom_site_occupancy
  Tb  Tb0  1  0.911399  0.724887  0.978963  1
  Tb  Tb1  1  0.977636  0.904819  0.706904  1
  Tb  Tb2  1  0.705890  0.977892  0.905517  1
  Pr  Pr3  1  0.092160  0.288169  0.021427  1
  Y  Y4  1  0.500426  0.498407  0.501953  1
  Y  Y5  1  0.021282  0.091947  0.291523  1
  Y  Y6  1  0.293390  0.023625  0.093713  1
  Fe  Fe7  1  0.000556  0.003598  0.998928  1
  I  I8  1  0.470779  0.386076  0.167122  1
  I  I9  1  0.162748  0.461926  0.392532  1
  I  I10  1  0.384504  0.158694  0.461381  1
  I  I11  1  0.540961  0.615787  0.840718  1
  I  I12  1  0.839863  0.538725  0.619865  1
  I  I13  1  0.614896  0.836822  0.537325  1
  I  I14  1  0.764702  0.315046  0.924602  1
  I  I15  1  0.927334  0.772576  0.315462  1
  I  I16  1  0.320130  0.927215  0.775605  1
  I  I17  1  0.223528  0.685734  0.072072  1
  I  I18  1  0.069089  0.218468  0.670138  1
  I  I19  1  0.678724  0.069588  0.224250  1
