# generated using pymatgen
data_Pu2Al3Ga
_symmetry_space_group_name_H-M   'P 1'
_cell_length_a   5.51709017
_cell_length_b   5.51709047
_cell_length_c   5.51709001
_cell_angle_alpha   59.82353155
_cell_angle_beta   59.82352468
_cell_angle_gamma   59.82354104
_symmetry_Int_Tables_number   1
_chemical_formula_structural   Pu2Al3Ga
_chemical_formula_sum   'Pu2 Al3 Ga1'
_cell_volume   118.26936141
_cell_formula_units_Z   1
loop_
 _symmetry_equiv_pos_site_id
 _symmetry_equiv_pos_as_xyz
  1  'x, y, z'
loop_
 _atom_site_type_symbol
 _atom_site_label
 _atom_site_symmetry_multiplicity
 _atom_site_fract_x
 _atom_site_fract_y
 _atom_site_fract_z
 _atom_site_occupancy
  Pu  Pu0  1  0.124592  0.124592  0.124592  1
  Pu  Pu1  1  0.875408  0.875408  0.875408  1
  Al  Al2  1  0.500000  0.000000  0.500000  1
  Al  Al3  1  0.000000  0.500000  0.500000  1
  Al  Al4  1  0.500000  0.500000  0.000000  1
  Ga  Ga5  1  0.500000  0.500000  0.500000  1
