# generated using pymatgen
data_ErTm3Th4(ReB6)4
_symmetry_space_group_name_H-M   'P 1'
_cell_length_a   3.75242600
_cell_length_b   9.22522301
_cell_length_c   11.65850501
_cell_angle_alpha   90.00458194
_cell_angle_beta   90.00000000
_cell_angle_gamma   90.00000000
_symmetry_Int_Tables_number   1
_chemical_formula_structural   ErTm3Th4(ReB6)4
_chemical_formula_sum   'Er1 Tm3 Th4 Re4 B24'
_cell_volume   403.58207802
_cell_formula_units_Z   1
loop_
 _symmetry_equiv_pos_site_id
 _symmetry_equiv_pos_as_xyz
  1  'x, y, z'
loop_
 _atom_site_type_symbol
 _atom_site_label
 _atom_site_symmetry_multiplicity
 _atom_site_fract_x
 _atom_site_fract_y
 _atom_site_fract_z
 _atom_site_occupancy
  Er  Er0  1  0.000000  0.944902  0.372906  1
  Tm  Tm1  1  0.000000  0.055141  0.627250  1
  Tm  Tm2  1  0.000000  0.444904  0.127109  1
  Tm  Tm3  1  0.000000  0.555098  0.872859  1
  Th  Th4  1  0.000000  0.321765  0.414144  1
  Th  Th5  1  0.000000  0.678262  0.585935  1
  Th  Th6  1  0.000000  0.821666  0.085823  1
  Th  Th7  1  0.000000  0.178328  0.914105  1
  Re  Re8  1  0.000000  0.639223  0.319597  1
  Re  Re9  1  0.000000  0.360518  0.680395  1
  Re  Re10  1  0.000000  0.139661  0.180245  1
  Re  Re11  1  0.000000  0.860479  0.819637  1
  B  B12  1  0.500000  0.556278  0.429843  1
  B  B13  1  0.500000  0.443662  0.570177  1
  B  B14  1  0.500000  0.056349  0.070121  1
  B  B15  1  0.500000  0.943677  0.929828  1
  B  B16  1  0.500000  0.750238  0.417046  1
  B  B17  1  0.500000  0.249533  0.582968  1
  B  B18  1  0.500000  0.250515  0.082944  1
  B  B19  1  0.500000  0.749512  0.917036  1
  B  B20  1  0.500000  0.791104  0.266680  1
  B  B21  1  0.500000  0.208676  0.733267  1
  B  B22  1  0.500000  0.291405  0.233236  1
  B  B23  1  0.500000  0.708669  0.766746  1
  B  B24  1  0.500000  0.629979  0.185943  1
  B  B25  1  0.500000  0.369979  0.814027  1
  B  B26  1  0.500000  0.130230  0.313910  1
  B  B27  1  0.500000  0.869966  0.685988  1
  B  B28  1  0.500000  0.984924  0.214107  1
  B  B29  1  0.500000  0.015207  0.785732  1
  B  B30  1  0.500000  0.484757  0.285708  1
  B  B31  1  0.500000  0.515210  0.714280  1
  B  B32  1  0.500000  0.601734  0.027976  1
  B  B33  1  0.500000  0.398261  0.972011  1
  B  B34  1  0.500000  0.102022  0.472175  1
  B  B35  1  0.500000  0.898168  0.528244  1
