# generated using pymatgen
data_Nd14YHo5Sn16
_symmetry_space_group_name_H-M   'P 1'
_cell_length_a   8.18368510
_cell_length_b   8.42387712
_cell_length_c   15.99863500
_cell_angle_alpha   90.24506893
_cell_angle_beta   89.99121347
_cell_angle_gamma   89.99298433
_symmetry_Int_Tables_number   1
_chemical_formula_structural   Nd14YHo5Sn16
_chemical_formula_sum   'Nd14 Y1 Ho5 Sn16'
_cell_volume   1102.90951125
_cell_formula_units_Z   1
loop_
 _symmetry_equiv_pos_site_id
 _symmetry_equiv_pos_as_xyz
  1  'x, y, z'
loop_
 _atom_site_type_symbol
 _atom_site_label
 _atom_site_symmetry_multiplicity
 _atom_site_fract_x
 _atom_site_fract_y
 _atom_site_fract_z
 _atom_site_occupancy
  Nd  Nd0  1  0.349853  0.834209  0.120432  1
  Nd  Nd1  1  0.849246  0.664637  0.379627  1
  Nd  Nd2  1  0.349364  0.833472  0.377320  1
  Nd  Nd3  1  0.849165  0.664681  0.122700  1
  Nd  Nd4  1  0.648816  0.165685  0.877095  1
  Nd  Nd5  1  0.149603  0.336966  0.622333  1
  Nd  Nd6  1  0.492054  0.680181  0.598837  1
  Nd  Nd7  1  0.992157  0.821204  0.901032  1
  Nd  Nd8  1  0.505241  0.316548  0.096470  1
  Nd  Nd9  1  0.004654  0.180998  0.403952  1
  Nd  Nd10  1  0.506765  0.317686  0.404268  1
  Nd  Nd11  1  0.006318  0.180500  0.095156  1
  Nd  Nd12  1  0.493094  0.680283  0.901193  1
  Nd  Nd13  1  0.993027  0.820945  0.599161  1
  Y  Y14  1  0.682290  0.000493  0.250239  1
  Ho  Ho15  1  0.652086  0.165773  0.628180  1
  Ho  Ho16  1  0.152411  0.336280  0.872796  1
  Ho  Ho17  1  0.818113  0.500051  0.749283  1
  Ho  Ho18  1  0.318249  0.001832  0.750972  1
  Ho  Ho19  1  0.182001  0.499360  0.249342  1
  Sn  Sn20  1  0.689146  0.965597  0.463213  1
  Sn  Sn21  1  0.190380  0.532279  0.038531  1
  Sn  Sn22  1  0.301451  0.041726  0.955312  1
  Sn  Sn23  1  0.801298  0.459017  0.544882  1
  Sn  Sn24  1  0.319358  0.038197  0.544531  1
  Sn  Sn25  1  0.818560  0.463392  0.955195  1
  Sn  Sn26  1  0.693945  0.963076  0.042191  1
  Sn  Sn27  1  0.193468  0.533711  0.455636  1
  Sn  Sn28  1  0.454389  0.383383  0.751116  1
  Sn  Sn29  1  0.955264  0.119394  0.749038  1
  Sn  Sn30  1  0.545907  0.614061  0.249288  1
  Sn  Sn31  1  0.046696  0.883187  0.250753  1
  Sn  Sn32  1  0.686478  0.853596  0.749497  1
  Sn  Sn33  1  0.186689  0.647909  0.750567  1
  Sn  Sn34  1  0.310023  0.147194  0.249529  1
  Sn  Sn35  1  0.812440  0.352493  0.250333  1
