# generated using pymatgen
data_TbSm7Sc12Si15P
_symmetry_space_group_name_H-M   'P 1'
_cell_length_a   7.16225777
_cell_length_b   7.43292916
_cell_length_c   14.07917422
_cell_angle_alpha   89.95258971
_cell_angle_beta   89.99546588
_cell_angle_gamma   90.24293560
_symmetry_Int_Tables_number   1
_chemical_formula_structural   TbSm7Sc12Si15P
_chemical_formula_sum   'Tb1 Sm7 Sc12 Si15 P1'
_cell_volume   749.51973078
_cell_formula_units_Z   1
loop_
 _symmetry_equiv_pos_site_id
 _symmetry_equiv_pos_as_xyz
  1  'x, y, z'
loop_
 _atom_site_type_symbol
 _atom_site_label
 _atom_site_symmetry_multiplicity
 _atom_site_fract_x
 _atom_site_fract_y
 _atom_site_fract_z
 _atom_site_occupancy
  Tb  Tb0  1  0.490153  0.674179  0.596892  1
  Sm  Sm1  1  0.010392  0.173723  0.097218  1
  Sm  Sm2  1  0.991437  0.828621  0.899387  1
  Sm  Sm3  1  0.490151  0.672934  0.903956  1
  Sm  Sm4  1  0.991300  0.828561  0.600100  1
  Sm  Sm5  1  0.511615  0.326199  0.096720  1
  Sm  Sm6  1  0.010828  0.173656  0.403222  1
  Sm  Sm7  1  0.511520  0.326182  0.403756  1
  Sc  Sc8  1  0.159775  0.501214  0.749763  1
  Sc  Sc9  1  0.838896  0.499026  0.249986  1
  Sc  Sc10  1  0.339543  0.000674  0.250077  1
  Sc  Sc11  1  0.661627  0.000197  0.749627  1
  Sc  Sc12  1  0.326492  0.172034  0.627785  1
  Sc  Sc13  1  0.668298  0.823804  0.375279  1
  Sc  Sc14  1  0.168716  0.676383  0.375385  1
  Sc  Sc15  1  0.668762  0.824563  0.124964  1
  Sc  Sc16  1  0.832126  0.324011  0.626599  1
  Sc  Sc17  1  0.326415  0.171588  0.871782  1
  Sc  Sc18  1  0.832072  0.323840  0.872894  1
  Sc  Sc19  1  0.168260  0.676491  0.124877  1
  Si  Si20  1  0.964802  0.879113  0.250250  1
  Si  Si21  1  0.465137  0.619726  0.250122  1
  Si  Si22  1  0.531402  0.379264  0.749336  1
  Si  Si23  1  0.300154  0.864955  0.749174  1
  Si  Si24  1  0.712850  0.121517  0.250191  1
  Si  Si25  1  0.213490  0.378477  0.250161  1
  Si  Si26  1  0.786724  0.624387  0.749109  1
  Si  Si27  1  0.156311  0.463677  0.540861  1
  Si  Si28  1  0.844789  0.537509  0.461861  1
  Si  Si29  1  0.344138  0.962719  0.461571  1
  Si  Si30  1  0.845543  0.537429  0.038310  1
  Si  Si31  1  0.655330  0.035895  0.541191  1
  Si  Si32  1  0.153810  0.462523  0.959517  1
  Si  Si33  1  0.655934  0.037670  0.959241  1
  Si  Si34  1  0.343733  0.964378  0.039031  1
  P  P35  1  0.027477  0.132882  0.749804  1
