# generated using pymatgen
data_Zr5Ni16(MoP4)3
_symmetry_space_group_name_H-M   'P 1'
_cell_length_a   12.01790000
_cell_length_b   12.01789976
_cell_length_c   3.63825500
_cell_angle_alpha   90.00000000
_cell_angle_beta   90.00000000
_cell_angle_gamma   119.99999516
_symmetry_Int_Tables_number   1
_chemical_formula_structural   Zr5Ni16(MoP4)3
_chemical_formula_sum   'Zr5 Ni16 Mo3 P12'
_cell_volume   455.07287626
_cell_formula_units_Z   1
loop_
 _symmetry_equiv_pos_site_id
 _symmetry_equiv_pos_as_xyz
  1  'x, y, z'
loop_
 _atom_site_type_symbol
 _atom_site_label
 _atom_site_symmetry_multiplicity
 _atom_site_fract_x
 _atom_site_fract_y
 _atom_site_fract_z
 _atom_site_occupancy
  Zr  Zr0  1  0.666667  0.333333  0.000000  1
  Zr  Zr1  1  0.333333  0.666667  0.000000  1
  Zr  Zr2  1  0.822043  0.822043  0.500000  1
  Zr  Zr3  1  0.177957  0.000000  0.500000  1
  Zr  Zr4  1  0.000000  0.177957  0.500000  1
  Ni  Ni5  1  0.192285  0.374269  0.000000  1
  Ni  Ni6  1  0.181984  0.807715  0.000000  1
  Ni  Ni7  1  0.818016  0.625731  0.000000  1
  Ni  Ni8  1  0.807715  0.181984  0.000000  1
  Ni  Ni9  1  0.374269  0.192285  0.000000  1
  Ni  Ni10  1  0.128437  0.481462  0.500000  1
  Ni  Ni11  1  0.353026  0.871563  0.500000  1
  Ni  Ni12  1  0.518538  0.646974  0.500000  1
  Ni  Ni13  1  0.646974  0.518538  0.500000  1
  Ni  Ni14  1  0.871563  0.353026  0.500000  1
  Ni  Ni15  1  0.481462  0.128437  0.500000  1
  Ni  Ni16  1  0.000000  0.000000  0.000000  1
  Ni  Ni17  1  0.720769  0.000000  0.500000  1
  Ni  Ni18  1  0.000000  0.720769  0.500000  1
  Ni  Ni19  1  0.625731  0.818016  0.000000  1
  Ni  Ni20  1  0.279231  0.279231  0.500000  1
  Mo  Mo21  1  0.447163  0.447163  0.000000  1
  Mo  Mo22  1  0.552837  0.000000  0.000000  1
  Mo  Mo23  1  0.000000  0.552837  0.000000  1
  P  P24  1  0.642776  0.642776  0.000000  1
  P  P25  1  0.357224  0.000000  0.000000  1
  P  P26  1  0.000000  0.357224  0.000000  1
  P  P27  1  0.483968  0.317175  0.500000  1
  P  P28  1  0.682825  0.166792  0.500000  1
  P  P29  1  0.833208  0.516032  0.500000  1
  P  P30  1  0.516032  0.833208  0.500000  1
  P  P31  1  0.166792  0.682825  0.500000  1
  P  P32  1  0.823444  0.000000  0.000000  1
  P  P33  1  0.000000  0.823444  0.000000  1
  P  P34  1  0.317175  0.483968  0.500000  1
  P  P35  1  0.176556  0.176556  0.000000  1
