# generated using pymatgen
data_CuPtF7
_symmetry_space_group_name_H-M   'P 1'
_cell_length_a   7.45565581
_cell_length_b   7.45565577
_cell_length_c   7.45565661
_cell_angle_alpha   122.49786936
_cell_angle_beta   122.69640356
_cell_angle_gamma   85.55766298
_symmetry_Int_Tables_number   1
_chemical_formula_structural   CuPtF7
_chemical_formula_sum   'Cu2 Pt2 F14'
_cell_volume   280.62564404
_cell_formula_units_Z   2
loop_
 _symmetry_equiv_pos_site_id
 _symmetry_equiv_pos_as_xyz
  1  'x, y, z'
loop_
 _atom_site_type_symbol
 _atom_site_label
 _atom_site_symmetry_multiplicity
 _atom_site_fract_x
 _atom_site_fract_y
 _atom_site_fract_z
 _atom_site_occupancy
  Cu  Cu0  1  0.500000  0.000000  0.000000  1
  Cu  Cu1  1  0.000000  0.000000  0.500000  1
  Pt  Pt2  1  0.500000  0.000000  0.500000  1
  Pt  Pt3  1  0.000000  0.500000  0.500000  1
  F  F4  1  0.250000  0.086273  0.836273  1
  F  F5  1  0.750000  0.913727  0.163727  1
  F  F6  1  0.533270  0.295087  0.761817  1
  F  F7  1  0.966730  0.728545  0.761817  1
  F  F8  1  0.070208  0.336695  0.654103  1
  F  F9  1  0.429792  0.083896  0.266487  1
  F  F10  1  0.317408  0.663305  0.733513  1
  F  F11  1  0.182592  0.916104  0.345897  1
  F  F12  1  0.929792  0.663305  0.345897  1
  F  F13  1  0.570208  0.916104  0.733513  1
  F  F14  1  0.682592  0.336695  0.266487  1
  F  F15  1  0.817408  0.083896  0.654103  1
  F  F16  1  0.033270  0.271455  0.238183  1
  F  F17  1  0.466730  0.704913  0.238183  1
