# generated using pymatgen
data_LiYb2CuN2
_symmetry_space_group_name_H-M   'P 1'
_cell_length_a   5.23776600
_cell_length_b   5.23776600
_cell_length_c   6.48047900
_cell_angle_alpha   90.00000000
_cell_angle_beta   90.00000000
_cell_angle_gamma   90.00000000
_symmetry_Int_Tables_number   1
_chemical_formula_structural   LiYb2CuN2
_chemical_formula_sum   'Li2 Yb4 Cu2 N4'
_cell_volume   177.78670948
_cell_formula_units_Z   2
loop_
 _symmetry_equiv_pos_site_id
 _symmetry_equiv_pos_as_xyz
  1  'x, y, z'
loop_
 _atom_site_type_symbol
 _atom_site_label
 _atom_site_symmetry_multiplicity
 _atom_site_fract_x
 _atom_site_fract_y
 _atom_site_fract_z
 _atom_site_occupancy
  Li  Li0  1  0.500000  0.500000  0.500000  1
  Li  Li1  1  0.000000  0.000000  0.000000  1
  Yb  Yb2  1  0.000000  0.500000  0.250000  1
  Yb  Yb3  1  0.500000  0.000000  0.750000  1
  Yb  Yb4  1  0.000000  0.500000  0.750000  1
  Yb  Yb5  1  0.500000  0.000000  0.250000  1
  Cu  Cu6  1  0.500000  0.500000  0.000000  1
  Cu  Cu7  1  0.000000  0.000000  0.500000  1
  N  N8  1  0.249852  0.750148  0.500000  1
  N  N9  1  0.750148  0.249852  0.500000  1
  N  N10  1  0.250148  0.250148  0.000000  1
  N  N11  1  0.749852  0.749852  0.000000  1
