# generated using pymatgen
data_Dy4Y2Co16MoP12W
_symmetry_space_group_name_H-M   'P 1'
_cell_length_a   3.71977100
_cell_length_b   10.56149900
_cell_length_c   12.25403100
_cell_angle_alpha   90.00000000
_cell_angle_beta   90.00000000
_cell_angle_gamma   90.00000000
_symmetry_Int_Tables_number   1
_chemical_formula_structural   Dy4Y2Co16MoP12W
_chemical_formula_sum   'Dy4 Y2 Co16 Mo1 P12 W1'
_cell_volume   481.41624509
_cell_formula_units_Z   1
loop_
 _symmetry_equiv_pos_site_id
 _symmetry_equiv_pos_as_xyz
  1  'x, y, z'
loop_
 _atom_site_type_symbol
 _atom_site_label
 _atom_site_symmetry_multiplicity
 _atom_site_fract_x
 _atom_site_fract_y
 _atom_site_fract_z
 _atom_site_occupancy
  Dy  Dy0  1  0.500000  0.819141  0.204962  1
  Dy  Dy1  1  0.500000  0.180859  0.204962  1
  Dy  Dy2  1  0.000000  0.680967  0.795144  1
  Dy  Dy3  1  0.000000  0.319033  0.795144  1
  Y  Y4  1  0.000000  0.500000  0.524423  1
  Y  Y5  1  0.500000  0.000000  0.475516  1
  Co  Co6  1  0.500000  0.500000  0.701591  1
  Co  Co7  1  0.000000  0.000000  0.298277  1
  Co  Co8  1  0.000000  0.500000  0.986809  1
  Co  Co9  1  0.500000  0.000000  0.013537  1
  Co  Co10  1  0.500000  0.332742  0.990411  1
  Co  Co11  1  0.500000  0.667258  0.990411  1
  Co  Co12  1  0.000000  0.167670  0.009804  1
  Co  Co13  1  0.000000  0.832330  0.009804  1
  Co  Co14  1  0.500000  0.295700  0.431364  1
  Co  Co15  1  0.500000  0.704300  0.431364  1
  Co  Co16  1  0.000000  0.204223  0.568619  1
  Co  Co17  1  0.000000  0.795777  0.568619  1
  Co  Co18  1  0.500000  0.878236  0.706903  1
  Co  Co19  1  0.500000  0.121764  0.706903  1
  Co  Co20  1  0.000000  0.621613  0.292428  1
  Co  Co21  1  0.000000  0.378387  0.292428  1
  Mo  Mo22  1  0.000000  0.000000  0.844039  1
  P  P23  1  0.500000  0.500000  0.880784  1
  P  P24  1  0.000000  0.000000  0.118644  1
  P  P25  1  0.500000  0.500000  0.349517  1
  P  P26  1  0.000000  0.000000  0.651146  1
  P  P27  1  0.500000  0.311025  0.616043  1
  P  P28  1  0.500000  0.688975  0.616043  1
  P  P29  1  0.000000  0.189028  0.384041  1
  P  P30  1  0.000000  0.810972  0.384041  1
  P  P31  1  0.500000  0.844725  0.893088  1
  P  P32  1  0.500000  0.155275  0.893088  1
  P  P33  1  0.000000  0.655587  0.106978  1
  P  P34  1  0.000000  0.344413  0.106978  1
  W  W35  1  0.500000  0.500000  0.156145  1
