# generated using pymatgen
data_Tm2ThCo6Ni5B4
_symmetry_space_group_name_H-M   'P 1'
_cell_length_a   4.98388879
_cell_length_b   4.99039307
_cell_length_c   9.89111400
_cell_angle_alpha   90.00000000
_cell_angle_beta   90.00000000
_cell_angle_gamma   119.89194015
_symmetry_Int_Tables_number   1
_chemical_formula_structural   Tm2ThCo6Ni5B4
_chemical_formula_sum   'Tm2 Th1 Co6 Ni5 B4'
_cell_volume   213.28032945
_cell_formula_units_Z   1
loop_
 _symmetry_equiv_pos_site_id
 _symmetry_equiv_pos_as_xyz
  1  'x, y, z'
loop_
 _atom_site_type_symbol
 _atom_site_label
 _atom_site_symmetry_multiplicity
 _atom_site_fract_x
 _atom_site_fract_y
 _atom_site_fract_z
 _atom_site_occupancy
  Tm  Tm0  1  0.000000  0.000000  0.653833  1
  Tm  Tm1  1  0.000000  0.000000  0.345958  1
  Th  Th2  1  0.000000  0.000000  0.002887  1
  Co  Co3  1  0.500000  0.500000  0.500608  1
  Co  Co4  1  0.500000  0.000000  0.500309  1
  Co  Co5  1  0.000000  0.500000  0.499437  1
  Co  Co6  1  0.500000  0.000000  0.789186  1
  Co  Co7  1  0.500000  0.000000  0.209299  1
  Co  Co8  1  0.000000  0.500000  0.208257  1
  Ni  Ni9  1  0.665060  0.323373  0.000152  1
  Ni  Ni10  1  0.334940  0.676627  0.000152  1
  Ni  Ni11  1  0.500000  0.500000  0.793557  1
  Ni  Ni12  1  0.000000  0.500000  0.793287  1
  Ni  Ni13  1  0.500000  0.500000  0.205670  1
  B  B14  1  0.666794  0.331907  0.647881  1
  B  B15  1  0.333206  0.668093  0.647881  1
  B  B16  1  0.331376  0.666836  0.350823  1
  B  B17  1  0.668624  0.333164  0.350823  1
