# generated using pymatgen
data_Co6GeMoW5
_symmetry_space_group_name_H-M   'P 1'
_cell_length_a   8.96924140
_cell_length_b   8.96924150
_cell_length_c   8.96924179
_cell_angle_alpha   31.00770574
_cell_angle_beta   31.00770796
_cell_angle_gamma   31.00770447
_symmetry_Int_Tables_number   1
_chemical_formula_structural   Co6GeMoW5
_chemical_formula_sum   'Co6 Ge1 Mo1 W5'
_cell_volume   169.87364590
_cell_formula_units_Z   1
loop_
 _symmetry_equiv_pos_site_id
 _symmetry_equiv_pos_as_xyz
  1  'x, y, z'
loop_
 _atom_site_type_symbol
 _atom_site_label
 _atom_site_symmetry_multiplicity
 _atom_site_fract_x
 _atom_site_fract_y
 _atom_site_fract_z
 _atom_site_occupancy
  Co  Co0  1  0.090640  0.090640  0.584587  1
  Co  Co1  1  0.415121  0.909569  0.909569  1
  Co  Co2  1  0.584587  0.090640  0.090640  1
  Co  Co3  1  0.909569  0.909569  0.415121  1
  Co  Co4  1  0.909569  0.415121  0.909569  1
  Co  Co5  1  0.090640  0.584587  0.090640  1
  Ge  Ge6  1  0.000184  0.000184  0.000184  1
  Mo  Mo7  1  0.347144  0.347144  0.347144  1
  W  W8  1  0.832034  0.832034  0.832034  1
  W  W9  1  0.652831  0.652831  0.652831  1
  W  W10  1  0.450117  0.450117  0.450117  1
  W  W11  1  0.549568  0.549568  0.549568  1
  W  W12  1  0.167997  0.167997  0.167997  1
