# generated using pymatgen
data_CeY5(Ni3P2)6
_symmetry_space_group_name_H-M   'P 1'
_cell_length_a   3.79086800
_cell_length_b   10.50034300
_cell_length_c   12.33214600
_cell_angle_alpha   90.00000000
_cell_angle_beta   90.00115627
_cell_angle_gamma   90.00000000
_symmetry_Int_Tables_number   1
_chemical_formula_structural   CeY5(Ni3P2)6
_chemical_formula_sum   'Ce1 Y5 Ni18 P12'
_cell_volume   490.88618029
_cell_formula_units_Z   1
loop_
 _symmetry_equiv_pos_site_id
 _symmetry_equiv_pos_as_xyz
  1  'x, y, z'
loop_
 _atom_site_type_symbol
 _atom_site_label
 _atom_site_symmetry_multiplicity
 _atom_site_fract_x
 _atom_site_fract_y
 _atom_site_fract_z
 _atom_site_occupancy
  Ce  Ce0  1  0.751867  0.000000  0.477608  1
  Y  Y1  1  0.251850  0.500000  0.520720  1
  Y  Y2  1  0.251819  0.683939  0.794100  1
  Y  Y3  1  0.251819  0.316061  0.794100  1
  Y  Y4  1  0.751822  0.815588  0.205137  1
  Y  Y5  1  0.751822  0.184412  0.205137  1
  Ni  Ni6  1  0.751911  0.000000  0.016258  1
  Ni  Ni7  1  0.251906  0.500000  0.983388  1
  Ni  Ni8  1  0.251921  0.199104  0.572009  1
  Ni  Ni9  1  0.251921  0.800896  0.572009  1
  Ni  Ni10  1  0.751933  0.302080  0.428052  1
  Ni  Ni11  1  0.751933  0.697920  0.428052  1
  Ni  Ni12  1  0.251820  0.619981  0.288052  1
  Ni  Ni13  1  0.251820  0.380019  0.288052  1
  Ni  Ni14  1  0.751843  0.879487  0.711732  1
  Ni  Ni15  1  0.751843  0.120513  0.711732  1
  Ni  Ni16  1  0.251894  0.167112  0.004634  1
  Ni  Ni17  1  0.251894  0.832888  0.004634  1
  Ni  Ni18  1  0.751896  0.333049  0.995651  1
  Ni  Ni19  1  0.751896  0.666951  0.995651  1
  Ni  Ni20  1  0.251335  0.000000  0.842986  1
  Ni  Ni21  1  0.751332  0.500000  0.157496  1
  Ni  Ni22  1  0.251891  0.000000  0.301283  1
  Ni  Ni23  1  0.751874  0.500000  0.699541  1
  P  P24  1  0.251869  0.190339  0.385581  1
  P  P25  1  0.251869  0.809661  0.385581  1
  P  P26  1  0.751853  0.312965  0.613890  1
  P  P27  1  0.751853  0.687035  0.613890  1
  P  P28  1  0.251845  0.000000  0.123882  1
  P  P29  1  0.751816  0.500000  0.876507  1
  P  P30  1  0.251760  0.651527  0.106672  1
  P  P31  1  0.251760  0.348473  0.106672  1
  P  P32  1  0.751761  0.848133  0.893554  1
  P  P33  1  0.751761  0.151867  0.893554  1
  P  P34  1  0.251810  0.000000  0.659113  1
  P  P35  1  0.751788  0.500000  0.343091  1
