# generated using pymatgen
data_Hf9Re4Au
_symmetry_space_group_name_H-M   'P 1'
_cell_length_a   8.71227200
_cell_length_b   8.71227261
_cell_length_c   8.57198900
_cell_angle_alpha   90.00000000
_cell_angle_beta   90.00000000
_cell_angle_gamma   120.00000529
_symmetry_Int_Tables_number   1
_chemical_formula_structural   Hf9Re4Au
_chemical_formula_sum   'Hf18 Re8 Au2'
_cell_volume   563.47557500
_cell_formula_units_Z   2
loop_
 _symmetry_equiv_pos_site_id
 _symmetry_equiv_pos_as_xyz
  1  'x, y, z'
loop_
 _atom_site_type_symbol
 _atom_site_label
 _atom_site_symmetry_multiplicity
 _atom_site_fract_x
 _atom_site_fract_y
 _atom_site_fract_z
 _atom_site_occupancy
  Hf  Hf0  1  0.192489  0.807511  0.452126  1
  Hf  Hf1  1  0.192489  0.384979  0.452126  1
  Hf  Hf2  1  0.615021  0.807511  0.452126  1
  Hf  Hf3  1  0.807511  0.192489  0.547874  1
  Hf  Hf4  1  0.807511  0.615021  0.547874  1
  Hf  Hf5  1  0.384979  0.192489  0.547874  1
  Hf  Hf6  1  0.807511  0.192489  0.952126  1
  Hf  Hf7  1  0.807511  0.615021  0.952126  1
  Hf  Hf8  1  0.384979  0.192489  0.952126  1
  Hf  Hf9  1  0.192489  0.807511  0.047874  1
  Hf  Hf10  1  0.192489  0.384979  0.047874  1
  Hf  Hf11  1  0.615021  0.807511  0.047874  1
  Hf  Hf12  1  0.541328  0.458672  0.250000  1
  Hf  Hf13  1  0.541328  0.082654  0.250000  1
  Hf  Hf14  1  0.917346  0.458672  0.250000  1
  Hf  Hf15  1  0.458672  0.541328  0.750000  1
  Hf  Hf16  1  0.458672  0.917346  0.750000  1
  Hf  Hf17  1  0.082654  0.541328  0.750000  1
  Re  Re18  1  0.890196  0.109804  0.250000  1
  Re  Re19  1  0.890196  0.780391  0.250000  1
  Re  Re20  1  0.219609  0.109804  0.250000  1
  Re  Re21  1  0.109804  0.890196  0.750000  1
  Re  Re22  1  0.109804  0.219609  0.750000  1
  Re  Re23  1  0.780391  0.890196  0.750000  1
  Re  Re24  1  0.000000  0.000000  0.500000  1
  Re  Re25  1  0.000000  0.000000  0.000000  1
  Au  Au26  1  0.333333  0.666667  0.250000  1
  Au  Au27  1  0.666667  0.333333  0.750000  1
