# generated using pymatgen
data_Sm6Ga4Pd2Pt11
_symmetry_space_group_name_H-M   'P 1'
_cell_length_a   8.34594839
_cell_length_b   8.34594732
_cell_length_c   8.34535200
_cell_angle_alpha   109.43003827
_cell_angle_beta   109.43002112
_cell_angle_gamma   109.54077686
_symmetry_Int_Tables_number   1
_chemical_formula_structural   Sm6Ga4Pd2Pt11
_chemical_formula_sum   'Sm6 Ga4 Pd2 Pt11'
_cell_volume   447.55088508
_cell_formula_units_Z   1
loop_
 _symmetry_equiv_pos_site_id
 _symmetry_equiv_pos_as_xyz
  1  'x, y, z'
loop_
 _atom_site_type_symbol
 _atom_site_label
 _atom_site_symmetry_multiplicity
 _atom_site_fract_x
 _atom_site_fract_y
 _atom_site_fract_z
 _atom_site_occupancy
  Sm  Sm0  1  0.698572  0.698572  0.002308  1
  Sm  Sm1  1  0.299356  0.999745  0.299471  1
  Sm  Sm2  1  0.999745  0.299356  0.299471  1
  Sm  Sm3  1  0.300400  0.300400  0.999825  1
  Sm  Sm4  1  0.700541  0.000733  0.699180  1
  Sm  Sm5  1  0.000733  0.700541  0.699180  1
  Ga  Ga6  1  0.000443  0.000443  0.500183  1
  Ga  Ga7  1  0.999248  0.499655  0.999114  1
  Ga  Ga8  1  0.499655  0.999248  0.999114  1
  Ga  Ga9  1  0.499700  0.499700  0.500768  1
  Pd  Pd10  1  0.675310  0.349761  0.675040  1
  Pd  Pd11  1  0.349761  0.675310  0.675040  1
  Pt  Pt12  1  0.323383  0.323383  0.643015  1
  Pt  Pt13  1  0.679150  0.002160  0.323411  1
  Pt  Pt14  1  0.002160  0.679150  0.323411  1
  Pt  Pt15  1  0.680240  0.322884  0.000749  1
  Pt  Pt16  1  0.322793  0.643479  0.322440  1
  Pt  Pt17  1  0.002004  0.324194  0.679768  1
  Pt  Pt18  1  0.322884  0.680240  0.000749  1
  Pt  Pt19  1  0.324194  0.002004  0.679768  1
  Pt  Pt20  1  0.643479  0.322793  0.322440  1
  Pt  Pt21  1  0.679208  0.679208  0.357452  1
  Pt  Pt22  1  0.997042  0.997042  0.998104  1
