# generated using pymatgen
data_Be12Co5CuIr6
_symmetry_space_group_name_H-M   'P 1'
_cell_length_a   3.83750000
_cell_length_b   5.42367900
_cell_length_c   11.48757600
_cell_angle_alpha   89.99997946
_cell_angle_beta   89.99973595
_cell_angle_gamma   90.00000000
_symmetry_Int_Tables_number   1
_chemical_formula_structural   Be12Co5CuIr6
_chemical_formula_sum   'Be12 Co5 Cu1 Ir6'
_cell_volume   239.09514858
_cell_formula_units_Z   1
loop_
 _symmetry_equiv_pos_site_id
 _symmetry_equiv_pos_as_xyz
  1  'x, y, z'
loop_
 _atom_site_type_symbol
 _atom_site_label
 _atom_site_symmetry_multiplicity
 _atom_site_fract_x
 _atom_site_fract_y
 _atom_site_fract_z
 _atom_site_occupancy
  Be  Be0  1  0.499993  0.241588  0.004723  1
  Be  Be1  1  0.499993  0.758412  0.004722  1
  Be  Be2  1  0.000116  0.251354  0.165260  1
  Be  Be3  1  0.000116  0.748646  0.165260  1
  Be  Be4  1  0.500146  0.257474  0.333350  1
  Be  Be5  1  0.500146  0.742526  0.333351  1
  Be  Be6  1  0.000000  0.251433  0.501398  1
  Be  Be7  1  0.000000  0.748567  0.501397  1
  Be  Be8  1  0.499876  0.241622  0.661930  1
  Be  Be9  1  0.499876  0.758378  0.661930  1
  Be  Be10  1  0.999881  0.236304  0.833331  1
  Be  Be11  1  0.999881  0.763696  0.833332  1
  Co  Co12  1  0.999982  0.000001  0.001023  1
  Co  Co13  1  0.500086  0.500000  0.165941  1
  Co  Co14  1  0.000114  0.000001  0.333336  1
  Co  Co15  1  0.500005  0.500000  0.500743  1
  Co  Co16  1  0.999895  0.000000  0.665638  1
  Cu  Cu17  1  0.499895  0.500000  0.833335  1
  Ir  Ir18  1  0.999989  0.500000  0.997715  1
  Ir  Ir19  1  0.500088  0.000001  0.170731  1
  Ir  Ir20  1  0.000127  0.500000  0.333331  1
  Ir  Ir21  1  0.500001  0.000000  0.495943  1
  Ir  Ir22  1  0.999899  0.500000  0.668953  1
  Ir  Ir23  1  0.499897  0.000000  0.833325  1
