# generated using pymatgen
data_NdSm(SiRh2)2
_symmetry_space_group_name_H-M   'P 1'
_cell_length_a   9.12412555
_cell_length_b   9.12412527
_cell_length_c   4.14772400
_cell_angle_alpha   90.00000000
_cell_angle_beta   90.00000000
_cell_angle_gamma   154.62555736
_symmetry_Int_Tables_number   1
_chemical_formula_structural   NdSm(SiRh2)2
_chemical_formula_sum   'Nd1 Sm1 Si2 Rh4'
_cell_volume   147.97070753
_cell_formula_units_Z   1
loop_
 _symmetry_equiv_pos_site_id
 _symmetry_equiv_pos_as_xyz
  1  'x, y, z'
loop_
 _atom_site_type_symbol
 _atom_site_label
 _atom_site_symmetry_multiplicity
 _atom_site_fract_x
 _atom_site_fract_y
 _atom_site_fract_z
 _atom_site_occupancy
  Nd  Nd0  1  0.902487  0.097513  0.250000  1
  Sm  Sm1  1  0.099132  0.900868  0.750000  1
  Si  Si2  1  0.321056  0.678944  0.750000  1
  Si  Si3  1  0.678073  0.321927  0.250000  1
  Rh  Rh4  1  0.546695  0.453305  0.250000  1
  Rh  Rh5  1  0.453676  0.546324  0.750000  1
  Rh  Rh6  1  0.249636  0.750364  0.250000  1
  Rh  Rh7  1  0.749246  0.250754  0.750000  1
