# generated using pymatgen
data_Nd2Si7Pd12
_symmetry_space_group_name_H-M   'P 1'
_cell_length_a   10.01251600
_cell_length_b   10.01251495
_cell_length_c   3.93456500
_cell_angle_alpha   90.00000000
_cell_angle_beta   90.00000000
_cell_angle_gamma   120.00000347
_symmetry_Int_Tables_number   1
_chemical_formula_structural   Nd2Si7Pd12
_chemical_formula_sum   'Nd2 Si7 Pd12'
_cell_volume   341.59675901
_cell_formula_units_Z   1
loop_
 _symmetry_equiv_pos_site_id
 _symmetry_equiv_pos_as_xyz
  1  'x, y, z'
loop_
 _atom_site_type_symbol
 _atom_site_label
 _atom_site_symmetry_multiplicity
 _atom_site_fract_x
 _atom_site_fract_y
 _atom_site_fract_z
 _atom_site_occupancy
  Nd  Nd0  1  0.666667  0.333333  0.248622  1
  Nd  Nd1  1  0.000000  0.000000  0.749648  1
  Si  Si2  1  0.333333  0.666667  0.468731  1
  Si  Si3  1  0.737721  0.782175  0.249719  1
  Si  Si4  1  0.044454  0.262279  0.249719  1
  Si  Si5  1  0.217825  0.955546  0.249719  1
  Si  Si6  1  0.928638  0.551789  0.748630  1
  Si  Si7  1  0.623151  0.071362  0.748630  1
  Si  Si8  1  0.448211  0.376849  0.748630  1
  Pd  Pd9  1  0.773853  0.046853  0.248000  1
  Pd  Pd10  1  0.273000  0.226147  0.248000  1
  Pd  Pd11  1  0.953147  0.727000  0.248000  1
  Pd  Pd12  1  0.893679  0.285714  0.750440  1
  Pd  Pd13  1  0.392035  0.106321  0.750440  1
  Pd  Pd14  1  0.714286  0.607965  0.750440  1
  Pd  Pd15  1  0.480701  0.553903  0.249703  1
  Pd  Pd16  1  0.073201  0.519299  0.249703  1
  Pd  Pd17  1  0.446097  0.926799  0.249703  1
  Pd  Pd18  1  0.188863  0.775975  0.748346  1
  Pd  Pd19  1  0.587112  0.811137  0.748346  1
  Pd  Pd20  1  0.224025  0.412888  0.748346  1
