# generated using pymatgen
data_Th3In3CoRh2
_symmetry_space_group_name_H-M   'P 1'
_cell_length_a   7.61935900
_cell_length_b   7.61935836
_cell_length_c   4.02185100
_cell_angle_alpha   90.00000000
_cell_angle_beta   90.00000000
_cell_angle_gamma   119.99999845
_symmetry_Int_Tables_number   1
_chemical_formula_structural   Th3In3CoRh2
_chemical_formula_sum   'Th3 In3 Co1 Rh2'
_cell_volume   202.20572711
_cell_formula_units_Z   1
loop_
 _symmetry_equiv_pos_site_id
 _symmetry_equiv_pos_as_xyz
  1  'x, y, z'
loop_
 _atom_site_type_symbol
 _atom_site_label
 _atom_site_symmetry_multiplicity
 _atom_site_fract_x
 _atom_site_fract_y
 _atom_site_fract_z
 _atom_site_occupancy
  Th  Th0  1  0.409258  0.409258  0.500000  1
  Th  Th1  1  0.590742  0.000000  0.500000  1
  Th  Th2  1  0.000000  0.590742  0.500000  1
  In  In3  1  0.758463  0.758463  0.000000  1
  In  In4  1  0.241537  0.000000  0.000000  1
  In  In5  1  0.000000  0.241537  0.000000  1
  Co  Co6  1  0.000000  0.000000  0.500000  1
  Rh  Rh7  1  0.666667  0.333333  0.000000  1
  Rh  Rh8  1  0.333333  0.666667  0.000000  1
