# generated using pymatgen
data_Tb5Y(Si3Ru)8
_symmetry_space_group_name_H-M   'P 1'
_cell_length_a   10.11494335
_cell_length_b   10.11494392
_cell_length_c   8.15026100
_cell_angle_alpha   89.99992151
_cell_angle_beta   89.99991812
_cell_angle_gamma   132.49545128
_symmetry_Int_Tables_number   1
_chemical_formula_structural   Tb5Y(Si3Ru)8
_chemical_formula_sum   'Tb5 Y1 Si24 Ru8'
_cell_volume   614.83831895
_cell_formula_units_Z   1
loop_
 _symmetry_equiv_pos_site_id
 _symmetry_equiv_pos_as_xyz
  1  'x, y, z'
loop_
 _atom_site_type_symbol
 _atom_site_label
 _atom_site_symmetry_multiplicity
 _atom_site_fract_x
 _atom_site_fract_y
 _atom_site_fract_z
 _atom_site_occupancy
  Tb  Tb0  1  0.000000  0.000000  0.000000  1
  Tb  Tb1  1  0.502776  0.002812  0.750038  1
  Tb  Tb2  1  0.997188  0.497224  0.249962  1
  Tb  Tb3  1  0.497224  0.997188  0.249962  1
  Tb  Tb4  1  0.002812  0.502776  0.750038  1
  Y  Y5  1  0.500000  0.500000  0.500000  1
  Si  Si6  1  0.794858  0.205142  0.500000  1
  Si  Si7  1  0.294840  0.705160  0.000000  1
  Si  Si8  1  0.205142  0.794858  0.500000  1
  Si  Si9  1  0.705160  0.294840  0.000000  1
  Si  Si10  1  0.333003  0.333003  0.833269  1
  Si  Si11  1  0.666997  0.666997  0.166731  1
  Si  Si12  1  0.167012  0.167012  0.333247  1
  Si  Si13  1  0.832988  0.832988  0.666753  1
  Si  Si14  1  0.122652  0.888248  0.728545  1
  Si  Si15  1  0.111752  0.877348  0.271455  1
  Si  Si16  1  0.611840  0.377400  0.228535  1
  Si  Si17  1  0.622600  0.388160  0.771465  1
  Si  Si18  1  0.877348  0.111752  0.271455  1
  Si  Si19  1  0.888248  0.122652  0.728545  1
  Si  Si20  1  0.388160  0.622600  0.771465  1
  Si  Si21  1  0.377400  0.611840  0.228535  1
  Si  Si22  1  0.345759  0.111880  0.505852  1
  Si  Si23  1  0.888120  0.654241  0.494148  1
  Si  Si24  1  0.388235  0.154330  0.005727  1
  Si  Si25  1  0.845670  0.611765  0.994273  1
  Si  Si26  1  0.654241  0.888120  0.494148  1
  Si  Si27  1  0.111880  0.345759  0.505852  1
  Si  Si28  1  0.611765  0.845670  0.994273  1
  Si  Si29  1  0.154330  0.388235  0.005727  1
  Ru  Ru30  1  0.668871  0.331129  0.500000  1
  Ru  Ru31  1  0.168963  0.831037  0.000000  1
  Ru  Ru32  1  0.331129  0.668871  0.500000  1
  Ru  Ru33  1  0.831037  0.168963  0.000000  1
  Ru  Ru34  1  0.126749  0.126749  0.626912  1
  Ru  Ru35  1  0.873251  0.873251  0.373088  1
  Ru  Ru36  1  0.373589  0.373589  0.127324  1
  Ru  Ru37  1  0.626411  0.626411  0.872676  1
