# generated using pymatgen
data_MnCr4Fe(CoP2)2
_symmetry_space_group_name_H-M   'P 1'
_cell_length_a   3.54063400
_cell_length_b   5.74276469
_cell_length_c   6.61488426
_cell_angle_alpha   89.15887559
_cell_angle_beta   90.00000000
_cell_angle_gamma   90.00000000
_symmetry_Int_Tables_number   1
_chemical_formula_structural   MnCr4Fe(CoP2)2
_chemical_formula_sum   'Mn1 Cr4 Fe1 Co2 P4'
_cell_volume   134.48613308
_cell_formula_units_Z   1
loop_
 _symmetry_equiv_pos_site_id
 _symmetry_equiv_pos_as_xyz
  1  'x, y, z'
loop_
 _atom_site_type_symbol
 _atom_site_label
 _atom_site_symmetry_multiplicity
 _atom_site_fract_x
 _atom_site_fract_y
 _atom_site_fract_z
 _atom_site_occupancy
  Mn  Mn0  1  0.750000  0.642917  0.561064  1
  Cr  Cr1  1  0.750000  0.524039  0.176668  1
  Cr  Cr2  1  0.750000  0.024600  0.333470  1
  Cr  Cr3  1  0.250000  0.480783  0.822843  1
  Cr  Cr4  1  0.250000  0.971311  0.666875  1
  Fe  Fe5  1  0.250000  0.353776  0.437696  1
  Co  Co6  1  0.750000  0.143575  0.937528  1
  Co  Co7  1  0.250000  0.858928  0.064186  1
  P  P8  1  0.750000  0.261593  0.623368  1
  P  P9  1  0.750000  0.763464  0.878299  1
  P  P10  1  0.250000  0.735358  0.375274  1
  P  P11  1  0.250000  0.239657  0.122728  1
