# generated using pymatgen
data_Nb4Fe2Si3Ni2Ge
_symmetry_space_group_name_H-M   'P 1'
_cell_length_a   3.69512300
_cell_length_b   6.29406840
_cell_length_c   7.13050411
_cell_angle_alpha   90.80967076
_cell_angle_beta   90.00000000
_cell_angle_gamma   90.00000000
_symmetry_Int_Tables_number   1
_chemical_formula_structural   Nb4Fe2Si3Ni2Ge
_chemical_formula_sum   'Nb4 Fe2 Si3 Ni2 Ge1'
_cell_volume   165.82012066
_cell_formula_units_Z   1
loop_
 _symmetry_equiv_pos_site_id
 _symmetry_equiv_pos_as_xyz
  1  'x, y, z'
loop_
 _atom_site_type_symbol
 _atom_site_label
 _atom_site_symmetry_multiplicity
 _atom_site_fract_x
 _atom_site_fract_y
 _atom_site_fract_z
 _atom_site_occupancy
  Nb  Nb0  1  0.250000  0.521200  0.174572  1
  Nb  Nb1  1  0.750000  0.471202  0.826673  1
  Nb  Nb2  1  0.750000  0.986325  0.684579  1
  Nb  Nb3  1  0.250000  0.017049  0.314377  1
  Fe  Fe4  1  0.750000  0.861267  0.070654  1
  Fe  Fe5  1  0.250000  0.148257  0.937259  1
  Si  Si6  1  0.750000  0.224392  0.118161  1
  Si  Si7  1  0.750000  0.727804  0.379956  1
  Si  Si8  1  0.250000  0.273043  0.620128  1
  Ni  Ni9  1  0.250000  0.638751  0.555617  1
  Ni  Ni10  1  0.750000  0.357071  0.437915  1
  Ge  Ge11  1  0.250000  0.773642  0.880108  1
