# generated using pymatgen
data_CaLa11Pr4(CdIr)4
_symmetry_space_group_name_H-M   'P 1'
_cell_length_a   10.11413168
_cell_length_b   10.11124322
_cell_length_c   10.11188218
_cell_angle_alpha   59.99394782
_cell_angle_beta   60.10550879
_cell_angle_gamma   60.10682998
_symmetry_Int_Tables_number   1
_chemical_formula_structural   CaLa11Pr4(CdIr)4
_chemical_formula_sum   'Ca1 La11 Pr4 Cd4 Ir4'
_cell_volume   732.36116104
_cell_formula_units_Z   1
loop_
 _symmetry_equiv_pos_site_id
 _symmetry_equiv_pos_as_xyz
  1  'x, y, z'
loop_
 _atom_site_type_symbol
 _atom_site_label
 _atom_site_symmetry_multiplicity
 _atom_site_fract_x
 _atom_site_fract_y
 _atom_site_fract_z
 _atom_site_occupancy
  Ca  Ca0  1  0.562299  0.937767  0.937834  1
  La  La1  1  0.345969  0.346347  0.346353  1
  La  La2  1  0.346813  0.347726  0.958796  1
  La  La3  1  0.346780  0.958887  0.347718  1
  La  La4  1  0.959224  0.346111  0.346118  1
  La  La5  1  0.809862  0.189960  0.190016  1
  La  La6  1  0.192343  0.807998  0.807983  1
  La  La7  1  0.192591  0.809222  0.188914  1
  La  La8  1  0.808230  0.190327  0.808118  1
  La  La9  1  0.192576  0.188937  0.809178  1
  La  La10  1  0.808255  0.808158  0.190314  1
  La  La11  1  0.938986  0.561889  0.561925  1
  Pr  Pr12  1  0.563061  0.938049  0.563442  1
  Pr  Pr13  1  0.935965  0.563105  0.938224  1
  Pr  Pr14  1  0.563055  0.563429  0.938082  1
  Pr  Pr15  1  0.935966  0.938199  0.563118  1
  Cd  Cd16  1  0.579296  0.579564  0.579553  1
  Cd  Cd17  1  0.580450  0.579271  0.260016  1
  Cd  Cd18  1  0.580443  0.260009  0.579269  1
  Cd  Cd19  1  0.260460  0.580019  0.580008  1
  Ir  Ir20  1  0.139379  0.141513  0.141489  1
  Ir  Ir21  1  0.140021  0.142686  0.578782  1
  Ir  Ir22  1  0.140012  0.578789  0.142681  1
  Ir  Ir23  1  0.577960  0.142037  0.142071  1
