# generated using pymatgen
data_Ce2UCo2Si7
_symmetry_space_group_name_H-M   'P 1'
_cell_length_a   4.03293474
_cell_length_b   4.07573800
_cell_length_c   12.47554046
_cell_angle_alpha   90.00000000
_cell_angle_beta   99.30174058
_cell_angle_gamma   90.00000000
_symmetry_Int_Tables_number   1
_chemical_formula_structural   Ce2UCo2Si7
_chemical_formula_sum   'Ce2 U1 Co2 Si7'
_cell_volume   202.36636101
_cell_formula_units_Z   1
loop_
 _symmetry_equiv_pos_site_id
 _symmetry_equiv_pos_as_xyz
  1  'x, y, z'
loop_
 _atom_site_type_symbol
 _atom_site_label
 _atom_site_symmetry_multiplicity
 _atom_site_fract_x
 _atom_site_fract_y
 _atom_site_fract_z
 _atom_site_occupancy
  Ce  Ce0  1  0.317308  0.000000  0.634617  1
  Ce  Ce1  1  0.682692  0.000000  0.365383  1
  U  U2  1  0.000000  0.500000  0.000000  1
  Co  Co3  1  0.126879  0.500000  0.253758  1
  Co  Co4  1  0.873121  0.500000  0.746242  1
  Si  Si5  1  0.500000  0.000000  0.000000  1
  Si  Si6  1  0.414920  0.500000  0.829839  1
  Si  Si7  1  0.585080  0.500000  0.170161  1
  Si  Si8  1  0.085514  0.000000  0.171028  1
  Si  Si9  1  0.914486  0.000000  0.828972  1
  Si  Si10  1  0.221468  0.500000  0.442937  1
  Si  Si11  1  0.778532  0.500000  0.557063  1
