# generated using pymatgen
data_MgBi2Pt4PbO14
_symmetry_space_group_name_H-M   'P 1'
_cell_length_a   7.39064068
_cell_length_b   7.28630263
_cell_length_c   7.39064093
_cell_angle_alpha   59.20991811
_cell_angle_beta   59.24162227
_cell_angle_gamma   59.20991701
_symmetry_Int_Tables_number   1
_chemical_formula_structural   MgBi2Pt4PbO14
_chemical_formula_sum   'Mg1 Bi2 Pt4 Pb1 O14'
_cell_volume   276.42339839
_cell_formula_units_Z   1
loop_
 _symmetry_equiv_pos_site_id
 _symmetry_equiv_pos_as_xyz
  1  'x, y, z'
loop_
 _atom_site_type_symbol
 _atom_site_label
 _atom_site_symmetry_multiplicity
 _atom_site_fract_x
 _atom_site_fract_y
 _atom_site_fract_z
 _atom_site_occupancy
  Mg  Mg0  1  0.125000  0.625000  0.125000  1
  Bi  Bi1  1  0.125000  0.125000  0.625000  1
  Bi  Bi2  1  0.625000  0.125000  0.125000  1
  Pt  Pt3  1  0.625000  0.625000  0.125000  1
  Pt  Pt4  1  0.625000  0.125000  0.625000  1
  Pt  Pt5  1  0.125000  0.625000  0.625000  1
  Pt  Pt6  1  0.625000  0.625000  0.625000  1
  Pb  Pb7  1  0.125000  0.125000  0.125000  1
  O  O8  1  0.232479  0.276061  0.232479  1
  O  O9  1  0.017521  0.973939  0.017521  1
  O  O10  1  0.539153  0.963082  0.539153  1
  O  O11  1  0.290451  0.708149  0.290451  1
  O  O12  1  0.531710  0.545384  0.962801  1
  O  O13  1  0.962801  0.545384  0.531710  1
  O  O14  1  0.536838  0.961974  0.960139  1
  O  O15  1  0.960139  0.961974  0.536838  1
  O  O16  1  0.959549  0.541851  0.959549  1
  O  O17  1  0.713162  0.288026  0.289861  1
  O  O18  1  0.287199  0.704616  0.718290  1
  O  O19  1  0.710847  0.286918  0.710847  1
  O  O20  1  0.289861  0.288026  0.713162  1
  O  O21  1  0.718290  0.704616  0.287199  1
