# generated using pymatgen
data_Tb4Ho5ErIr4
_symmetry_space_group_name_H-M   'P 1'
_cell_length_a   6.47566301
_cell_length_b   7.19381307
_cell_length_c   8.51180700
_cell_angle_alpha   96.69276279
_cell_angle_beta   112.35801970
_cell_angle_gamma   89.99999877
_symmetry_Int_Tables_number   1
_chemical_formula_structural   Tb4Ho5ErIr4
_chemical_formula_sum   'Tb4 Ho5 Er1 Ir4'
_cell_volume   363.78818025
_cell_formula_units_Z   1
loop_
 _symmetry_equiv_pos_site_id
 _symmetry_equiv_pos_as_xyz
  1  'x, y, z'
loop_
 _atom_site_type_symbol
 _atom_site_label
 _atom_site_symmetry_multiplicity
 _atom_site_fract_x
 _atom_site_fract_y
 _atom_site_fract_z
 _atom_site_occupancy
  Tb  Tb0  1  0.971627  0.919108  0.184435  1
  Tb  Tb1  1  0.787191  0.580892  0.815565  1
  Tb  Tb2  1  0.028145  0.081341  0.815739  1
  Tb  Tb3  1  0.212408  0.418659  0.184261  1
  Ho  Ho4  1  0.651621  0.817077  0.440769  1
  Ho  Ho5  1  0.210852  0.682923  0.559231  1
  Ho  Ho6  1  0.348875  0.183152  0.559857  1
  Ho  Ho7  1  0.789018  0.316848  0.440143  1
  Ho  Ho8  1  0.427330  0.750000  0.000000  1
  Er  Er9  1  0.572255  0.250000  0.000000  1
  Ir  Ir10  1  0.822666  0.573296  0.221274  1
  Ir  Ir11  1  0.601392  0.926704  0.778726  1
  Ir  Ir12  1  0.177694  0.426474  0.778765  1
  Ir  Ir13  1  0.398927  0.073526  0.221235  1
