# generated using pymatgen
data_Ce6Co4CuSi4Rh
_symmetry_space_group_name_H-M   'P 1'
_cell_length_a   6.12261849
_cell_length_b   7.49174504
_cell_length_c   13.14032300
_cell_angle_alpha   90.00000000
_cell_angle_beta   90.00000000
_cell_angle_gamma   90.01684638
_symmetry_Int_Tables_number   1
_chemical_formula_structural   Ce6Co4CuSi4Rh
_chemical_formula_sum   'Ce12 Co8 Cu2 Si8 Rh2'
_cell_volume   602.73472075
_cell_formula_units_Z   2
loop_
 _symmetry_equiv_pos_site_id
 _symmetry_equiv_pos_as_xyz
  1  'x, y, z'
loop_
 _atom_site_type_symbol
 _atom_site_label
 _atom_site_symmetry_multiplicity
 _atom_site_fract_x
 _atom_site_fract_y
 _atom_site_fract_z
 _atom_site_occupancy
  Ce  Ce0  1  0.894188  0.885503  0.750000  1
  Ce  Ce1  1  0.860003  0.470122  0.401360  1
  Ce  Ce2  1  0.360978  0.043691  0.597926  1
  Ce  Ce3  1  0.139997  0.529878  0.901360  1
  Ce  Ce4  1  0.639022  0.956310  0.097926  1
  Ce  Ce5  1  0.105812  0.114497  0.250000  1
  Ce  Ce6  1  0.139997  0.529878  0.598640  1
  Ce  Ce7  1  0.639022  0.956310  0.402074  1
  Ce  Ce8  1  0.384524  0.621857  0.250000  1
  Ce  Ce9  1  0.360978  0.043691  0.902074  1
  Ce  Ce10  1  0.615476  0.378143  0.750000  1
  Ce  Ce11  1  0.860003  0.470122  0.098640  1
  Co  Co12  1  0.613218  0.382438  0.950147  1
  Co  Co13  1  0.112307  0.118263  0.447159  1
  Co  Co14  1  0.112307  0.118263  0.052841  1
  Co  Co15  1  0.887693  0.881737  0.947159  1
  Co  Co16  1  0.887693  0.881737  0.552841  1
  Co  Co17  1  0.613218  0.382438  0.549853  1
  Co  Co18  1  0.386782  0.617562  0.450147  1
  Co  Co19  1  0.386782  0.617562  0.049853  1
  Cu  Cu20  1  0.420668  0.739152  0.750000  1
  Cu  Cu21  1  0.579332  0.260848  0.250000  1
  Si  Si22  1  0.619703  0.681773  0.912677  1
  Si  Si23  1  0.880710  0.181813  0.584115  1
  Si  Si24  1  0.119290  0.818187  0.084115  1
  Si  Si25  1  0.119290  0.818187  0.415885  1
  Si  Si26  1  0.619703  0.681773  0.587323  1
  Si  Si27  1  0.880710  0.181813  0.915885  1
  Si  Si28  1  0.380297  0.318227  0.087323  1
  Si  Si29  1  0.380297  0.318227  0.412677  1
  Rh  Rh30  1  0.904717  0.762068  0.250000  1
  Rh  Rh31  1  0.095283  0.237932  0.750000  1
