# generated using pymatgen
data_Nd8Dy12Si15Ru
_symmetry_space_group_name_H-M   'P 1'
_cell_length_a   7.53427521
_cell_length_b   7.77743841
_cell_length_c   14.78596437
_cell_angle_alpha   89.88192531
_cell_angle_beta   89.88495441
_cell_angle_gamma   90.29767782
_symmetry_Int_Tables_number   1
_chemical_formula_structural   Nd8Dy12Si15Ru
_chemical_formula_sum   'Nd8 Dy12 Si15 Ru1'
_cell_volume   866.40319898
_cell_formula_units_Z   1
loop_
 _symmetry_equiv_pos_site_id
 _symmetry_equiv_pos_as_xyz
  1  'x, y, z'
loop_
 _atom_site_type_symbol
 _atom_site_label
 _atom_site_symmetry_multiplicity
 _atom_site_fract_x
 _atom_site_fract_y
 _atom_site_fract_z
 _atom_site_occupancy
  Nd  Nd0  1  0.973588  0.813717  0.095619  1
  Nd  Nd1  1  0.473003  0.679503  0.401585  1
  Nd  Nd2  1  0.528897  0.325217  0.900313  1
  Nd  Nd3  1  0.028345  0.182641  0.599818  1
  Nd  Nd4  1  0.025126  0.186881  0.903104  1
  Nd  Nd5  1  0.528706  0.319484  0.599833  1
  Nd  Nd6  1  0.476440  0.679275  0.099209  1
  Nd  Nd7  1  0.972870  0.820348  0.401118  1
  Dy  Dy8  1  0.650345  0.993645  0.248472  1
  Dy  Dy9  1  0.147812  0.509553  0.247112  1
  Dy  Dy10  1  0.848598  0.491738  0.758630  1
  Dy  Dy11  1  0.351503  0.009732  0.753460  1
  Dy  Dy12  1  0.686193  0.810520  0.882913  1
  Dy  Dy13  1  0.178572  0.681794  0.622200  1
  Dy  Dy14  1  0.819109  0.335254  0.117976  1
  Dy  Dy15  1  0.315259  0.177331  0.376155  1
  Dy  Dy16  1  0.320453  0.177824  0.123768  1
  Dy  Dy17  1  0.819428  0.318605  0.376959  1
  Dy  Dy18  1  0.175250  0.674050  0.879210  1
  Dy  Dy19  1  0.682792  0.819060  0.622224  1
  Si  Si20  1  0.764119  0.623038  0.251421  1
  Si  Si21  1  0.266811  0.877390  0.250803  1
  Si  Si22  1  0.732939  0.117545  0.748500  1
  Si  Si23  1  0.236262  0.379731  0.747197  1
  Si  Si24  1  0.021076  0.112794  0.247983  1
  Si  Si25  1  0.524470  0.389477  0.251799  1
  Si  Si26  1  0.470407  0.613039  0.746191  1
  Si  Si27  1  0.974940  0.892021  0.748882  1
  Si  Si28  1  0.356259  0.970333  0.539318  1
  Si  Si29  1  0.641063  0.030273  0.040637  1
  Si  Si30  1  0.143667  0.469421  0.459864  1
  Si  Si31  1  0.152648  0.468957  0.041407  1
  Si  Si32  1  0.641795  0.030429  0.460371  1
  Si  Si33  1  0.355613  0.967633  0.961577  1
  Si  Si34  1  0.857432  0.530418  0.537990  1
  Ru  Ru35  1  0.858208  0.521329  0.956380  1
