# generated using pymatgen
data_Pr4Co9As12Rh11
_symmetry_space_group_name_H-M   'P 1'
_cell_length_a   3.92875100
_cell_length_b   11.17682868
_cell_length_c   12.67982084
_cell_angle_alpha   89.86518001
_cell_angle_beta   90.00000000
_cell_angle_gamma   90.00000000
_symmetry_Int_Tables_number   1
_chemical_formula_structural   Pr4Co9As12Rh11
_chemical_formula_sum   'Pr4 Co9 As12 Rh11'
_cell_volume   556.78177795
_cell_formula_units_Z   1
loop_
 _symmetry_equiv_pos_site_id
 _symmetry_equiv_pos_as_xyz
  1  'x, y, z'
loop_
 _atom_site_type_symbol
 _atom_site_label
 _atom_site_symmetry_multiplicity
 _atom_site_fract_x
 _atom_site_fract_y
 _atom_site_fract_z
 _atom_site_occupancy
  Pr  Pr0  1  0.250000  0.584324  0.705341  1
  Pr  Pr1  1  0.250000  0.914098  0.207542  1
  Pr  Pr2  1  0.750000  0.417635  0.294884  1
  Pr  Pr3  1  0.750000  0.083958  0.793166  1
  Co  Co4  1  0.750000  0.717645  0.320995  1
  Co  Co5  1  0.250000  0.884127  0.693706  1
  Co  Co6  1  0.250000  0.618487  0.194381  1
  Co  Co7  1  0.750000  0.112622  0.306760  1
  Co  Co8  1  0.750000  0.384449  0.805841  1
  Co  Co9  1  0.250000  0.466776  0.932799  1
  Co  Co10  1  0.250000  0.030703  0.431023  1
  Co  Co11  1  0.750000  0.534874  0.068417  1
  Co  Co12  1  0.750000  0.966482  0.565307  1
  As  As13  1  0.250000  0.426481  0.110258  1
  As  As14  1  0.250000  0.073642  0.608631  1
  As  As15  1  0.750000  0.574112  0.890716  1
  As  As16  1  0.750000  0.917582  0.388679  1
  As  As17  1  0.250000  0.277602  0.872537  1
  As  As18  1  0.250000  0.221687  0.373127  1
  As  As19  1  0.750000  0.722258  0.135236  1
  As  As20  1  0.750000  0.778098  0.627620  1
  As  As21  1  0.250000  0.608976  0.379357  1
  As  As22  1  0.250000  0.897495  0.884687  1
  As  As23  1  0.750000  0.399475  0.614881  1
  As  As24  1  0.750000  0.101495  0.117041  1
  Rh  Rh25  1  0.250000  0.710165  0.991615  1
  Rh  Rh26  1  0.250000  0.789850  0.489477  1
  Rh  Rh27  1  0.750000  0.288872  0.009648  1
  Rh  Rh28  1  0.750000  0.212199  0.508587  1
  Rh  Rh29  1  0.250000  0.410246  0.481844  1
  Rh  Rh30  1  0.250000  0.092222  0.983290  1
  Rh  Rh31  1  0.750000  0.595756  0.513558  1
  Rh  Rh32  1  0.750000  0.905576  0.019049  1
  Rh  Rh33  1  0.250000  0.220230  0.180210  1
  Rh  Rh34  1  0.250000  0.280125  0.678647  1
  Rh  Rh35  1  0.750000  0.779675  0.821144  1
