# generated using pymatgen
data_Pr4DyP12Ru6Rh13
_symmetry_space_group_name_H-M   'P 1'
_cell_length_a   12.74975101
_cell_length_b   12.76093107
_cell_length_c   3.98332200
_cell_angle_alpha   90.00000000
_cell_angle_beta   90.00000000
_cell_angle_gamma   120.11118311
_symmetry_Int_Tables_number   1
_chemical_formula_structural   Pr4DyP12Ru6Rh13
_chemical_formula_sum   'Pr4 Dy1 P12 Ru6 Rh13'
_cell_volume   560.62499685
_cell_formula_units_Z   1
loop_
 _symmetry_equiv_pos_site_id
 _symmetry_equiv_pos_as_xyz
  1  'x, y, z'
loop_
 _atom_site_type_symbol
 _atom_site_label
 _atom_site_symmetry_multiplicity
 _atom_site_fract_x
 _atom_site_fract_y
 _atom_site_fract_z
 _atom_site_occupancy
  Pr  Pr0  1  0.668123  0.332121  0.000000  1
  Pr  Pr1  1  0.813945  0.000631  0.500000  1
  Pr  Pr2  1  0.185300  0.186926  0.500000  1
  Pr  Pr3  1  0.999291  0.812648  0.500000  1
  Dy  Dy4  1  0.332763  0.667489  0.000000  1
  P  P5  1  0.632869  0.999755  0.000000  1
  P  P6  1  0.367523  0.368099  0.000000  1
  P  P7  1  0.000372  0.630194  0.000000  1
  P  P8  1  0.688501  0.520680  0.500000  1
  P  P9  1  0.833086  0.309208  0.500000  1
  P  P10  1  0.315444  0.831898  0.500000  1
  P  P11  1  0.517277  0.691876  0.500000  1
  P  P12  1  0.184064  0.999156  0.000000  1
  P  P13  1  0.814604  0.814926  0.000000  1
  P  P14  1  0.997744  0.183388  0.000000  1
  P  P15  1  0.477347  0.166671  0.500000  1
  P  P16  1  0.167144  0.481425  0.500000  1
  Ru  Ru17  1  0.511738  0.873126  0.500000  1
  Ru  Ru18  1  0.710751  0.711949  0.500000  1
  Ru  Ru19  1  0.001693  0.288557  0.500000  1
  Ru  Ru20  1  0.004311  0.451948  0.000000  1
  Ru  Ru21  1  0.819282  0.197934  0.000000  1
  Ru  Ru22  1  0.284798  0.997912  0.500000  1
  Rh  Rh23  1  0.619522  0.801189  0.000000  1
  Rh  Rh24  1  0.182731  0.379527  0.000000  1
  Rh  Rh25  1  0.377380  0.181283  0.000000  1
  Rh  Rh26  1  0.198532  0.817072  0.000000  1
  Rh  Rh27  1  0.800885  0.619377  0.000000  1
  Rh  Rh28  1  0.875939  0.512275  0.500000  1
  Rh  Rh29  1  0.488893  0.360798  0.500000  1
  Rh  Rh30  1  0.636724  0.126815  0.500000  1
  Rh  Rh31  1  0.130702  0.639814  0.500000  1
  Rh  Rh32  1  0.359351  0.494508  0.500000  1
  Rh  Rh33  1  0.999613  0.998867  0.000000  1
  Rh  Rh34  1  0.453809  0.001708  0.000000  1
  Rh  Rh35  1  0.547948  0.548251  0.000000  1
