# generated using pymatgen
data_Tm7Co4Sn23Ir2
_symmetry_space_group_name_H-M   'P 1'
_cell_length_a   9.73305319
_cell_length_b   9.73305356
_cell_length_c   9.98516514
_cell_angle_alpha   90.21683951
_cell_angle_beta   89.78315802
_cell_angle_gamma   120.12778794
_symmetry_Int_Tables_number   1
_chemical_formula_structural   Tm7Co4Sn23Ir2
_chemical_formula_sum   'Tm7 Co4 Sn23 Ir2'
_cell_volume   818.12427690
_cell_formula_units_Z   1
loop_
 _symmetry_equiv_pos_site_id
 _symmetry_equiv_pos_as_xyz
  1  'x, y, z'
loop_
 _atom_site_type_symbol
 _atom_site_label
 _atom_site_symmetry_multiplicity
 _atom_site_fract_x
 _atom_site_fract_y
 _atom_site_fract_z
 _atom_site_occupancy
  Tm  Tm0  1  0.479674  0.520326  0.307364  1
  Tm  Tm1  1  0.520326  0.479674  0.692636  1
  Tm  Tm2  1  0.481451  0.960482  0.305880  1
  Tm  Tm3  1  0.518549  0.039518  0.694120  1
  Tm  Tm4  1  0.039518  0.518549  0.305880  1
  Tm  Tm5  1  0.960482  0.481451  0.694120  1
  Tm  Tm6  1  0.000000  0.000000  0.000000  1
  Co  Co7  1  0.829904  0.663056  0.197913  1
  Co  Co8  1  0.170096  0.336944  0.802087  1
  Co  Co9  1  0.336944  0.170096  0.197913  1
  Co  Co10  1  0.663056  0.829904  0.802087  1
  Sn  Sn11  1  0.117963  0.882037  0.273171  1
  Sn  Sn12  1  0.882037  0.117963  0.726829  1
  Sn  Sn13  1  0.125228  0.238956  0.279436  1
  Sn  Sn14  1  0.874772  0.761044  0.720564  1
  Sn  Sn15  1  0.761044  0.874772  0.279436  1
  Sn  Sn16  1  0.238956  0.125228  0.720564  1
  Sn  Sn17  1  0.778404  0.221596  0.458944  1
  Sn  Sn18  1  0.221596  0.778404  0.541056  1
  Sn  Sn19  1  0.780482  0.560247  0.451066  1
  Sn  Sn20  1  0.219518  0.439753  0.548934  1
  Sn  Sn21  1  0.439753  0.219518  0.451066  1
  Sn  Sn22  1  0.560247  0.780482  0.548934  1
  Sn  Sn23  1  0.351668  0.005183  0.005965  1
  Sn  Sn24  1  0.648332  0.994817  0.994035  1
  Sn  Sn25  1  0.005183  0.351668  0.994035  1
  Sn  Sn26  1  0.994817  0.648332  0.005965  1
  Sn  Sn27  1  0.653870  0.653870  0.000000  1
  Sn  Sn28  1  0.346130  0.346130  0.000000  1
  Sn  Sn29  1  0.333755  0.666245  0.123552  1
  Sn  Sn30  1  0.666245  0.333755  0.876448  1
  Sn  Sn31  1  0.336091  0.663909  0.820933  1
  Sn  Sn32  1  0.663909  0.336091  0.179067  1
  Sn  Sn33  1  0.000000  0.000000  0.500000  1
  Ir  Ir34  1  0.831780  0.168220  0.196827  1
  Ir  Ir35  1  0.168220  0.831780  0.803173  1
