# generated using pymatgen
data_LiCdNiAg7(TeO6)2
_symmetry_space_group_name_H-M   'P 1'
_cell_length_a   9.12041921
_cell_length_b   9.12041952
_cell_length_c   5.47957100
_cell_angle_alpha   61.90541907
_cell_angle_beta   61.90541803
_cell_angle_gamma   66.56601654
_symmetry_Int_Tables_number   1
_chemical_formula_structural   LiCdNiAg7(TeO6)2
_chemical_formula_sum   'Li1 Cd1 Ni1 Ag7 Te2 O12'
_cell_volume   345.53544840
_cell_formula_units_Z   1
loop_
 _symmetry_equiv_pos_site_id
 _symmetry_equiv_pos_as_xyz
  1  'x, y, z'
loop_
 _atom_site_type_symbol
 _atom_site_label
 _atom_site_symmetry_multiplicity
 _atom_site_fract_x
 _atom_site_fract_y
 _atom_site_fract_z
 _atom_site_occupancy
  Li  Li0  1  0.080682  0.919318  0.750000  1
  Cd  Cd1  1  0.419611  0.580389  0.750000  1
  Ni  Ni2  1  0.922082  0.077918  0.250000  1
  Ag  Ag3  1  0.347286  0.145448  0.020442  1
  Ag  Ag4  1  0.577636  0.422364  0.250000  1
  Ag  Ag5  1  0.148424  0.346568  0.515278  1
  Ag  Ag6  1  0.854552  0.652714  0.479558  1
  Ag  Ag7  1  0.653432  0.851576  0.984722  1
  Ag  Ag8  1  0.498575  0.003015  0.504115  1
  Ag  Ag9  1  0.996985  0.501425  0.995885  1
  Te  Te10  1  0.768714  0.231286  0.750000  1
  Te  Te11  1  0.230887  0.769113  0.250000  1
  O  O12  1  0.460232  0.715034  0.262875  1
  O  O13  1  0.707444  0.468804  0.736235  1
  O  O14  1  0.003713  0.834917  0.224240  1
  O  O15  1  0.531196  0.292556  0.763765  1
  O  O16  1  0.284966  0.539768  0.237125  1
  O  O17  1  0.863109  0.305241  0.315056  1
  O  O18  1  0.318677  0.849692  0.817026  1
  O  O19  1  0.694759  0.136891  0.184944  1
  O  O20  1  0.165083  0.996287  0.275760  1
  O  O21  1  0.829527  0.007883  0.712934  1
  O  O22  1  0.150308  0.681323  0.682974  1
  O  O23  1  0.992117  0.170473  0.787066  1
