# generated using pymatgen
data_Sr21Al3Ga5Sn6Bi
_symmetry_space_group_name_H-M   'P 1'
_cell_length_a   12.15441894
_cell_length_b   12.17758170
_cell_length_c   12.17758000
_cell_angle_alpha   59.99931140
_cell_angle_beta   59.93683777
_cell_angle_gamma   59.93683642
_symmetry_Int_Tables_number   1
_chemical_formula_structural   Sr21Al3Ga5Sn6Bi
_chemical_formula_sum   'Sr21 Al3 Ga5 Sn6 Bi1'
_cell_volume   1273.27938223
_cell_formula_units_Z   1
loop_
 _symmetry_equiv_pos_site_id
 _symmetry_equiv_pos_as_xyz
  1  'x, y, z'
loop_
 _atom_site_type_symbol
 _atom_site_label
 _atom_site_symmetry_multiplicity
 _atom_site_fract_x
 _atom_site_fract_y
 _atom_site_fract_z
 _atom_site_occupancy
  Sr  Sr0  1  0.871216  0.870192  0.388399  1
  Sr  Sr1  1  0.608654  0.130448  0.130448  1
  Sr  Sr2  1  0.871216  0.388399  0.870192  1
  Sr  Sr3  1  0.130400  0.130486  0.130486  1
  Sr  Sr4  1  0.387455  0.870849  0.870849  1
  Sr  Sr5  1  0.871218  0.870189  0.870189  1
  Sr  Sr6  1  0.176923  0.822708  0.500185  1
  Sr  Sr7  1  0.822723  0.499207  0.499207  1
  Sr  Sr8  1  0.130390  0.130492  0.608630  1
  Sr  Sr9  1  0.822725  0.178863  0.499206  1
  Sr  Sr10  1  0.176928  0.500181  0.500181  1
  Sr  Sr11  1  0.130390  0.608630  0.130492  1
  Sr  Sr12  1  0.499344  0.499267  0.178479  1
  Sr  Sr13  1  0.499347  0.178477  0.822908  1
  Sr  Sr14  1  0.499347  0.822908  0.178477  1
  Sr  Sr15  1  0.499345  0.499266  0.822913  1
  Sr  Sr16  1  0.499344  0.178479  0.499267  1
  Sr  Sr17  1  0.176923  0.500185  0.822708  1
  Sr  Sr18  1  0.999819  0.000062  0.000062  1
  Sr  Sr19  1  0.499345  0.822913  0.499266  1
  Sr  Sr20  1  0.822725  0.499206  0.178863  1
  Al  Al21  1  0.694555  0.917231  0.694106  1
  Al  Al22  1  0.694555  0.694106  0.917231  1
  Al  Al23  1  0.694554  0.694108  0.694108  1
  Ga  Ga24  1  0.306588  0.079806  0.306804  1
  Ga  Ga25  1  0.921013  0.692995  0.692995  1
  Ga  Ga26  1  0.306588  0.306804  0.079806  1
  Ga  Ga27  1  0.079812  0.306729  0.306729  1
  Ga  Ga28  1  0.306591  0.306801  0.306801  1
  Sn  Sn29  1  0.787044  0.212953  0.787049  1
  Sn  Sn30  1  0.787045  0.212953  0.212953  1
  Sn  Sn31  1  0.213085  0.786911  0.213095  1
  Sn  Sn32  1  0.213082  0.786912  0.786912  1
  Sn  Sn33  1  0.787044  0.787049  0.212953  1
  Sn  Sn34  1  0.213085  0.213095  0.786911  1
  Bi  Bi35  1  0.499583  0.500139  0.500139  1
