# generated using pymatgen
data_TbNd2Cd3Sn2Au
_symmetry_space_group_name_H-M   'P 1'
_cell_length_a   7.54457311
_cell_length_b   7.54457360
_cell_length_c   4.65294500
_cell_angle_alpha   90.00000000
_cell_angle_beta   90.00000000
_cell_angle_gamma   119.67091495
_symmetry_Int_Tables_number   1
_chemical_formula_structural   TbNd2Cd3Sn2Au
_chemical_formula_sum   'Tb1 Nd2 Cd3 Sn2 Au1'
_cell_volume   230.12221545
_cell_formula_units_Z   1
loop_
 _symmetry_equiv_pos_site_id
 _symmetry_equiv_pos_as_xyz
  1  'x, y, z'
loop_
 _atom_site_type_symbol
 _atom_site_label
 _atom_site_symmetry_multiplicity
 _atom_site_fract_x
 _atom_site_fract_y
 _atom_site_fract_z
 _atom_site_occupancy
  Tb  Tb0  1  0.404536  0.404536  0.000000  1
  Nd  Nd1  1  0.592403  0.999545  0.000000  1
  Nd  Nd2  1  0.999545  0.592403  0.000000  1
  Cd  Cd3  1  0.237877  0.000468  0.500000  1
  Cd  Cd4  1  0.000468  0.237877  0.500000  1
  Cd  Cd5  1  0.762129  0.762129  0.500000  1
  Sn  Sn6  1  0.334883  0.663215  0.500000  1
  Sn  Sn7  1  0.663215  0.334883  0.500000  1
  Au  Au8  1  0.004943  0.004943  0.000000  1
