# generated using pymatgen
data_DyHo3ReB12Os
_symmetry_space_group_name_H-M   'P 1'
_cell_length_a   3.66068800
_cell_length_b   9.14620746
_cell_length_c   11.53243703
_cell_angle_alpha   90.13641900
_cell_angle_beta   90.00000000
_cell_angle_gamma   90.00000000
_symmetry_Int_Tables_number   1
_chemical_formula_structural   DyHo3ReB12Os
_chemical_formula_sum   'Dy2 Ho6 Re2 B24 Os2'
_cell_volume   386.12117979
_cell_formula_units_Z   2
loop_
 _symmetry_equiv_pos_site_id
 _symmetry_equiv_pos_as_xyz
  1  'x, y, z'
loop_
 _atom_site_type_symbol
 _atom_site_label
 _atom_site_symmetry_multiplicity
 _atom_site_fract_x
 _atom_site_fract_y
 _atom_site_fract_z
 _atom_site_occupancy
  Dy  Dy0  1  0.000000  0.320812  0.412473  1
  Dy  Dy1  1  0.000000  0.679188  0.587527  1
  Ho  Ho2  1  0.000000  0.824654  0.084714  1
  Ho  Ho3  1  0.000000  0.175346  0.915286  1
  Ho  Ho4  1  0.000000  0.943360  0.370713  1
  Ho  Ho5  1  0.000000  0.056640  0.629287  1
  Ho  Ho6  1  0.000000  0.442552  0.128743  1
  Ho  Ho7  1  0.000000  0.557448  0.871257  1
  Re  Re8  1  0.000000  0.138213  0.179453  1
  Re  Re9  1  0.000000  0.861787  0.820547  1
  B  B10  1  0.500000  0.553790  0.432944  1
  B  B11  1  0.500000  0.446210  0.567056  1
  B  B12  1  0.500000  0.053013  0.066797  1
  B  B13  1  0.500000  0.946987  0.933203  1
  B  B14  1  0.500000  0.748662  0.418676  1
  B  B15  1  0.500000  0.251338  0.581324  1
  B  B16  1  0.500000  0.248689  0.080955  1
  B  B17  1  0.500000  0.751311  0.919045  1
  B  B18  1  0.500000  0.790720  0.265862  1
  B  B19  1  0.500000  0.209280  0.734138  1
  B  B20  1  0.500000  0.291624  0.234480  1
  B  B21  1  0.500000  0.708376  0.765520  1
  B  B22  1  0.500000  0.630940  0.186016  1
  B  B23  1  0.500000  0.369060  0.813984  1
  B  B24  1  0.500000  0.131275  0.314732  1
  B  B25  1  0.500000  0.868725  0.685268  1
  B  B26  1  0.500000  0.982544  0.212476  1
  B  B27  1  0.500000  0.017456  0.787524  1
  B  B28  1  0.500000  0.483099  0.287881  1
  B  B29  1  0.500000  0.516901  0.712119  1
  B  B30  1  0.500000  0.603389  0.028871  1
  B  B31  1  0.500000  0.396611  0.971129  1
  B  B32  1  0.500000  0.103633  0.471452  1
  B  B33  1  0.500000  0.896367  0.528548  1
  Os  Os34  1  0.000000  0.637550  0.321729  1
  Os  Os35  1  0.000000  0.362450  0.678271  1
