# generated using pymatgen
data_Li4Ac2SmPb4
_symmetry_space_group_name_H-M   'P 1'
_cell_length_a   4.97188361
_cell_length_b   7.30974730
_cell_length_c   9.16491695
_cell_angle_alpha   113.50253072
_cell_angle_beta   105.73839723
_cell_angle_gamma   89.99999947
_symmetry_Int_Tables_number   1
_chemical_formula_structural   Li4Ac2SmPb4
_chemical_formula_sum   'Li4 Ac2 Sm1 Pb4'
_cell_volume   291.78347492
_cell_formula_units_Z   1
loop_
 _symmetry_equiv_pos_site_id
 _symmetry_equiv_pos_as_xyz
  1  'x, y, z'
loop_
 _atom_site_type_symbol
 _atom_site_label
 _atom_site_symmetry_multiplicity
 _atom_site_fract_x
 _atom_site_fract_y
 _atom_site_fract_z
 _atom_site_occupancy
  Li  Li0  1  0.671650  0.983475  0.343300  1
  Li  Li1  1  0.328350  0.016525  0.656700  1
  Li  Li2  1  0.328350  0.640175  0.656700  1
  Li  Li3  1  0.671650  0.359825  0.343300  1
  Ac  Ac4  1  0.131163  0.631163  0.262324  1
  Ac  Ac5  1  0.868837  0.368837  0.737676  1
  Sm  Sm6  1  0.000000  0.000000  0.000000  1
  Pb  Pb7  1  0.500000  0.712528  0.000000  1
  Pb  Pb8  1  0.500000  0.287472  0.000000  1
  Pb  Pb9  1  0.790836  0.790836  0.581671  1
  Pb  Pb10  1  0.209164  0.209164  0.418329  1
