# generated using pymatgen
data_K(TiSb)2
_symmetry_space_group_name_H-M   'P 1'
_cell_length_a   5.13612602
_cell_length_b   3.55699773
_cell_length_c   9.64214649
_cell_angle_alpha   79.38231481
_cell_angle_beta   74.64074577
_cell_angle_gamma   46.08716893
_symmetry_Int_Tables_number   1
_chemical_formula_structural   K(TiSb)2
_chemical_formula_sum   'K1 Ti2 Sb2'
_cell_volume   122.36831846
_cell_formula_units_Z   1
loop_
 _symmetry_equiv_pos_site_id
 _symmetry_equiv_pos_as_xyz
  1  'x, y, z'
loop_
 _atom_site_type_symbol
 _atom_site_label
 _atom_site_symmetry_multiplicity
 _atom_site_fract_x
 _atom_site_fract_y
 _atom_site_fract_z
 _atom_site_occupancy
  K  K0  1  0.777379  0.784851  0.463086  1
  Ti  Ti1  1  0.986586  0.787242  0.045058  1
  Ti  Ti2  1  0.567477  0.788586  0.880569  1
  Sb  Sb3  1  0.136155  0.789037  0.741575  1
  Sb  Sb4  1  0.417900  0.786524  0.184082  1
