# generated using pymatgen
data_Sc4Be8Ru3Rh7
_symmetry_space_group_name_H-M   'P 1'
_cell_length_a   3.15125500
_cell_length_b   8.59355519
_cell_length_c   10.42631672
_cell_angle_alpha   90.11134311
_cell_angle_beta   90.00000000
_cell_angle_gamma   90.00000000
_symmetry_Int_Tables_number   1
_chemical_formula_structural   Sc4Be8Ru3Rh7
_chemical_formula_sum   'Sc4 Be8 Ru3 Rh7'
_cell_volume   282.34916734
_cell_formula_units_Z   1
loop_
 _symmetry_equiv_pos_site_id
 _symmetry_equiv_pos_as_xyz
  1  'x, y, z'
loop_
 _atom_site_type_symbol
 _atom_site_label
 _atom_site_symmetry_multiplicity
 _atom_site_fract_x
 _atom_site_fract_y
 _atom_site_fract_z
 _atom_site_occupancy
  Sc  Sc0  1  0.500000  0.844029  0.183797  1
  Sc  Sc1  1  0.500000  0.150316  0.818034  1
  Sc  Sc2  1  0.500000  0.660311  0.680735  1
  Sc  Sc3  1  0.500000  0.344706  0.315268  1
  Be  Be4  1  0.500000  0.963490  0.595661  1
  Be  Be5  1  0.500000  0.037624  0.403041  1
  Be  Be6  1  0.500000  0.844806  0.899760  1
  Be  Be7  1  0.500000  0.153508  0.100765  1
  Be  Be8  1  0.500000  0.655222  0.400096  1
  Be  Be9  1  0.500000  0.344189  0.596644  1
  Be  Be10  1  0.500000  0.463853  0.905167  1
  Be  Be11  1  0.500000  0.537199  0.097598  1
  Ru  Ru12  1  0.000000  0.597675  0.244112  1
  Ru  Ru13  1  0.000000  0.901875  0.742197  1
  Ru  Ru14  1  0.000000  0.098120  0.257141  1
  Rh  Rh15  1  0.000000  0.659246  0.956032  1
  Rh  Rh16  1  0.000000  0.340570  0.044496  1
  Rh  Rh17  1  0.000000  0.842352  0.454720  1
  Rh  Rh18  1  0.000000  0.159115  0.545342  1
  Rh  Rh19  1  0.000000  0.000108  0.999503  1
  Rh  Rh20  1  0.000000  0.400981  0.757740  1
  Rh  Rh21  1  0.000000  0.500704  0.502151  1
