# generated using pymatgen
data_Sr8Ga2OsN8
_symmetry_space_group_name_H-M   'P 1'
_cell_length_a   9.89566801
_cell_length_b   5.41803994
_cell_length_c   7.53309007
_cell_angle_alpha   89.99999801
_cell_angle_beta   75.17466877
_cell_angle_gamma   74.11198409
_symmetry_Int_Tables_number   1
_chemical_formula_structural   Sr8Ga2OsN8
_chemical_formula_sum   'Sr8 Ga2 Os1 N8'
_cell_volume   374.45963259
_cell_formula_units_Z   1
loop_
 _symmetry_equiv_pos_site_id
 _symmetry_equiv_pos_as_xyz
  1  'x, y, z'
loop_
 _atom_site_type_symbol
 _atom_site_label
 _atom_site_symmetry_multiplicity
 _atom_site_fract_x
 _atom_site_fract_y
 _atom_site_fract_z
 _atom_site_occupancy
  Sr  Sr0  1  0.068789  0.965605  0.737475  1
  Sr  Sr1  1  0.931211  0.034395  0.262525  1
  Sr  Sr2  1  0.652010  0.673994  0.493812  1
  Sr  Sr3  1  0.347990  0.326006  0.506188  1
  Sr  Sr4  1  0.804691  0.597655  0.941634  1
  Sr  Sr5  1  0.195309  0.402345  0.058366  1
  Sr  Sr6  1  0.392120  0.803941  0.187892  1
  Sr  Sr7  1  0.607880  0.196059  0.812108  1
  Ga  Ga8  1  0.374130  0.812936  0.797643  1
  Ga  Ga9  1  0.625870  0.187064  0.202357  1
  Os  Os10  1  0.000000  0.500000  0.500000  1
  N  N11  1  0.201103  0.899449  0.002255  1
  N  N12  1  0.798897  0.100551  0.997745  1
  N  N13  1  0.356005  0.821998  0.553175  1
  N  N14  1  0.643995  0.178002  0.446825  1
  N  N15  1  0.565488  0.717256  0.841478  1
  N  N16  1  0.434512  0.282744  0.158522  1
  N  N17  1  0.939109  0.530446  0.289824  1
  N  N18  1  0.060891  0.469554  0.710176  1
