# generated using pymatgen
data_Tb3YLu4(CoB6)4
_symmetry_space_group_name_H-M   'P 1'
_cell_length_a   3.54140800
_cell_length_b   9.04590501
_cell_length_c   11.42237701
_cell_angle_alpha   89.99598572
_cell_angle_beta   90.00000000
_cell_angle_gamma   90.00000000
_symmetry_Int_Tables_number   1
_chemical_formula_structural   Tb3YLu4(CoB6)4
_chemical_formula_sum   'Tb3 Y1 Lu4 Co4 B24'
_cell_volume   365.91859193
_cell_formula_units_Z   1
loop_
 _symmetry_equiv_pos_site_id
 _symmetry_equiv_pos_as_xyz
  1  'x, y, z'
loop_
 _atom_site_type_symbol
 _atom_site_label
 _atom_site_symmetry_multiplicity
 _atom_site_fract_x
 _atom_site_fract_y
 _atom_site_fract_z
 _atom_site_occupancy
  Tb  Tb0  1  0.000000  0.824083  0.085470  1
  Tb  Tb1  1  0.000000  0.175913  0.914529  1
  Tb  Tb2  1  0.000000  0.324098  0.414548  1
  Y  Y3  1  0.000000  0.676000  0.585435  1
  Lu  Lu4  1  0.000000  0.443899  0.129306  1
  Lu  Lu5  1  0.000000  0.556097  0.870708  1
  Lu  Lu6  1  0.000000  0.943894  0.370711  1
  Lu  Lu7  1  0.000000  0.056065  0.629281  1
  Co  Co8  1  0.000000  0.140599  0.180566  1
  Co  Co9  1  0.000000  0.859404  0.819444  1
  Co  Co10  1  0.000000  0.640589  0.319427  1
  Co  Co11  1  0.000000  0.359399  0.680550  1
  B  B12  1  0.500000  0.054469  0.068019  1
  B  B13  1  0.500000  0.945536  0.932001  1
  B  B14  1  0.500000  0.554493  0.432093  1
  B  B15  1  0.500000  0.445595  0.567961  1
  B  B16  1  0.500000  0.248647  0.082511  1
  B  B17  1  0.500000  0.751356  0.917509  1
  B  B18  1  0.500000  0.748647  0.417564  1
  B  B19  1  0.500000  0.251349  0.582511  1
  B  B20  1  0.500000  0.292202  0.235128  1
  B  B21  1  0.500000  0.707724  0.764794  1
  B  B22  1  0.500000  0.792209  0.264869  1
  B  B23  1  0.500000  0.207784  0.735125  1
  B  B24  1  0.500000  0.132860  0.315752  1
  B  B25  1  0.500000  0.867091  0.684186  1
  B  B26  1  0.500000  0.632864  0.184232  1
  B  B27  1  0.500000  0.367129  0.815766  1
  B  B28  1  0.500000  0.486217  0.287756  1
  B  B29  1  0.500000  0.513905  0.712221  1
  B  B30  1  0.500000  0.986207  0.212234  1
  B  B31  1  0.500000  0.013801  0.787775  1
  B  B32  1  0.500000  0.104564  0.471796  1
  B  B33  1  0.500000  0.895311  0.528226  1
  B  B34  1  0.500000  0.604564  0.028196  1
  B  B35  1  0.500000  0.395434  0.971801  1
