# generated using pymatgen
data_La2Ga2Co3Ni3B2
_symmetry_space_group_name_H-M   'P 1'
_cell_length_a   5.32619000
_cell_length_b   5.32619013
_cell_length_c   6.69902200
_cell_angle_alpha   90.00000000
_cell_angle_beta   90.00000000
_cell_angle_gamma   119.99999917
_symmetry_Int_Tables_number   1
_chemical_formula_structural   La2Ga2Co3Ni3B2
_chemical_formula_sum   'La2 Ga2 Co3 Ni3 B2'
_cell_volume   164.57935655
_cell_formula_units_Z   1
loop_
 _symmetry_equiv_pos_site_id
 _symmetry_equiv_pos_as_xyz
  1  'x, y, z'
loop_
 _atom_site_type_symbol
 _atom_site_label
 _atom_site_symmetry_multiplicity
 _atom_site_fract_x
 _atom_site_fract_y
 _atom_site_fract_z
 _atom_site_occupancy
  La  La0  1  0.000000  0.000000  0.498164  1
  La  La1  1  0.000000  0.000000  0.010665  1
  Ga  Ga2  1  0.333333  0.666667  0.001505  1
  Ga  Ga3  1  0.666667  0.333333  0.001505  1
  Co  Co4  1  0.500000  0.000000  0.297090  1
  Co  Co5  1  0.500000  0.500000  0.297090  1
  Co  Co6  1  0.000000  0.500000  0.297090  1
  Ni  Ni7  1  0.500000  0.000000  0.702561  1
  Ni  Ni8  1  0.500000  0.500000  0.702561  1
  Ni  Ni9  1  0.000000  0.500000  0.702561  1
  B  B10  1  0.666667  0.333333  0.494604  1
  B  B11  1  0.333333  0.666667  0.494604  1
