# generated using pymatgen
data_K3RbZn4(SiAs2)4
_symmetry_space_group_name_H-M   'P 1'
_cell_length_a   8.28700415
_cell_length_b   8.18724666
_cell_length_c   8.42783037
_cell_angle_alpha   71.28176513
_cell_angle_beta   75.65085320
_cell_angle_gamma   73.22506084
_symmetry_Int_Tables_number   1
_chemical_formula_structural   K3RbZn4(SiAs2)4
_chemical_formula_sum   'K3 Rb1 Zn4 Si4 As8'
_cell_volume   510.86761798
_cell_formula_units_Z   1
loop_
 _symmetry_equiv_pos_site_id
 _symmetry_equiv_pos_as_xyz
  1  'x, y, z'
loop_
 _atom_site_type_symbol
 _atom_site_label
 _atom_site_symmetry_multiplicity
 _atom_site_fract_x
 _atom_site_fract_y
 _atom_site_fract_z
 _atom_site_occupancy
  K  K0  1  0.454034  0.765557  0.319100  1
  K  K1  1  0.545872  0.233860  0.681127  1
  K  K2  1  0.440085  0.799617  0.815394  1
  Rb  Rb3  1  0.558735  0.198408  0.185575  1
  Zn  Zn4  1  0.996328  0.894881  0.684778  1
  Zn  Zn5  1  0.003867  0.104601  0.315667  1
  Zn  Zn6  1  0.963253  0.815851  0.172927  1
  Zn  Zn7  1  0.035476  0.184344  0.826903  1
  Si  Si8  1  0.962045  0.588765  0.594890  1
  Si  Si9  1  0.039938  0.411924  0.405319  1
  Si  Si10  1  0.147396  0.447484  0.976917  1
  Si  Si11  1  0.852907  0.552425  0.022696  1
  As  As12  1  0.815637  0.878930  0.457109  1
  As  As13  1  0.184622  0.119761  0.544410  1
  As  As14  1  0.785986  0.404162  0.318734  1
  As  As15  1  0.216247  0.596576  0.681981  1
  As  As16  1  0.781791  0.870283  0.956676  1
  As  As17  1  0.216924  0.128596  0.041998  1
  As  As18  1  0.774135  0.442645  0.825558  1
  As  As19  1  0.224722  0.561330  0.172241  1
