# generated using pymatgen
data_ZnBi6(SbO9)2
_symmetry_space_group_name_H-M   'P 1'
_cell_length_a   9.26861800
_cell_length_b   9.26861744
_cell_length_c   5.22863100
_cell_angle_alpha   90.00000000
_cell_angle_beta   90.00000000
_cell_angle_gamma   120.00000200
_symmetry_Int_Tables_number   1
_chemical_formula_structural   ZnBi6(SbO9)2
_chemical_formula_sum   'Zn1 Bi6 Sb2 O18'
_cell_volume   388.99906454
_cell_formula_units_Z   1
loop_
 _symmetry_equiv_pos_site_id
 _symmetry_equiv_pos_as_xyz
  1  'x, y, z'
loop_
 _atom_site_type_symbol
 _atom_site_label
 _atom_site_symmetry_multiplicity
 _atom_site_fract_x
 _atom_site_fract_y
 _atom_site_fract_z
 _atom_site_occupancy
  Zn  Zn0  1  0.000000  0.000000  0.500000  1
  Bi  Bi1  1  0.000000  0.362733  0.500000  1
  Bi  Bi2  1  0.287346  0.287346  0.000000  1
  Bi  Bi3  1  0.000000  0.712654  0.000000  1
  Bi  Bi4  1  0.637267  0.637267  0.500000  1
  Bi  Bi5  1  0.362733  0.000000  0.500000  1
  Bi  Bi6  1  0.712654  0.000000  0.000000  1
  Sb  Sb7  1  0.333333  0.666667  0.002272  1
  Sb  Sb8  1  0.666667  0.333333  0.997728  1
  O  O9  1  0.092420  0.212771  0.730317  1
  O  O10  1  0.234426  0.458321  0.224035  1
  O  O11  1  0.127829  0.595913  0.791473  1
  O  O12  1  0.404087  0.531916  0.791473  1
  O  O13  1  0.223895  0.765574  0.224035  1
  O  O14  1  0.120350  0.907580  0.730317  1
  O  O15  1  0.541679  0.776105  0.224035  1
  O  O16  1  0.212771  0.092420  0.269683  1
  O  O17  1  0.468084  0.872171  0.791473  1
  O  O18  1  0.787229  0.879650  0.730317  1
  O  O19  1  0.458321  0.234426  0.775965  1
  O  O20  1  0.595913  0.127829  0.208527  1
  O  O21  1  0.531916  0.404087  0.208527  1
  O  O22  1  0.765574  0.223895  0.775965  1
  O  O23  1  0.907580  0.120350  0.269683  1
  O  O24  1  0.776105  0.541679  0.775965  1
  O  O25  1  0.872171  0.468084  0.208527  1
  O  O26  1  0.879650  0.787229  0.269683  1
