# generated using pymatgen
data_NdAs12Os3Rh
_symmetry_space_group_name_H-M   'P 1'
_cell_length_a   7.47747831
_cell_length_b   7.47747809
_cell_length_c   7.47747769
_cell_angle_alpha   109.42261787
_cell_angle_beta   109.42261150
_cell_angle_gamma   109.42262353
_symmetry_Int_Tables_number   1
_chemical_formula_structural   NdAs12Os3Rh
_chemical_formula_sum   'Nd1 As12 Os3 Rh1'
_cell_volume   322.42046167
_cell_formula_units_Z   1
loop_
 _symmetry_equiv_pos_site_id
 _symmetry_equiv_pos_as_xyz
  1  'x, y, z'
loop_
 _atom_site_type_symbol
 _atom_site_label
 _atom_site_symmetry_multiplicity
 _atom_site_fract_x
 _atom_site_fract_y
 _atom_site_fract_z
 _atom_site_occupancy
  Nd  Nd0  1  0.000000  0.000000  0.000000  1
  As  As1  1  0.346519  0.197370  0.850623  1
  As  As2  1  0.653481  0.802630  0.149377  1
  As  As3  1  0.653678  0.504090  0.852607  1
  As  As4  1  0.346322  0.495910  0.147393  1
  As  As5  1  0.197370  0.850623  0.346519  1
  As  As6  1  0.802630  0.149377  0.653481  1
  As  As7  1  0.504090  0.852607  0.653678  1
  As  As8  1  0.495910  0.147393  0.346322  1
  As  As9  1  0.850623  0.346519  0.197370  1
  As  As10  1  0.149377  0.653481  0.802630  1
  As  As11  1  0.852607  0.653678  0.504090  1
  As  As12  1  0.147393  0.346322  0.495910  1
  Os  Os13  1  0.000000  0.000000  0.500000  1
  Os  Os14  1  0.500000  0.000000  0.000000  1
  Os  Os15  1  0.000000  0.500000  0.000000  1
  Rh  Rh16  1  0.500000  0.500000  0.500000  1
