# generated using pymatgen
data_Lu4GaTc4Os3
_symmetry_space_group_name_H-M   'P 1'
_cell_length_a   5.22877162
_cell_length_b   5.33323824
_cell_length_c   8.84887300
_cell_angle_alpha   90.00000000
_cell_angle_beta   90.00000000
_cell_angle_gamma   120.05191087
_symmetry_Int_Tables_number   1
_chemical_formula_structural   Lu4GaTc4Os3
_chemical_formula_sum   'Lu4 Ga1 Tc4 Os3'
_cell_volume   213.59045460
_cell_formula_units_Z   1
loop_
 _symmetry_equiv_pos_site_id
 _symmetry_equiv_pos_as_xyz
  1  'x, y, z'
loop_
 _atom_site_type_symbol
 _atom_site_label
 _atom_site_symmetry_multiplicity
 _atom_site_fract_x
 _atom_site_fract_y
 _atom_site_fract_z
 _atom_site_occupancy
  Lu  Lu0  1  0.335863  0.668828  0.434662  1
  Lu  Lu1  1  0.663752  0.329391  0.558785  1
  Lu  Lu2  1  0.663752  0.329391  0.941215  1
  Lu  Lu3  1  0.335863  0.668828  0.065338  1
  Ga  Ga4  1  0.171030  0.343473  0.750000  1
  Tc  Tc5  1  0.180768  0.838798  0.750000  1
  Tc  Tc6  1  0.343979  0.176230  0.250000  1
  Tc  Tc7  1  0.832428  0.663238  0.250000  1
  Tc  Tc8  1  0.657075  0.839167  0.750000  1
  Os  Os9  1  0.992560  0.983771  0.997946  1
  Os  Os10  1  0.830371  0.175112  0.250000  1
  Os  Os11  1  0.992560  0.983771  0.502054  1
