# generated using pymatgen
data_Sr10InAu5
_symmetry_space_group_name_H-M   'P 1'
_cell_length_a   9.77929529
_cell_length_b   9.77929588
_cell_length_c   9.77929498
_cell_angle_alpha   128.47824574
_cell_angle_beta   128.47824748
_cell_angle_gamma   75.85156317
_symmetry_Int_Tables_number   1
_chemical_formula_structural   Sr10InAu5
_chemical_formula_sum   'Sr10 In1 Au5'
_cell_volume   557.39831686
_cell_formula_units_Z   1
loop_
 _symmetry_equiv_pos_site_id
 _symmetry_equiv_pos_as_xyz
  1  'x, y, z'
loop_
 _atom_site_type_symbol
 _atom_site_label
 _atom_site_symmetry_multiplicity
 _atom_site_fract_x
 _atom_site_fract_y
 _atom_site_fract_z
 _atom_site_occupancy
  Sr  Sr0  1  0.033569  0.517117  0.834125  1
  Sr  Sr1  1  0.300556  0.817008  0.834125  1
  Sr  Sr2  1  0.982883  0.466431  0.165875  1
  Sr  Sr3  1  0.989314  0.989314  0.000000  1
  Sr  Sr4  1  0.466431  0.300556  0.483549  1
  Sr  Sr5  1  0.199444  0.033569  0.516451  1
  Sr  Sr6  1  0.682992  0.199444  0.165875  1
  Sr  Sr7  1  0.517117  0.682992  0.483549  1
  Sr  Sr8  1  0.817008  0.982883  0.516451  1
  Sr  Sr9  1  0.510686  0.510686  0.000000  1
  In  In10  1  0.750000  0.750000  0.000000  1
  Au  Au11  1  0.871536  0.628464  0.500000  1
  Au  Au12  1  0.628464  0.128464  0.756927  1
  Au  Au13  1  0.128464  0.371536  0.500000  1
  Au  Au14  1  0.250000  0.250000  0.000000  1
  Au  Au15  1  0.371536  0.871536  0.243073  1
