# generated using pymatgen
data_Nb8Fe3Co4Si14Ni
_symmetry_space_group_name_H-M   'P 1'
_cell_length_a   9.24836577
_cell_length_b   9.25031376
_cell_length_c   9.25217212
_cell_angle_alpha   94.23282105
_cell_angle_beta   94.25539000
_cell_angle_gamma   148.40901776
_symmetry_Int_Tables_number   1
_chemical_formula_structural   Nb8Fe3Co4Si14Ni
_chemical_formula_sum   'Nb8 Fe3 Co4 Si14 Ni1'
_cell_volume   399.02369517
_cell_formula_units_Z   1
loop_
 _symmetry_equiv_pos_site_id
 _symmetry_equiv_pos_as_xyz
  1  'x, y, z'
loop_
 _atom_site_type_symbol
 _atom_site_label
 _atom_site_symmetry_multiplicity
 _atom_site_fract_x
 _atom_site_fract_y
 _atom_site_fract_z
 _atom_site_occupancy
  Nb  Nb0  1  0.133472  0.134145  0.268820  1
  Nb  Nb1  1  0.866455  0.867063  0.732064  1
  Nb  Nb2  1  0.865250  0.134405  0.000587  1
  Nb  Nb3  1  0.134760  0.866477  0.000796  1
  Nb  Nb4  1  0.499204  0.690225  0.191869  1
  Nb  Nb5  1  0.498657  0.307521  0.808380  1
  Nb  Nb6  1  0.309629  0.500666  0.807855  1
  Nb  Nb7  1  0.692817  0.501328  0.191415  1
  Fe  Fe8  1  0.900838  0.097193  0.498836  1
  Fe  Fe9  1  0.899356  0.400253  0.800512  1
  Fe  Fe10  1  0.599067  0.099647  0.197871  1
  Co  Co11  1  0.104312  0.603921  0.205725  1
  Co  Co12  1  0.104081  0.897388  0.501380  1
  Co  Co13  1  0.397072  0.604217  0.501343  1
  Co  Co14  1  0.598509  0.400611  0.498844  1
  Si  Si15  1  0.292332  0.292324  0.582835  1
  Si  Si16  1  0.707023  0.706951  0.416414  1
  Si  Si17  1  0.711960  0.296204  0.001144  1
  Si  Si18  1  0.289415  0.704910  0.001113  1
  Si  Si19  1  0.992987  0.289836  0.296708  1
  Si  Si20  1  0.990215  0.695161  0.703263  1
  Si  Si21  1  0.714339  0.009581  0.702909  1
  Si  Si22  1  0.302319  0.005596  0.296547  1
  Si  Si23  1  0.514559  0.920556  0.405909  1
  Si  Si24  1  0.515470  0.110781  0.593589  1
  Si  Si25  1  0.070820  0.475015  0.592236  1
  Si  Si26  1  0.897662  0.491096  0.404685  1
  Si  Si27  1  0.750993  0.751096  0.000254  1
  Si  Si28  1  0.249066  0.249255  0.000096  1
  Ni  Ni29  1  0.397357  0.896573  0.796002  1
