# generated using pymatgen
data_UCr3(AgS4)2
_symmetry_space_group_name_H-M   'P 1'
_cell_length_a   7.48405900
_cell_length_b   7.30126100
_cell_length_c   10.37821000
_cell_angle_alpha   90.00000000
_cell_angle_beta   90.00000000
_cell_angle_gamma   90.00000000
_symmetry_Int_Tables_number   1
_chemical_formula_structural   UCr3(AgS4)2
_chemical_formula_sum   'U2 Cr6 Ag4 S16'
_cell_volume   567.09723577
_cell_formula_units_Z   2
loop_
 _symmetry_equiv_pos_site_id
 _symmetry_equiv_pos_as_xyz
  1  'x, y, z'
loop_
 _atom_site_type_symbol
 _atom_site_label
 _atom_site_symmetry_multiplicity
 _atom_site_fract_x
 _atom_site_fract_y
 _atom_site_fract_z
 _atom_site_occupancy
  U  U0  1  0.500000  0.746927  0.250000  1
  U  U1  1  0.500000  0.253073  0.750000  1
  Cr  Cr2  1  0.000000  0.747576  0.250000  1
  Cr  Cr3  1  0.761942  0.500000  0.500000  1
  Cr  Cr4  1  0.238058  0.500000  0.000000  1
  Cr  Cr5  1  0.761555  0.000000  0.500000  1
  Cr  Cr6  1  0.000000  0.252424  0.750000  1
  Cr  Cr7  1  0.238445  0.000000  0.000000  1
  Ag  Ag8  1  0.753115  0.754218  0.886125  1
  Ag  Ag9  1  0.246885  0.245782  0.386125  1
  Ag  Ag10  1  0.753115  0.245782  0.113875  1
  Ag  Ag11  1  0.246885  0.754218  0.613875  1
  S  S12  1  0.971368  0.749723  0.481944  1
  S  S13  1  0.771127  0.514374  0.267476  1
  S  S14  1  0.543865  0.749772  0.502402  1
  S  S15  1  0.228873  0.485626  0.767476  1
  S  S16  1  0.543865  0.250228  0.497598  1
  S  S17  1  0.770621  0.019835  0.732590  1
  S  S18  1  0.971368  0.250277  0.518056  1
  S  S19  1  0.771127  0.485626  0.732524  1
  S  S20  1  0.456135  0.250228  0.002402  1
  S  S21  1  0.229379  0.019835  0.767410  1
  S  S22  1  0.028632  0.250277  0.981944  1
  S  S23  1  0.770621  0.980165  0.267410  1
  S  S24  1  0.028632  0.749723  0.018056  1
  S  S25  1  0.228873  0.514374  0.232524  1
  S  S26  1  0.456135  0.749772  0.997598  1
  S  S27  1  0.229379  0.980165  0.232590  1
