# generated using pymatgen
data_Tb4ZnCuSi6
_symmetry_space_group_name_H-M   'P 1'
_cell_length_a   8.07728201
_cell_length_b   8.04793315
_cell_length_c   5.72254824
_cell_angle_alpha   69.48875156
_cell_angle_beta   68.93931957
_cell_angle_gamma   41.57192376
_symmetry_Int_Tables_number   1
_chemical_formula_structural   Tb4ZnCuSi6
_chemical_formula_sum   'Tb4 Zn1 Cu1 Si6'
_cell_volume   228.34682681
_cell_formula_units_Z   1
loop_
 _symmetry_equiv_pos_site_id
 _symmetry_equiv_pos_as_xyz
  1  'x, y, z'
loop_
 _atom_site_type_symbol
 _atom_site_label
 _atom_site_symmetry_multiplicity
 _atom_site_fract_x
 _atom_site_fract_y
 _atom_site_fract_z
 _atom_site_occupancy
  Tb  Tb0  1  0.243334  0.755923  0.244076  1
  Tb  Tb1  1  0.250393  0.250392  0.249608  1
  Tb  Tb2  1  0.750392  0.750391  0.749609  1
  Tb  Tb3  1  0.755925  0.243332  0.756667  1
  Zn  Zn4  1  0.666570  0.666568  0.333431  1
  Cu  Cu5  1  0.333225  0.333223  0.666776  1
  Si  Si6  1  0.834968  0.834966  0.165033  1
  Si  Si7  1  0.832613  0.332023  0.167388  1
  Si  Si8  1  0.657479  0.172920  0.342522  1
  Si  Si9  1  0.332025  0.832611  0.667976  1
  Si  Si10  1  0.172922  0.657477  0.827079  1
  Si  Si11  1  0.170166  0.170164  0.829835  1
