# generated using pymatgen
data_Zr2Ag(PO4)3
_symmetry_space_group_name_H-M   'P 1'
_cell_length_a   8.96661302
_cell_length_b   8.96661309
_cell_length_c   9.27773326
_cell_angle_alpha   118.89676714
_cell_angle_beta   118.89676661
_cell_angle_gamma   60.00000199
_symmetry_Int_Tables_number   1
_chemical_formula_structural   Zr2Ag(PO4)3
_chemical_formula_sum   'Zr4 Ag2 P6 O24'
_cell_volume   536.07798755
_cell_formula_units_Z   2
loop_
 _symmetry_equiv_pos_site_id
 _symmetry_equiv_pos_as_xyz
  1  'x, y, z'
loop_
 _atom_site_type_symbol
 _atom_site_label
 _atom_site_symmetry_multiplicity
 _atom_site_fract_x
 _atom_site_fract_y
 _atom_site_fract_z
 _atom_site_occupancy
  Zr  Zr0  1  0.355391  0.355392  0.066176  1
  Zr  Zr1  1  0.144608  0.144608  0.433824  1
  Zr  Zr2  1  0.855392  0.855391  0.566176  1
  Zr  Zr3  1  0.644609  0.644608  0.933824  1
  Ag  Ag4  1  0.000000  0.000000  0.000000  1
  Ag  Ag5  1  0.500001  0.500000  0.500000  1
  P  P6  1  0.038196  0.750000  0.249999  1
  P  P7  1  0.461805  0.038195  0.249999  1
  P  P8  1  0.750000  0.461804  0.249999  1
  P  P9  1  0.250000  0.538195  0.749999  1
  P  P10  1  0.538195  0.961804  0.749999  1
  P  P11  1  0.961804  0.250000  0.749999  1
  O  O12  1  0.496655  0.878085  0.086046  1
  O  O13  1  0.711306  0.496655  0.086046  1
  O  O14  1  0.878085  0.711306  0.086046  1
  O  O15  1  0.061584  0.916167  0.262346  1
  O  O16  1  0.284594  0.061584  0.262346  1
  O  O17  1  0.916167  0.284594  0.262346  1
  O  O18  1  0.215405  0.583833  0.237654  1
  O  O19  1  0.438417  0.215405  0.237654  1
  O  O20  1  0.583833  0.438416  0.237654  1
  O  O21  1  0.003345  0.788694  0.413954  1
  O  O22  1  0.621915  0.003345  0.413954  1
  O  O23  1  0.788694  0.621915  0.413954  1
  O  O24  1  0.211306  0.378085  0.586046  1
  O  O25  1  0.378085  0.996655  0.586046  1
  O  O26  1  0.996655  0.211307  0.586046  1
  O  O27  1  0.416167  0.561584  0.762346  1
  O  O28  1  0.561585  0.784595  0.762346  1
  O  O29  1  0.784595  0.416167  0.762346  1
  O  O30  1  0.083833  0.715406  0.737654  1
  O  O31  1  0.715406  0.938416  0.737654  1
  O  O32  1  0.938416  0.083833  0.737654  1
  O  O33  1  0.121915  0.288694  0.913954  1
  O  O34  1  0.288694  0.503344  0.913954  1
  O  O35  1  0.503345  0.121915  0.913954  1
