# generated using pymatgen
data_Nd2Ho4FeI10
_symmetry_space_group_name_H-M   'P 1'
_cell_length_a   7.75836368
_cell_length_b   9.78117773
_cell_length_c   9.64203579
_cell_angle_alpha   106.66557913
_cell_angle_beta   95.97683988
_cell_angle_gamma   105.28794062
_symmetry_Int_Tables_number   1
_chemical_formula_structural   Nd2Ho4FeI10
_chemical_formula_sum   'Nd2 Ho4 Fe1 I10'
_cell_volume   663.24126378
_cell_formula_units_Z   1
loop_
 _symmetry_equiv_pos_site_id
 _symmetry_equiv_pos_as_xyz
  1  'x, y, z'
loop_
 _atom_site_type_symbol
 _atom_site_label
 _atom_site_symmetry_multiplicity
 _atom_site_fract_x
 _atom_site_fract_y
 _atom_site_fract_z
 _atom_site_occupancy
  Nd  Nd0  1  0.891457  0.959893  0.221896  1
  Nd  Nd1  1  0.108543  0.040107  0.778104  1
  Ho  Ho2  1  0.029451  0.715270  0.914166  1
  Ho  Ho3  1  0.970549  0.284730  0.085834  1
  Ho  Ho4  1  0.652752  0.875473  0.834786  1
  Ho  Ho5  1  0.347248  0.124527  0.165214  1
  Fe  Fe6  1  0.000000  0.000000  0.000000  1
  I  I7  1  0.650420  0.551920  0.729592  1
  I  I8  1  0.349580  0.448080  0.270408  1
  I  I9  1  0.735339  0.910834  0.542858  1
  I  I10  1  0.264661  0.089166  0.457142  1
  I  I11  1  0.084753  0.375368  0.821214  1
  I  I12  1  0.915247  0.624632  0.178786  1
  I  I13  1  0.450873  0.816717  0.091935  1
  I  I14  1  0.549127  0.183283  0.908065  1
  I  I15  1  0.222802  0.739288  0.655387  1
  I  I16  1  0.777198  0.260712  0.344613  1
