# generated using pymatgen
data_Yb3Pr(Y3Ru2)2
_symmetry_space_group_name_H-M   'P 1'
_cell_length_a   6.47827203
_cell_length_b   7.29810017
_cell_length_c   8.61136459
_cell_angle_alpha   96.89361023
_cell_angle_beta   112.16870080
_cell_angle_gamma   90.12966791
_symmetry_Int_Tables_number   1
_chemical_formula_structural   Yb3Pr(Y3Ru2)2
_chemical_formula_sum   'Yb3 Pr1 Y6 Ru4'
_cell_volume   373.81374527
_cell_formula_units_Z   1
loop_
 _symmetry_equiv_pos_site_id
 _symmetry_equiv_pos_as_xyz
  1  'x, y, z'
loop_
 _atom_site_type_symbol
 _atom_site_label
 _atom_site_symmetry_multiplicity
 _atom_site_fract_x
 _atom_site_fract_y
 _atom_site_fract_z
 _atom_site_occupancy
  Yb  Yb0  1  0.795650  0.581335  0.813573  1
  Yb  Yb1  1  0.015835  0.083222  0.811322  1
  Yb  Yb2  1  0.199818  0.416566  0.181859  1
  Pr  Pr3  1  0.981516  0.917307  0.185595  1
  Y  Y4  1  0.636338  0.816515  0.432444  1
  Y  Y5  1  0.203104  0.683744  0.567900  1
  Y  Y6  1  0.364090  0.182907  0.569803  1
  Y  Y7  1  0.800777  0.313921  0.433775  1
  Y  Y8  1  0.426265  0.749588  0.998015  1
  Y  Y9  1  0.567148  0.250101  0.998647  1
  Ru  Ru10  1  0.822491  0.576904  0.228651  1
  Ru  Ru11  1  0.594764  0.925164  0.775868  1
  Ru  Ru12  1  0.180428  0.426154  0.770465  1
  Ru  Ru13  1  0.411776  0.076569  0.232086  1
