# generated using pymatgen
data_Sm2MgPa2Zn3Rh4
_symmetry_space_group_name_H-M   'P 1'
_cell_length_a   3.85550100
_cell_length_b   7.28227095
_cell_length_c   8.57740136
_cell_angle_alpha   92.87844426
_cell_angle_beta   90.00000000
_cell_angle_gamma   90.00000000
_symmetry_Int_Tables_number   1
_chemical_formula_structural   Sm2MgPa2Zn3Rh4
_chemical_formula_sum   'Sm2 Mg1 Pa2 Zn3 Rh4'
_cell_volume   240.52216241
_cell_formula_units_Z   1
loop_
 _symmetry_equiv_pos_site_id
 _symmetry_equiv_pos_as_xyz
  1  'x, y, z'
loop_
 _atom_site_type_symbol
 _atom_site_label
 _atom_site_symmetry_multiplicity
 _atom_site_fract_x
 _atom_site_fract_y
 _atom_site_fract_z
 _atom_site_occupancy
  Sm  Sm0  1  0.250000  0.056646  0.319056  1
  Sm  Sm1  1  0.750000  0.940249  0.677189  1
  Mg  Mg2  1  0.250000  0.120121  0.943380  1
  Pa  Pa3  1  0.250000  0.549839  0.190454  1
  Pa  Pa4  1  0.750000  0.458250  0.805245  1
  Zn  Zn5  1  0.750000  0.867934  0.064296  1
  Zn  Zn6  1  0.250000  0.625113  0.554809  1
  Zn  Zn7  1  0.750000  0.373752  0.442892  1
  Rh  Rh8  1  0.750000  0.739803  0.354707  1
  Rh  Rh9  1  0.250000  0.260866  0.646705  1
  Rh  Rh10  1  0.750000  0.293505  0.124929  1
  Rh  Rh11  1  0.250000  0.713923  0.876338  1
