# generated using pymatgen
data_Sr10MnPN10
_symmetry_space_group_name_H-M   'P 1'
_cell_length_a   7.50740700
_cell_length_b   7.50740620
_cell_length_c   8.92204346
_cell_angle_alpha   76.37547351
_cell_angle_beta   76.37547776
_cell_angle_gamma   95.92059400
_symmetry_Int_Tables_number   1
_chemical_formula_structural   Sr10MnPN10
_chemical_formula_sum   'Sr10 Mn1 P1 N10'
_cell_volume   468.20727360
_cell_formula_units_Z   1
loop_
 _symmetry_equiv_pos_site_id
 _symmetry_equiv_pos_as_xyz
  1  'x, y, z'
loop_
 _atom_site_type_symbol
 _atom_site_label
 _atom_site_symmetry_multiplicity
 _atom_site_fract_x
 _atom_site_fract_y
 _atom_site_fract_z
 _atom_site_occupancy
  Sr  Sr0  1  0.398783  0.386474  0.381391  1
  Sr  Sr1  1  0.613526  0.601217  0.618609  1
  Sr  Sr2  1  0.665262  0.669305  0.009037  1
  Sr  Sr3  1  0.330695  0.334738  0.990963  1
  Sr  Sr4  1  0.920279  0.930471  0.200189  1
  Sr  Sr5  1  0.069529  0.079721  0.799811  1
  Sr  Sr6  1  0.564115  0.098205  0.759200  1
  Sr  Sr7  1  0.901795  0.435885  0.240800  1
  Sr  Sr8  1  0.446010  0.911312  0.241032  1
  Sr  Sr9  1  0.088688  0.553990  0.758968  1
  Mn  Mn10  1  0.242687  0.757313  0.000000  1
  P  P11  1  0.757503  0.242497  0.000000  1
  N  N12  1  0.657403  0.657417  0.316998  1
  N  N13  1  0.342583  0.342597  0.683002  1
  N  N14  1  0.721060  0.021530  0.988280  1
  N  N15  1  0.978470  0.278940  0.011720  1
  N  N16  1  0.282498  0.981402  0.013428  1
  N  N17  1  0.018598  0.717502  0.986572  1
  N  N18  1  0.395315  0.731691  0.831857  1
  N  N19  1  0.268309  0.604685  0.168142  1
  N  N20  1  0.607436  0.270545  0.162763  1
  N  N21  1  0.729455  0.392564  0.837236  1
