# generated using pymatgen
data_HfSc5H18
_symmetry_space_group_name_H-M   'P 1'
_cell_length_a   5.80846200
_cell_length_b   5.81062856
_cell_length_c   6.06578009
_cell_angle_alpha   90.09120342
_cell_angle_beta   90.00035887
_cell_angle_gamma   119.98723630
_symmetry_Int_Tables_number   1
_chemical_formula_structural   HfSc5H18
_chemical_formula_sum   'Hf1 Sc5 H18'
_cell_volume   177.31956859
_cell_formula_units_Z   1
loop_
 _symmetry_equiv_pos_site_id
 _symmetry_equiv_pos_as_xyz
  1  'x, y, z'
loop_
 _atom_site_type_symbol
 _atom_site_label
 _atom_site_symmetry_multiplicity
 _atom_site_fract_x
 _atom_site_fract_y
 _atom_site_fract_z
 _atom_site_occupancy
  Hf  Hf0  1  0.336133  0.000010  0.250001  1
  Sc  Sc1  1  0.667346  0.000008  0.749993  1
  Sc  Sc2  1  0.333271  0.335398  0.748677  1
  Sc  Sc3  1  0.997871  0.664597  0.751310  1
  Sc  Sc4  1  0.664850  0.663879  0.250064  1
  Sc  Sc5  1  0.000973  0.336118  0.249955  1
  H  H6  1  0.321574  0.978935  0.912842  1
  H  H7  1  0.656710  0.675829  0.910757  1
  H  H8  1  0.017854  0.340399  0.910595  1
  H  H9  1  0.326041  0.341557  0.404949  1
  H  H10  1  0.034817  0.683013  0.408119  1
  H  H11  1  0.638896  0.972431  0.406469  1
  H  H12  1  0.666465  0.027564  0.093532  1
  H  H13  1  0.351803  0.316983  0.091881  1
  H  H14  1  0.984482  0.658441  0.095046  1
  H  H15  1  0.677456  0.659598  0.589401  1
  H  H16  1  0.980885  0.324170  0.589236  1
  H  H17  1  0.342635  0.021060  0.587164  1
  H  H18  1  0.000429  0.999997  0.750003  1
  H  H19  1  0.000793  0.000007  0.250001  1
  H  H20  1  0.665368  0.332619  0.787523  1
  H  H21  1  0.665830  0.331066  0.310087  1
  H  H22  1  0.334769  0.668945  0.189913  1
  H  H23  1  0.332746  0.667376  0.712479  1
