# generated using pymatgen
data_Gd8Fe(Si4Ni)3
_symmetry_space_group_name_H-M   'P 1'
_cell_length_a   8.00747500
_cell_length_b   8.00747458
_cell_length_c   8.16710300
_cell_angle_alpha   90.00000000
_cell_angle_beta   90.00000000
_cell_angle_gamma   120.00000585
_symmetry_Int_Tables_number   1
_chemical_formula_structural   Gd8Fe(Si4Ni)3
_chemical_formula_sum   'Gd8 Fe1 Si12 Ni3'
_cell_volume   453.51306100
_cell_formula_units_Z   1
loop_
 _symmetry_equiv_pos_site_id
 _symmetry_equiv_pos_as_xyz
  1  'x, y, z'
loop_
 _atom_site_type_symbol
 _atom_site_label
 _atom_site_symmetry_multiplicity
 _atom_site_fract_x
 _atom_site_fract_y
 _atom_site_fract_z
 _atom_site_occupancy
  Gd  Gd0  1  0.499079  0.998159  0.252429  1
  Gd  Gd1  1  0.499048  0.998097  0.747624  1
  Gd  Gd2  1  0.001841  0.500921  0.252429  1
  Gd  Gd3  1  0.001903  0.500952  0.747624  1
  Gd  Gd4  1  0.499079  0.500921  0.252429  1
  Gd  Gd5  1  0.499048  0.500952  0.747624  1
  Gd  Gd6  1  0.000000  0.000000  0.249314  1
  Gd  Gd7  1  0.000000  0.000000  0.750083  1
  Fe  Fe8  1  0.333333  0.666667  0.502219  1
  Si  Si9  1  0.170143  0.340288  0.000631  1
  Si  Si10  1  0.829518  0.659034  0.000033  1
  Si  Si11  1  0.659712  0.829857  0.000631  1
  Si  Si12  1  0.829400  0.658799  0.500020  1
  Si  Si13  1  0.340966  0.170482  0.000033  1
  Si  Si14  1  0.170981  0.341962  0.499067  1
  Si  Si15  1  0.170143  0.829857  0.000631  1
  Si  Si16  1  0.341201  0.170600  0.500020  1
  Si  Si17  1  0.829518  0.170482  0.000033  1
  Si  Si18  1  0.658038  0.829019  0.499067  1
  Si  Si19  1  0.829400  0.170600  0.500020  1
  Si  Si20  1  0.170981  0.829019  0.499067  1
  Ni  Ni21  1  0.333333  0.666667  0.999205  1
  Ni  Ni22  1  0.666667  0.333333  0.999466  1
  Ni  Ni23  1  0.666667  0.333333  0.500301  1
