# generated using pymatgen
data_Ho3Zn3NiGe2
_symmetry_space_group_name_H-M   'P 1'
_cell_length_a   6.82647700
_cell_length_b   6.82647718
_cell_length_c   4.20749900
_cell_angle_alpha   90.00000000
_cell_angle_beta   90.00000000
_cell_angle_gamma   119.99999427
_symmetry_Int_Tables_number   1
_chemical_formula_structural   Ho3Zn3NiGe2
_chemical_formula_sum   'Ho3 Zn3 Ni1 Ge2'
_cell_volume   169.80401406
_cell_formula_units_Z   1
loop_
 _symmetry_equiv_pos_site_id
 _symmetry_equiv_pos_as_xyz
  1  'x, y, z'
loop_
 _atom_site_type_symbol
 _atom_site_label
 _atom_site_symmetry_multiplicity
 _atom_site_fract_x
 _atom_site_fract_y
 _atom_site_fract_z
 _atom_site_occupancy
  Ho  Ho0  1  0.404262  0.000000  0.000000  1
  Ho  Ho1  1  0.000000  0.404261  0.000000  1
  Ho  Ho2  1  0.595738  0.595739  0.000000  1
  Zn  Zn3  1  0.769809  0.000000  0.500001  1
  Zn  Zn4  1  0.230192  0.230192  0.500001  1
  Zn  Zn5  1  0.000000  0.769809  0.500001  1
  Ni  Ni6  1  0.000000  0.000000  0.000000  1
  Ge  Ge7  1  0.666666  0.333333  0.500001  1
  Ge  Ge8  1  0.333333  0.666666  0.500001  1
