# generated using pymatgen
data_Ho11Th5Mg2(InRu2)2
_symmetry_space_group_name_H-M   'P 1'
_cell_length_a   9.70066191
_cell_length_b   9.75723218
_cell_length_c   9.76436858
_cell_angle_alpha   59.60825454
_cell_angle_beta   60.12183306
_cell_angle_gamma   60.18460457
_symmetry_Int_Tables_number   1
_chemical_formula_structural   Ho11Th5Mg2(InRu2)2
_chemical_formula_sum   'Ho11 Th5 Mg2 In2 Ru4'
_cell_volume   653.05634680
_cell_formula_units_Z   1
loop_
 _symmetry_equiv_pos_site_id
 _symmetry_equiv_pos_as_xyz
  1  'x, y, z'
loop_
 _atom_site_type_symbol
 _atom_site_label
 _atom_site_symmetry_multiplicity
 _atom_site_fract_x
 _atom_site_fract_y
 _atom_site_fract_z
 _atom_site_occupancy
  Ho  Ho0  1  0.185000  0.812211  0.812965  1
  Ho  Ho1  1  0.193928  0.807366  0.186168  1
  Ho  Ho2  1  0.813400  0.183838  0.809698  1
  Ho  Ho3  1  0.191206  0.183979  0.810195  1
  Ho  Ho4  1  0.810915  0.806047  0.187057  1
  Ho  Ho5  1  0.935467  0.568853  0.566591  1
  Ho  Ho6  1  0.564878  0.935793  0.935317  1
  Ho  Ho7  1  0.563209  0.936573  0.564871  1
  Ho  Ho8  1  0.937999  0.563500  0.937112  1
  Ho  Ho9  1  0.561922  0.565417  0.936625  1
  Ho  Ho10  1  0.938086  0.936279  0.563602  1
  Th  Th11  1  0.339833  0.348396  0.349478  1
  Th  Th12  1  0.349207  0.348377  0.956934  1
  Th  Th13  1  0.348620  0.956793  0.349099  1
  Th  Th14  1  0.955678  0.351419  0.351282  1
  Th  Th15  1  0.814772  0.184437  0.185592  1
  Mg  Mg16  1  0.577348  0.264060  0.578320  1
  Mg  Mg17  1  0.262572  0.578219  0.576990  1
  In  In18  1  0.583398  0.582414  0.583925  1
  In  In19  1  0.579108  0.583429  0.252152  1
  Ru  Ru20  1  0.128595  0.147423  0.147052  1
  Ru  Ru21  1  0.143930  0.140633  0.569325  1
  Ru  Ru22  1  0.143951  0.567737  0.141649  1
  Ru  Ru23  1  0.576976  0.146809  0.148001  1
