# generated using pymatgen
data_VIn(NiPt2)2
_symmetry_space_group_name_H-M   'P 1'
_cell_length_a   3.91548600
_cell_length_b   3.91548600
_cell_length_c   7.66320500
_cell_angle_alpha   90.00000000
_cell_angle_beta   90.00000000
_cell_angle_gamma   90.00000000
_symmetry_Int_Tables_number   1
_chemical_formula_structural   VIn(NiPt2)2
_chemical_formula_sum   'V1 In1 Ni2 Pt4'
_cell_volume   117.48483047
_cell_formula_units_Z   1
loop_
 _symmetry_equiv_pos_site_id
 _symmetry_equiv_pos_as_xyz
  1  'x, y, z'
loop_
 _atom_site_type_symbol
 _atom_site_label
 _atom_site_symmetry_multiplicity
 _atom_site_fract_x
 _atom_site_fract_y
 _atom_site_fract_z
 _atom_site_occupancy
  V  V0  1  0.000000  0.000000  0.500000  1
  In  In1  1  0.000000  0.000000  0.000000  1
  Ni  Ni2  1  0.500000  0.500000  0.000000  1
  Ni  Ni3  1  0.500000  0.500000  0.500000  1
  Pt  Pt4  1  0.500000  0.000000  0.268965  1
  Pt  Pt5  1  0.500000  0.000000  0.731035  1
  Pt  Pt6  1  0.000000  0.500000  0.268965  1
  Pt  Pt7  1  0.000000  0.500000  0.731035  1
