# generated using pymatgen
data_Ir3OsPb4O13
_symmetry_space_group_name_H-M   'P 1'
_cell_length_a   7.35344373
_cell_length_b   7.37512100
_cell_length_c   7.35344400
_cell_angle_alpha   60.09718061
_cell_angle_beta   59.99999879
_cell_angle_gamma   60.09717584
_symmetry_Int_Tables_number   1
_chemical_formula_structural   Ir3OsPb4O13
_chemical_formula_sum   'Ir3 Os1 Pb4 O13'
_cell_volume   282.40479386
_cell_formula_units_Z   1
loop_
 _symmetry_equiv_pos_site_id
 _symmetry_equiv_pos_as_xyz
  1  'x, y, z'
loop_
 _atom_site_type_symbol
 _atom_site_label
 _atom_site_symmetry_multiplicity
 _atom_site_fract_x
 _atom_site_fract_y
 _atom_site_fract_z
 _atom_site_occupancy
  Ir  Ir0  1  0.874935  0.874442  0.375687  1
  Ir  Ir1  1  0.874935  0.874442  0.874935  1
  Ir  Ir2  1  0.375687  0.874442  0.874935  1
  Os  Os3  1  0.875116  0.374652  0.875116  1
  Pb  Pb4  1  0.880900  0.373289  0.372906  1
  Pb  Pb5  1  0.372906  0.373289  0.372906  1
  Pb  Pb6  1  0.372906  0.373289  0.880900  1
  Pb  Pb7  1  0.373248  0.880257  0.373248  1
  O  O8  1  0.203700  0.793337  0.799262  1
  O  O9  1  0.203700  0.793337  0.203700  1
  O  O10  1  0.548759  0.955496  0.946988  1
  O  O11  1  0.548759  0.955496  0.548759  1
  O  O12  1  0.946988  0.955496  0.548759  1
  O  O13  1  0.799262  0.793337  0.203700  1
  O  O14  1  0.559715  0.552135  0.944076  1
  O  O15  1  0.802603  0.200568  0.802603  1
  O  O16  1  0.802603  0.200568  0.194225  1
  O  O17  1  0.944076  0.552135  0.944076  1
  O  O18  1  0.944076  0.552135  0.559715  1
  O  O19  1  0.194225  0.200568  0.802603  1
  O  O20  1  0.500902  0.497295  0.500902  1
