# generated using pymatgen
data_Th10Ga2SnBi5
_symmetry_space_group_name_H-M   'P 1'
_cell_length_a   9.68552422
_cell_length_b   9.68552642
_cell_length_c   6.55836900
_cell_angle_alpha   90.00000000
_cell_angle_beta   90.00000000
_cell_angle_gamma   119.96883674
_symmetry_Int_Tables_number   1
_chemical_formula_structural   Th10Ga2SnBi5
_chemical_formula_sum   'Th10 Ga2 Sn1 Bi5'
_cell_volume   532.97781729
_cell_formula_units_Z   1
loop_
 _symmetry_equiv_pos_site_id
 _symmetry_equiv_pos_as_xyz
  1  'x, y, z'
loop_
 _atom_site_type_symbol
 _atom_site_label
 _atom_site_symmetry_multiplicity
 _atom_site_fract_x
 _atom_site_fract_y
 _atom_site_fract_z
 _atom_site_occupancy
  Th  Th0  1  0.000531  0.261946  0.250000  1
  Th  Th1  1  0.734688  0.995494  0.750000  1
  Th  Th2  1  0.737565  0.737565  0.250000  1
  Th  Th3  1  0.666147  0.335979  0.501644  1
  Th  Th4  1  0.995494  0.734688  0.750000  1
  Th  Th5  1  0.265221  0.265221  0.750000  1
  Th  Th6  1  0.335979  0.666147  0.998356  1
  Th  Th7  1  0.666147  0.335979  0.998356  1
  Th  Th8  1  0.335979  0.666147  0.501644  1
  Th  Th9  1  0.261946  0.000531  0.250000  1
  Ga  Ga10  1  0.000444  0.000444  0.999003  1
  Ga  Ga11  1  0.000444  0.000444  0.500997  1
  Sn  Sn12  1  0.613021  0.613021  0.750000  1
  Bi  Bi13  1  0.612488  0.000771  0.250000  1
  Bi  Bi14  1  0.385050  0.999249  0.750000  1
  Bi  Bi15  1  0.388835  0.388835  0.250000  1
  Bi  Bi16  1  0.000771  0.612488  0.250000  1
  Bi  Bi17  1  0.999249  0.385050  0.750000  1
