# generated using pymatgen
data_Nd16ErTm3Sn16
_symmetry_space_group_name_H-M   'P 1'
_cell_length_a   8.20148800
_cell_length_b   8.37998400
_cell_length_c   15.89740800
_cell_angle_alpha   90.00000000
_cell_angle_beta   90.00000000
_cell_angle_gamma   89.99874879
_symmetry_Int_Tables_number   1
_chemical_formula_structural   Nd16ErTm3Sn16
_chemical_formula_sum   'Nd16 Er1 Tm3 Sn16'
_cell_volume   1092.60243378
_cell_formula_units_Z   1
loop_
 _symmetry_equiv_pos_site_id
 _symmetry_equiv_pos_as_xyz
  1  'x, y, z'
loop_
 _atom_site_type_symbol
 _atom_site_label
 _atom_site_symmetry_multiplicity
 _atom_site_fract_x
 _atom_site_fract_y
 _atom_site_fract_z
 _atom_site_occupancy
  Nd  Nd0  1  0.018359  0.181120  0.401851  1
  Nd  Nd1  1  0.365826  0.838450  0.121271  1
  Nd  Nd2  1  0.134173  0.338389  0.621247  1
  Nd  Nd3  1  0.481732  0.681056  0.901779  1
  Nd  Nd4  1  0.865836  0.661566  0.121301  1
  Nd  Nd5  1  0.134173  0.338389  0.878753  1
  Nd  Nd6  1  0.481732  0.681056  0.598221  1
  Nd  Nd7  1  0.634199  0.161642  0.621253  1
  Nd  Nd8  1  0.865836  0.661566  0.378699  1
  Nd  Nd9  1  0.018359  0.181120  0.098149  1
  Nd  Nd10  1  0.981538  0.818866  0.901822  1
  Nd  Nd11  1  0.634199  0.161642  0.878747  1
  Nd  Nd12  1  0.518339  0.318839  0.098150  1
  Nd  Nd13  1  0.365826  0.838450  0.378729  1
  Nd  Nd14  1  0.981538  0.818866  0.598178  1
  Nd  Nd15  1  0.518339  0.318839  0.401850  1
  Er  Er16  1  0.802344  0.497643  0.750000  1
  Tm  Tm17  1  0.197631  0.502397  0.250000  1
  Tm  Tm18  1  0.697628  0.997621  0.250000  1
  Tm  Tm19  1  0.302444  0.002428  0.750000  1
  Sn  Sn20  1  0.793152  0.465488  0.544291  1
  Sn  Sn21  1  0.706863  0.965479  0.455199  1
  Sn  Sn22  1  0.675735  0.851880  0.750000  1
  Sn  Sn23  1  0.206894  0.534455  0.455203  1
  Sn  Sn24  1  0.293261  0.034553  0.955559  1
  Sn  Sn25  1  0.824345  0.351674  0.250000  1
  Sn  Sn26  1  0.793152  0.465488  0.955709  1
  Sn  Sn27  1  0.561922  0.616467  0.250000  1
  Sn  Sn28  1  0.206894  0.534455  0.044797  1
  Sn  Sn29  1  0.437647  0.383794  0.750000  1
  Sn  Sn30  1  0.175816  0.648290  0.750000  1
  Sn  Sn31  1  0.937955  0.116205  0.750000  1
  Sn  Sn32  1  0.293261  0.034553  0.544441  1
  Sn  Sn33  1  0.706863  0.965479  0.044801  1
  Sn  Sn34  1  0.324222  0.148285  0.250000  1
  Sn  Sn35  1  0.061965  0.883509  0.250000  1
