# generated using pymatgen
data_Cs12VW3S16
_symmetry_space_group_name_H-M   'P 1'
_cell_length_a   9.97154962
_cell_length_b   10.07165485
_cell_length_c   11.76123700
_cell_angle_alpha   90.00000000
_cell_angle_beta   90.00000000
_cell_angle_gamma   90.22099549
_symmetry_Int_Tables_number   1
_chemical_formula_structural   Cs12VW3S16
_chemical_formula_sum   'Cs12 V1 W3 S16'
_cell_volume   1181.17231691
_cell_formula_units_Z   1
loop_
 _symmetry_equiv_pos_site_id
 _symmetry_equiv_pos_as_xyz
  1  'x, y, z'
loop_
 _atom_site_type_symbol
 _atom_site_label
 _atom_site_symmetry_multiplicity
 _atom_site_fract_x
 _atom_site_fract_y
 _atom_site_fract_z
 _atom_site_occupancy
  Cs  Cs0  1  0.540409  0.702948  0.045288  1
  Cs  Cs1  1  0.051501  0.788414  0.455313  1
  Cs  Cs2  1  0.451265  0.297879  0.536397  1
  Cs  Cs3  1  0.956263  0.209115  0.960244  1
  Cs  Cs4  1  0.451265  0.297879  0.963603  1
  Cs  Cs5  1  0.956263  0.209115  0.539756  1
  Cs  Cs6  1  0.540409  0.702948  0.454712  1
  Cs  Cs7  1  0.051501  0.788414  0.044687  1
  Cs  Cs8  1  0.347952  0.088427  0.250000  1
  Cs  Cs9  1  0.853515  0.415764  0.250000  1
  Cs  Cs10  1  0.650429  0.913491  0.750000  1
  Cs  Cs11  1  0.149380  0.584198  0.750000  1
  V  V12  1  0.274138  0.519443  0.250000  1
  W  W13  1  0.773065  0.980366  0.250000  1
  W  W14  1  0.724818  0.480656  0.750000  1
  W  W15  1  0.227402  0.019507  0.750000  1
  S  S16  1  0.290557  0.737536  0.250000  1
  S  S17  1  0.790097  0.758322  0.250000  1
  S  S18  1  0.708028  0.258088  0.750000  1
  S  S19  1  0.210111  0.241982  0.750000  1
  S  S20  1  0.477426  0.434110  0.250000  1
  S  S21  1  0.980224  0.069786  0.250000  1
  S  S22  1  0.517825  0.569732  0.750000  1
  S  S23  1  0.020204  0.929605  0.750000  1
  S  S24  1  0.168197  0.457032  0.095337  1
  S  S25  1  0.665516  0.042666  0.408573  1
  S  S26  1  0.833299  0.544092  0.591977  1
  S  S27  1  0.335963  0.957348  0.908193  1
  S  S28  1  0.833299  0.544092  0.908023  1
  S  S29  1  0.335963  0.957348  0.591807  1
  S  S30  1  0.168197  0.457032  0.404663  1
  S  S31  1  0.665516  0.042666  0.091427  1
