# generated using pymatgen
data_Ca4Cd8PdPt3
_symmetry_space_group_name_H-M   'P 1'
_cell_length_a   5.60410298
_cell_length_b   8.06381282
_cell_length_c   8.22132100
_cell_angle_alpha   90.00000000
_cell_angle_beta   90.00000000
_cell_angle_gamma   89.90397531
_symmetry_Int_Tables_number   1
_chemical_formula_structural   Ca4Cd8PdPt3
_chemical_formula_sum   'Ca4 Cd8 Pd1 Pt3'
_cell_volume   371.52457037
_cell_formula_units_Z   1
loop_
 _symmetry_equiv_pos_site_id
 _symmetry_equiv_pos_as_xyz
  1  'x, y, z'
loop_
 _atom_site_type_symbol
 _atom_site_label
 _atom_site_symmetry_multiplicity
 _atom_site_fract_x
 _atom_site_fract_y
 _atom_site_fract_z
 _atom_site_occupancy
  Ca  Ca0  1  0.400930  0.535157  0.250000  1
  Ca  Ca1  1  0.098047  0.034034  0.250000  1
  Ca  Ca2  1  0.598024  0.463101  0.750000  1
  Ca  Ca3  1  0.900108  0.967596  0.750000  1
  Cd  Cd4  1  0.904244  0.671790  0.054573  1
  Cd  Cd5  1  0.597080  0.171878  0.444939  1
  Cd  Cd6  1  0.096143  0.328285  0.555329  1
  Cd  Cd7  1  0.402585  0.827894  0.944709  1
  Cd  Cd8  1  0.096143  0.328285  0.944671  1
  Cd  Cd9  1  0.402585  0.827894  0.555291  1
  Cd  Cd10  1  0.904244  0.671790  0.445427  1
  Cd  Cd11  1  0.597080  0.171878  0.055061  1
  Pd  Pd12  1  0.116245  0.622314  0.750000  1
  Pt  Pt13  1  0.613269  0.877895  0.250000  1
  Pt  Pt14  1  0.886586  0.377342  0.250000  1
  Pt  Pt15  1  0.386686  0.122867  0.750000  1
