# generated using pymatgen
data_Dy5Hf2P12Ir13Rh4
_symmetry_space_group_name_H-M   'P 1'
_cell_length_a   12.68519770
_cell_length_b   12.90652729
_cell_length_c   3.95560600
_cell_angle_alpha   90.00000000
_cell_angle_beta   90.00000000
_cell_angle_gamma   119.52200671
_symmetry_Int_Tables_number   1
_chemical_formula_structural   Dy5Hf2P12Ir13Rh4
_chemical_formula_sum   'Dy5 Hf2 P12 Ir13 Rh4'
_cell_volume   563.53647284
_cell_formula_units_Z   1
loop_
 _symmetry_equiv_pos_site_id
 _symmetry_equiv_pos_as_xyz
  1  'x, y, z'
loop_
 _atom_site_type_symbol
 _atom_site_label
 _atom_site_symmetry_multiplicity
 _atom_site_fract_x
 _atom_site_fract_y
 _atom_site_fract_z
 _atom_site_occupancy
  Dy  Dy0  1  0.329949  0.661370  0.500000  1
  Dy  Dy1  1  0.668361  0.338207  0.500000  1
  Dy  Dy2  1  0.999898  0.814180  0.000000  1
  Dy  Dy3  1  0.184651  0.184443  0.000000  1
  Dy  Dy4  1  0.810868  0.000846  0.000000  1
  Hf  Hf5  1  0.998086  0.445615  0.500000  1
  Hf  Hf6  1  0.551216  0.554828  0.500000  1
  P  P7  1  0.005005  0.650030  0.500000  1
  P  P8  1  0.355049  0.349183  0.500000  1
  P  P9  1  0.640583  0.999398  0.500000  1
  P  P10  1  0.515679  0.686952  0.000000  1
  P  P11  1  0.311303  0.826219  0.000000  1
  P  P12  1  0.165252  0.481662  0.000000  1
  P  P13  1  0.484890  0.173062  0.000000  1
  P  P14  1  0.684016  0.519204  0.000000  1
  P  P15  1  0.829436  0.314218  0.000000  1
  P  P16  1  0.999062  0.173518  0.500000  1
  P  P17  1  0.825624  0.825861  0.500000  1
  P  P18  1  0.181753  0.998244  0.500000  1
  Ir  Ir19  1  0.356237  0.495282  0.000000  1
  Ir  Ir20  1  0.484380  0.357565  0.000000  1
  Ir  Ir21  1  0.860925  0.504882  0.000000  1
  Ir  Ir22  1  0.642802  0.136498  0.000000  1
  Ir  Ir23  1  0.997547  0.278451  0.000000  1
  Ir  Ir24  1  0.719174  0.721762  0.000000  1
  Ir  Ir25  1  0.287176  0.000107  0.000000  1
  Ir  Ir26  1  0.203810  0.823847  0.500000  1
  Ir  Ir27  1  0.178188  0.367053  0.500000  1
  Ir  Ir28  1  0.378539  0.175304  0.500000  1
  Ir  Ir29  1  0.809399  0.631753  0.500000  1
  Ir  Ir30  1  0.817562  0.192218  0.500000  1
  Ir  Ir31  1  0.004648  0.000126  0.500000  1
  Rh  Rh32  1  0.506531  0.864463  0.000000  1
  Rh  Rh33  1  0.125404  0.643256  0.000000  1
  Rh  Rh34  1  0.462143  0.002966  0.500000  1
  Rh  Rh35  1  0.624856  0.807427  0.500000  1
