# generated using pymatgen
data_NdGd3(B4Ir)4
_symmetry_space_group_name_H-M   'P 1'
_cell_length_a   7.12193772
_cell_length_b   7.12193860
_cell_length_c   7.12193900
_cell_angle_alpha   111.77115040
_cell_angle_beta   111.77115325
_cell_angle_gamma   104.96324362
_symmetry_Int_Tables_number   1
_chemical_formula_structural   NdGd3(B4Ir)4
_chemical_formula_sum   'Nd1 Gd3 B16 Ir4'
_cell_volume   276.80423632
_cell_formula_units_Z   1
loop_
 _symmetry_equiv_pos_site_id
 _symmetry_equiv_pos_as_xyz
  1  'x, y, z'
loop_
 _atom_site_type_symbol
 _atom_site_label
 _atom_site_symmetry_multiplicity
 _atom_site_fract_x
 _atom_site_fract_y
 _atom_site_fract_z
 _atom_site_occupancy
  Nd  Nd0  1  0.250070  0.749896  0.499826  1
  Gd  Gd1  1  0.785244  0.785461  0.000217  1
  Gd  Gd2  1  0.215316  0.214317  0.999001  1
  Gd  Gd3  1  0.750160  0.250221  0.500061  1
  B  B4  1  0.264842  0.108252  0.373086  1
  B  B5  1  0.735094  0.891781  0.627002  1
  B  B6  1  0.264779  0.891781  0.156687  1
  B  B7  1  0.735166  0.108252  0.843410  1
  B  B8  1  0.108110  0.735098  0.843444  1
  B  B9  1  0.891759  0.264728  0.156558  1
  B  B10  1  0.108170  0.264728  0.372969  1
  B  B11  1  0.891653  0.735098  0.626988  1
  B  B12  1  0.112485  0.113124  0.526756  1
  B  B13  1  0.586240  0.585828  0.473384  1
  B  B14  1  0.112445  0.585828  0.999588  1
  B  B15  1  0.586367  0.113124  0.000640  1
  B  B16  1  0.886881  0.887502  0.473357  1
  B  B17  1  0.414122  0.413735  0.526817  1
  B  B18  1  0.886918  0.413735  0.999612  1
  B  B19  1  0.414147  0.887503  0.000622  1
  Ir  Ir20  1  0.259284  0.497906  0.761472  1
  Ir  Ir21  1  0.736434  0.497906  0.238622  1
  Ir  Ir22  1  0.502157  0.740652  0.238495  1
  Ir  Ir23  1  0.502161  0.263545  0.761384  1
