# generated using pymatgen
data_Ce2Al9OsPt2
_symmetry_space_group_name_H-M   'P 1'
_cell_length_a   7.65741891
_cell_length_b   7.65742010
_cell_length_c   9.50774700
_cell_angle_alpha   90.00000000
_cell_angle_beta   90.00000000
_cell_angle_gamma   119.23232085
_symmetry_Int_Tables_number   1
_chemical_formula_structural   Ce2Al9OsPt2
_chemical_formula_sum   'Ce4 Al18 Os2 Pt4'
_cell_volume   486.49789426
_cell_formula_units_Z   2
loop_
 _symmetry_equiv_pos_site_id
 _symmetry_equiv_pos_as_xyz
  1  'x, y, z'
loop_
 _atom_site_type_symbol
 _atom_site_label
 _atom_site_symmetry_multiplicity
 _atom_site_fract_x
 _atom_site_fract_y
 _atom_site_fract_z
 _atom_site_occupancy
  Ce  Ce0  1  0.995724  0.676317  0.250000  1
  Ce  Ce1  1  0.004276  0.323683  0.750000  1
  Ce  Ce2  1  0.676317  0.995724  0.250000  1
  Ce  Ce3  1  0.323683  0.004276  0.750000  1
  Al  Al4  1  0.002117  0.332970  0.076454  1
  Al  Al5  1  0.997883  0.667030  0.923546  1
  Al  Al6  1  0.997883  0.667030  0.576454  1
  Al  Al7  1  0.332970  0.002117  0.423546  1
  Al  Al8  1  0.002117  0.332970  0.423546  1
  Al  Al9  1  0.667030  0.997883  0.576454  1
  Al  Al10  1  0.667030  0.997883  0.923546  1
  Al  Al11  1  0.332970  0.002117  0.076454  1
  Al  Al12  1  0.329726  0.329726  0.548686  1
  Al  Al13  1  0.670274  0.670274  0.451314  1
  Al  Al14  1  0.670274  0.670274  0.048686  1
  Al  Al15  1  0.329726  0.329726  0.951314  1
  Al  Al16  1  0.131529  0.131529  0.250000  1
  Al  Al17  1  0.868471  0.868471  0.750000  1
  Al  Al18  1  0.345439  0.549004  0.250000  1
  Al  Al19  1  0.654561  0.450996  0.750000  1
  Al  Al20  1  0.549004  0.345439  0.250000  1
  Al  Al21  1  0.450996  0.654561  0.750000  1
  Os  Os22  1  0.000000  0.000000  0.000000  1
  Os  Os23  1  0.000000  0.000000  0.500000  1
  Pt  Pt24  1  0.671582  0.328418  0.000000  1
  Pt  Pt25  1  0.328418  0.671582  0.000000  1
  Pt  Pt26  1  0.328418  0.671582  0.500000  1
  Pt  Pt27  1  0.671582  0.328418  0.500000  1
