# generated using pymatgen
data_Tm4AlGa5Os2
_symmetry_space_group_name_H-M   'P 1'
_cell_length_a   5.42592100
_cell_length_b   5.39417019
_cell_length_c   8.72002200
_cell_angle_alpha   90.00000000
_cell_angle_beta   90.00000000
_cell_angle_gamma   120.19489738
_symmetry_Int_Tables_number   1
_chemical_formula_structural   Tm4AlGa5Os2
_chemical_formula_sum   'Tm4 Al1 Ga5 Os2'
_cell_volume   220.59214875
_cell_formula_units_Z   1
loop_
 _symmetry_equiv_pos_site_id
 _symmetry_equiv_pos_as_xyz
  1  'x, y, z'
loop_
 _atom_site_type_symbol
 _atom_site_label
 _atom_site_symmetry_multiplicity
 _atom_site_fract_x
 _atom_site_fract_y
 _atom_site_fract_z
 _atom_site_occupancy
  Tm  Tm0  1  0.667316  0.334631  0.052285  1
  Tm  Tm1  1  0.667316  0.334631  0.447716  1
  Tm  Tm2  1  0.333576  0.667152  0.553776  1
  Tm  Tm3  1  0.333576  0.667152  0.946225  1
  Al  Al4  1  0.160628  0.321258  0.250000  1
  Ga  Ga5  1  0.163353  0.829019  0.250000  1
  Ga  Ga6  1  0.665666  0.829019  0.250000  1
  Ga  Ga7  1  0.332023  0.165394  0.750000  1
  Ga  Ga8  1  0.833372  0.165394  0.750000  1
  Ga  Ga9  1  0.834384  0.668767  0.750000  1
  Os  Os10  1  0.004396  0.008792  0.000383  1
  Os  Os11  1  0.004396  0.008792  0.499617  1
