# generated using pymatgen
data_Tb2Pr2Dy2RuBr10
_symmetry_space_group_name_H-M   'P 1'
_cell_length_a   7.50094399
_cell_length_b   9.43310879
_cell_length_c   9.36701602
_cell_angle_alpha   107.78632285
_cell_angle_beta   95.76199150
_cell_angle_gamma   106.61368947
_symmetry_Int_Tables_number   1
_chemical_formula_structural   Tb2Pr2Dy2RuBr10
_chemical_formula_sum   'Tb2 Pr2 Dy2 Ru1 Br10'
_cell_volume   591.81982021
_cell_formula_units_Z   1
loop_
 _symmetry_equiv_pos_site_id
 _symmetry_equiv_pos_as_xyz
  1  'x, y, z'
loop_
 _atom_site_type_symbol
 _atom_site_label
 _atom_site_symmetry_multiplicity
 _atom_site_fract_x
 _atom_site_fract_y
 _atom_site_fract_z
 _atom_site_occupancy
  Tb  Tb0  1  0.367061  0.140244  0.180731  1
  Tb  Tb1  1  0.632939  0.859756  0.819269  1
  Pr  Pr2  1  0.123567  0.046524  0.761038  1
  Pr  Pr3  1  0.876433  0.953476  0.238962  1
  Dy  Dy4  1  0.976738  0.303561  0.097134  1
  Dy  Dy5  1  0.023262  0.696439  0.902866  1
  Ru  Ru6  1  0.000000  0.000000  0.000000  1
  Br  Br7  1  0.553030  0.175382  0.920293  1
  Br  Br8  1  0.446970  0.824618  0.079707  1
  Br  Br9  1  0.354293  0.452879  0.271831  1
  Br  Br10  1  0.645707  0.547121  0.728169  1
  Br  Br11  1  0.264284  0.087513  0.451000  1
  Br  Br12  1  0.735716  0.912487  0.549000  1
  Br  Br13  1  0.789601  0.264745  0.343965  1
  Br  Br14  1  0.210399  0.735255  0.656035  1
  Br  Br15  1  0.085667  0.376546  0.834515  1
  Br  Br16  1  0.914333  0.623454  0.165485  1
