# generated using pymatgen
data_Pa6C5
_symmetry_space_group_name_H-M   'P 1'
_cell_length_a   6.13548050
_cell_length_b   6.13548052
_cell_length_c   6.16038789
_cell_angle_alpha   99.60250077
_cell_angle_beta   99.60249244
_cell_angle_gamma   119.81804399
_symmetry_Int_Tables_number   1
_chemical_formula_structural   Pa6C5
_chemical_formula_sum   'Pa6 C5'
_cell_volume   189.73810082
_cell_formula_units_Z   1
loop_
 _symmetry_equiv_pos_site_id
 _symmetry_equiv_pos_as_xyz
  1  'x, y, z'
loop_
 _atom_site_type_symbol
 _atom_site_label
 _atom_site_symmetry_multiplicity
 _atom_site_fract_x
 _atom_site_fract_y
 _atom_site_fract_z
 _atom_site_occupancy
  Pa  Pa0  1  0.414179  0.082859  0.249042  1
  Pa  Pa1  1  0.082859  0.414179  0.249042  1
  Pa  Pa2  1  0.751330  0.751330  0.248763  1
  Pa  Pa3  1  0.248671  0.248671  0.751237  1
  Pa  Pa4  1  0.917141  0.585821  0.750956  1
  Pa  Pa5  1  0.585821  0.917141  0.750956  1
  C  C6  1  0.665922  0.334077  0.000000  1
  C  C7  1  0.334077  0.665922  0.000000  1
  C  C8  1  0.826595  0.173404  0.500000  1
  C  C9  1  0.499999  0.499999  0.500000  1
  C  C10  1  0.173404  0.826595  0.500000  1
