# generated using pymatgen
data_YbSm3(BeSi3)2
_symmetry_space_group_name_H-M   'P 1'
_cell_length_a   8.03467605
_cell_length_b   7.89445398
_cell_length_c   5.76199333
_cell_angle_alpha   70.09951708
_cell_angle_beta   67.49937665
_cell_angle_gamma   42.40112455
_symmetry_Int_Tables_number   1
_chemical_formula_structural   YbSm3(BeSi3)2
_chemical_formula_sum   'Yb1 Sm3 Be2 Si6'
_cell_volume   226.70649996
_cell_formula_units_Z   1
loop_
 _symmetry_equiv_pos_site_id
 _symmetry_equiv_pos_as_xyz
  1  'x, y, z'
loop_
 _atom_site_type_symbol
 _atom_site_label
 _atom_site_symmetry_multiplicity
 _atom_site_fract_x
 _atom_site_fract_y
 _atom_site_fract_z
 _atom_site_occupancy
  Yb  Yb0  1  0.750001  0.749999  0.750000  1
  Sm  Sm1  1  0.250000  0.250000  0.250001  1
  Sm  Sm2  1  0.244739  0.755261  0.244740  1
  Sm  Sm3  1  0.755261  0.244740  0.755262  1
  Be  Be4  1  0.666593  0.666594  0.333407  1
  Be  Be5  1  0.333406  0.333407  0.666594  1
  Si  Si6  1  0.822662  0.349280  0.171939  1
  Si  Si7  1  0.827431  0.827431  0.172570  1
  Si  Si8  1  0.656120  0.171939  0.349280  1
  Si  Si9  1  0.349280  0.822662  0.656121  1
  Si  Si10  1  0.172569  0.172570  0.827432  1
  Si  Si11  1  0.171938  0.656121  0.822662  1
