# generated using pymatgen
data_LiTb6Mn2RuC12
_symmetry_space_group_name_H-M   'P 1'
_cell_length_a   8.20771800
_cell_length_b   8.20771774
_cell_length_c   5.02377800
_cell_angle_alpha   90.00000000
_cell_angle_beta   90.00000000
_cell_angle_gamma   120.00000801
_symmetry_Int_Tables_number   1
_chemical_formula_structural   LiTb6Mn2RuC12
_chemical_formula_sum   'Li1 Tb6 Mn2 Ru1 C12'
_cell_volume   293.09329006
_cell_formula_units_Z   1
loop_
 _symmetry_equiv_pos_site_id
 _symmetry_equiv_pos_as_xyz
  1  'x, y, z'
loop_
 _atom_site_type_symbol
 _atom_site_label
 _atom_site_symmetry_multiplicity
 _atom_site_fract_x
 _atom_site_fract_y
 _atom_site_fract_z
 _atom_site_occupancy
  Li  Li0  1  0.000000  0.000000  0.500000  1
  Tb  Tb1  1  0.622018  0.686265  0.740480  1
  Tb  Tb2  1  0.935752  0.622018  0.259520  1
  Tb  Tb3  1  0.686265  0.064248  0.259520  1
  Tb  Tb4  1  0.313735  0.935752  0.740480  1
  Tb  Tb5  1  0.064248  0.377982  0.740480  1
  Tb  Tb6  1  0.377982  0.313735  0.259520  1
  Mn  Mn7  1  0.666667  0.333333  0.749865  1
  Mn  Mn8  1  0.333333  0.666667  0.250135  1
  Ru  Ru9  1  0.000000  0.000000  0.000000  1
  C  C10  1  0.969002  0.761316  0.758565  1
  C  C11  1  0.207688  0.969002  0.241435  1
  C  C12  1  0.761316  0.792312  0.241435  1
  C  C13  1  0.238684  0.207688  0.758565  1
  C  C14  1  0.792312  0.030998  0.758565  1
  C  C15  1  0.030998  0.238684  0.241435  1
  C  C16  1  0.858535  0.572646  0.763011  1
  C  C17  1  0.285889  0.858535  0.236989  1
  C  C18  1  0.572646  0.714111  0.236989  1
  C  C19  1  0.427354  0.285889  0.763011  1
  C  C20  1  0.141465  0.427354  0.236989  1
  C  C21  1  0.714111  0.141465  0.763011  1
