# generated using pymatgen
data_Ho6Er2BePd24
_symmetry_space_group_name_H-M   'P 1'
_cell_length_a   8.30807000
_cell_length_b   8.30807001
_cell_length_c   8.30807000
_cell_angle_alpha   89.99812418
_cell_angle_beta   90.00187582
_cell_angle_gamma   90.00187588
_symmetry_Int_Tables_number   1
_chemical_formula_structural   Ho6Er2BePd24
_chemical_formula_sum   'Ho6 Er2 Be1 Pd24'
_cell_volume   573.45644904
_cell_formula_units_Z   1
loop_
 _symmetry_equiv_pos_site_id
 _symmetry_equiv_pos_as_xyz
  1  'x, y, z'
loop_
 _atom_site_type_symbol
 _atom_site_label
 _atom_site_symmetry_multiplicity
 _atom_site_fract_x
 _atom_site_fract_y
 _atom_site_fract_z
 _atom_site_occupancy
  Ho  Ho0  1  0.250627  0.250688  0.250688  1
  Ho  Ho1  1  0.749373  0.749312  0.749312  1
  Ho  Ho2  1  0.749312  0.749373  0.250688  1
  Ho  Ho3  1  0.749312  0.250688  0.749373  1
  Ho  Ho4  1  0.250688  0.250627  0.749312  1
  Ho  Ho5  1  0.250688  0.749312  0.250627  1
  Er  Er6  1  0.250710  0.749290  0.749290  1
  Er  Er7  1  0.749290  0.250710  0.250710  1
  Be  Be8  1  0.000000  0.000000  0.000000  1
  Pd  Pd9  1  0.254760  0.500240  0.999658  1
  Pd  Pd10  1  0.745240  0.499760  0.000342  1
  Pd  Pd11  1  0.999658  0.254760  0.499760  1
  Pd  Pd12  1  0.500240  0.254760  0.000342  1
  Pd  Pd13  1  0.000342  0.745240  0.500240  1
  Pd  Pd14  1  0.499760  0.745240  0.999658  1
  Pd  Pd15  1  0.500240  0.000342  0.254760  1
  Pd  Pd16  1  0.254760  0.999658  0.500240  1
  Pd  Pd17  1  0.499760  0.999658  0.745240  1
  Pd  Pd18  1  0.745240  0.000342  0.499760  1
  Pd  Pd19  1  0.999658  0.499760  0.254760  1
  Pd  Pd20  1  0.000342  0.500240  0.745240  1
  Pd  Pd21  1  0.251106  0.500320  0.500320  1
  Pd  Pd22  1  0.748894  0.499680  0.499680  1
  Pd  Pd23  1  0.500320  0.251106  0.499680  1
  Pd  Pd24  1  0.499680  0.748894  0.500320  1
  Pd  Pd25  1  0.500320  0.499680  0.251106  1
  Pd  Pd26  1  0.499680  0.500320  0.748894  1
  Pd  Pd27  1  0.268836  0.999670  0.999670  1
  Pd  Pd28  1  0.731164  0.000330  0.000330  1
  Pd  Pd29  1  0.999670  0.268836  0.000330  1
  Pd  Pd30  1  0.000330  0.731164  0.999670  1
  Pd  Pd31  1  0.999670  0.000330  0.268836  1
  Pd  Pd32  1  0.000330  0.999670  0.731164  1
