# generated using pymatgen
data_Hf2Mn3FeSi3Ge
_symmetry_space_group_name_H-M   'P 1'
_cell_length_a   5.07413200
_cell_length_b   7.13012068
_cell_length_c   7.55453533
_cell_angle_alpha   89.81522626
_cell_angle_beta   90.00000000
_cell_angle_gamma   90.00000000
_symmetry_Int_Tables_number   1
_chemical_formula_structural   Hf2Mn3FeSi3Ge
_chemical_formula_sum   'Hf4 Mn6 Fe2 Si6 Ge2'
_cell_volume   273.31542327
_cell_formula_units_Z   2
loop_
 _symmetry_equiv_pos_site_id
 _symmetry_equiv_pos_as_xyz
  1  'x, y, z'
loop_
 _atom_site_type_symbol
 _atom_site_label
 _atom_site_symmetry_multiplicity
 _atom_site_fract_x
 _atom_site_fract_y
 _atom_site_fract_z
 _atom_site_occupancy
  Hf  Hf0  1  0.750000  0.904228  0.249220  1
  Hf  Hf1  1  0.250000  0.095772  0.750780  1
  Hf  Hf2  1  0.750000  0.404742  0.756103  1
  Hf  Hf3  1  0.250000  0.595258  0.243897  1
  Mn  Mn4  1  0.750000  0.510710  0.109919  1
  Mn  Mn5  1  0.250000  0.489290  0.890081  1
  Mn  Mn6  1  0.000003  0.756902  0.622893  1
  Mn  Mn7  1  0.500003  0.243098  0.377107  1
  Mn  Mn8  1  0.999997  0.243098  0.377107  1
  Mn  Mn9  1  0.499997  0.756902  0.622893  1
  Fe  Fe10  1  0.750000  0.011806  0.884127  1
  Fe  Fe11  1  0.250000  0.988194  0.115873  1
  Si  Si12  1  0.750000  0.051046  0.584251  1
  Si  Si13  1  0.250000  0.948954  0.415749  1
  Si  Si14  1  0.998823  0.751504  0.950289  1
  Si  Si15  1  0.498823  0.248496  0.049711  1
  Si  Si16  1  0.001177  0.248496  0.049711  1
  Si  Si17  1  0.501177  0.751504  0.950289  1
  Ge  Ge18  1  0.750000  0.550267  0.416060  1
  Ge  Ge19  1  0.250000  0.449733  0.583940  1
