# generated using pymatgen
data_Lu12Fe3AgHg
_symmetry_space_group_name_H-M   'P 1'
_cell_length_a   8.09728789
_cell_length_b   8.09730305
_cell_length_c   8.09728753
_cell_angle_alpha   109.46193501
_cell_angle_beta   107.61467740
_cell_angle_gamma   111.35861593
_symmetry_Int_Tables_number   1
_chemical_formula_structural   Lu12Fe3AgHg
_chemical_formula_sum   'Lu12 Fe3 Ag1 Hg1'
_cell_volume   408.25742256
_cell_formula_units_Z   1
loop_
 _symmetry_equiv_pos_site_id
 _symmetry_equiv_pos_as_xyz
  1  'x, y, z'
loop_
 _atom_site_type_symbol
 _atom_site_label
 _atom_site_symmetry_multiplicity
 _atom_site_fract_x
 _atom_site_fract_y
 _atom_site_fract_z
 _atom_site_occupancy
  Lu  Lu0  1  0.309398  0.308695  0.618084  1
  Lu  Lu1  1  0.690602  0.691305  0.381916  1
  Lu  Lu2  1  0.690611  0.308695  0.999298  1
  Lu  Lu3  1  0.309389  0.691305  0.000702  1
  Lu  Lu4  1  0.192127  0.439880  0.247753  1
  Lu  Lu5  1  0.807873  0.560120  0.752247  1
  Lu  Lu6  1  0.192119  0.944352  0.752235  1
  Lu  Lu7  1  0.955334  0.187979  0.767354  1
  Lu  Lu8  1  0.807881  0.055648  0.247765  1
  Lu  Lu9  1  0.044666  0.812021  0.232646  1
  Lu  Lu10  1  0.420624  0.187979  0.232643  1
  Lu  Lu11  1  0.579376  0.812021  0.767357  1
  Fe  Fe12  1  0.380482  0.380484  0.000003  1
  Fe  Fe13  1  0.619518  0.619516  0.999997  1
  Fe  Fe14  1  0.000000  0.000000  0.000000  1
  Ag  Ag15  1  0.000000  0.500000  0.500000  1
  Hg  Hg16  1  0.500000  0.000000  0.500000  1
