# generated using pymatgen
data_La13PrIr5Rh
_symmetry_space_group_name_H-M   'P 1'
_cell_length_a   10.25468629
_cell_length_b   10.23941703
_cell_length_c   6.60239365
_cell_angle_alpha   90.11903344
_cell_angle_beta   89.84329570
_cell_angle_gamma   120.48626905
_symmetry_Int_Tables_number   1
_chemical_formula_structural   La13PrIr5Rh
_chemical_formula_sum   'La13 Pr1 Ir5 Rh1'
_cell_volume   597.41887543
_cell_formula_units_Z   1
loop_
 _symmetry_equiv_pos_site_id
 _symmetry_equiv_pos_as_xyz
  1  'x, y, z'
loop_
 _atom_site_type_symbol
 _atom_site_label
 _atom_site_symmetry_multiplicity
 _atom_site_fract_x
 _atom_site_fract_y
 _atom_site_fract_z
 _atom_site_occupancy
  La  La0  1  0.333956  0.668059  0.476093  1
  La  La1  1  0.665964  0.333325  0.974917  1
  La  La2  1  0.126113  0.874142  0.243910  1
  La  La3  1  0.748626  0.873164  0.245673  1
  La  La4  1  0.126745  0.250562  0.246179  1
  La  La5  1  0.873456  0.125101  0.743315  1
  La  La6  1  0.250544  0.124420  0.745232  1
  La  La7  1  0.875316  0.750301  0.744243  1
  La  La8  1  0.538482  0.462238  0.435107  1
  La  La9  1  0.923520  0.462228  0.434528  1
  La  La10  1  0.538535  0.076996  0.436224  1
  La  La11  1  0.461968  0.538970  0.933934  1
  La  La12  1  0.077711  0.539965  0.933417  1
  Pr  Pr13  1  0.460952  0.923564  0.938412  1
  Ir  Ir14  1  0.375209  0.188242  0.196307  1
  Ir  Ir15  1  0.811625  0.624649  0.194439  1
  Ir  Ir16  1  0.184865  0.810840  0.692230  1
  Ir  Ir17  1  0.626432  0.811077  0.693727  1
  Ir  Ir18  1  0.187659  0.374303  0.696112  1
  Rh  Rh19  1  0.812322  0.187853  0.198087  1
