# generated using pymatgen
data_Eu4Ho3Tm5Se16
_symmetry_space_group_name_H-M   'P 1'
_cell_length_a   4.10749400
_cell_length_b   12.47992616
_cell_length_c   14.82044705
_cell_angle_alpha   90.09292543
_cell_angle_beta   90.00000000
_cell_angle_gamma   90.00000000
_symmetry_Int_Tables_number   1
_chemical_formula_structural   Eu4Ho3Tm5Se16
_chemical_formula_sum   'Eu4 Ho3 Tm5 Se16'
_cell_volume   759.71322456
_cell_formula_units_Z   1
loop_
 _symmetry_equiv_pos_site_id
 _symmetry_equiv_pos_as_xyz
  1  'x, y, z'
loop_
 _atom_site_type_symbol
 _atom_site_label
 _atom_site_symmetry_multiplicity
 _atom_site_fract_x
 _atom_site_fract_y
 _atom_site_fract_z
 _atom_site_occupancy
  Eu  Eu0  1  0.750000  0.741778  0.164609  1
  Eu  Eu1  1  0.750000  0.240374  0.333884  1
  Eu  Eu2  1  0.250000  0.258427  0.835904  1
  Eu  Eu3  1  0.250000  0.759184  0.664744  1
  Ho  Ho4  1  0.750000  0.564428  0.388454  1
  Ho  Ho5  1  0.250000  0.935896  0.889242  1
  Ho  Ho6  1  0.250000  0.435183  0.611501  1
  Tm  Tm7  1  0.750000  0.081884  0.597213  1
  Tm  Tm8  1  0.750000  0.582251  0.902903  1
  Tm  Tm9  1  0.250000  0.918612  0.402395  1
  Tm  Tm10  1  0.250000  0.417559  0.096843  1
  Tm  Tm11  1  0.750000  0.063226  0.112048  1
  Se  Se12  1  0.750000  0.291621  0.675393  1
  Se  Se13  1  0.750000  0.792193  0.825130  1
  Se  Se14  1  0.250000  0.708441  0.324686  1
  Se  Se15  1  0.250000  0.206523  0.172660  1
  Se  Se16  1  0.750000  0.369365  0.968917  1
  Se  Se17  1  0.750000  0.869030  0.530027  1
  Se  Se18  1  0.250000  0.631322  0.030977  1
  Se  Se19  1  0.250000  0.131415  0.469376  1
  Se  Se20  1  0.750000  0.975405  0.285541  1
  Se  Se21  1  0.750000  0.473574  0.214066  1
  Se  Se22  1  0.250000  0.025639  0.714613  1
  Se  Se23  1  0.250000  0.525611  0.785892  1
  Se  Se24  1  0.750000  0.091507  0.923432  1
  Se  Se25  1  0.750000  0.591158  0.579093  1
  Se  Se26  1  0.250000  0.909764  0.079778  1
  Se  Se27  1  0.250000  0.408628  0.420679  1
