# generated using pymatgen
data_Sc5In4IrPd
_symmetry_space_group_name_H-M   'P 1'
_cell_length_a   3.35645300
_cell_length_b   7.72051225
_cell_length_c   17.70783700
_cell_angle_alpha   89.87541953
_cell_angle_beta   90.00000000
_cell_angle_gamma   90.00000000
_symmetry_Int_Tables_number   1
_chemical_formula_structural   Sc5In4IrPd
_chemical_formula_sum   'Sc10 In8 Ir2 Pd2'
_cell_volume   458.87159579
_cell_formula_units_Z   2
loop_
 _symmetry_equiv_pos_site_id
 _symmetry_equiv_pos_as_xyz
  1  'x, y, z'
loop_
 _atom_site_type_symbol
 _atom_site_label
 _atom_site_symmetry_multiplicity
 _atom_site_fract_x
 _atom_site_fract_y
 _atom_site_fract_z
 _atom_site_occupancy
  Sc  Sc0  1  0.000000  0.000000  0.000000  1
  Sc  Sc1  1  0.000000  0.500000  0.500000  1
  Sc  Sc2  1  0.000000  0.757310  0.778070  1
  Sc  Sc3  1  0.000000  0.242690  0.221930  1
  Sc  Sc4  1  0.000000  0.237273  0.719353  1
  Sc  Sc5  1  0.000000  0.762727  0.280647  1
  Sc  Sc6  1  0.000000  0.874963  0.583898  1
  Sc  Sc7  1  0.000000  0.125037  0.416102  1
  Sc  Sc8  1  0.000000  0.372927  0.918475  1
  Sc  Sc9  1  0.000000  0.627073  0.081525  1
  In  In10  1  0.500000  0.795972  0.433477  1
  In  In11  1  0.500000  0.204028  0.566523  1
  In  In12  1  0.500000  0.296455  0.066770  1
  In  In13  1  0.500000  0.703545  0.933230  1
  In  In14  1  0.500000  0.929371  0.148064  1
  In  In15  1  0.500000  0.070629  0.851936  1
  In  In16  1  0.500000  0.430416  0.350925  1
  In  In17  1  0.500000  0.569584  0.649075  1
  Ir  Ir18  1  0.500000  0.961700  0.694432  1
  Ir  Ir19  1  0.500000  0.038300  0.305568  1
  Pd  Pd20  1  0.500000  0.462071  0.805484  1
  Pd  Pd21  1  0.500000  0.537929  0.194516  1
