# generated using pymatgen
data_Hf4Co20Si11P
_symmetry_space_group_name_H-M   'P 1'
_cell_length_a   3.63346100
_cell_length_b   10.29611601
_cell_length_c   11.72925301
_cell_angle_alpha   89.99432750
_cell_angle_beta   90.00000000
_cell_angle_gamma   90.00000000
_symmetry_Int_Tables_number   1
_chemical_formula_structural   Hf4Co20Si11P
_chemical_formula_sum   'Hf4 Co20 Si11 P1'
_cell_volume   438.79763980
_cell_formula_units_Z   1
loop_
 _symmetry_equiv_pos_site_id
 _symmetry_equiv_pos_as_xyz
  1  'x, y, z'
loop_
 _atom_site_type_symbol
 _atom_site_label
 _atom_site_symmetry_multiplicity
 _atom_site_fract_x
 _atom_site_fract_y
 _atom_site_fract_z
 _atom_site_occupancy
  Hf  Hf0  1  0.250000  0.581852  0.703048  1
  Hf  Hf1  1  0.250000  0.918596  0.201558  1
  Hf  Hf2  1  0.750000  0.419227  0.297849  1
  Hf  Hf3  1  0.750000  0.082686  0.795487  1
  Co  Co4  1  0.250000  0.714922  0.993296  1
  Co  Co5  1  0.250000  0.788441  0.492472  1
  Co  Co6  1  0.750000  0.280521  0.009383  1
  Co  Co7  1  0.750000  0.213080  0.505305  1
  Co  Co8  1  0.250000  0.407509  0.488502  1
  Co  Co9  1  0.250000  0.091754  0.991091  1
  Co  Co10  1  0.750000  0.592677  0.512035  1
  Co  Co11  1  0.750000  0.912073  0.013910  1
  Co  Co12  1  0.250000  0.213205  0.175262  1
  Co  Co13  1  0.250000  0.283992  0.676566  1
  Co  Co14  1  0.750000  0.785721  0.825271  1
  Co  Co15  1  0.750000  0.715634  0.323480  1
  Co  Co16  1  0.250000  0.885785  0.699029  1
  Co  Co17  1  0.250000  0.615091  0.199201  1
  Co  Co18  1  0.750000  0.113606  0.296871  1
  Co  Co19  1  0.750000  0.384085  0.801764  1
  Co  Co20  1  0.250000  0.470464  0.929064  1
  Co  Co21  1  0.250000  0.029669  0.427236  1
  Co  Co22  1  0.750000  0.528574  0.071617  1
  Co  Co23  1  0.750000  0.970427  0.569942  1
  Si  Si24  1  0.250000  0.412960  0.112626  1
  Si  Si25  1  0.250000  0.086469  0.610852  1
  Si  Si26  1  0.750000  0.586331  0.888298  1
  Si  Si27  1  0.750000  0.913692  0.386852  1
  Si  Si28  1  0.250000  0.267286  0.871584  1
  Si  Si29  1  0.250000  0.232403  0.369558  1
  Si  Si30  1  0.750000  0.731876  0.128727  1
  Si  Si31  1  0.750000  0.768282  0.630422  1
  Si  Si32  1  0.250000  0.599314  0.390683  1
  Si  Si33  1  0.250000  0.902339  0.890331  1
  Si  Si34  1  0.750000  0.400738  0.610116  1
  P  P35  1  0.750000  0.098720  0.110712  1
