# generated using pymatgen
data_Hf6Si6Mo2Ir3Ru
_symmetry_space_group_name_H-M   'P 1'
_cell_length_a   7.65126915
_cell_length_b   7.65143706
_cell_length_c   7.65242526
_cell_angle_alpha   126.71310447
_cell_angle_beta   123.42187009
_cell_angle_gamma   81.44088044
_symmetry_Int_Tables_number   1
_chemical_formula_structural   Hf6Si6Mo2Ir3Ru
_chemical_formula_sum   'Hf6 Si6 Mo2 Ir3 Ru1'
_cell_volume   288.63901195
_cell_formula_units_Z   1
loop_
 _symmetry_equiv_pos_site_id
 _symmetry_equiv_pos_as_xyz
  1  'x, y, z'
loop_
 _atom_site_type_symbol
 _atom_site_label
 _atom_site_symmetry_multiplicity
 _atom_site_fract_x
 _atom_site_fract_y
 _atom_site_fract_z
 _atom_site_occupancy
  Hf  Hf0  1  0.465935  0.693906  0.730544  1
  Hf  Hf1  1  0.534999  0.265722  0.233071  1
  Hf  Hf2  1  0.747060  0.833619  0.585773  1
  Hf  Hf3  1  0.253691  0.839214  0.085999  1
  Hf  Hf4  1  0.054615  0.264438  0.707621  1
  Hf  Hf5  1  0.942116  0.650848  0.205444  1
  Si  Si6  1  0.279770  0.262546  0.486896  1
  Si  Si7  1  0.722249  0.211111  0.985814  1
  Si  Si8  1  0.325405  0.588903  0.250651  1
  Si  Si9  1  0.674582  0.926736  0.265018  1
  Si  Si10  1  0.161857  0.924429  0.749502  1
  Si  Si11  1  0.837867  0.587932  0.763115  1
  Mo  Mo12  1  0.499431  0.499860  0.000099  1
  Mo  Mo13  1  0.001290  0.500032  0.500516  1
  Ir  Ir14  1  0.093562  0.253359  0.095363  1
  Ir  Ir15  1  0.904539  0.002814  0.157188  1
  Ir  Ir16  1  0.345133  0.001214  0.598643  1
  Ru  Ru17  1  0.655898  0.252917  0.658349  1
