# generated using pymatgen
data_Zr10AlSnSb4
_symmetry_space_group_name_H-M   'P 1'
_cell_length_a   5.58668874
_cell_length_b   8.41930072
_cell_length_c   8.41930009
_cell_angle_alpha   96.31975805
_cell_angle_beta   109.37677639
_cell_angle_gamma   70.62322205
_symmetry_Int_Tables_number   1
_chemical_formula_structural   Zr10AlSnSb4
_chemical_formula_sum   'Zr10 Al1 Sn1 Sb4'
_cell_volume   352.41860909
_cell_formula_units_Z   1
loop_
 _symmetry_equiv_pos_site_id
 _symmetry_equiv_pos_as_xyz
  1  'x, y, z'
loop_
 _atom_site_type_symbol
 _atom_site_label
 _atom_site_symmetry_multiplicity
 _atom_site_fract_x
 _atom_site_fract_y
 _atom_site_fract_z
 _atom_site_occupancy
  Zr  Zr0  1  0.430751  0.859598  0.705478  1
  Zr  Zr1  1  0.584871  0.140402  0.294522  1
  Zr  Zr2  1  0.915129  0.294522  0.140402  1
  Zr  Zr3  1  0.069249  0.705478  0.859598  1
  Zr  Zr4  1  0.725272  0.705478  0.140402  1
  Zr  Zr5  1  0.290349  0.294522  0.859598  1
  Zr  Zr6  1  0.774728  0.140402  0.705478  1
  Zr  Zr7  1  0.209651  0.859598  0.294522  1
  Zr  Zr8  1  0.250000  0.500000  0.500000  1
  Zr  Zr9  1  0.750000  0.500000  0.500000  1
  Al  Al10  1  0.750000  0.000000  0.000000  1
  Sn  Sn11  1  0.250000  0.000000  0.000000  1
  Sb  Sb12  1  0.336678  0.500000  0.173356  1
  Sb  Sb13  1  0.663322  0.500000  0.826644  1
  Sb  Sb14  1  0.836678  0.826644  0.500000  1
  Sb  Sb15  1  0.163322  0.173356  0.500000  1
