# generated using pymatgen
data_Ba3YEr2LuO9
_symmetry_space_group_name_H-M   'P 1'
_cell_length_a   9.14636830
_cell_length_b   9.14636891
_cell_length_c   9.14636955
_cell_angle_alpha   39.00409128
_cell_angle_beta   39.00408377
_cell_angle_gamma   39.00408941
_symmetry_Int_Tables_number   1
_chemical_formula_structural   Ba3YEr2LuO9
_chemical_formula_sum   'Ba3 Y1 Er2 Lu1 O9'
_cell_volume   272.57234133
_cell_formula_units_Z   1
loop_
 _symmetry_equiv_pos_site_id
 _symmetry_equiv_pos_as_xyz
  1  'x, y, z'
loop_
 _atom_site_type_symbol
 _atom_site_label
 _atom_site_symmetry_multiplicity
 _atom_site_fract_x
 _atom_site_fract_y
 _atom_site_fract_z
 _atom_site_occupancy
  Ba  Ba0  1  0.413713  0.413713  0.413713  1
  Ba  Ba1  1  0.835501  0.835501  0.835501  1
  Ba  Ba2  1  0.001292  0.001292  0.001292  1
  Y  Y3  1  0.574624  0.574624  0.574624  1
  Er  Er4  1  0.701078  0.701078  0.701078  1
  Er  Er5  1  0.261434  0.261434  0.261434  1
  Lu  Lu6  1  0.136714  0.136714  0.136714  1
  O  O7  1  0.436875  0.966077  0.525798  1
  O  O8  1  0.966077  0.525798  0.436875  1
  O  O9  1  0.525798  0.436875  0.966077  1
  O  O10  1  0.296252  0.881360  0.409272  1
  O  O11  1  0.881360  0.409272  0.296252  1
  O  O12  1  0.409272  0.296252  0.881360  1
  O  O13  1  0.415433  0.870136  0.971441  1
  O  O14  1  0.971441  0.415433  0.870136  1
  O  O15  1  0.870136  0.971441  0.415433  1
