# generated using pymatgen
data_Lu5In4PtAu
_symmetry_space_group_name_H-M   'P 1'
_cell_length_a   3.58004600
_cell_length_b   8.07028770
_cell_length_c   18.08267958
_cell_angle_alpha   90.04774723
_cell_angle_beta   90.00000000
_cell_angle_gamma   90.00000000
_symmetry_Int_Tables_number   1
_chemical_formula_structural   Lu5In4PtAu
_chemical_formula_sum   'Lu10 In8 Pt2 Au2'
_cell_volume   522.44461844
_cell_formula_units_Z   2
loop_
 _symmetry_equiv_pos_site_id
 _symmetry_equiv_pos_as_xyz
  1  'x, y, z'
loop_
 _atom_site_type_symbol
 _atom_site_label
 _atom_site_symmetry_multiplicity
 _atom_site_fract_x
 _atom_site_fract_y
 _atom_site_fract_z
 _atom_site_occupancy
  Lu  Lu0  1  0.000000  0.120225  0.419177  1
  Lu  Lu1  1  0.000000  0.879775  0.580823  1
  Lu  Lu2  1  0.000000  0.383431  0.916580  1
  Lu  Lu3  1  0.000000  0.616569  0.083420  1
  Lu  Lu4  1  0.000000  0.255602  0.217517  1
  Lu  Lu5  1  0.000000  0.744398  0.782483  1
  Lu  Lu6  1  0.000000  0.265123  0.722371  1
  Lu  Lu7  1  0.000000  0.734877  0.277629  1
  Lu  Lu8  1  0.000000  0.000000  0.000000  1
  Lu  Lu9  1  0.000000  0.500000  0.500000  1
  In  In10  1  0.500000  0.422921  0.352719  1
  In  In11  1  0.500000  0.577079  0.647281  1
  In  In12  1  0.500000  0.075475  0.853717  1
  In  In13  1  0.500000  0.924525  0.146283  1
  In  In14  1  0.500000  0.292578  0.064530  1
  In  In15  1  0.500000  0.707422  0.935470  1
  In  In16  1  0.500000  0.210567  0.566718  1
  In  In17  1  0.500000  0.789433  0.433282  1
  Pt  Pt18  1  0.500000  0.469597  0.804286  1
  Pt  Pt19  1  0.500000  0.530403  0.195714  1
  Au  Au20  1  0.500000  0.030340  0.302435  1
  Au  Au21  1  0.500000  0.969660  0.697565  1
