# generated using pymatgen
data_CeNd6Er13Pt16
_symmetry_space_group_name_H-M   'P 1'
_cell_length_a   7.53821300
_cell_length_b   7.61848614
_cell_length_c   14.75893000
_cell_angle_alpha   90.01084474
_cell_angle_beta   90.00112491
_cell_angle_gamma   89.91692693
_symmetry_Int_Tables_number   1
_chemical_formula_structural   CeNd6Er13Pt16
_chemical_formula_sum   'Ce1 Nd6 Er13 Pt16'
_cell_volume   847.60106833
_cell_formula_units_Z   1
loop_
 _symmetry_equiv_pos_site_id
 _symmetry_equiv_pos_as_xyz
  1  'x, y, z'
loop_
 _atom_site_type_symbol
 _atom_site_label
 _atom_site_symmetry_multiplicity
 _atom_site_fract_x
 _atom_site_fract_y
 _atom_site_fract_z
 _atom_site_occupancy
  Ce  Ce0  1  0.001250  0.820537  0.095012  1
  Nd  Nd1  1  0.499978  0.677892  0.095228  1
  Nd  Nd2  1  0.501152  0.323293  0.594388  1
  Nd  Nd3  1  0.999940  0.175365  0.907050  1
  Nd  Nd4  1  0.000245  0.174579  0.592761  1
  Nd  Nd5  1  0.501187  0.323215  0.905803  1
  Nd  Nd6  1  0.498393  0.678887  0.405489  1
  Er  Er7  1  0.680026  0.991622  0.250847  1
  Er  Er8  1  0.181188  0.508745  0.250576  1
  Er  Er9  1  0.820748  0.490629  0.750200  1
  Er  Er10  1  0.319286  0.009033  0.749873  1
  Er  Er11  1  0.656714  0.833036  0.622595  1
  Er  Er12  1  0.156263  0.667454  0.876976  1
  Er  Er13  1  0.842933  0.332583  0.376517  1
  Er  Er14  1  0.342260  0.166889  0.123185  1
  Er  Er15  1  0.340932  0.165931  0.377353  1
  Er  Er16  1  0.843442  0.332114  0.123987  1
  Er  Er17  1  0.154014  0.668632  0.621771  1
  Er  Er18  1  0.656141  0.833009  0.877163  1
  Er  Er19  1  0.997040  0.819707  0.403781  1
  Pt  Pt20  1  0.819775  0.642186  0.249435  1
  Pt  Pt21  1  0.309689  0.862092  0.250393  1
  Pt  Pt22  1  0.685791  0.137627  0.750139  1
  Pt  Pt23  1  0.186103  0.362833  0.750093  1
  Pt  Pt24  1  0.547561  0.377372  0.250145  1
  Pt  Pt25  1  0.044300  0.118743  0.250357  1
  Pt  Pt26  1  0.953296  0.876605  0.749950  1
  Pt  Pt27  1  0.452801  0.624152  0.749975  1
  Pt  Pt28  1  0.822186  0.539909  0.540787  1
  Pt  Pt29  1  0.320652  0.962460  0.959213  1
  Pt  Pt30  1  0.685902  0.031492  0.455249  1
  Pt  Pt31  1  0.175743  0.468426  0.045342  1
  Pt  Pt32  1  0.174494  0.469675  0.453985  1
  Pt  Pt33  1  0.685492  0.032134  0.044607  1
  Pt  Pt34  1  0.320953  0.961323  0.540734  1
  Pt  Pt35  1  0.822131  0.539818  0.959042  1
