# generated using pymatgen
data_Sr12GaGe11Au12
_symmetry_space_group_name_H-M   'P 1'
_cell_length_a   4.66341700
_cell_length_b   8.02275346
_cell_length_c   23.18601995
_cell_angle_alpha   89.91855126
_cell_angle_beta   90.00000000
_cell_angle_gamma   90.00000000
_symmetry_Int_Tables_number   1
_chemical_formula_structural   Sr12GaGe11Au12
_chemical_formula_sum   'Sr12 Ga1 Ge11 Au12'
_cell_volume   867.46800251
_cell_formula_units_Z   1
loop_
 _symmetry_equiv_pos_site_id
 _symmetry_equiv_pos_as_xyz
  1  'x, y, z'
loop_
 _atom_site_type_symbol
 _atom_site_label
 _atom_site_symmetry_multiplicity
 _atom_site_fract_x
 _atom_site_fract_y
 _atom_site_fract_z
 _atom_site_occupancy
  Sr  Sr0  1  0.750000  0.212085  0.498353  1
  Sr  Sr1  1  0.250000  0.794100  0.166302  1
  Sr  Sr2  1  0.250000  0.786782  0.500698  1
  Sr  Sr3  1  0.250000  0.795987  0.832329  1
  Sr  Sr4  1  0.250000  0.705069  0.332476  1
  Sr  Sr5  1  0.750000  0.205612  0.834901  1
  Sr  Sr6  1  0.750000  0.285640  0.999292  1
  Sr  Sr7  1  0.750000  0.293144  0.667290  1
  Sr  Sr8  1  0.750000  0.293621  0.333677  1
  Sr  Sr9  1  0.250000  0.707235  0.665516  1
  Sr  Sr10  1  0.250000  0.714720  0.001650  1
  Sr  Sr11  1  0.750000  0.205373  0.167576  1
  Ga  Ga12  1  0.750000  0.918733  0.726957  1
  Ge  Ge13  1  0.250000  0.410381  0.565291  1
  Ge  Ge14  1  0.250000  0.081719  0.393056  1
  Ge  Ge15  1  0.250000  0.089312  0.067257  1
  Ge  Ge16  1  0.250000  0.419083  0.893795  1
  Ge  Ge17  1  0.750000  0.582381  0.106703  1
  Ge  Ge18  1  0.250000  0.419404  0.774879  1
  Ge  Ge19  1  0.750000  0.580676  0.225736  1
  Ge  Ge20  1  0.750000  0.588186  0.432529  1
  Ge  Ge21  1  0.750000  0.910288  0.934343  1
  Ge  Ge22  1  0.250000  0.080673  0.274334  1
  Ge  Ge23  1  0.750000  0.917091  0.605076  1
  Au  Au24  1  0.250000  0.085002  0.594499  1
  Au  Au25  1  0.250000  0.088075  0.738566  1
  Au  Au26  1  0.750000  0.586566  0.905584  1
  Au  Au27  1  0.750000  0.913751  0.403632  1
  Au  Au28  1  0.750000  0.580659  0.567157  1
  Au  Au29  1  0.750000  0.588930  0.762446  1
  Au  Au30  1  0.250000  0.417992  0.431518  1
  Au  Au31  1  0.250000  0.413691  0.237529  1
  Au  Au32  1  0.750000  0.918017  0.068622  1
  Au  Au33  1  0.250000  0.413920  0.095780  1
  Au  Au34  1  0.250000  0.082411  0.932262  1
  Au  Au35  1  0.750000  0.913693  0.262390  1
