# generated using pymatgen
data_Na4CaMoO6
_symmetry_space_group_name_H-M   'P 1'
_cell_length_a   5.72781132
_cell_length_b   5.72733057
_cell_length_c   5.76535091
_cell_angle_alpha   99.84056147
_cell_angle_beta   99.84526619
_cell_angle_gamma   119.84640886
_symmetry_Int_Tables_number   1
_chemical_formula_structural   Na4CaMoO6
_chemical_formula_sum   'Na4 Ca1 Mo1 O6'
_cell_volume   154.20809143
_cell_formula_units_Z   1
loop_
 _symmetry_equiv_pos_site_id
 _symmetry_equiv_pos_as_xyz
  1  'x, y, z'
loop_
 _atom_site_type_symbol
 _atom_site_label
 _atom_site_symmetry_multiplicity
 _atom_site_fract_x
 _atom_site_fract_y
 _atom_site_fract_z
 _atom_site_occupancy
  Na  Na0  1  0.500580  0.499431  0.000005  1
  Na  Na1  1  0.994941  0.005031  0.499995  1
  Na  Na2  1  0.663434  0.336550  0.499996  1
  Na  Na3  1  0.338980  0.660995  0.500006  1
  Ca  Ca4  1  0.166576  0.833354  0.999988  1
  Mo  Mo5  1  0.833184  0.167185  0.999924  1
  O  O6  1  0.616641  0.958561  0.204375  1
  O  O7  1  0.913030  0.523912  0.213413  1
  O  O8  1  0.182540  0.227277  0.213505  1
  O  O9  1  0.772699  0.817464  0.786518  1
  O  O10  1  0.476036  0.086946  0.786566  1
  O  O11  1  0.041363  0.383301  0.795713  1
