# generated using pymatgen
data_Tb11Sm5(HgIr)4
_symmetry_space_group_name_H-M   'P 1'
_cell_length_a   9.75853736
_cell_length_b   9.75595378
_cell_length_c   9.75595300
_cell_angle_alpha   59.99339392
_cell_angle_beta   59.99123812
_cell_angle_gamma   59.99124617
_symmetry_Int_Tables_number   1
_chemical_formula_structural   Tb11Sm5(HgIr)4
_chemical_formula_sum   'Tb11 Sm5 Hg4 Ir4'
_cell_volume   656.64400132
_cell_formula_units_Z   1
loop_
 _symmetry_equiv_pos_site_id
 _symmetry_equiv_pos_as_xyz
  1  'x, y, z'
loop_
 _atom_site_type_symbol
 _atom_site_label
 _atom_site_symmetry_multiplicity
 _atom_site_fract_x
 _atom_site_fract_y
 _atom_site_fract_z
 _atom_site_occupancy
  Tb  Tb0  1  0.349576  0.349420  0.349420  1
  Tb  Tb1  1  0.348618  0.351352  0.951412  1
  Tb  Tb2  1  0.348618  0.951412  0.351352  1
  Tb  Tb3  1  0.951583  0.349420  0.349420  1
  Tb  Tb4  1  0.810646  0.189354  0.189354  1
  Tb  Tb5  1  0.189160  0.810840  0.810840  1
  Tb  Tb6  1  0.190748  0.809800  0.189061  1
  Tb  Tb7  1  0.810391  0.189061  0.809800  1
  Tb  Tb8  1  0.190748  0.189061  0.809800  1
  Tb  Tb9  1  0.810391  0.809800  0.189061  1
  Tb  Tb10  1  0.941906  0.558094  0.558094  1
  Sm  Sm11  1  0.558984  0.941016  0.941016  1
  Sm  Sm12  1  0.561639  0.939241  0.559531  1
  Sm  Sm13  1  0.939589  0.559531  0.939241  1
  Sm  Sm14  1  0.561639  0.559531  0.939241  1
  Sm  Sm15  1  0.939589  0.939241  0.559531  1
  Hg  Hg16  1  0.585663  0.583831  0.583831  1
  Hg  Hg17  1  0.584301  0.584649  0.246748  1
  Hg  Hg18  1  0.584301  0.246748  0.584649  1
  Hg  Hg19  1  0.246672  0.583831  0.583831  1
  Ir  Ir20  1  0.140518  0.142099  0.142099  1
  Ir  Ir21  1  0.139718  0.144994  0.575570  1
  Ir  Ir22  1  0.139718  0.575570  0.144994  1
  Ir  Ir23  1  0.575284  0.142099  0.142099  1
