# generated using pymatgen
data_La2Dy18Si15Pt
_symmetry_space_group_name_H-M   'P 1'
_cell_length_a   7.44441349
_cell_length_b   7.76964618
_cell_length_c   14.71964304
_cell_angle_alpha   89.61416771
_cell_angle_beta   89.98193452
_cell_angle_gamma   89.90310093
_symmetry_Int_Tables_number   1
_chemical_formula_structural   La2Dy18Si15Pt
_chemical_formula_sum   'La2 Dy18 Si15 Pt1'
_cell_volume   851.37034613
_cell_formula_units_Z   1
loop_
 _symmetry_equiv_pos_site_id
 _symmetry_equiv_pos_as_xyz
  1  'x, y, z'
loop_
 _atom_site_type_symbol
 _atom_site_label
 _atom_site_symmetry_multiplicity
 _atom_site_fract_x
 _atom_site_fract_y
 _atom_site_fract_z
 _atom_site_occupancy
  La  La0  1  0.523175  0.570497  0.342286  1
  La  La1  1  0.023404  0.428663  0.657059  1
  Dy  Dy2  1  0.811443  0.575420  0.874881  1
  Dy  Dy3  1  0.318580  0.426599  0.125339  1
  Dy  Dy4  1  0.182255  0.928483  0.373072  1
  Dy  Dy5  1  0.681863  0.069567  0.627314  1
  Dy  Dy6  1  0.182806  0.928191  0.628581  1
  Dy  Dy7  1  0.682371  0.070650  0.371124  1
  Dy  Dy8  1  0.815694  0.571638  0.126194  1
  Dy  Dy9  1  0.322127  0.430966  0.873591  1
  Dy  Dy10  1  0.644552  0.235679  0.999515  1
  Dy  Dy11  1  0.155971  0.758752  0.000703  1
  Dy  Dy12  1  0.350356  0.262991  0.500100  1
  Dy  Dy13  1  0.850117  0.736219  0.499879  1
  Dy  Dy14  1  0.475137  0.932398  0.847392  1
  Dy  Dy15  1  0.972957  0.066271  0.152047  1
  Dy  Dy16  1  0.473175  0.933301  0.151626  1
  Dy  Dy17  1  0.971255  0.066826  0.849219  1
  Dy  Dy18  1  0.527809  0.565587  0.651752  1
  Dy  Dy19  1  0.027792  0.433995  0.347942  1
  Si  Si20  1  0.020559  0.351100  0.999966  1
  Si  Si21  1  0.476242  0.859212  0.501182  1
  Si  Si22  1  0.976503  0.140212  0.499013  1
  Si  Si23  1  0.650332  0.276473  0.790724  1
  Si  Si24  1  0.149909  0.722590  0.209184  1
  Si  Si25  1  0.351534  0.216050  0.287612  1
  Si  Si26  1  0.851972  0.783796  0.712960  1
  Si  Si27  1  0.361339  0.220054  0.710807  1
  Si  Si28  1  0.861120  0.780133  0.288598  1
  Si  Si29  1  0.646061  0.269318  0.206220  1
  Si  Si30  1  0.145220  0.728889  0.793428  1
  Si  Si31  1  0.770376  0.880581  0.000701  1
  Si  Si32  1  0.259657  0.125438  0.999593  1
  Si  Si33  1  0.234163  0.627383  0.501731  1
  Si  Si34  1  0.733241  0.373182  0.498518  1
  Pt  Pt35  1  0.518932  0.652895  0.000149  1
