# generated using pymatgen
data_Ac5In2Ru3
_symmetry_space_group_name_H-M   'P 1'
_cell_length_a   9.09317210
_cell_length_b   9.09317183
_cell_length_c   9.09317100
_cell_angle_alpha   109.47121879
_cell_angle_beta   109.47121819
_cell_angle_gamma   109.47122053
_symmetry_Int_Tables_number   1
_chemical_formula_structural   Ac5In2Ru3
_chemical_formula_sum   'Ac10 In4 Ru6'
_cell_volume   578.79437201
_cell_formula_units_Z   2
loop_
 _symmetry_equiv_pos_site_id
 _symmetry_equiv_pos_as_xyz
  1  'x, y, z'
loop_
 _atom_site_type_symbol
 _atom_site_label
 _atom_site_symmetry_multiplicity
 _atom_site_fract_x
 _atom_site_fract_y
 _atom_site_fract_z
 _atom_site_occupancy
  Ac  Ac0  1  0.250000  0.686383  0.436383  1
  Ac  Ac1  1  0.750000  0.813617  0.063617  1
  Ac  Ac2  1  0.436383  0.250000  0.686383  1
  Ac  Ac3  1  0.686383  0.436383  0.250000  1
  Ac  Ac4  1  0.063617  0.750000  0.813617  1
  Ac  Ac5  1  0.813617  0.063617  0.750000  1
  Ac  Ac6  1  0.205242  0.205242  0.205242  1
  Ac  Ac7  1  0.500000  0.000000  0.294758  1
  Ac  Ac8  1  0.294758  0.500000  0.000000  1
  Ac  Ac9  1  0.000000  0.294758  0.500000  1
  In  In10  1  0.589838  0.589838  0.589838  1
  In  In11  1  0.500000  0.000000  0.910162  1
  In  In12  1  0.910162  0.500000  0.000000  1
  In  In13  1  0.000000  0.910162  0.500000  1
  Ru  Ru14  1  0.250000  0.128469  0.878469  1
  Ru  Ru15  1  0.750000  0.371531  0.621531  1
  Ru  Ru16  1  0.878468  0.250000  0.128469  1
  Ru  Ru17  1  0.128469  0.878468  0.250000  1
  Ru  Ru18  1  0.621531  0.750000  0.371531  1
  Ru  Ru19  1  0.371531  0.621531  0.750000  1
