# generated using pymatgen
data_La4Ho6IrRh3
_symmetry_space_group_name_H-M   'P 1'
_cell_length_a   6.53549099
_cell_length_b   7.20700714
_cell_length_c   8.88539110
_cell_angle_alpha   96.76901909
_cell_angle_beta   111.28769427
_cell_angle_gamma   90.16522455
_symmetry_Int_Tables_number   1
_chemical_formula_structural   La4Ho6IrRh3
_chemical_formula_sum   'La4 Ho6 Ir1 Rh3'
_cell_volume   386.76786831
_cell_formula_units_Z   1
loop_
 _symmetry_equiv_pos_site_id
 _symmetry_equiv_pos_as_xyz
  1  'x, y, z'
loop_
 _atom_site_type_symbol
 _atom_site_label
 _atom_site_symmetry_multiplicity
 _atom_site_fract_x
 _atom_site_fract_y
 _atom_site_fract_z
 _atom_site_occupancy
  La  La0  1  0.978546  0.918003  0.195830  1
  La  La1  1  0.781386  0.581464  0.803808  1
  La  La2  1  0.022821  0.082208  0.804486  1
  La  La3  1  0.218217  0.419081  0.195495  1
  Ho  Ho4  1  0.640208  0.815859  0.432106  1
  Ho  Ho5  1  0.208224  0.684117  0.567314  1
  Ho  Ho6  1  0.359979  0.184336  0.566038  1
  Ho  Ho7  1  0.789892  0.314997  0.432657  1
  Ho  Ho8  1  0.427588  0.752269  0.000709  1
  Ho  Ho9  1  0.572131  0.248648  0.001078  1
  Ir  Ir10  1  0.413139  0.075840  0.227203  1
  Rh  Rh11  1  0.815152  0.576069  0.226419  1
  Rh  Rh12  1  0.588676  0.923490  0.773481  1
  Rh  Rh13  1  0.184042  0.423619  0.773375  1
