# generated using pymatgen
data_NdNi5GeP2
_symmetry_space_group_name_H-M   'P 1'
_cell_length_a   6.16306274
_cell_length_b   6.16306293
_cell_length_c   11.48867100
_cell_angle_alpha   90.00000000
_cell_angle_beta   90.00000000
_cell_angle_gamma   145.05235493
_symmetry_Int_Tables_number   1
_chemical_formula_structural   NdNi5GeP2
_chemical_formula_sum   'Nd2 Ni10 Ge2 P4'
_cell_volume   249.96947760
_cell_formula_units_Z   2
loop_
 _symmetry_equiv_pos_site_id
 _symmetry_equiv_pos_as_xyz
  1  'x, y, z'
loop_
 _atom_site_type_symbol
 _atom_site_label
 _atom_site_symmetry_multiplicity
 _atom_site_fract_x
 _atom_site_fract_y
 _atom_site_fract_z
 _atom_site_occupancy
  Nd  Nd0  1  0.157623  0.842377  0.250000  1
  Nd  Nd1  1  0.842377  0.157623  0.750000  1
  Ni  Ni2  1  0.454823  0.545177  0.142318  1
  Ni  Ni3  1  0.454823  0.545177  0.357682  1
  Ni  Ni4  1  0.199958  0.800042  0.939807  1
  Ni  Ni5  1  0.545177  0.454823  0.857682  1
  Ni  Ni6  1  0.800042  0.199958  0.439807  1
  Ni  Ni7  1  0.545177  0.454823  0.642318  1
  Ni  Ni8  1  0.199958  0.800042  0.560193  1
  Ni  Ni9  1  0.000000  0.000000  0.000000  1
  Ni  Ni10  1  0.000000  0.000000  0.500000  1
  Ni  Ni11  1  0.800042  0.199958  0.060193  1
  Ge  Ge12  1  0.118820  0.881180  0.750000  1
  Ge  Ge13  1  0.881180  0.118820  0.250000  1
  P  P14  1  0.381948  0.618052  0.961432  1
  P  P15  1  0.381948  0.618052  0.538568  1
  P  P16  1  0.618052  0.381948  0.461432  1
  P  P17  1  0.618052  0.381948  0.038568  1
