# generated using pymatgen
data_Na2Mn(Si2O5)2
_symmetry_space_group_name_H-M   'P 1'
_cell_length_a   7.03847238
_cell_length_b   7.96262149
_cell_length_c   10.00563471
_cell_angle_alpha   102.00015080
_cell_angle_beta   102.07611720
_cell_angle_gamma   115.28143589
_symmetry_Int_Tables_number   1
_chemical_formula_structural   Na2Mn(Si2O5)2
_chemical_formula_sum   'Na4 Mn2 Si8 O20'
_cell_volume   466.97263173
_cell_formula_units_Z   2
loop_
 _symmetry_equiv_pos_site_id
 _symmetry_equiv_pos_as_xyz
  1  'x, y, z'
loop_
 _atom_site_type_symbol
 _atom_site_label
 _atom_site_symmetry_multiplicity
 _atom_site_fract_x
 _atom_site_fract_y
 _atom_site_fract_z
 _atom_site_occupancy
  Na  Na0  1  0.656658  0.769840  0.983923  1
  Na  Na1  1  0.738634  0.273932  0.420525  1
  Na  Na2  1  0.261366  0.726068  0.579475  1
  Na  Na3  1  0.343342  0.230160  0.016077  1
  Mn  Mn4  1  0.754666  0.696705  0.579460  1
  Mn  Mn5  1  0.245334  0.303295  0.420540  1
  Si  Si6  1  0.093567  0.711794  0.862635  1
  Si  Si7  1  0.906433  0.288206  0.137365  1
  Si  Si8  1  0.236039  0.924591  0.193898  1
  Si  Si9  1  0.763961  0.075409  0.806102  1
  Si  Si10  1  0.386902  0.628025  0.256365  1
  Si  Si11  1  0.187471  0.381220  0.754563  1
  Si  Si12  1  0.812529  0.618780  0.245437  1
  Si  Si13  1  0.613098  0.371975  0.743635  1
  O  O14  1  0.981951  0.792089  0.195076  1
  O  O15  1  0.018049  0.207911  0.804924  1
  O  O16  1  0.848455  0.554634  0.866401  1
  O  O17  1  0.151545  0.445366  0.133599  1
  O  O18  1  0.575565  0.621047  0.183970  1
  O  O19  1  0.424435  0.378953  0.816030  1
  O  O20  1  0.246338  0.599686  0.862437  1
  O  O21  1  0.753662  0.400314  0.137563  1
  O  O22  1  0.892118  0.644437  0.413371  1
  O  O23  1  0.107882  0.355563  0.586629  1
  O  O24  1  0.424590  0.602733  0.413525  1
  O  O25  1  0.575410  0.397267  0.586475  1
  O  O26  1  0.072885  0.791447  0.730332  1
  O  O27  1  0.927115  0.208553  0.269668  1
  O  O28  1  0.784899  0.107084  0.979434  1
  O  O29  1  0.215101  0.892916  0.020566  1
  O  O30  1  0.605870  0.161296  0.736060  1
  O  O31  1  0.394130  0.838704  0.263940  1
  O  O32  1  0.346926  0.155458  0.275382  1
  O  O33  1  0.653074  0.844542  0.724618  1
