# generated using pymatgen
data_DySn6RuRh3
_symmetry_space_group_name_H-M   'P 1'
_cell_length_a   6.98712544
_cell_length_b   6.98712530
_cell_length_c   6.92779099
_cell_angle_alpha   119.83140796
_cell_angle_beta   119.83141070
_cell_angle_gamma   90.78486507
_symmetry_Int_Tables_number   1
_chemical_formula_structural   DySn6RuRh3
_chemical_formula_sum   'Dy1 Sn6 Ru1 Rh3'
_cell_volume   238.70372855
_cell_formula_units_Z   1
loop_
 _symmetry_equiv_pos_site_id
 _symmetry_equiv_pos_as_xyz
  1  'x, y, z'
loop_
 _atom_site_type_symbol
 _atom_site_label
 _atom_site_symmetry_multiplicity
 _atom_site_fract_x
 _atom_site_fract_y
 _atom_site_fract_z
 _atom_site_occupancy
  Dy  Dy0  1  0.996148  0.996148  0.990278  1
  Sn  Sn1  1  0.873525  0.539298  0.005207  1
  Sn  Sn2  1  0.539298  0.873525  0.005207  1
  Sn  Sn3  1  0.127339  0.127339  0.664133  1
  Sn  Sn4  1  0.002662  0.503766  0.500472  1
  Sn  Sn5  1  0.464674  0.464674  0.337110  1
  Sn  Sn6  1  0.503766  0.002662  0.500472  1
  Ru  Ru7  1  0.755225  0.755225  0.360132  1
  Rh  Rh8  1  0.236405  0.606058  0.998973  1
  Rh  Rh9  1  0.394899  0.394899  0.639043  1
  Rh  Rh10  1  0.606058  0.236405  0.998973  1
