# generated using pymatgen
data_Ca5TbU2O12
_symmetry_space_group_name_H-M   'P 1'
_cell_length_a   6.79826771
_cell_length_b   6.79188231
_cell_length_c   6.79559376
_cell_angle_alpha   92.17437108
_cell_angle_beta   91.77744422
_cell_angle_gamma   91.88095965
_symmetry_Int_Tables_number   1
_chemical_formula_structural   Ca5TbU2O12
_chemical_formula_sum   'Ca5 Tb1 U2 O12'
_cell_volume   313.21476891
_cell_formula_units_Z   1
loop_
 _symmetry_equiv_pos_site_id
 _symmetry_equiv_pos_as_xyz
  1  'x, y, z'
loop_
 _atom_site_type_symbol
 _atom_site_label
 _atom_site_symmetry_multiplicity
 _atom_site_fract_x
 _atom_site_fract_y
 _atom_site_fract_z
 _atom_site_occupancy
  Ca  Ca0  1  0.748196  0.938505  0.442897  1
  Ca  Ca1  1  0.554607  0.251511  0.062749  1
  Ca  Ca2  1  0.252669  0.059732  0.555557  1
  Ca  Ca3  1  0.062847  0.558686  0.252763  1
  Ca  Ca4  1  0.444223  0.747278  0.939164  1
  Tb  Tb5  1  0.936392  0.439706  0.747489  1
  U  U6  1  0.999200  0.999615  0.000114  1
  U  U7  1  0.498384  0.500210  0.499706  1
  O  O8  1  0.293045  0.061257  0.926141  1
  O  O9  1  0.063510  0.924044  0.294288  1
  O  O10  1  0.924668  0.303268  0.057201  1
  O  O11  1  0.705515  0.937393  0.074463  1
  O  O12  1  0.935087  0.089212  0.702763  1
  O  O13  1  0.071431  0.694097  0.926976  1
  O  O14  1  0.197347  0.411132  0.546532  1
  O  O15  1  0.412223  0.541013  0.204878  1
  O  O16  1  0.459577  0.793533  0.587522  1
  O  O17  1  0.597775  0.457909  0.795862  1
  O  O18  1  0.802878  0.585380  0.469403  1
  O  O19  1  0.540426  0.206520  0.413531  1
