# generated using pymatgen
data_Sm6ScV(Co4P3)4
_symmetry_space_group_name_H-M   'P 1'
_cell_length_a   3.74458300
_cell_length_b   10.68507200
_cell_length_c   12.41410200
_cell_angle_alpha   90.00000000
_cell_angle_beta   90.00000000
_cell_angle_gamma   90.00000000
_symmetry_Int_Tables_number   1
_chemical_formula_structural   Sm6ScV(Co4P3)4
_chemical_formula_sum   'Sm6 Sc1 V1 Co16 P12'
_cell_volume   496.70236025
_cell_formula_units_Z   1
loop_
 _symmetry_equiv_pos_site_id
 _symmetry_equiv_pos_as_xyz
  1  'x, y, z'
loop_
 _atom_site_type_symbol
 _atom_site_label
 _atom_site_symmetry_multiplicity
 _atom_site_fract_x
 _atom_site_fract_y
 _atom_site_fract_z
 _atom_site_occupancy
  Sm  Sm0  1  0.000000  0.500000  0.527260  1
  Sm  Sm1  1  0.500000  0.000000  0.477459  1
  Sm  Sm2  1  0.500000  0.821141  0.205780  1
  Sm  Sm3  1  0.500000  0.178859  0.205780  1
  Sm  Sm4  1  0.000000  0.681934  0.795367  1
  Sm  Sm5  1  0.000000  0.318066  0.795367  1
  Sc  Sc6  1  0.500000  0.500000  0.151875  1
  V  V7  1  0.000000  0.000000  0.844428  1
  Co  Co8  1  0.500000  0.500000  0.703652  1
  Co  Co9  1  0.000000  0.000000  0.296631  1
  Co  Co10  1  0.000000  0.500000  0.984681  1
  Co  Co11  1  0.500000  0.000000  0.010491  1
  Co  Co12  1  0.500000  0.327338  0.990670  1
  Co  Co13  1  0.500000  0.672662  0.990670  1
  Co  Co14  1  0.000000  0.163403  0.002588  1
  Co  Co15  1  0.000000  0.836597  0.002588  1
  Co  Co16  1  0.500000  0.294599  0.433992  1
  Co  Co17  1  0.500000  0.705401  0.433992  1
  Co  Co18  1  0.000000  0.202827  0.570354  1
  Co  Co19  1  0.000000  0.797173  0.570354  1
  Co  Co20  1  0.500000  0.881019  0.707467  1
  Co  Co21  1  0.500000  0.118981  0.707467  1
  Co  Co22  1  0.000000  0.621396  0.297343  1
  Co  Co23  1  0.000000  0.378604  0.297343  1
  P  P24  1  0.500000  0.500000  0.884886  1
  P  P25  1  0.000000  0.000000  0.114390  1
  P  P26  1  0.500000  0.500000  0.355026  1
  P  P27  1  0.000000  0.000000  0.654337  1
  P  P28  1  0.500000  0.306761  0.616183  1
  P  P29  1  0.500000  0.693239  0.616183  1
  P  P30  1  0.000000  0.191639  0.386970  1
  P  P31  1  0.000000  0.808361  0.386970  1
  P  P32  1  0.500000  0.849173  0.890038  1
  P  P33  1  0.500000  0.150827  0.890038  1
  P  P34  1  0.000000  0.661256  0.100688  1
  P  P35  1  0.000000  0.338744  0.100688  1
