# generated using pymatgen
data_Nb6Fe15Si7Os
_symmetry_space_group_name_H-M   'P 1'
_cell_length_a   7.99470337
_cell_length_b   7.96270325
_cell_length_c   7.96270400
_cell_angle_alpha   59.99999687
_cell_angle_beta   60.13231590
_cell_angle_gamma   60.13230763
_symmetry_Int_Tables_number   1
_chemical_formula_structural   Nb6Fe15Si7Os
_chemical_formula_sum   'Nb6 Fe15 Si7 Os1'
_cell_volume   359.14853753
_cell_formula_units_Z   1
loop_
 _symmetry_equiv_pos_site_id
 _symmetry_equiv_pos_as_xyz
  1  'x, y, z'
loop_
 _atom_site_type_symbol
 _atom_site_label
 _atom_site_symmetry_multiplicity
 _atom_site_fract_x
 _atom_site_fract_y
 _atom_site_fract_z
 _atom_site_occupancy
  Nb  Nb0  1  0.797403  0.200637  0.801324  1
  Nb  Nb1  1  0.797403  0.801324  0.200637  1
  Nb  Nb2  1  0.205694  0.796092  0.202122  1
  Nb  Nb3  1  0.205694  0.202122  0.796092  1
  Nb  Nb4  1  0.205694  0.796092  0.796092  1
  Nb  Nb5  1  0.797403  0.200637  0.200637  1
  Fe  Fe6  1  0.615921  0.621431  0.141218  1
  Fe  Fe7  1  0.381455  0.379001  0.860542  1
  Fe  Fe8  1  0.825478  0.520322  0.827100  1
  Fe  Fe9  1  0.825478  0.827100  0.827100  1
  Fe  Fe10  1  0.825478  0.827100  0.520322  1
  Fe  Fe11  1  0.381455  0.379001  0.379001  1
  Fe  Fe12  1  0.137609  0.620798  0.620798  1
  Fe  Fe13  1  0.615921  0.621431  0.621431  1
  Fe  Fe14  1  0.176127  0.171416  0.171416  1
  Fe  Fe15  1  0.176127  0.481042  0.171416  1
  Fe  Fe16  1  0.521414  0.826195  0.826195  1
  Fe  Fe17  1  0.615921  0.141218  0.621431  1
  Fe  Fe18  1  0.176127  0.171416  0.481042  1
  Fe  Fe19  1  0.381455  0.860542  0.379001  1
  Fe  Fe20  1  0.477396  0.174201  0.174201  1
  Si  Si21  1  0.501330  0.999683  0.999683  1
  Si  Si22  1  0.005270  0.501381  0.991967  1
  Si  Si23  1  0.501330  0.499303  0.999683  1
  Si  Si24  1  0.484340  0.505220  0.505220  1
  Si  Si25  1  0.005270  0.501381  0.501381  1
  Si  Si26  1  0.005270  0.991967  0.501381  1
  Si  Si27  1  0.501330  0.999683  0.499303  1
  Os  Os28  1  0.853210  0.382263  0.382263  1
