# generated using pymatgen
data_Yb4Sc4Tc(B8Ir)3
_symmetry_space_group_name_H-M   'P 1'
_cell_length_a   3.54021300
_cell_length_b   8.99136719
_cell_length_c   11.37604427
_cell_angle_alpha   90.05464263
_cell_angle_beta   90.00000000
_cell_angle_gamma   90.00000000
_symmetry_Int_Tables_number   1
_chemical_formula_structural   Yb4Sc4Tc(B8Ir)3
_chemical_formula_sum   'Yb4 Sc4 Tc1 B24 Ir3'
_cell_volume   362.11473908
_cell_formula_units_Z   1
loop_
 _symmetry_equiv_pos_site_id
 _symmetry_equiv_pos_as_xyz
  1  'x, y, z'
loop_
 _atom_site_type_symbol
 _atom_site_label
 _atom_site_symmetry_multiplicity
 _atom_site_fract_x
 _atom_site_fract_y
 _atom_site_fract_z
 _atom_site_occupancy
  Yb  Yb0  1  0.500000  0.319944  0.411816  1
  Yb  Yb1  1  0.500000  0.678252  0.583603  1
  Yb  Yb2  1  0.500000  0.177357  0.917308  1
  Yb  Yb3  1  0.500000  0.823483  0.086891  1
  Sc  Sc4  1  0.500000  0.440672  0.127209  1
  Sc  Sc5  1  0.500000  0.556251  0.873457  1
  Sc  Sc6  1  0.500000  0.055178  0.626584  1
  Sc  Sc7  1  0.500000  0.948259  0.370797  1
  Tc  Tc8  1  0.500000  0.139718  0.181300  1
  B  B9  1  0.000000  0.097482  0.474532  1
  B  B10  1  0.000000  0.902569  0.526367  1
  B  B11  1  0.000000  0.403870  0.973574  1
  B  B12  1  0.000000  0.597858  0.026224  1
  B  B13  1  0.000000  0.129755  0.317369  1
  B  B14  1  0.000000  0.869671  0.681516  1
  B  B15  1  0.000000  0.370541  0.818204  1
  B  B16  1  0.000000  0.629893  0.182956  1
  B  B17  1  0.000000  0.054010  0.067397  1
  B  B18  1  0.000000  0.945356  0.933161  1
  B  B19  1  0.000000  0.444666  0.566835  1
  B  B20  1  0.000000  0.554891  0.432762  1
  B  B21  1  0.000000  0.481846  0.286448  1
  B  B22  1  0.000000  0.517593  0.713529  1
  B  B23  1  0.000000  0.017225  0.786238  1
  B  B24  1  0.000000  0.981294  0.214492  1
  B  B25  1  0.000000  0.253521  0.081970  1
  B  B26  1  0.000000  0.748667  0.918555  1
  B  B27  1  0.000000  0.247371  0.581581  1
  B  B28  1  0.000000  0.752622  0.418473  1
  B  B29  1  0.000000  0.294841  0.235659  1
  B  B30  1  0.000000  0.706215  0.763628  1
  B  B31  1  0.000000  0.206530  0.736367  1
  B  B32  1  0.000000  0.793878  0.264953  1
  Ir  Ir33  1  0.500000  0.858796  0.817069  1
  Ir  Ir34  1  0.500000  0.359755  0.682107  1
  Ir  Ir35  1  0.500000  0.640175  0.319065  1
