# generated using pymatgen
data_Sm8Sb(PdPt7)3
_symmetry_space_group_name_H-M   'P 1'
_cell_length_a   8.50700941
_cell_length_b   8.50854142
_cell_length_c   8.50482200
_cell_angle_alpha   90.00000000
_cell_angle_beta   90.00000000
_cell_angle_gamma   89.93389395
_symmetry_Int_Tables_number   1
_chemical_formula_structural   Sm8Sb(PdPt7)3
_chemical_formula_sum   'Sm8 Sb1 Pd3 Pt21'
_cell_volume   615.59767390
_cell_formula_units_Z   1
loop_
 _symmetry_equiv_pos_site_id
 _symmetry_equiv_pos_as_xyz
  1  'x, y, z'
loop_
 _atom_site_type_symbol
 _atom_site_label
 _atom_site_symmetry_multiplicity
 _atom_site_fract_x
 _atom_site_fract_y
 _atom_site_fract_z
 _atom_site_occupancy
  Sm  Sm0  1  0.747201  0.747143  0.252829  1
  Sm  Sm1  1  0.747399  0.252867  0.747217  1
  Sm  Sm2  1  0.252486  0.748035  0.747936  1
  Sm  Sm3  1  0.747201  0.747143  0.747171  1
  Sm  Sm4  1  0.747399  0.252867  0.252783  1
  Sm  Sm5  1  0.252273  0.251935  0.748129  1
  Sm  Sm6  1  0.252486  0.748035  0.252064  1
  Sm  Sm7  1  0.252273  0.251935  0.251871  1
  Sb  Sb8  1  0.006094  0.000490  0.000000  1
  Pd  Pd9  1  0.499597  0.744746  0.500000  1
  Pd  Pd10  1  0.744637  0.499854  0.500000  1
  Pd  Pd11  1  0.691781  0.999657  0.000000  1
  Pt  Pt12  1  0.998286  0.999850  0.310973  1
  Pt  Pt13  1  0.732476  0.000238  0.500000  1
  Pt  Pt14  1  0.732425  0.500007  0.000000  1
  Pt  Pt15  1  0.500190  0.000323  0.733223  1
  Pt  Pt16  1  0.000466  0.733298  0.500000  1
  Pt  Pt17  1  0.500190  0.000323  0.266777  1
  Pt  Pt18  1  0.000396  0.266309  0.500000  1
  Pt  Pt19  1  0.500111  0.733253  0.000000  1
  Pt  Pt20  1  0.255506  0.499746  0.500000  1
  Pt  Pt21  1  0.499282  0.499673  0.745156  1
  Pt  Pt22  1  0.499282  0.499673  0.254844  1
  Pt  Pt23  1  0.499404  0.255079  0.500000  1
  Pt  Pt24  1  0.315527  0.999940  0.000000  1
  Pt  Pt25  1  0.998286  0.999850  0.689027  1
  Pt  Pt26  1  0.000571  0.500098  0.266818  1
  Pt  Pt27  1  0.998347  0.311369  0.000000  1
  Pt  Pt28  1  0.998085  0.689632  0.000000  1
  Pt  Pt29  1  0.264703  0.500120  0.000000  1
  Pt  Pt30  1  0.264861  0.000241  0.500000  1
  Pt  Pt31  1  0.000571  0.500098  0.733182  1
  Pt  Pt32  1  0.500206  0.266173  0.000000  1
