# generated using pymatgen
data_Yb10Si4Sb2F
_symmetry_space_group_name_H-M   'P 1'
_cell_length_a   8.89471304
_cell_length_b   8.89471338
_cell_length_c   8.89471400
_cell_angle_alpha   129.05205994
_cell_angle_beta   129.05205344
_cell_angle_gamma   74.92682426
_symmetry_Int_Tables_number   1
_chemical_formula_structural   Yb10Si4Sb2F
_chemical_formula_sum   'Yb10 Si4 Sb2 F1'
_cell_volume   413.31022867
_cell_formula_units_Z   1
loop_
 _symmetry_equiv_pos_site_id
 _symmetry_equiv_pos_as_xyz
  1  'x, y, z'
loop_
 _atom_site_type_symbol
 _atom_site_label
 _atom_site_symmetry_multiplicity
 _atom_site_fract_x
 _atom_site_fract_y
 _atom_site_fract_z
 _atom_site_occupancy
  Yb  Yb0  1  0.768597  0.440397  0.000000  1
  Yb  Yb1  1  0.440397  0.768598  0.000000  1
  Yb  Yb2  1  0.942000  0.942000  0.662008  1
  Yb  Yb3  1  0.279993  0.279993  0.337992  1
  Yb  Yb4  1  0.720007  0.058000  0.000000  1
  Yb  Yb5  1  0.058000  0.720007  0.000000  1
  Yb  Yb6  1  0.559603  0.559603  0.328200  1
  Yb  Yb7  1  0.231402  0.231402  0.671800  1
  Yb  Yb8  1  0.250000  0.750000  0.500000  1
  Yb  Yb9  1  0.750000  0.250000  0.500000  1
  Si  Si10  1  0.134075  0.366061  0.000000  1
  Si  Si11  1  0.366061  0.134075  0.000000  1
  Si  Si12  1  0.865925  0.865925  0.231986  1
  Si  Si13  1  0.633939  0.633939  0.768014  1
  Sb  Sb14  1  0.000000  0.500000  0.500000  1
  Sb  Sb15  1  0.500000  0.000000  0.500000  1
  F  F16  1  0.500000  0.500000  0.000000  1
