# generated using pymatgen
data_Er20CdIn5Ni2
_symmetry_space_group_name_H-M   'P 1'
_cell_length_a   9.57883403
_cell_length_b   9.61519190
_cell_length_c   9.63919800
_cell_angle_alpha   90.00000000
_cell_angle_beta   90.00000000
_cell_angle_gamma   120.12562894
_symmetry_Int_Tables_number   1
_chemical_formula_structural   Er20CdIn5Ni2
_chemical_formula_sum   'Er20 Cd1 In5 Ni2'
_cell_volume   767.87576733
_cell_formula_units_Z   1
loop_
 _symmetry_equiv_pos_site_id
 _symmetry_equiv_pos_as_xyz
  1  'x, y, z'
loop_
 _atom_site_type_symbol
 _atom_site_label
 _atom_site_symmetry_multiplicity
 _atom_site_fract_x
 _atom_site_fract_y
 _atom_site_fract_z
 _atom_site_occupancy
  Er  Er0  1  0.998006  0.999003  0.501771  1
  Er  Er1  1  0.998006  0.999003  0.998229  1
  Er  Er2  1  0.543932  0.456858  0.250000  1
  Er  Er3  1  0.543932  0.087075  0.250000  1
  Er  Er4  1  0.913427  0.456714  0.250000  1
  Er  Er5  1  0.458760  0.545342  0.750000  1
  Er  Er6  1  0.458760  0.913417  0.750000  1
  Er  Er7  1  0.087248  0.543624  0.750000  1
  Er  Er8  1  0.211646  0.788174  0.438757  1
  Er  Er9  1  0.211646  0.423472  0.438757  1
  Er  Er10  1  0.576677  0.788338  0.438136  1
  Er  Er11  1  0.788396  0.211721  0.561518  1
  Er  Er12  1  0.788396  0.576675  0.561518  1
  Er  Er13  1  0.422759  0.211380  0.561960  1
  Er  Er14  1  0.788396  0.211721  0.938482  1
  Er  Er15  1  0.788396  0.576675  0.938482  1
  Er  Er16  1  0.422759  0.211380  0.938040  1
  Er  Er17  1  0.211646  0.788174  0.061243  1
  Er  Er18  1  0.211646  0.423472  0.061243  1
  Er  Er19  1  0.576677  0.788338  0.061864  1
  Cd  Cd20  1  0.769003  0.884501  0.750000  1
  In  In21  1  0.884491  0.116051  0.250000  1
  In  In22  1  0.884491  0.768441  0.250000  1
  In  In23  1  0.230853  0.115427  0.250000  1
  In  In24  1  0.114960  0.883810  0.750000  1
  In  In25  1  0.114960  0.231148  0.750000  1
  Ni  Ni26  1  0.333445  0.666723  0.250000  1
  Ni  Ni27  1  0.666685  0.333342  0.750000  1
