# generated using pymatgen
data_HoTh2Mg2AlIr3
_symmetry_space_group_name_H-M   'P 1'
_cell_length_a   7.32349386
_cell_length_b   7.45380061
_cell_length_c   4.05486200
_cell_angle_alpha   90.00000000
_cell_angle_beta   90.00000000
_cell_angle_gamma   119.69621767
_symmetry_Int_Tables_number   1
_chemical_formula_structural   HoTh2Mg2AlIr3
_chemical_formula_sum   'Ho1 Th2 Mg2 Al1 Ir3'
_cell_volume   192.27556861
_cell_formula_units_Z   1
loop_
 _symmetry_equiv_pos_site_id
 _symmetry_equiv_pos_as_xyz
  1  'x, y, z'
loop_
 _atom_site_type_symbol
 _atom_site_label
 _atom_site_symmetry_multiplicity
 _atom_site_fract_x
 _atom_site_fract_y
 _atom_site_fract_z
 _atom_site_occupancy
  Ho  Ho0  1  0.407882  0.008466  0.500000  1
  Th  Th1  1  0.004144  0.415227  0.500000  1
  Th  Th2  1  0.573229  0.571077  0.500000  1
  Mg  Mg3  1  0.748911  0.997752  0.000000  1
  Mg  Mg4  1  0.007807  0.768380  0.000000  1
  Al  Al5  1  0.238445  0.231507  0.000000  1
  Ir  Ir6  1  0.329315  0.638792  0.000000  1
  Ir  Ir7  1  0.667029  0.342143  0.000000  1
  Ir  Ir8  1  0.023236  0.026656  0.500000  1
