# generated using pymatgen
data_Tb10In3Os
_symmetry_space_group_name_H-M   'P 1'
_cell_length_a   9.75079100
_cell_length_b   9.75079063
_cell_length_c   9.83245800
_cell_angle_alpha   90.00000000
_cell_angle_beta   90.00000000
_cell_angle_gamma   120.00000464
_symmetry_Int_Tables_number   1
_chemical_formula_structural   Tb10In3Os
_chemical_formula_sum   'Tb20 In6 Os2'
_cell_volume   809.60352535
_cell_formula_units_Z   2
loop_
 _symmetry_equiv_pos_site_id
 _symmetry_equiv_pos_as_xyz
  1  'x, y, z'
loop_
 _atom_site_type_symbol
 _atom_site_label
 _atom_site_symmetry_multiplicity
 _atom_site_fract_x
 _atom_site_fract_y
 _atom_site_fract_z
 _atom_site_occupancy
  Tb  Tb0  1  0.000000  0.000000  0.500000  1
  Tb  Tb1  1  0.000000  0.000000  0.000000  1
  Tb  Tb2  1  0.209507  0.790493  0.439342  1
  Tb  Tb3  1  0.209507  0.419015  0.439342  1
  Tb  Tb4  1  0.580985  0.790493  0.439342  1
  Tb  Tb5  1  0.790493  0.209507  0.560658  1
  Tb  Tb6  1  0.790493  0.580985  0.560658  1
  Tb  Tb7  1  0.419015  0.209507  0.560658  1
  Tb  Tb8  1  0.790493  0.209507  0.939342  1
  Tb  Tb9  1  0.790493  0.580985  0.939342  1
  Tb  Tb10  1  0.419015  0.209507  0.939342  1
  Tb  Tb11  1  0.209507  0.790493  0.060658  1
  Tb  Tb12  1  0.209507  0.419015  0.060658  1
  Tb  Tb13  1  0.580985  0.790493  0.060658  1
  Tb  Tb14  1  0.538266  0.461734  0.250000  1
  Tb  Tb15  1  0.538266  0.076531  0.250000  1
  Tb  Tb16  1  0.923469  0.461734  0.250000  1
  Tb  Tb17  1  0.461734  0.538266  0.750000  1
  Tb  Tb18  1  0.461734  0.923469  0.750000  1
  Tb  Tb19  1  0.076531  0.538266  0.750000  1
  In  In20  1  0.884737  0.115263  0.250000  1
  In  In21  1  0.884737  0.769476  0.250000  1
  In  In22  1  0.230524  0.115263  0.250000  1
  In  In23  1  0.115263  0.884737  0.750000  1
  In  In24  1  0.115263  0.230524  0.750000  1
  In  In25  1  0.769476  0.884737  0.750000  1
  Os  Os26  1  0.333333  0.666667  0.250000  1
  Os  Os27  1  0.666667  0.333333  0.750000  1
