# generated using pymatgen
data_Ho3Ta(P3Rh4)2
_symmetry_space_group_name_H-M   'P 1'
_cell_length_a   3.93918200
_cell_length_b   11.15970700
_cell_length_c   12.86251500
_cell_angle_alpha   90.00000000
_cell_angle_beta   90.00000000
_cell_angle_gamma   90.00000000
_symmetry_Int_Tables_number   1
_chemical_formula_structural   Ho3Ta(P3Rh4)2
_chemical_formula_sum   'Ho6 Ta2 P12 Rh16'
_cell_volume   565.43766354
_cell_formula_units_Z   2
loop_
 _symmetry_equiv_pos_site_id
 _symmetry_equiv_pos_as_xyz
  1  'x, y, z'
loop_
 _atom_site_type_symbol
 _atom_site_label
 _atom_site_symmetry_multiplicity
 _atom_site_fract_x
 _atom_site_fract_y
 _atom_site_fract_z
 _atom_site_occupancy
  Ho  Ho0  1  0.000000  0.500000  0.522578  1
  Ho  Ho1  1  0.500000  0.000000  0.477422  1
  Ho  Ho2  1  0.500000  0.819330  0.201951  1
  Ho  Ho3  1  0.500000  0.180670  0.201951  1
  Ho  Ho4  1  0.000000  0.680670  0.798049  1
  Ho  Ho5  1  0.000000  0.319330  0.798049  1
  Ta  Ta6  1  0.500000  0.500000  0.158355  1
  Ta  Ta7  1  0.000000  0.000000  0.841645  1
  P  P8  1  0.500000  0.314487  0.616783  1
  P  P9  1  0.500000  0.685513  0.616783  1
  P  P10  1  0.000000  0.185513  0.383217  1
  P  P11  1  0.000000  0.814487  0.383217  1
  P  P12  1  0.500000  0.500000  0.874967  1
  P  P13  1  0.000000  0.000000  0.125033  1
  P  P14  1  0.500000  0.844751  0.887158  1
  P  P15  1  0.500000  0.155249  0.887158  1
  P  P16  1  0.000000  0.655249  0.112842  1
  P  P17  1  0.000000  0.344751  0.112842  1
  P  P18  1  0.500000  0.500000  0.352694  1
  P  P19  1  0.000000  0.000000  0.647306  1
  Rh  Rh20  1  0.000000  0.500000  0.988083  1
  Rh  Rh21  1  0.500000  0.000000  0.011917  1
  Rh  Rh22  1  0.500000  0.294599  0.432521  1
  Rh  Rh23  1  0.500000  0.705401  0.432521  1
  Rh  Rh24  1  0.000000  0.205401  0.567479  1
  Rh  Rh25  1  0.000000  0.794599  0.567479  1
  Rh  Rh26  1  0.500000  0.873893  0.707112  1
  Rh  Rh27  1  0.500000  0.126107  0.707112  1
  Rh  Rh28  1  0.000000  0.626107  0.292888  1
  Rh  Rh29  1  0.000000  0.373893  0.292888  1
  Rh  Rh30  1  0.500000  0.331934  0.985648  1
  Rh  Rh31  1  0.500000  0.668066  0.985648  1
  Rh  Rh32  1  0.000000  0.168066  0.014352  1
  Rh  Rh33  1  0.000000  0.831934  0.014352  1
  Rh  Rh34  1  0.500000  0.500000  0.697515  1
  Rh  Rh35  1  0.000000  0.000000  0.302485  1
