# generated using pymatgen
data_TbGaCoO5
_symmetry_space_group_name_H-M   'P 1'
_cell_length_a   5.74281700
_cell_length_b   7.31539000
_cell_length_c   8.45494200
_cell_angle_alpha   90.00000000
_cell_angle_beta   90.00000000
_cell_angle_gamma   90.00000000
_symmetry_Int_Tables_number   1
_chemical_formula_structural   TbGaCoO5
_chemical_formula_sum   'Tb4 Ga4 Co4 O20'
_cell_volume   355.20011225
_cell_formula_units_Z   4
loop_
 _symmetry_equiv_pos_site_id
 _symmetry_equiv_pos_as_xyz
  1  'x, y, z'
loop_
 _atom_site_type_symbol
 _atom_site_label
 _atom_site_symmetry_multiplicity
 _atom_site_fract_x
 _atom_site_fract_y
 _atom_site_fract_z
 _atom_site_occupancy
  Tb  Tb0  1  0.500000  0.365383  0.330183  1
  Tb  Tb1  1  0.500000  0.634617  0.669817  1
  Tb  Tb2  1  0.500000  0.134617  0.830183  1
  Tb  Tb3  1  0.500000  0.865383  0.169817  1
  Ga  Ga4  1  0.000000  0.110732  0.147561  1
  Ga  Ga5  1  0.000000  0.889268  0.852439  1
  Ga  Ga6  1  0.000000  0.389268  0.647561  1
  Ga  Ga7  1  0.000000  0.610732  0.352439  1
  Co  Co8  1  0.248303  0.000000  0.500000  1
  Co  Co9  1  0.751697  0.000000  0.500000  1
  Co  Co10  1  0.751697  0.500000  0.000000  1
  Co  Co11  1  0.248303  0.500000  0.000000  1
  O  O12  1  0.500000  0.342798  0.055904  1
  O  O13  1  0.500000  0.657202  0.944096  1
  O  O14  1  0.500000  0.157202  0.555904  1
  O  O15  1  0.500000  0.842798  0.444096  1
  O  O16  1  0.228212  0.000000  0.000000  1
  O  O17  1  0.771788  0.000000  0.000000  1
  O  O18  1  0.771788  0.500000  0.500000  1
  O  O19  1  0.228212  0.500000  0.500000  1
  O  O20  1  0.257939  0.105488  0.296459  1
  O  O21  1  0.742061  0.894512  0.703541  1
  O  O22  1  0.257939  0.894512  0.703541  1
  O  O23  1  0.742061  0.394512  0.796459  1
  O  O24  1  0.742061  0.105488  0.296459  1
  O  O25  1  0.257939  0.605488  0.203541  1
  O  O26  1  0.742061  0.605488  0.203541  1
  O  O27  1  0.257939  0.394512  0.796459  1
  O  O28  1  0.000000  0.354115  0.070490  1
  O  O29  1  0.000000  0.645885  0.929510  1
  O  O30  1  0.000000  0.145885  0.570490  1
  O  O31  1  0.000000  0.854115  0.429510  1
