# generated using pymatgen
data_La10Cd3GeRu6
_symmetry_space_group_name_H-M   'P 1'
_cell_length_a   8.72836697
_cell_length_b   8.72836712
_cell_length_c   8.74049500
_cell_angle_alpha   109.49936760
_cell_angle_beta   109.49936793
_cell_angle_gamma   109.44305594
_symmetry_Int_Tables_number   1
_chemical_formula_structural   La10Cd3GeRu6
_chemical_formula_sum   'La10 Cd3 Ge1 Ru6'
_cell_volume   512.42366109
_cell_formula_units_Z   1
loop_
 _symmetry_equiv_pos_site_id
 _symmetry_equiv_pos_as_xyz
  1  'x, y, z'
loop_
 _atom_site_type_symbol
 _atom_site_label
 _atom_site_symmetry_multiplicity
 _atom_site_fract_x
 _atom_site_fract_y
 _atom_site_fract_z
 _atom_site_occupancy
  La  La0  1  0.256992  0.697355  0.445379  1
  La  La1  1  0.746647  0.818225  0.061676  1
  La  La2  1  0.440365  0.243008  0.688386  1
  La  La3  1  0.681775  0.428423  0.243451  1
  La  La4  1  0.071578  0.753353  0.815029  1
  La  La5  1  0.802645  0.059636  0.748022  1
  La  La6  1  0.207810  0.206521  0.209922  1
  La  La7  1  0.500001  0.000000  0.280862  1
  La  La8  1  0.293479  0.501290  0.003401  1
  La  La9  1  0.998711  0.292190  0.502113  1
  Cd  Cd10  1  0.588123  0.585567  0.588676  1
  Cd  Cd11  1  0.914433  0.502557  0.003109  1
  Cd  Cd12  1  0.997444  0.911877  0.500554  1
  Ge  Ge13  1  0.500001  0.000000  0.908463  1
  Ru  Ru14  1  0.268352  0.125293  0.892371  1
  Ru  Ru15  1  0.755876  0.359735  0.611033  1
  Ru  Ru16  1  0.856942  0.231650  0.124020  1
  Ru  Ru17  1  0.140264  0.896140  0.251299  1
  Ru  Ru18  1  0.603859  0.744124  0.355157  1
  Ru  Ru19  1  0.374706  0.643057  0.767078  1
