# generated using pymatgen
data_Sr2MnH7
_symmetry_space_group_name_H-M   'P 1'
_cell_length_a   5.48372695
_cell_length_b   5.33264862
_cell_length_c   7.63130482
_cell_angle_alpha   44.47796535
_cell_angle_beta   46.44262073
_cell_angle_gamma   60.57619929
_symmetry_Int_Tables_number   1
_chemical_formula_structural   Sr2MnH7
_chemical_formula_sum   'Sr2 Mn1 H7'
_cell_volume   113.30740369
_cell_formula_units_Z   1
loop_
 _symmetry_equiv_pos_site_id
 _symmetry_equiv_pos_as_xyz
  1  'x, y, z'
loop_
 _atom_site_type_symbol
 _atom_site_label
 _atom_site_symmetry_multiplicity
 _atom_site_fract_x
 _atom_site_fract_y
 _atom_site_fract_z
 _atom_site_occupancy
  Sr  Sr0  1  0.286915  0.375707  0.901799  1
  Sr  Sr1  1  0.282976  0.374834  0.404102  1
  Mn  Mn2  1  0.785099  0.888036  0.146810  1
  H  H3  1  0.780778  0.240949  0.079936  1
  H  H4  1  0.789471  0.256410  0.864475  1
  H  H5  1  0.361582  0.883020  0.359275  1
  H  H6  1  0.782611  0.810165  0.975213  1
  H  H7  1  0.208747  0.883987  0.938523  1
  H  H8  1  0.785607  0.442598  0.366082  1
  H  H9  1  0.787800  0.797192  0.400069  1
