# generated using pymatgen
data_YbPa(B4Os)2
_symmetry_space_group_name_H-M   'P 1'
_cell_length_a   3.57917100
_cell_length_b   5.97170345
_cell_length_c   11.56509080
_cell_angle_alpha   90.07978968
_cell_angle_beta   90.00000000
_cell_angle_gamma   90.00000000
_symmetry_Int_Tables_number   1
_chemical_formula_structural   YbPa(B4Os)2
_chemical_formula_sum   'Yb2 Pa2 B16 Os4'
_cell_volume   247.18909443
_cell_formula_units_Z   2
loop_
 _symmetry_equiv_pos_site_id
 _symmetry_equiv_pos_as_xyz
  1  'x, y, z'
loop_
 _atom_site_type_symbol
 _atom_site_label
 _atom_site_symmetry_multiplicity
 _atom_site_fract_x
 _atom_site_fract_y
 _atom_site_fract_z
 _atom_site_occupancy
  Yb  Yb0  1  0.000000  0.627881  0.853423  1
  Yb  Yb1  1  0.000000  0.372119  0.146577  1
  Pa  Pa2  1  0.000000  0.128722  0.652846  1
  Pa  Pa3  1  0.000000  0.871278  0.347154  1
  B  B4  1  0.500000  0.474533  0.691770  1
  B  B5  1  0.500000  0.525467  0.308230  1
  B  B6  1  0.500000  0.973754  0.810255  1
  B  B7  1  0.500000  0.026246  0.189745  1
  B  B8  1  0.500000  0.288629  0.815301  1
  B  B9  1  0.500000  0.711371  0.184699  1
  B  B10  1  0.500000  0.788064  0.687655  1
  B  B11  1  0.500000  0.211936  0.312345  1
  B  B12  1  0.500000  0.362845  0.969533  1
  B  B13  1  0.500000  0.637155  0.030467  1
  B  B14  1  0.500000  0.866180  0.531806  1
  B  B15  1  0.500000  0.133820  0.468194  1
  B  B16  1  0.500000  0.387326  0.546771  1
  B  B17  1  0.500000  0.612674  0.453229  1
  B  B18  1  0.500000  0.885673  0.954743  1
  B  B19  1  0.500000  0.114327  0.045257  1
  Os  Os20  1  0.000000  0.137987  0.905900  1
  Os  Os21  1  0.000000  0.862013  0.094100  1
  Os  Os22  1  0.000000  0.643064  0.593878  1
  Os  Os23  1  0.000000  0.356936  0.406122  1
