# generated using pymatgen
data_Ba6Sc2SeO12
_symmetry_space_group_name_H-M   'P 1'
_cell_length_a   9.07921750
_cell_length_b   9.07921757
_cell_length_c   7.22033000
_cell_angle_alpha   67.92792903
_cell_angle_beta   67.92792884
_cell_angle_gamma   36.87997860
_symmetry_Int_Tables_number   1
_chemical_formula_structural   Ba6Sc2SeO12
_chemical_formula_sum   'Ba6 Sc2 Se1 O12'
_cell_volume   327.97867068
_cell_formula_units_Z   1
loop_
 _symmetry_equiv_pos_site_id
 _symmetry_equiv_pos_as_xyz
  1  'x, y, z'
loop_
 _atom_site_type_symbol
 _atom_site_label
 _atom_site_symmetry_multiplicity
 _atom_site_fract_x
 _atom_site_fract_y
 _atom_site_fract_z
 _atom_site_occupancy
  Ba  Ba0  1  0.877888  0.877888  0.707963  1
  Ba  Ba1  1  0.218780  0.218780  0.707889  1
  Ba  Ba2  1  0.548731  0.548731  0.706122  1
  Ba  Ba3  1  0.451269  0.451269  0.293878  1
  Ba  Ba4  1  0.781220  0.781220  0.292111  1
  Ba  Ba5  1  0.122112  0.122112  0.292037  1
  Sc  Sc6  1  0.667377  0.667377  0.999030  1
  Sc  Sc7  1  0.332623  0.332623  0.000970  1
  Se  Se8  1  0.000000  0.000000  0.000000  1
  O  O9  1  0.953495  0.953495  0.281331  1
  O  O10  1  0.283651  0.283651  0.316512  1
  O  O11  1  0.609807  0.609807  0.317276  1
  O  O12  1  0.390193  0.390193  0.682724  1
  O  O13  1  0.716349  0.716349  0.683488  1
  O  O14  1  0.046505  0.046505  0.718669  1
  O  O15  1  0.500000  0.000000  0.000000  1
  O  O16  1  0.849702  0.300928  0.001142  1
  O  O17  1  0.150298  0.699072  0.998858  1
  O  O18  1  0.000000  0.500000  0.000000  1
  O  O19  1  0.300928  0.849702  0.001142  1
  O  O20  1  0.699072  0.150298  0.998858  1
