# generated using pymatgen
data_Sr12Sn8Pd3Rh5
_symmetry_space_group_name_H-M   'P 1'
_cell_length_a   6.23542347
_cell_length_b   8.65474161
_cell_length_c   14.46933300
_cell_angle_alpha   90.19577177
_cell_angle_beta   89.97768051
_cell_angle_gamma   89.96030234
_symmetry_Int_Tables_number   1
_chemical_formula_structural   Sr12Sn8Pd3Rh5
_chemical_formula_sum   'Sr12 Sn8 Pd3 Rh5'
_cell_volume   780.84691481
_cell_formula_units_Z   1
loop_
 _symmetry_equiv_pos_site_id
 _symmetry_equiv_pos_as_xyz
  1  'x, y, z'
loop_
 _atom_site_type_symbol
 _atom_site_label
 _atom_site_symmetry_multiplicity
 _atom_site_fract_x
 _atom_site_fract_y
 _atom_site_fract_z
 _atom_site_occupancy
  Sr  Sr0  1  0.143643  0.391968  0.593109  1
  Sr  Sr1  1  0.856067  0.608560  0.095701  1
  Sr  Sr2  1  0.147272  0.101328  0.404804  1
  Sr  Sr3  1  0.857071  0.892583  0.905243  1
  Sr  Sr4  1  0.846710  0.606451  0.403332  1
  Sr  Sr5  1  0.152641  0.398750  0.902652  1
  Sr  Sr6  1  0.846879  0.899025  0.595464  1
  Sr  Sr7  1  0.152863  0.101105  0.098433  1
  Sr  Sr8  1  0.638372  0.243913  0.750196  1
  Sr  Sr9  1  0.361003  0.758084  0.250718  1
  Sr  Sr10  1  0.635419  0.256533  0.251819  1
  Sr  Sr11  1  0.361308  0.745263  0.748458  1
  Sn  Sn12  1  0.620620  0.243505  0.497333  1
  Sn  Sn13  1  0.382873  0.748807  0.999564  1
  Sn  Sn14  1  0.368154  0.753388  0.498585  1
  Sn  Sn15  1  0.634519  0.250631  0.000878  1
  Sn  Sn16  1  0.149778  0.096777  0.748567  1
  Sn  Sn17  1  0.844808  0.907460  0.248759  1
  Sn  Sn18  1  0.149746  0.405628  0.253536  1
  Sn  Sn19  1  0.848386  0.595382  0.751719  1
  Pd  Pd20  1  0.376138  0.035484  0.908765  1
  Pd  Pd21  1  0.622109  0.532497  0.590976  1
  Pd  Pd22  1  0.376504  0.465342  0.092252  1
  Rh  Rh23  1  0.373626  0.032900  0.591766  1
  Rh  Rh24  1  0.627405  0.968976  0.088347  1
  Rh  Rh25  1  0.374579  0.468394  0.411028  1
  Rh  Rh26  1  0.628893  0.529429  0.910835  1
  Rh  Rh27  1  0.622615  0.961835  0.407165  1
