# generated using pymatgen
data_PrDy5Co2(P3Rh4)4
_symmetry_space_group_name_H-M   'P 1'
_cell_length_a   3.87720500
_cell_length_b   11.16456400
_cell_length_c   12.83828800
_cell_angle_alpha   90.00000000
_cell_angle_beta   90.00000000
_cell_angle_gamma   90.00000000
_symmetry_Int_Tables_number   1
_chemical_formula_structural   PrDy5Co2(P3Rh4)4
_chemical_formula_sum   'Pr1 Dy5 Co2 P12 Rh16'
_cell_volume   555.73486733
_cell_formula_units_Z   1
loop_
 _symmetry_equiv_pos_site_id
 _symmetry_equiv_pos_as_xyz
  1  'x, y, z'
loop_
 _atom_site_type_symbol
 _atom_site_label
 _atom_site_symmetry_multiplicity
 _atom_site_fract_x
 _atom_site_fract_y
 _atom_site_fract_z
 _atom_site_occupancy
  Pr  Pr0  1  0.000000  0.500000  0.522184  1
  Dy  Dy1  1  0.500000  0.000000  0.477876  1
  Dy  Dy2  1  0.500000  0.815541  0.201684  1
  Dy  Dy3  1  0.500000  0.184459  0.201684  1
  Dy  Dy4  1  0.000000  0.685628  0.798727  1
  Dy  Dy5  1  0.000000  0.314372  0.798727  1
  Co  Co6  1  0.000000  0.500000  0.980247  1
  Co  Co7  1  0.500000  0.000000  0.020892  1
  P  P8  1  0.500000  0.500000  0.883311  1
  P  P9  1  0.000000  0.000000  0.118580  1
  P  P10  1  0.500000  0.500000  0.346689  1
  P  P11  1  0.000000  0.000000  0.648483  1
  P  P12  1  0.500000  0.313096  0.621181  1
  P  P13  1  0.500000  0.686904  0.621181  1
  P  P14  1  0.000000  0.183600  0.380315  1
  P  P15  1  0.000000  0.816400  0.380315  1
  P  P16  1  0.500000  0.853929  0.896384  1
  P  P17  1  0.500000  0.146071  0.896384  1
  P  P18  1  0.000000  0.647241  0.103466  1
  P  P19  1  0.000000  0.352759  0.103466  1
  Rh  Rh20  1  0.500000  0.500000  0.165968  1
  Rh  Rh21  1  0.000000  0.000000  0.831460  1
  Rh  Rh22  1  0.500000  0.500000  0.706988  1
  Rh  Rh23  1  0.000000  0.000000  0.296419  1
  Rh  Rh24  1  0.500000  0.335932  0.993865  1
  Rh  Rh25  1  0.500000  0.664068  0.993865  1
  Rh  Rh26  1  0.000000  0.162793  0.005760  1
  Rh  Rh27  1  0.000000  0.837207  0.005760  1
  Rh  Rh28  1  0.500000  0.289373  0.429201  1
  Rh  Rh29  1  0.500000  0.710627  0.429201  1
  Rh  Rh30  1  0.000000  0.203513  0.570382  1
  Rh  Rh31  1  0.000000  0.796487  0.570382  1
  Rh  Rh32  1  0.500000  0.874249  0.713039  1
  Rh  Rh33  1  0.500000  0.125751  0.713039  1
  Rh  Rh34  1  0.000000  0.627018  0.286447  1
  Rh  Rh35  1  0.000000  0.372982  0.286447  1
