# generated using pymatgen
data_TmHfB6Os
_symmetry_space_group_name_H-M   'P 1'
_cell_length_a   3.53987600
_cell_length_b   8.98970000
_cell_length_c   11.34719000
_cell_angle_alpha   90.00000000
_cell_angle_beta   90.00000000
_cell_angle_gamma   90.00000000
_symmetry_Int_Tables_number   1
_chemical_formula_structural   TmHfB6Os
_chemical_formula_sum   'Tm4 Hf4 B24 Os4'
_cell_volume   361.09508319
_cell_formula_units_Z   4
loop_
 _symmetry_equiv_pos_site_id
 _symmetry_equiv_pos_as_xyz
  1  'x, y, z'
loop_
 _atom_site_type_symbol
 _atom_site_label
 _atom_site_symmetry_multiplicity
 _atom_site_fract_x
 _atom_site_fract_y
 _atom_site_fract_z
 _atom_site_occupancy
  Tm  Tm0  1  0.000000  0.321185  0.413141  1
  Tm  Tm1  1  0.000000  0.678815  0.586859  1
  Tm  Tm2  1  0.000000  0.821185  0.086859  1
  Tm  Tm3  1  0.000000  0.178815  0.913141  1
  Hf  Hf4  1  0.000000  0.944785  0.374675  1
  Hf  Hf5  1  0.000000  0.055215  0.625325  1
  Hf  Hf6  1  0.000000  0.444785  0.125325  1
  Hf  Hf7  1  0.000000  0.555215  0.874675  1
  B  B8  1  0.500000  0.554017  0.434394  1
  B  B9  1  0.500000  0.445983  0.565606  1
  B  B10  1  0.500000  0.054017  0.065606  1
  B  B11  1  0.500000  0.945983  0.934394  1
  B  B12  1  0.500000  0.751845  0.419808  1
  B  B13  1  0.500000  0.248155  0.580192  1
  B  B14  1  0.500000  0.251845  0.080192  1
  B  B15  1  0.500000  0.748155  0.919808  1
  B  B16  1  0.500000  0.794941  0.263812  1
  B  B17  1  0.500000  0.205059  0.736187  1
  B  B18  1  0.500000  0.294941  0.236188  1
  B  B19  1  0.500000  0.705059  0.763813  1
  B  B20  1  0.500000  0.629911  0.182712  1
  B  B21  1  0.500000  0.370089  0.817288  1
  B  B22  1  0.500000  0.129911  0.317288  1
  B  B23  1  0.500000  0.870089  0.682712  1
  B  B24  1  0.500000  0.980859  0.213363  1
  B  B25  1  0.500000  0.019141  0.786637  1
  B  B26  1  0.500000  0.480859  0.286637  1
  B  B27  1  0.500000  0.519141  0.713363  1
  B  B28  1  0.500000  0.602027  0.027802  1
  B  B29  1  0.500000  0.397973  0.972198  1
  B  B30  1  0.500000  0.102027  0.472198  1
  B  B31  1  0.500000  0.897973  0.527802  1
  Os  Os32  1  0.000000  0.640868  0.319716  1
  Os  Os33  1  0.000000  0.359132  0.680284  1
  Os  Os34  1  0.000000  0.140868  0.180284  1
  Os  Os35  1  0.000000  0.859132  0.819716  1
