# generated using pymatgen
data_Hf8Ti9Si16Mo2W
_symmetry_space_group_name_H-M   'P 1'
_cell_length_a   6.57719303
_cell_length_b   6.72994016
_cell_length_c   12.92351700
_cell_angle_alpha   90.00000000
_cell_angle_beta   90.00000000
_cell_angle_gamma   89.99286745
_symmetry_Int_Tables_number   1
_chemical_formula_structural   Hf8Ti9Si16Mo2W
_chemical_formula_sum   'Hf8 Ti9 Si16 Mo2 W1'
_cell_volume   572.04804469
_cell_formula_units_Z   1
loop_
 _symmetry_equiv_pos_site_id
 _symmetry_equiv_pos_as_xyz
  1  'x, y, z'
loop_
 _atom_site_type_symbol
 _atom_site_label
 _atom_site_symmetry_multiplicity
 _atom_site_fract_x
 _atom_site_fract_y
 _atom_site_fract_z
 _atom_site_occupancy
  Hf  Hf0  1  0.995169  0.172949  0.093903  1
  Hf  Hf1  1  0.003406  0.827382  0.905894  1
  Hf  Hf2  1  0.502398  0.673857  0.906150  1
  Hf  Hf3  1  0.003406  0.827382  0.594106  1
  Hf  Hf4  1  0.497296  0.327233  0.093477  1
  Hf  Hf5  1  0.995169  0.172949  0.406097  1
  Hf  Hf6  1  0.497296  0.327233  0.406523  1
  Hf  Hf7  1  0.502398  0.673857  0.593850  1
  Ti  Ti8  1  0.162639  0.493468  0.750000  1
  Ti  Ti9  1  0.334838  0.170360  0.624877  1
  Ti  Ti10  1  0.665353  0.830549  0.375311  1
  Ti  Ti11  1  0.165093  0.669651  0.374986  1
  Ti  Ti12  1  0.665353  0.830549  0.124689  1
  Ti  Ti13  1  0.834601  0.329023  0.624715  1
  Ti  Ti14  1  0.334838  0.170360  0.875123  1
  Ti  Ti15  1  0.834601  0.329023  0.875285  1
  Ti  Ti16  1  0.165093  0.669651  0.125014  1
  Si  Si17  1  0.037094  0.117635  0.750000  1
  Si  Si18  1  0.964286  0.883015  0.250000  1
  Si  Si19  1  0.464474  0.616665  0.250000  1
  Si  Si20  1  0.535875  0.383654  0.750000  1
  Si  Si21  1  0.296286  0.860931  0.750000  1
  Si  Si22  1  0.702002  0.138382  0.250000  1
  Si  Si23  1  0.203046  0.360446  0.250000  1
  Si  Si24  1  0.798617  0.637117  0.750000  1
  Si  Si25  1  0.170214  0.461868  0.538419  1
  Si  Si26  1  0.830370  0.538733  0.461302  1
  Si  Si27  1  0.329428  0.961886  0.461438  1
  Si  Si28  1  0.830370  0.538733  0.038698  1
  Si  Si29  1  0.670347  0.038653  0.539001  1
  Si  Si30  1  0.170214  0.461868  0.961581  1
  Si  Si31  1  0.670347  0.038653  0.960999  1
  Si  Si32  1  0.329428  0.961886  0.038562  1
  Mo  Mo33  1  0.338028  0.993983  0.250000  1
  Mo  Mo34  1  0.662249  0.004768  0.750000  1
  W  W35  1  0.838377  0.505648  0.250000  1
