# generated using pymatgen
data_Li4Tb8Sc8Si15Ge
_symmetry_space_group_name_H-M   'P 1'
_cell_length_a   6.92751373
_cell_length_b   7.43078121
_cell_length_c   14.11492242
_cell_angle_alpha   90.01730634
_cell_angle_beta   89.95162980
_cell_angle_gamma   90.02094654
_symmetry_Int_Tables_number   1
_chemical_formula_structural   Li4Tb8Sc8Si15Ge
_chemical_formula_sum   'Li4 Tb8 Sc8 Si15 Ge1'
_cell_volume   726.59124643
_cell_formula_units_Z   1
loop_
 _symmetry_equiv_pos_site_id
 _symmetry_equiv_pos_as_xyz
  1  'x, y, z'
loop_
 _atom_site_type_symbol
 _atom_site_label
 _atom_site_symmetry_multiplicity
 _atom_site_fract_x
 _atom_site_fract_y
 _atom_site_fract_z
 _atom_site_occupancy
  Li  Li0  1  0.158960  0.504615  0.750325  1
  Li  Li1  1  0.841033  0.495460  0.250021  1
  Li  Li2  1  0.341034  0.004602  0.249984  1
  Li  Li3  1  0.658953  0.995415  0.750060  1
  Tb  Tb4  1  0.014102  0.181731  0.099524  1
  Tb  Tb5  1  0.985959  0.818341  0.900415  1
  Tb  Tb6  1  0.485934  0.681669  0.900381  1
  Tb  Tb7  1  0.985361  0.819394  0.599667  1
  Tb  Tb8  1  0.514034  0.318363  0.099567  1
  Tb  Tb9  1  0.013495  0.180951  0.400010  1
  Tb  Tb10  1  0.514570  0.317701  0.399958  1
  Tb  Tb11  1  0.487492  0.682648  0.599869  1
  Sc  Sc12  1  0.331383  0.177979  0.626817  1
  Sc  Sc13  1  0.669371  0.820731  0.373613  1
  Sc  Sc14  1  0.169214  0.680213  0.373267  1
  Sc  Sc15  1  0.669597  0.820511  0.126242  1
  Sc  Sc16  1  0.829114  0.320205  0.626417  1
  Sc  Sc17  1  0.330360  0.179462  0.873748  1
  Sc  Sc18  1  0.830305  0.320494  0.873671  1
  Sc  Sc19  1  0.169690  0.679474  0.126220  1
  Si  Si20  1  0.032140  0.105738  0.749994  1
  Si  Si21  1  0.967875  0.894430  0.249866  1
  Si  Si22  1  0.467910  0.605616  0.249970  1
  Si  Si23  1  0.531955  0.394331  0.750055  1
  Si  Si24  1  0.282051  0.883385  0.750034  1
  Si  Si25  1  0.717891  0.116354  0.249931  1
  Si  Si26  1  0.217792  0.383598  0.250058  1
  Si  Si27  1  0.782357  0.616378  0.749993  1
  Si  Si28  1  0.838724  0.537866  0.464061  1
  Si  Si29  1  0.342343  0.962975  0.464818  1
  Si  Si30  1  0.842502  0.536977  0.035170  1
  Si  Si31  1  0.657487  0.037189  0.535125  1
  Si  Si32  1  0.157473  0.463037  0.964835  1
  Si  Si33  1  0.657503  0.036993  0.964835  1
  Si  Si34  1  0.342482  0.963011  0.035162  1
  Ge  Ge35  1  0.161552  0.462164  0.536316  1
