# generated using pymatgen
data_V12GaPt2Rh
_symmetry_space_group_name_H-M   'P 1'
_cell_length_a   4.80375000
_cell_length_b   4.79334900
_cell_length_c   9.62363300
_cell_angle_alpha   90.00000000
_cell_angle_beta   90.00000000
_cell_angle_gamma   90.00000000
_symmetry_Int_Tables_number   1
_chemical_formula_structural   V12GaPt2Rh
_chemical_formula_sum   'V12 Ga1 Pt2 Rh1'
_cell_volume   221.59425713
_cell_formula_units_Z   1
loop_
 _symmetry_equiv_pos_site_id
 _symmetry_equiv_pos_as_xyz
  1  'x, y, z'
loop_
 _atom_site_type_symbol
 _atom_site_label
 _atom_site_symmetry_multiplicity
 _atom_site_fract_x
 _atom_site_fract_y
 _atom_site_fract_z
 _atom_site_occupancy
  V  V0  1  0.500000  0.000000  0.629138  1
  V  V1  1  0.500000  0.000000  0.121239  1
  V  V2  1  0.749616  0.500000  0.251434  1
  V  V3  1  0.749616  0.500000  0.748566  1
  V  V4  1  0.000000  0.750770  0.500000  1
  V  V5  1  0.000000  0.747954  0.000000  1
  V  V6  1  0.500000  0.000000  0.370862  1
  V  V7  1  0.500000  0.000000  0.878761  1
  V  V8  1  0.250384  0.500000  0.251434  1
  V  V9  1  0.250384  0.500000  0.748566  1
  V  V10  1  0.000000  0.249230  0.500000  1
  V  V11  1  0.000000  0.252046  0.000000  1
  Ga  Ga12  1  0.500000  0.500000  0.500000  1
  Pt  Pt13  1  0.000000  0.000000  0.248397  1
  Pt  Pt14  1  0.000000  0.000000  0.751603  1
  Rh  Rh15  1  0.500000  0.500000  0.000000  1
