# generated using pymatgen
data_Ho4TmIn4PdRh
_symmetry_space_group_name_H-M   'P 1'
_cell_length_a   3.60192800
_cell_length_b   8.10626807
_cell_length_c   18.20608000
_cell_angle_alpha   90.12427821
_cell_angle_beta   90.00000000
_cell_angle_gamma   90.00000000
_symmetry_Int_Tables_number   1
_chemical_formula_structural   Ho4TmIn4PdRh
_chemical_formula_sum   'Ho8 Tm2 In8 Pd2 Rh2'
_cell_volume   531.58340412
_cell_formula_units_Z   2
loop_
 _symmetry_equiv_pos_site_id
 _symmetry_equiv_pos_as_xyz
  1  'x, y, z'
loop_
 _atom_site_type_symbol
 _atom_site_label
 _atom_site_symmetry_multiplicity
 _atom_site_fract_x
 _atom_site_fract_y
 _atom_site_fract_z
 _atom_site_occupancy
  Ho  Ho0  1  0.000000  0.382047  0.915221  1
  Ho  Ho1  1  0.000000  0.617953  0.084779  1
  Ho  Ho2  1  0.000000  0.234361  0.221863  1
  Ho  Ho3  1  0.000000  0.765639  0.778137  1
  Ho  Ho4  1  0.000000  0.246721  0.719337  1
  Ho  Ho5  1  0.000000  0.753279  0.280663  1
  Ho  Ho6  1  0.000000  0.000000  0.000000  1
  Ho  Ho7  1  0.000000  0.500000  0.500000  1
  Tm  Tm8  1  0.000000  0.115849  0.412290  1
  Tm  Tm9  1  0.000000  0.884151  0.587710  1
  In  In10  1  0.500000  0.422875  0.350802  1
  In  In11  1  0.500000  0.577125  0.649198  1
  In  In12  1  0.500000  0.074419  0.850197  1
  In  In13  1  0.500000  0.925581  0.149803  1
  In  In14  1  0.500000  0.292510  0.067261  1
  In  In15  1  0.500000  0.707490  0.932739  1
  In  In16  1  0.500000  0.205003  0.566936  1
  In  In17  1  0.500000  0.794997  0.433064  1
  Pd  Pd18  1  0.500000  0.477394  0.803329  1
  Pd  Pd19  1  0.500000  0.522606  0.196671  1
  Rh  Rh20  1  0.500000  0.023004  0.305234  1
  Rh  Rh21  1  0.500000  0.976996  0.694766  1
