# generated using pymatgen
data_Ho5Tm15Sn11Bi5
_symmetry_space_group_name_H-M   'P 1'
_cell_length_a   8.10921964
_cell_length_b   8.11153112
_cell_length_c   15.34128900
_cell_angle_alpha   90.17064729
_cell_angle_beta   90.02275801
_cell_angle_gamma   89.88560945
_symmetry_Int_Tables_number   1
_chemical_formula_structural   Ho5Tm15Sn11Bi5
_chemical_formula_sum   'Ho5 Tm15 Sn11 Bi5'
_cell_volume   1009.11562018
_cell_formula_units_Z   1
loop_
 _symmetry_equiv_pos_site_id
 _symmetry_equiv_pos_as_xyz
  1  'x, y, z'
loop_
 _atom_site_type_symbol
 _atom_site_label
 _atom_site_symmetry_multiplicity
 _atom_site_fract_x
 _atom_site_fract_y
 _atom_site_fract_z
 _atom_site_occupancy
  Ho  Ho0  1  0.957035  0.820597  0.107044  1
  Ho  Ho1  1  0.469183  0.668068  0.104479  1
  Ho  Ho2  1  0.973734  0.826352  0.398021  1
  Ho  Ho3  1  0.524786  0.326457  0.601162  1
  Ho  Ho4  1  0.034805  0.178835  0.895726  1
  Tm  Tm5  1  0.372407  0.840453  0.874281  1
  Tm  Tm6  1  0.876343  0.659440  0.625183  1
  Tm  Tm7  1  0.622901  0.159093  0.374735  1
  Tm  Tm8  1  0.122142  0.339132  0.125781  1
  Tm  Tm9  1  0.628947  0.162715  0.125645  1
  Tm  Tm10  1  0.129432  0.338054  0.377374  1
  Tm  Tm11  1  0.368500  0.839344  0.623778  1
  Tm  Tm12  1  0.870964  0.655736  0.874767  1
  Tm  Tm13  1  0.549433  0.334086  0.892474  1
  Tm  Tm14  1  0.050894  0.172912  0.606225  1
  Tm  Tm15  1  0.450002  0.674633  0.394841  1
  Tm  Tm16  1  0.203962  0.502211  0.745229  1
  Tm  Tm17  1  0.703729  0.999140  0.749199  1
  Tm  Tm18  1  0.795828  0.497525  0.247244  1
  Tm  Tm19  1  0.296407  0.001042  0.254454  1
  Sn  Sn20  1  0.212492  0.534721  0.542182  1
  Sn  Sn21  1  0.286968  0.033972  0.458351  1
  Sn  Sn22  1  0.785247  0.465362  0.041691  1
  Sn  Sn23  1  0.568226  0.625793  0.748648  1
  Sn  Sn24  1  0.067460  0.876694  0.752035  1
  Sn  Sn25  1  0.429768  0.375778  0.249567  1
  Sn  Sn26  1  0.930959  0.123027  0.251740  1
  Sn  Sn27  1  0.345674  0.149789  0.752199  1
  Sn  Sn28  1  0.843820  0.350168  0.747547  1
  Sn  Sn29  1  0.656455  0.850446  0.251510  1
  Sn  Sn30  1  0.157293  0.646722  0.249933  1
  Bi  Bi31  1  0.278889  0.025341  0.044911  1
  Bi  Bi32  1  0.776322  0.474736  0.455585  1
  Bi  Bi33  1  0.721924  0.974561  0.543710  1
  Bi  Bi34  1  0.220485  0.527408  0.956164  1
  Bi  Bi35  1  0.716580  0.969653  0.956584  1
