# generated using pymatgen
data_Cs6BiSbSe6
_symmetry_space_group_name_H-M   'P 1'
_cell_length_a   10.89956705
_cell_length_b   10.88338300
_cell_length_c   10.88757747
_cell_angle_alpha   90.00000000
_cell_angle_beta   89.31039424
_cell_angle_gamma   90.00000000
_symmetry_Int_Tables_number   1
_chemical_formula_structural   Cs6BiSbSe6
_chemical_formula_sum   'Cs12 Bi2 Sb2 Se12'
_cell_volume   1291.43621515
_cell_formula_units_Z   2
loop_
 _symmetry_equiv_pos_site_id
 _symmetry_equiv_pos_as_xyz
  1  'x, y, z'
loop_
 _atom_site_type_symbol
 _atom_site_label
 _atom_site_symmetry_multiplicity
 _atom_site_fract_x
 _atom_site_fract_y
 _atom_site_fract_z
 _atom_site_occupancy
  Cs  Cs0  1  0.931241  0.423508  0.079279  1
  Cs  Cs1  1  0.682535  0.816187  0.183337  1
  Cs  Cs2  1  0.307641  0.690587  0.189496  1
  Cs  Cs3  1  0.692360  0.190586  0.310504  1
  Cs  Cs4  1  0.317465  0.316187  0.316663  1
  Cs  Cs5  1  0.068760  0.923508  0.420722  1
  Cs  Cs6  1  0.580094  0.572030  0.568872  1
  Cs  Cs7  1  0.816671  0.182093  0.682671  1
  Cs  Cs8  1  0.188774  0.309412  0.691720  1
  Cs  Cs9  1  0.811226  0.809412  0.808281  1
  Cs  Cs10  1  0.183329  0.682093  0.817329  1
  Cs  Cs11  1  0.419906  0.072031  0.931128  1
  Bi  Bi12  1  0.474991  0.975715  0.527848  1
  Bi  Bi13  1  0.525009  0.475715  0.972152  1
  Sb  Sb14  1  0.024094  0.024839  0.022288  1
  Sb  Sb15  1  0.975906  0.524839  0.477712  1
  Se  Se16  1  0.797544  0.097607  0.004368  1
  Se  Se17  1  0.003977  0.797823  0.095529  1
  Se  Se18  1  0.599420  0.495370  0.206363  1
  Se  Se19  1  0.400579  0.995370  0.293637  1
  Se  Se20  1  0.996023  0.297824  0.404471  1
  Se  Se21  1  0.202455  0.597606  0.495632  1
  Se  Se22  1  0.709491  0.900629  0.503744  1
  Se  Se23  1  0.496323  0.210538  0.601919  1
  Se  Se24  1  0.902091  0.503662  0.705015  1
  Se  Se25  1  0.097910  0.003662  0.794985  1
  Se  Se26  1  0.503677  0.710539  0.898081  1
  Se  Se27  1  0.290510  0.400628  0.996256  1
