# generated using pymatgen
data_Eu3V(Ni4P3)2
_symmetry_space_group_name_H-M   'P 1'
_cell_length_a   3.77851300
_cell_length_b   10.70920800
_cell_length_c   12.35344100
_cell_angle_alpha   90.00000000
_cell_angle_beta   90.00000000
_cell_angle_gamma   90.00000000
_symmetry_Int_Tables_number   1
_chemical_formula_structural   Eu3V(Ni4P3)2
_chemical_formula_sum   'Eu6 V2 Ni16 P12'
_cell_volume   499.88052801
_cell_formula_units_Z   2
loop_
 _symmetry_equiv_pos_site_id
 _symmetry_equiv_pos_as_xyz
  1  'x, y, z'
loop_
 _atom_site_type_symbol
 _atom_site_label
 _atom_site_symmetry_multiplicity
 _atom_site_fract_x
 _atom_site_fract_y
 _atom_site_fract_z
 _atom_site_occupancy
  Eu  Eu0  1  0.000000  0.500000  0.521415  1
  Eu  Eu1  1  0.500000  0.000000  0.478585  1
  Eu  Eu2  1  0.500000  0.817472  0.205346  1
  Eu  Eu3  1  0.500000  0.182528  0.205346  1
  Eu  Eu4  1  0.000000  0.682528  0.794654  1
  Eu  Eu5  1  0.000000  0.317472  0.794654  1
  V  V6  1  0.500000  0.500000  0.149994  1
  V  V7  1  0.000000  0.000000  0.850006  1
  Ni  Ni8  1  0.500000  0.500000  0.699422  1
  Ni  Ni9  1  0.000000  0.000000  0.300578  1
  Ni  Ni10  1  0.000000  0.500000  0.984772  1
  Ni  Ni11  1  0.500000  0.000000  0.015228  1
  Ni  Ni12  1  0.500000  0.333037  0.991796  1
  Ni  Ni13  1  0.500000  0.666963  0.991796  1
  Ni  Ni14  1  0.000000  0.166963  0.008204  1
  Ni  Ni15  1  0.000000  0.833037  0.008204  1
  Ni  Ni16  1  0.500000  0.301106  0.425166  1
  Ni  Ni17  1  0.500000  0.698894  0.425166  1
  Ni  Ni18  1  0.000000  0.198894  0.574834  1
  Ni  Ni19  1  0.000000  0.801106  0.574834  1
  Ni  Ni20  1  0.500000  0.881882  0.710209  1
  Ni  Ni21  1  0.500000  0.118118  0.710209  1
  Ni  Ni22  1  0.000000  0.618118  0.289791  1
  Ni  Ni23  1  0.000000  0.381882  0.289791  1
  P  P24  1  0.500000  0.500000  0.881354  1
  P  P25  1  0.000000  0.000000  0.118646  1
  P  P26  1  0.500000  0.500000  0.341055  1
  P  P27  1  0.000000  0.000000  0.658945  1
  P  P28  1  0.500000  0.308072  0.611858  1
  P  P29  1  0.500000  0.691928  0.611858  1
  P  P30  1  0.000000  0.191928  0.388142  1
  P  P31  1  0.000000  0.808072  0.388142  1
  P  P32  1  0.500000  0.847647  0.894152  1
  P  P33  1  0.500000  0.152353  0.894152  1
  P  P34  1  0.000000  0.652353  0.105848  1
  P  P35  1  0.000000  0.347647  0.105848  1
