# generated using pymatgen
data_Nd8Cu3Si12Pt
_symmetry_space_group_name_H-M   'P 1'
_cell_length_a   8.15466600
_cell_length_b   8.15466557
_cell_length_c   8.58293600
_cell_angle_alpha   90.00000000
_cell_angle_beta   90.00000000
_cell_angle_gamma   119.99999362
_symmetry_Int_Tables_number   1
_chemical_formula_structural   Nd8Cu3Si12Pt
_chemical_formula_sum   'Nd8 Cu3 Si12 Pt1'
_cell_volume   494.28663386
_cell_formula_units_Z   1
loop_
 _symmetry_equiv_pos_site_id
 _symmetry_equiv_pos_as_xyz
  1  'x, y, z'
loop_
 _atom_site_type_symbol
 _atom_site_label
 _atom_site_symmetry_multiplicity
 _atom_site_fract_x
 _atom_site_fract_y
 _atom_site_fract_z
 _atom_site_occupancy
  Nd  Nd0  1  0.499665  0.500335  0.750608  1
  Nd  Nd1  1  0.499723  0.500277  0.249386  1
  Nd  Nd2  1  0.000672  0.500335  0.750608  1
  Nd  Nd3  1  0.000554  0.500277  0.249386  1
  Nd  Nd4  1  0.499665  0.999328  0.750608  1
  Nd  Nd5  1  0.499723  0.999446  0.249386  1
  Nd  Nd6  1  0.000000  0.000000  0.750860  1
  Nd  Nd7  1  0.000000  0.000000  0.249127  1
  Cu  Cu8  1  0.666667  0.333333  0.999842  1
  Cu  Cu9  1  0.333333  0.666667  0.000470  1
  Cu  Cu10  1  0.333333  0.666667  0.499746  1
  Si  Si11  1  0.830521  0.169479  0.000035  1
  Si  Si12  1  0.168775  0.831225  0.999942  1
  Si  Si13  1  0.338958  0.169479  0.000035  1
  Si  Si14  1  0.168589  0.831411  0.499895  1
  Si  Si15  1  0.662450  0.831225  0.999942  1
  Si  Si16  1  0.833707  0.166293  0.500124  1
  Si  Si17  1  0.830521  0.661042  0.000035  1
  Si  Si18  1  0.662822  0.831411  0.499895  1
  Si  Si19  1  0.168775  0.337550  0.999942  1
  Si  Si20  1  0.332587  0.166293  0.500124  1
  Si  Si21  1  0.168589  0.337178  0.499895  1
  Si  Si22  1  0.833707  0.667413  0.500124  1
  Pt  Pt23  1  0.666667  0.333333  0.499986  1
