# generated using pymatgen
data_Ba2HoAlSe5
_symmetry_space_group_name_H-M   'P 1'
_cell_length_a   7.40837564
_cell_length_b   8.77411658
_cell_length_c   9.54192743
_cell_angle_alpha   103.52601795
_cell_angle_beta   102.95158100
_cell_angle_gamma   107.42394728
_symmetry_Int_Tables_number   1
_chemical_formula_structural   Ba2HoAlSe5
_chemical_formula_sum   'Ba4 Ho2 Al2 Se10'
_cell_volume   545.67581643
_cell_formula_units_Z   2
loop_
 _symmetry_equiv_pos_site_id
 _symmetry_equiv_pos_as_xyz
  1  'x, y, z'
loop_
 _atom_site_type_symbol
 _atom_site_label
 _atom_site_symmetry_multiplicity
 _atom_site_fract_x
 _atom_site_fract_y
 _atom_site_fract_z
 _atom_site_occupancy
  Ba  Ba0  1  0.632629  0.977279  0.289375  1
  Ba  Ba1  1  0.367371  0.022721  0.710625  1
  Ba  Ba2  1  0.341647  0.510420  0.706637  1
  Ba  Ba3  1  0.658353  0.489580  0.293363  1
  Ho  Ho4  1  0.997980  0.728928  0.998367  1
  Ho  Ho5  1  0.002020  0.271072  0.001633  1
  Al  Al6  1  0.806587  0.872797  0.691088  1
  Al  Al7  1  0.193413  0.127203  0.308912  1
  Se  Se8  1  0.987687  0.686777  0.687719  1
  Se  Se9  1  0.012313  0.313223  0.312281  1
  Se  Se10  1  0.983783  0.150819  0.690641  1
  Se  Se11  1  0.016217  0.849181  0.309359  1
  Se  Se12  1  0.715342  0.908580  0.924997  1
  Se  Se13  1  0.284658  0.091420  0.075003  1
  Se  Se14  1  0.708776  0.412185  0.946604  1
  Se  Se15  1  0.291224  0.587815  0.053396  1
  Se  Se16  1  0.495271  0.743837  0.495357  1
  Se  Se17  1  0.504729  0.256163  0.504643  1
