# generated using pymatgen
data_Na8HfAs4
_symmetry_space_group_name_H-M   'P 1'
_cell_length_a   9.93471939
_cell_length_b   9.93472685
_cell_length_c   9.93472543
_cell_angle_alpha   60.05025026
_cell_angle_beta   60.05019321
_cell_angle_gamma   60.05021680
_symmetry_Int_Tables_number   1
_chemical_formula_structural   Na8HfAs4
_chemical_formula_sum   'Na16 Hf2 As8'
_cell_volume   694.13902720
_cell_formula_units_Z   2
loop_
 _symmetry_equiv_pos_site_id
 _symmetry_equiv_pos_as_xyz
  1  'x, y, z'
loop_
 _atom_site_type_symbol
 _atom_site_label
 _atom_site_symmetry_multiplicity
 _atom_site_fract_x
 _atom_site_fract_y
 _atom_site_fract_z
 _atom_site_occupancy
  Na  Na0  1  0.625000  0.625000  0.125000  1
  Na  Na1  1  0.625000  0.125000  0.625000  1
  Na  Na2  1  0.125000  0.625000  0.625000  1
  Na  Na3  1  0.625000  0.625000  0.625000  1
  Na  Na4  1  0.029330  0.470675  0.470675  1
  Na  Na5  1  0.779294  0.220691  0.220691  1
  Na  Na6  1  0.470675  0.029330  0.470675  1
  Na  Na7  1  0.470676  0.470675  0.029330  1
  Na  Na8  1  0.029309  0.029309  0.470706  1
  Na  Na9  1  0.029309  0.470706  0.029309  1
  Na  Na10  1  0.470706  0.029309  0.029309  1
  Na  Na11  1  0.779325  0.220670  0.779325  1
  Na  Na12  1  0.220691  0.779294  0.220691  1
  Na  Na13  1  0.220691  0.220691  0.779294  1
  Na  Na14  1  0.779324  0.779325  0.220670  1
  Na  Na15  1  0.220670  0.779325  0.779325  1
  Hf  Hf16  1  0.750029  0.750029  0.750029  1
  Hf  Hf17  1  0.499971  0.499971  0.499971  1
  As  As18  1  0.857476  0.857476  0.427615  1
  As  As19  1  0.857476  0.427615  0.857476  1
  As  As20  1  0.392524  0.392524  0.822385  1
  As  As21  1  0.392524  0.822385  0.392524  1
  As  As22  1  0.822385  0.392524  0.392524  1
  As  As23  1  0.857423  0.857423  0.857423  1
  As  As24  1  0.427615  0.857476  0.857476  1
  As  As25  1  0.392577  0.392577  0.392577  1
