# generated using pymatgen
data_Tm4MoSe5O24
_symmetry_space_group_name_H-M   'P 1'
_cell_length_a   9.96767165
_cell_length_b   9.90643613
_cell_length_c   9.90643623
_cell_angle_alpha   58.26399111
_cell_angle_beta   57.94479647
_cell_angle_gamma   57.94480499
_symmetry_Int_Tables_number   1
_chemical_formula_structural   Tm4MoSe5O24
_chemical_formula_sum   'Tm4 Mo1 Se5 O24'
_cell_volume   660.76639682
_cell_formula_units_Z   1
loop_
 _symmetry_equiv_pos_site_id
 _symmetry_equiv_pos_as_xyz
  1  'x, y, z'
loop_
 _atom_site_type_symbol
 _atom_site_label
 _atom_site_symmetry_multiplicity
 _atom_site_fract_x
 _atom_site_fract_y
 _atom_site_fract_z
 _atom_site_occupancy
  Tm  Tm0  1  0.641156  0.639154  0.645922  1
  Tm  Tm1  1  0.347942  0.362910  0.355095  1
  Tm  Tm2  1  0.152058  0.144905  0.137090  1
  Tm  Tm3  1  0.858844  0.854078  0.860846  1
  Mo  Mo4  1  0.750000  0.039212  0.460788  1
  Se  Se5  1  0.960769  0.535089  0.252326  1
  Se  Se6  1  0.539231  0.247674  0.964912  1
  Se  Se7  1  0.466624  0.749111  0.035352  1
  Se  Se8  1  0.033376  0.464648  0.750889  1
  Se  Se9  1  0.250000  0.964057  0.535943  1
  O  O10  1  0.932691  0.067783  0.277357  1
  O  O11  1  0.776766  0.005725  0.642130  1
  O  O12  1  0.994020  0.367465  0.223558  1
  O  O13  1  0.710868  0.077724  0.941442  1
  O  O14  1  0.567309  0.222643  0.432217  1
  O  O15  1  0.866151  0.492790  0.726988  1
  O  O16  1  0.505980  0.276442  0.132535  1
  O  O17  1  0.789132  0.558558  0.422276  1
  O  O18  1  0.933221  0.708071  0.085540  1
  O  O19  1  0.566779  0.414460  0.791929  1
  O  O20  1  0.373724  0.223146  0.990638  1
  O  O21  1  0.274772  0.132291  0.506688  1
  O  O22  1  0.723234  0.857870  0.494275  1
  O  O23  1  0.633849  0.773012  0.007210  1
  O  O24  1  0.435635  0.581784  0.206903  1
  O  O25  1  0.064365  0.293097  0.918216  1
  O  O26  1  0.204141  0.438890  0.580464  1
  O  O27  1  0.495433  0.724281  0.867091  1
  O  O28  1  0.126276  0.509362  0.276854  1
  O  O29  1  0.418575  0.791926  0.563916  1
  O  O30  1  0.295859  0.919536  0.061110  1
  O  O31  1  0.004567  0.632909  0.775719  1
  O  O32  1  0.225228  0.993312  0.367709  1
  O  O33  1  0.081425  0.936084  0.708074  1
