# generated using pymatgen
data_TbHo2Cd3CuAu2
_symmetry_space_group_name_H-M   'P 1'
_cell_length_a   7.77971700
_cell_length_b   7.79013514
_cell_length_c   3.82410600
_cell_angle_alpha   90.00000000
_cell_angle_beta   90.00000000
_cell_angle_gamma   119.95576640
_symmetry_Int_Tables_number   1
_chemical_formula_structural   TbHo2Cd3CuAu2
_chemical_formula_sum   'Tb1 Ho2 Cd3 Cu1 Au2'
_cell_volume   200.79955634
_cell_formula_units_Z   1
loop_
 _symmetry_equiv_pos_site_id
 _symmetry_equiv_pos_as_xyz
  1  'x, y, z'
loop_
 _atom_site_type_symbol
 _atom_site_label
 _atom_site_symmetry_multiplicity
 _atom_site_fract_x
 _atom_site_fract_y
 _atom_site_fract_z
 _atom_site_occupancy
  Tb  Tb0  1  0.593591  0.000000  0.000000  1
  Ho  Ho1  1  0.000006  0.593396  0.000000  1
  Ho  Ho2  1  0.406610  0.406604  0.000000  1
  Cd  Cd3  1  0.248764  0.000000  0.500000  1
  Cd  Cd4  1  0.000506  0.249509  0.500000  1
  Cd  Cd5  1  0.750998  0.750491  0.500000  1
  Cu  Cu6  1  0.000101  0.000000  0.000000  1
  Au  Au7  1  0.332600  0.665777  0.500000  1
  Au  Au8  1  0.666824  0.334223  0.500000  1
