# generated using pymatgen
data_Dy2Ho3RuRh
_symmetry_space_group_name_H-M   'P 1'
_cell_length_a   6.36697502
_cell_length_b   7.23249975
_cell_length_c   8.54157828
_cell_angle_alpha   96.56890898
_cell_angle_beta   111.88252703
_cell_angle_gamma   89.99999925
_symmetry_Int_Tables_number   1
_chemical_formula_structural   Dy2Ho3RuRh
_chemical_formula_sum   'Dy4 Ho6 Ru2 Rh2'
_cell_volume   362.20855238
_cell_formula_units_Z   2
loop_
 _symmetry_equiv_pos_site_id
 _symmetry_equiv_pos_as_xyz
  1  'x, y, z'
loop_
 _atom_site_type_symbol
 _atom_site_label
 _atom_site_symmetry_multiplicity
 _atom_site_fract_x
 _atom_site_fract_y
 _atom_site_fract_z
 _atom_site_occupancy
  Dy  Dy0  1  0.980950  0.917913  0.188540  1
  Dy  Dy1  1  0.792410  0.582087  0.811460  1
  Dy  Dy2  1  0.023641  0.085208  0.813979  1
  Dy  Dy3  1  0.209663  0.414792  0.186021  1
  Ho  Ho4  1  0.642222  0.816058  0.434383  1
  Ho  Ho5  1  0.207838  0.683942  0.565617  1
  Ho  Ho6  1  0.355231  0.187089  0.562945  1
  Ho  Ho7  1  0.792287  0.312911  0.437055  1
  Ho  Ho8  1  0.421146  0.750000  0.000000  1
  Ho  Ho9  1  0.576727  0.250000  0.000000  1
  Ru  Ru10  1  0.177219  0.425701  0.779040  1
  Ru  Ru11  1  0.398178  0.074299  0.220960  1
  Rh  Rh12  1  0.822088  0.575838  0.221690  1
  Rh  Rh13  1  0.600399  0.924162  0.778310  1
