# generated using pymatgen
data_Lu8Ga12CoAg3
_symmetry_space_group_name_H-M   'P 1'
_cell_length_a   8.88744200
_cell_length_b   8.88744239
_cell_length_c   6.85224600
_cell_angle_alpha   90.00000000
_cell_angle_beta   90.00000000
_cell_angle_gamma   119.99999854
_symmetry_Int_Tables_number   1
_chemical_formula_structural   Lu8Ga12CoAg3
_chemical_formula_sum   'Lu8 Ga12 Co1 Ag3'
_cell_volume   468.72396884
_cell_formula_units_Z   1
loop_
 _symmetry_equiv_pos_site_id
 _symmetry_equiv_pos_as_xyz
  1  'x, y, z'
loop_
 _atom_site_type_symbol
 _atom_site_label
 _atom_site_symmetry_multiplicity
 _atom_site_fract_x
 _atom_site_fract_y
 _atom_site_fract_z
 _atom_site_occupancy
  Lu  Lu0  1  0.000000  0.000000  0.249547  1
  Lu  Lu1  1  0.000000  0.000000  0.741719  1
  Lu  Lu2  1  0.522797  0.045597  0.258685  1
  Lu  Lu3  1  0.522797  0.477203  0.258685  1
  Lu  Lu4  1  0.954403  0.477203  0.258685  1
  Lu  Lu5  1  0.489502  0.979004  0.748869  1
  Lu  Lu6  1  0.489502  0.510498  0.748869  1
  Lu  Lu7  1  0.020996  0.510498  0.748869  1
  Ga  Ga8  1  0.165866  0.331731  0.040757  1
  Ga  Ga9  1  0.164434  0.835566  0.465149  1
  Ga  Ga10  1  0.671131  0.835566  0.465149  1
  Ga  Ga11  1  0.668269  0.834134  0.040757  1
  Ga  Ga12  1  0.165866  0.834134  0.040757  1
  Ga  Ga13  1  0.836509  0.673018  0.963147  1
  Ga  Ga14  1  0.836509  0.163491  0.963147  1
  Ga  Ga15  1  0.326982  0.163491  0.963147  1
  Ga  Ga16  1  0.164434  0.328869  0.465149  1
  Ga  Ga17  1  0.347552  0.173777  0.538848  1
  Ga  Ga18  1  0.826223  0.652448  0.538848  1
  Ga  Ga19  1  0.826223  0.173777  0.538848  1
  Co  Co20  1  0.666667  0.333333  0.512433  1
  Ag  Ag21  1  0.333333  0.666667  0.035269  1
  Ag  Ag22  1  0.333333  0.666667  0.471124  1
  Ag  Ag23  1  0.666667  0.333333  0.943541  1
