# generated using pymatgen
data_TiS27
_symmetry_space_group_name_H-M   'P 1'
_cell_length_a   14.74249789
_cell_length_b   15.31356879
_cell_length_c   15.96061872
_cell_angle_alpha   123.88534248
_cell_angle_beta   119.66652459
_cell_angle_gamma   113.78823556
_symmetry_Int_Tables_number   1
_chemical_formula_structural   TiS27
_chemical_formula_sum   'Ti1 S27'
_cell_volume   874.26226629
_cell_formula_units_Z   1
loop_
 _symmetry_equiv_pos_site_id
 _symmetry_equiv_pos_as_xyz
  1  'x, y, z'
loop_
 _atom_site_type_symbol
 _atom_site_label
 _atom_site_symmetry_multiplicity
 _atom_site_fract_x
 _atom_site_fract_y
 _atom_site_fract_z
 _atom_site_occupancy
  Ti  Ti0  1  0.223536  0.276780  0.332034  1
  S  S1  1  0.043460  0.631508  0.618297  1
  S  S2  1  0.582924  0.575380  0.989167  1
  S  S3  1  0.631469  0.031813  0.614672  1
  S  S4  1  0.285149  0.870173  0.745387  1
  S  S5  1  0.861701  0.727032  0.251553  1
  S  S6  1  0.734628  0.259427  0.855841  1
  S  S7  1  0.886725  0.282011  0.756113  1
  S  S8  1  0.269472  0.742230  0.858604  1
  S  S9  1  0.711047  0.841945  0.236474  1
  S  S10  1  0.079790  0.578027  0.406533  1
  S  S11  1  0.631474  0.439434  0.091663  1
  S  S12  1  0.421027  0.080746  0.593247  1
  S  S13  1  0.612530  0.080251  0.427319  1
  S  S14  1  0.070222  0.405250  0.576412  1
  S  S15  1  0.431754  0.616276  0.088235  1
  S  S16  1  0.315814  0.662570  0.549879  1
  S  S17  1  0.785272  0.652072  0.386151  1
  S  S18  1  0.601085  0.354563  0.734580  1
  S  S19  1  0.712216  0.332170  0.590316  1
  S  S20  1  0.321078  0.551514  0.687901  1
  S  S21  1  0.654935  0.789850  0.393589  1
  S  S22  1  0.088983  0.338330  0.351416  1
  S  S23  1  0.488896  0.489927  0.200026  1
  S  S24  1  0.408046  0.135131  0.414135  1
  S  S25  1  0.265970  0.224877  0.201414  1
  S  S26  1  0.728733  0.756515  0.883964  1
  S  S27  1  0.199166  0.321297  0.212177  1
