# generated using pymatgen
data_Tb19Er(Bi2Ru)4
_symmetry_space_group_name_H-M   'P 1'
_cell_length_a   8.02545170
_cell_length_b   9.05044966
_cell_length_c   12.52479661
_cell_angle_alpha   89.97627219
_cell_angle_beta   90.00610307
_cell_angle_gamma   89.97430834
_symmetry_Int_Tables_number   1
_chemical_formula_structural   Tb19Er(Bi2Ru)4
_chemical_formula_sum   'Tb19 Er1 Bi8 Ru4'
_cell_volume   909.72523339
_cell_formula_units_Z   1
loop_
 _symmetry_equiv_pos_site_id
 _symmetry_equiv_pos_as_xyz
  1  'x, y, z'
loop_
 _atom_site_type_symbol
 _atom_site_label
 _atom_site_symmetry_multiplicity
 _atom_site_fract_x
 _atom_site_fract_y
 _atom_site_fract_z
 _atom_site_occupancy
  Tb  Tb0  1  0.844073  0.749899  0.793763  1
  Tb  Tb1  1  0.155666  0.249961  0.205642  1
  Tb  Tb2  1  0.344339  0.249479  0.705836  1
  Tb  Tb3  1  0.655576  0.750162  0.294454  1
  Tb  Tb4  1  0.377126  0.750677  0.692327  1
  Tb  Tb5  1  0.624276  0.249084  0.307874  1
  Tb  Tb6  1  0.876385  0.250154  0.807116  1
  Tb  Tb7  1  0.123632  0.749817  0.192714  1
  Tb  Tb8  1  0.946428  0.750855  0.504401  1
  Tb  Tb9  1  0.051685  0.249502  0.495831  1
  Tb  Tb10  1  0.447512  0.249912  0.995693  1
  Tb  Tb11  1  0.552822  0.749896  0.004109  1
  Tb  Tb12  1  0.324026  0.959732  0.436342  1
  Tb  Tb13  1  0.176449  0.959393  0.935820  1
  Tb  Tb14  1  0.323225  0.540020  0.436116  1
  Tb  Tb15  1  0.823497  0.040357  0.063874  1
  Tb  Tb16  1  0.676546  0.459648  0.564067  1
  Tb  Tb17  1  0.823362  0.459450  0.063789  1
  Tb  Tb18  1  0.176469  0.540588  0.935962  1
  Er  Er19  1  0.674081  0.041451  0.564084  1
  Bi  Bi20  1  0.570536  0.493100  0.827149  1
  Bi  Bi21  1  0.429640  0.506543  0.173001  1
  Bi  Bi22  1  0.071250  0.506982  0.672386  1
  Bi  Bi23  1  0.429217  0.993114  0.172726  1
  Bi  Bi24  1  0.929178  0.493123  0.327489  1
  Bi  Bi25  1  0.571115  0.006893  0.827125  1
  Bi  Bi26  1  0.929730  0.006716  0.327158  1
  Bi  Bi27  1  0.069555  0.993379  0.672414  1
  Ru  Ru28  1  0.573846  0.750863  0.511569  1
  Ru  Ru29  1  0.428814  0.249279  0.489311  1
  Ru  Ru30  1  0.073395  0.250047  0.988453  1
  Ru  Ru31  1  0.926551  0.749924  0.011405  1
