# generated using pymatgen
data_Dy2Tm2Lu(ReO6)2
_symmetry_space_group_name_H-M   'P 1'
_cell_length_a   6.77015495
_cell_length_b   6.77015601
_cell_length_c   7.46118481
_cell_angle_alpha   73.90818946
_cell_angle_beta   73.90818749
_cell_angle_gamma   49.31507634
_symmetry_Int_Tables_number   1
_chemical_formula_structural   Dy2Tm2Lu(ReO6)2
_chemical_formula_sum   'Dy2 Tm2 Lu1 Re2 O12'
_cell_volume   246.97278994
_cell_formula_units_Z   1
loop_
 _symmetry_equiv_pos_site_id
 _symmetry_equiv_pos_as_xyz
  1  'x, y, z'
loop_
 _atom_site_type_symbol
 _atom_site_label
 _atom_site_symmetry_multiplicity
 _atom_site_fract_x
 _atom_site_fract_y
 _atom_site_fract_z
 _atom_site_occupancy
  Dy  Dy0  1  0.802889  0.802889  0.358202  1
  Dy  Dy1  1  0.197111  0.197111  0.641798  1
  Tm  Tm2  1  0.184993  0.184993  0.177484  1
  Tm  Tm3  1  0.815007  0.815007  0.822516  1
  Lu  Lu4  1  0.500000  0.500000  0.500000  1
  Re  Re5  1  0.285871  0.714129  0.000000  1
  Re  Re6  1  0.714129  0.285871  0.000000  1
  O  O7  1  0.414707  0.919456  0.914323  1
  O  O8  1  0.080544  0.585293  0.085677  1
  O  O9  1  0.585293  0.080544  0.085677  1
  O  O10  1  0.919456  0.414707  0.914323  1
  O  O11  1  0.600465  0.097532  0.573635  1
  O  O12  1  0.902468  0.399535  0.426365  1
  O  O13  1  0.399535  0.902468  0.426365  1
  O  O14  1  0.999486  0.999486  0.821572  1
  O  O15  1  0.000514  0.000514  0.178428  1
  O  O16  1  0.497964  0.497964  0.790895  1
  O  O17  1  0.502036  0.502036  0.209105  1
  O  O18  1  0.097532  0.600465  0.573635  1
