# generated using pymatgen
data_Ti6BeSb2
_symmetry_space_group_name_H-M   'P 1'
_cell_length_a   7.12013800
_cell_length_b   7.12013853
_cell_length_c   3.57528700
_cell_angle_alpha   90.00000000
_cell_angle_beta   90.00000000
_cell_angle_gamma   119.99999753
_symmetry_Int_Tables_number   1
_chemical_formula_structural   Ti6BeSb2
_chemical_formula_sum   'Ti6 Be1 Sb2'
_cell_volume   156.97063199
_cell_formula_units_Z   1
loop_
 _symmetry_equiv_pos_site_id
 _symmetry_equiv_pos_as_xyz
  1  'x, y, z'
loop_
 _atom_site_type_symbol
 _atom_site_label
 _atom_site_symmetry_multiplicity
 _atom_site_fract_x
 _atom_site_fract_y
 _atom_site_fract_z
 _atom_site_occupancy
  Ti  Ti0  1  0.614765  0.000000  0.000000  1
  Ti  Ti1  1  0.385235  0.385235  0.000000  1
  Ti  Ti2  1  0.000000  0.614766  0.000000  1
  Ti  Ti3  1  0.228611  0.000000  0.499999  1
  Ti  Ti4  1  0.000000  0.228611  0.499999  1
  Ti  Ti5  1  0.771390  0.771389  0.499999  1
  Be  Be6  1  0.000000  0.000000  0.000000  1
  Sb  Sb7  1  0.666667  0.333334  0.499999  1
  Sb  Sb8  1  0.333334  0.666667  0.499999  1
