# generated using pymatgen
data_Tb3Th2Ga2Ru3
_symmetry_space_group_name_H-M   'P 1'
_cell_length_a   8.41100415
_cell_length_b   8.45567539
_cell_length_c   8.43882900
_cell_angle_alpha   109.12559205
_cell_angle_beta   109.35558569
_cell_angle_gamma   109.57437141
_symmetry_Int_Tables_number   1
_chemical_formula_structural   Tb3Th2Ga2Ru3
_chemical_formula_sum   'Tb6 Th4 Ga4 Ru6'
_cell_volume   464.04073392
_cell_formula_units_Z   2
loop_
 _symmetry_equiv_pos_site_id
 _symmetry_equiv_pos_as_xyz
  1  'x, y, z'
loop_
 _atom_site_type_symbol
 _atom_site_label
 _atom_site_symmetry_multiplicity
 _atom_site_fract_x
 _atom_site_fract_y
 _atom_site_fract_z
 _atom_site_occupancy
  Tb  Tb0  1  0.063361  0.753078  0.815219  1
  Tb  Tb1  1  0.813465  0.063547  0.750608  1
  Tb  Tb2  1  0.220171  0.221355  0.217887  1
  Tb  Tb3  1  0.499449  0.994384  0.276623  1
  Tb  Tb4  1  0.275868  0.501070  0.996258  1
  Tb  Tb5  1  0.998175  0.279695  0.506611  1
  Th  Th6  1  0.248300  0.688765  0.442003  1
  Th  Th7  1  0.753364  0.810115  0.059608  1
  Th  Th8  1  0.443164  0.249839  0.690412  1
  Th  Th9  1  0.691892  0.441083  0.249438  1
  Ga  Ga10  1  0.500442  0.000865  0.908321  1
  Ga  Ga11  1  0.601600  0.599954  0.595916  1
  Ga  Ga12  1  0.908184  0.496142  0.994621  1
  Ga  Ga13  1  0.998694  0.908534  0.507263  1
  Ru  Ru14  1  0.258751  0.136781  0.871093  1
  Ru  Ru15  1  0.733142  0.364267  0.619075  1
  Ru  Ru16  1  0.872240  0.255652  0.137478  1
  Ru  Ru17  1  0.121274  0.869481  0.251955  1
  Ru  Ru18  1  0.618620  0.735320  0.360242  1
  Ru  Ru19  1  0.379850  0.630072  0.749369  1
