# generated using pymatgen
data_Li4Ce(ThSi2)2
_symmetry_space_group_name_H-M   'P 1'
_cell_length_a   4.40500010
_cell_length_b   6.71535691
_cell_length_c   8.26695096
_cell_angle_alpha   113.96363023
_cell_angle_beta   105.45149695
_cell_angle_gamma   89.99999702
_symmetry_Int_Tables_number   1
_chemical_formula_structural   Li4Ce(ThSi2)2
_chemical_formula_sum   'Li4 Ce1 Th2 Si4'
_cell_volume   213.75826945
_cell_formula_units_Z   1
loop_
 _symmetry_equiv_pos_site_id
 _symmetry_equiv_pos_as_xyz
  1  'x, y, z'
loop_
 _atom_site_type_symbol
 _atom_site_label
 _atom_site_symmetry_multiplicity
 _atom_site_fract_x
 _atom_site_fract_y
 _atom_site_fract_z
 _atom_site_occupancy
  Li  Li0  1  0.670217  0.984253  0.340432  1
  Li  Li1  1  0.330431  0.020052  0.660862  1
  Li  Li2  1  0.330431  0.640811  0.660862  1
  Li  Li3  1  0.670217  0.356180  0.340432  1
  Ce  Ce4  1  0.869995  0.369995  0.739990  1
  Th  Th5  1  0.000009  0.000009  0.000017  1
  Th  Th6  1  0.130033  0.630033  0.260066  1
  Si  Si7  1  0.500160  0.681167  0.000319  1
  Si  Si8  1  0.500160  0.319152  0.000319  1
  Si  Si9  1  0.785685  0.785685  0.571369  1
  Si  Si10  1  0.212664  0.212664  0.425330  1
