# generated using pymatgen
data_Y2Ho10TcRu3
_symmetry_space_group_name_H-M   'P 1'
_cell_length_a   6.27154123
_cell_length_b   7.36333214
_cell_length_c   9.13504100
_cell_angle_alpha   90.00000000
_cell_angle_beta   90.00000000
_cell_angle_gamma   90.04691970
_symmetry_Int_Tables_number   1
_chemical_formula_structural   Y2Ho10TcRu3
_chemical_formula_sum   'Y2 Ho10 Tc1 Ru3'
_cell_volume   421.85094640
_cell_formula_units_Z   1
loop_
 _symmetry_equiv_pos_site_id
 _symmetry_equiv_pos_as_xyz
  1  'x, y, z'
loop_
 _atom_site_type_symbol
 _atom_site_label
 _atom_site_symmetry_multiplicity
 _atom_site_fract_x
 _atom_site_fract_y
 _atom_site_fract_z
 _atom_site_occupancy
  Y  Y0  1  0.869888  0.539034  0.250000  1
  Y  Y1  1  0.626165  0.040378  0.250000  1
  Ho  Ho2  1  0.333588  0.676097  0.063719  1
  Ho  Ho3  1  0.166746  0.175870  0.436672  1
  Ho  Ho4  1  0.667642  0.323732  0.564884  1
  Ho  Ho5  1  0.834783  0.824683  0.936515  1
  Ho  Ho6  1  0.667642  0.323732  0.935116  1
  Ho  Ho7  1  0.834783  0.824683  0.563485  1
  Ho  Ho8  1  0.333588  0.676097  0.436281  1
  Ho  Ho9  1  0.166746  0.175870  0.063328  1
  Ho  Ho10  1  0.134154  0.457790  0.750000  1
  Ho  Ho11  1  0.366462  0.958065  0.750000  1
  Tc  Tc12  1  0.041772  0.886493  0.250000  1
  Ru  Ru13  1  0.456970  0.385677  0.250000  1
  Ru  Ru14  1  0.961358  0.116701  0.750000  1
  Ru  Ru15  1  0.537713  0.615098  0.750000  1
