# generated using pymatgen
data_Li8HoTm7Sn7Bi
_symmetry_space_group_name_H-M   'P 1'
_cell_length_a   9.36966433
_cell_length_b   9.36966564
_cell_length_c   7.14370008
_cell_angle_alpha   90.08775603
_cell_angle_beta   89.91224290
_cell_angle_gamma   119.97530633
_symmetry_Int_Tables_number   1
_chemical_formula_structural   Li8HoTm7Sn7Bi
_chemical_formula_sum   'Li8 Ho1 Tm7 Sn7 Bi1'
_cell_volume   543.26196745
_cell_formula_units_Z   1
loop_
 _symmetry_equiv_pos_site_id
 _symmetry_equiv_pos_as_xyz
  1  'x, y, z'
loop_
 _atom_site_type_symbol
 _atom_site_label
 _atom_site_symmetry_multiplicity
 _atom_site_fract_x
 _atom_site_fract_y
 _atom_site_fract_z
 _atom_site_occupancy
  Li  Li0  1  0.829667  0.664645  0.711589  1
  Li  Li1  1  0.833226  0.166774  0.713052  1
  Li  Li2  1  0.335126  0.664874  0.822074  1
  Li  Li3  1  0.666505  0.333495  0.321225  1
  Li  Li4  1  0.665948  0.832771  0.212981  1
  Li  Li5  1  0.167229  0.334052  0.212981  1
  Li  Li6  1  0.166835  0.833165  0.214856  1
  Li  Li7  1  0.335355  0.170333  0.711589  1
  Ho  Ho8  1  0.997496  0.002504  0.003680  1
  Tm  Tm9  1  0.997973  0.002027  0.498118  1
  Tm  Tm10  1  0.511397  0.488603  0.006621  1
  Tm  Tm11  1  0.019581  0.506303  0.503391  1
  Tm  Tm12  1  0.493697  0.980419  0.503391  1
  Tm  Tm13  1  0.516054  0.024584  0.009441  1
  Tm  Tm14  1  0.975416  0.483946  0.009441  1
  Tm  Tm15  1  0.488625  0.511375  0.506058  1
  Sn  Sn16  1  0.666960  0.333040  0.740734  1
  Sn  Sn17  1  0.332800  0.667200  0.240932  1
  Sn  Sn18  1  0.833152  0.166848  0.269693  1
  Sn  Sn19  1  0.166391  0.333649  0.769409  1
  Sn  Sn20  1  0.333356  0.166008  0.269766  1
  Sn  Sn21  1  0.833992  0.666644  0.269766  1
  Sn  Sn22  1  0.666351  0.833609  0.769409  1
  Bi  Bi23  1  0.166870  0.833130  0.767805  1
