# generated using pymatgen
data_Sm3BC2N
_symmetry_space_group_name_H-M   'P 1'
_cell_length_a   3.71562866
_cell_length_b   3.71562854
_cell_length_c   16.02727100
_cell_angle_alpha   90.00000000
_cell_angle_beta   90.00000000
_cell_angle_gamma   90.15337199
_symmetry_Int_Tables_number   1
_chemical_formula_structural   Sm3BC2N
_chemical_formula_sum   'Sm6 B2 C4 N2'
_cell_volume   221.27004207
_cell_formula_units_Z   2
loop_
 _symmetry_equiv_pos_site_id
 _symmetry_equiv_pos_as_xyz
  1  'x, y, z'
loop_
 _atom_site_type_symbol
 _atom_site_label
 _atom_site_symmetry_multiplicity
 _atom_site_fract_x
 _atom_site_fract_y
 _atom_site_fract_z
 _atom_site_occupancy
  Sm  Sm0  1  0.559728  0.440273  0.102849  1
  Sm  Sm1  1  0.063109  0.936892  0.250000  1
  Sm  Sm2  1  0.559728  0.440273  0.397151  1
  Sm  Sm3  1  0.440273  0.559728  0.602849  1
  Sm  Sm4  1  0.936892  0.063109  0.750000  1
  Sm  Sm5  1  0.440273  0.559728  0.897151  1
  B  B6  1  0.000000  0.000000  0.000000  1
  B  B7  1  0.000000  0.000000  0.500000  1
  C  C8  1  0.053830  0.946172  0.090626  1
  C  C9  1  0.053830  0.946172  0.409374  1
  C  C10  1  0.946172  0.053830  0.590626  1
  C  C11  1  0.946172  0.053830  0.909374  1
  N  N12  1  0.566874  0.433128  0.250000  1
  N  N13  1  0.433128  0.566874  0.750000  1
