# generated using pymatgen
data_Ag3Bi(Pt2O7)2
_symmetry_space_group_name_H-M   'P 1'
_cell_length_a   7.18881216
_cell_length_b   7.30366083
_cell_length_c   7.18881100
_cell_angle_alpha   60.51882408
_cell_angle_beta   60.00000074
_cell_angle_gamma   60.51881864
_symmetry_Int_Tables_number   1
_chemical_formula_structural   Ag3Bi(Pt2O7)2
_chemical_formula_sum   'Ag3 Bi1 Pt4 O14'
_cell_volume   268.96847911
_cell_formula_units_Z   1
loop_
 _symmetry_equiv_pos_site_id
 _symmetry_equiv_pos_as_xyz
  1  'x, y, z'
loop_
 _atom_site_type_symbol
 _atom_site_label
 _atom_site_symmetry_multiplicity
 _atom_site_fract_x
 _atom_site_fract_y
 _atom_site_fract_z
 _atom_site_occupancy
  Ag  Ag0  1  0.125000  0.125000  0.625000  1
  Ag  Ag1  1  0.625000  0.125000  0.125000  1
  Ag  Ag2  1  0.125000  0.125000  0.125000  1
  Bi  Bi3  1  0.125000  0.625000  0.125000  1
  Pt  Pt4  1  0.625000  0.625000  0.125000  1
  Pt  Pt5  1  0.625000  0.125000  0.625000  1
  Pt  Pt6  1  0.125000  0.625000  0.625000  1
  Pt  Pt7  1  0.625000  0.625000  0.625000  1
  O  O8  1  0.253399  0.239804  0.253399  1
  O  O9  1  0.996601  0.010196  0.996601  1
  O  O10  1  0.542955  0.955503  0.542955  1
  O  O11  1  0.290674  0.703028  0.290674  1
  O  O12  1  0.534377  0.546972  0.959326  1
  O  O13  1  0.959326  0.546972  0.534377  1
  O  O14  1  0.542955  0.955503  0.958586  1
  O  O15  1  0.958586  0.955503  0.542955  1
  O  O16  1  0.959326  0.546972  0.959326  1
  O  O17  1  0.707045  0.294497  0.291414  1
  O  O18  1  0.290674  0.703028  0.715623  1
  O  O19  1  0.707045  0.294497  0.707045  1
  O  O20  1  0.291414  0.294497  0.707045  1
  O  O21  1  0.715623  0.703028  0.290674  1
