# generated using pymatgen
data_La3Ce(ThSe5)2
_symmetry_space_group_name_H-M   'P 1'
_cell_length_a   7.98975219
_cell_length_b   8.70659430
_cell_length_c   12.63347400
_cell_angle_alpha   90.00000000
_cell_angle_beta   90.00000000
_cell_angle_gamma   89.93742506
_symmetry_Int_Tables_number   1
_chemical_formula_structural   La3Ce(ThSe5)2
_chemical_formula_sum   'La6 Ce2 Th4 Se20'
_cell_volume   878.82853450
_cell_formula_units_Z   2
loop_
 _symmetry_equiv_pos_site_id
 _symmetry_equiv_pos_as_xyz
  1  'x, y, z'
loop_
 _atom_site_type_symbol
 _atom_site_label
 _atom_site_symmetry_multiplicity
 _atom_site_fract_x
 _atom_site_fract_y
 _atom_site_fract_z
 _atom_site_occupancy
  La  La0  1  0.474192  0.000150  0.677704  1
  La  La1  1  0.025808  0.499850  0.177704  1
  La  La2  1  0.474456  0.499891  0.677324  1
  La  La3  1  0.025544  0.000109  0.177324  1
  La  La4  1  0.526056  0.999771  0.322329  1
  La  La5  1  0.973944  0.500229  0.822329  1
  Ce  Ce6  1  0.524070  0.499430  0.321911  1
  Ce  Ce7  1  0.975930  0.000570  0.821911  1
  Th  Th8  1  0.075172  0.749888  0.490604  1
  Th  Th9  1  0.424828  0.750112  0.990604  1
  Th  Th10  1  0.924723  0.250132  0.509245  1
  Th  Th11  1  0.575277  0.249868  0.009245  1
  Se  Se12  1  0.833657  0.957411  0.597200  1
  Se  Se13  1  0.666343  0.542589  0.097200  1
  Se  Se14  1  0.168375  0.456479  0.404067  1
  Se  Se15  1  0.331625  0.043521  0.904067  1
  Se  Se16  1  0.166979  0.042937  0.403987  1
  Se  Se17  1  0.333021  0.457063  0.903987  1
  Se  Se18  1  0.833320  0.543402  0.596082  1
  Se  Se19  1  0.666680  0.956598  0.096082  1
  Se  Se20  1  0.831999  0.749502  0.312380  1
  Se  Se21  1  0.668001  0.750498  0.812380  1
  Se  Se22  1  0.167045  0.248961  0.688126  1
  Se  Se23  1  0.332955  0.251039  0.188126  1
  Se  Se24  1  0.458204  0.748547  0.498211  1
  Se  Se25  1  0.041796  0.751453  0.998211  1
  Se  Se26  1  0.542131  0.251403  0.500702  1
  Se  Se27  1  0.957869  0.248597  0.000702  1
  Se  Se28  1  0.193796  0.751113  0.716598  1
  Se  Se29  1  0.306204  0.748887  0.216598  1
  Se  Se30  1  0.804944  0.251286  0.283527  1
  Se  Se31  1  0.695056  0.248714  0.783527  1
