# generated using pymatgen
data_HoEr2Mg3Sn2Au
_symmetry_space_group_name_H-M   'P 1'
_cell_length_a   7.50643400
_cell_length_b   7.51007547
_cell_length_c   4.42101000
_cell_angle_alpha   90.00000000
_cell_angle_beta   90.00000000
_cell_angle_gamma   119.98396168
_symmetry_Int_Tables_number   1
_chemical_formula_structural   HoEr2Mg3Sn2Au
_chemical_formula_sum   'Ho1 Er2 Mg3 Sn2 Au1'
_cell_volume   215.87396352
_cell_formula_units_Z   1
loop_
 _symmetry_equiv_pos_site_id
 _symmetry_equiv_pos_as_xyz
  1  'x, y, z'
loop_
 _atom_site_type_symbol
 _atom_site_label
 _atom_site_symmetry_multiplicity
 _atom_site_fract_x
 _atom_site_fract_y
 _atom_site_fract_z
 _atom_site_occupancy
  Ho  Ho0  1  0.595675  0.000000  0.000000  1
  Er  Er1  1  0.999898  0.595890  0.000000  1
  Er  Er2  1  0.404008  0.404110  0.000000  1
  Mg  Mg3  1  0.237960  0.000000  0.500000  1
  Mg  Mg4  1  0.000110  0.238076  0.500000  1
  Mg  Mg5  1  0.762034  0.761924  0.500000  1
  Sn  Sn6  1  0.333111  0.666236  0.500000  1
  Sn  Sn7  1  0.666876  0.333764  0.500000  1
  Au  Au8  1  0.000328  0.000000  0.000000  1
