# generated using pymatgen
data_Dy4TiSi4Ir
_symmetry_space_group_name_H-M   'P 1'
_cell_length_a   5.85870106
_cell_length_b   5.85870091
_cell_length_c   10.09985886
_cell_angle_alpha   63.43380666
_cell_angle_beta   63.43380951
_cell_angle_gamma   41.67318511
_symmetry_Int_Tables_number   1
_chemical_formula_structural   Dy4TiSi4Ir
_chemical_formula_sum   'Dy4 Ti1 Si4 Ir1'
_cell_volume   202.39143910
_cell_formula_units_Z   1
loop_
 _symmetry_equiv_pos_site_id
 _symmetry_equiv_pos_as_xyz
  1  'x, y, z'
loop_
 _atom_site_type_symbol
 _atom_site_label
 _atom_site_symmetry_multiplicity
 _atom_site_fract_x
 _atom_site_fract_y
 _atom_site_fract_z
 _atom_site_occupancy
  Dy  Dy0  1  0.809169  0.809169  0.112076  1
  Dy  Dy1  1  0.011594  0.011594  0.315796  1
  Dy  Dy2  1  0.183295  0.183295  0.896734  1
  Dy  Dy3  1  0.992027  0.992027  0.678464  1
  Ti  Ti4  1  0.727193  0.727193  0.628174  1
  Si  Si5  1  0.489104  0.489104  0.886500  1
  Si  Si6  1  0.375507  0.375507  0.550620  1
  Si  Si7  1  0.496778  0.496778  0.125704  1
  Si  Si8  1  0.641731  0.641731  0.433137  1
  Ir  Ir9  1  0.273601  0.273601  0.372794  1
