# generated using pymatgen
data_K2YHo5F20
_symmetry_space_group_name_H-M   'P 1'
_cell_length_a   8.22494498
_cell_length_b   8.22537097
_cell_length_c   8.22537101
_cell_angle_alpha   59.99656828
_cell_angle_beta   60.00170949
_cell_angle_gamma   60.00171080
_symmetry_Int_Tables_number   1
_chemical_formula_structural   K2YHo5F20
_chemical_formula_sum   'K2 Y1 Ho5 F20'
_cell_volume   393.48570014
_cell_formula_units_Z   1
loop_
 _symmetry_equiv_pos_site_id
 _symmetry_equiv_pos_as_xyz
  1  'x, y, z'
loop_
 _atom_site_type_symbol
 _atom_site_label
 _atom_site_symmetry_multiplicity
 _atom_site_fract_x
 _atom_site_fract_y
 _atom_site_fract_z
 _atom_site_occupancy
  K  K0  1  0.249999  0.250001  0.250001  1
  K  K1  1  0.749999  0.750001  0.750001  1
  Y  Y2  1  0.759773  0.240227  0.240227  1
  Ho  Ho3  1  0.240481  0.759519  0.759519  1
  Ho  Ho4  1  0.240506  0.759494  0.240494  1
  Ho  Ho5  1  0.759506  0.240494  0.759494  1
  Ho  Ho6  1  0.240506  0.240494  0.759494  1
  Ho  Ho7  1  0.759506  0.759494  0.240494  1
  F  F8  1  0.830061  0.500007  0.500007  1
  F  F9  1  0.169925  0.500007  0.500007  1
  F  F10  1  0.499993  0.830075  0.169939  1
  F  F11  1  0.499993  0.169939  0.830075  1
  F  F12  1  0.500002  0.830077  0.499998  1
  F  F13  1  0.169923  0.499998  0.830077  1
  F  F14  1  0.498633  0.169495  0.501367  1
  F  F15  1  0.830505  0.501367  0.169495  1
  F  F16  1  0.500002  0.499998  0.830077  1
  F  F17  1  0.498633  0.501367  0.169495  1
  F  F18  1  0.169923  0.830077  0.499998  1
  F  F19  1  0.830505  0.169495  0.501367  1
  F  F20  1  0.112617  0.111159  0.111159  1
  F  F21  1  0.888481  0.888436  0.888436  1
  F  F22  1  0.111564  0.111519  0.665353  1
  F  F23  1  0.111564  0.665353  0.111519  1
  F  F24  1  0.888841  0.887383  0.334933  1
  F  F25  1  0.888841  0.334933  0.887383  1
  F  F26  1  0.665067  0.111159  0.111159  1
  F  F27  1  0.334647  0.888436  0.888436  1
