# generated using pymatgen
data_Mg6Zn7Ga5Pt6
_symmetry_space_group_name_H-M   'P 1'
_cell_length_a   7.53514795
_cell_length_b   7.53862060
_cell_length_c   8.26638819
_cell_angle_alpha   89.92656115
_cell_angle_beta   90.07234678
_cell_angle_gamma   119.94671799
_symmetry_Int_Tables_number   1
_chemical_formula_structural   Mg6Zn7Ga5Pt6
_chemical_formula_sum   'Mg6 Zn7 Ga5 Pt6'
_cell_volume   406.87645059
_cell_formula_units_Z   1
loop_
 _symmetry_equiv_pos_site_id
 _symmetry_equiv_pos_as_xyz
  1  'x, y, z'
loop_
 _atom_site_type_symbol
 _atom_site_label
 _atom_site_symmetry_multiplicity
 _atom_site_fract_x
 _atom_site_fract_y
 _atom_site_fract_z
 _atom_site_occupancy
  Mg  Mg0  1  0.361817  0.350923  0.431100  1
  Mg  Mg1  1  0.002084  0.352423  0.931305  1
  Mg  Mg2  1  0.350131  0.997966  0.931405  1
  Mg  Mg3  1  0.649081  0.010738  0.431112  1
  Mg  Mg4  1  0.989223  0.638304  0.431085  1
  Mg  Mg5  1  0.647657  0.649676  0.931333  1
  Zn  Zn6  1  0.666704  0.333362  0.205432  1
  Zn  Zn7  1  0.320869  0.314996  0.089066  1
  Zn  Zn8  1  0.004851  0.313736  0.587940  1
  Zn  Zn9  1  0.308879  0.995247  0.587980  1
  Zn  Zn10  1  0.684903  0.005827  0.088993  1
  Zn  Zn11  1  0.994161  0.679249  0.089020  1
  Zn  Zn12  1  0.686491  0.691242  0.587959  1
  Ga  Ga13  1  0.000173  0.000223  0.278797  1
  Ga  Ga14  1  0.999737  0.999975  0.778060  1
  Ga  Ga15  1  0.333438  0.666734  0.222011  1
  Ga  Ga16  1  0.666603  0.333311  0.724380  1
  Ga  Ga17  1  0.333153  0.666539  0.722145  1
  Pt  Pt18  1  0.329580  0.329863  0.763595  1
  Pt  Pt19  1  0.004389  0.329921  0.263947  1
  Pt  Pt20  1  0.325731  0.995615  0.263930  1
  Pt  Pt21  1  0.670208  0.999665  0.763586  1
  Pt  Pt22  1  0.000313  0.670316  0.763543  1
  Pt  Pt23  1  0.669823  0.674152  0.263874  1
