# generated using pymatgen
data_ErPa2P4Pd7
_symmetry_space_group_name_H-M   'P 1'
_cell_length_a   7.89434512
_cell_length_b   7.89434571
_cell_length_c   9.45231831
_cell_angle_alpha   55.96328436
_cell_angle_beta   55.96328344
_cell_angle_gamma   29.53821594
_symmetry_Int_Tables_number   1
_chemical_formula_structural   ErPa2P4Pd7
_chemical_formula_sum   'Er1 Pa2 P4 Pd7'
_cell_volume   236.81562734
_cell_formula_units_Z   1
loop_
 _symmetry_equiv_pos_site_id
 _symmetry_equiv_pos_as_xyz
  1  'x, y, z'
loop_
 _atom_site_type_symbol
 _atom_site_label
 _atom_site_symmetry_multiplicity
 _atom_site_fract_x
 _atom_site_fract_y
 _atom_site_fract_z
 _atom_site_occupancy
  Er  Er0  1  0.183979  0.183979  0.817045  1
  Pa  Pa1  1  0.498188  0.498188  0.503131  1
  Pa  Pa2  1  0.818032  0.818032  0.178632  1
  P  P3  1  0.394307  0.394307  0.323045  1
  P  P4  1  0.605754  0.605754  0.675893  1
  P  P5  1  0.845271  0.845271  0.743491  1
  P  P6  1  0.153586  0.153586  0.259200  1
  Pd  Pd7  1  0.669982  0.669982  0.068805  1
  Pd  Pd8  1  0.010382  0.010382  0.205519  1
  Pd  Pd9  1  0.988746  0.988746  0.797053  1
  Pd  Pd10  1  0.500766  0.500766  0.996561  1
  Pd  Pd11  1  0.190348  0.190348  0.478484  1
  Pd  Pd12  1  0.808224  0.808224  0.522764  1
  Pd  Pd13  1  0.332436  0.332436  0.930379  1
