# generated using pymatgen
data_ErCr3P3Rh2
_symmetry_space_group_name_H-M   'P 1'
_cell_length_a   3.79678600
_cell_length_b   6.67904062
_cell_length_c   9.68058200
_cell_angle_alpha   79.97991434
_cell_angle_beta   90.00000000
_cell_angle_gamma   90.00000000
_symmetry_Int_Tables_number   1
_chemical_formula_structural   ErCr3P3Rh2
_chemical_formula_sum   'Er2 Cr6 P6 Rh4'
_cell_volume   241.74430876
_cell_formula_units_Z   2
loop_
 _symmetry_equiv_pos_site_id
 _symmetry_equiv_pos_as_xyz
  1  'x, y, z'
loop_
 _atom_site_type_symbol
 _atom_site_label
 _atom_site_symmetry_multiplicity
 _atom_site_fract_x
 _atom_site_fract_y
 _atom_site_fract_z
 _atom_site_occupancy
  Er  Er0  1  0.250000  0.804189  0.782204  1
  Er  Er1  1  0.750000  0.195811  0.217796  1
  Cr  Cr2  1  0.250000  0.606417  0.511305  1
  Cr  Cr3  1  0.750000  0.393583  0.488695  1
  Cr  Cr4  1  0.250000  0.151808  0.495723  1
  Cr  Cr5  1  0.750000  0.848192  0.504277  1
  Cr  Cr6  1  0.250000  0.319248  0.723761  1
  Cr  Cr7  1  0.750000  0.680752  0.276239  1
  P  P8  1  0.250000  0.253728  0.972476  1
  P  P9  1  0.750000  0.746272  0.027524  1
  P  P10  1  0.250000  0.437296  0.328855  1
  P  P11  1  0.750000  0.562704  0.671145  1
  P  P12  1  0.250000  0.906001  0.349010  1
  P  P13  1  0.750000  0.093999  0.650990  1
  Rh  Rh14  1  0.250000  0.528053  0.095925  1
  Rh  Rh15  1  0.750000  0.471947  0.904075  1
  Rh  Rh16  1  0.250000  0.928103  0.104433  1
  Rh  Rh17  1  0.750000  0.071897  0.895567  1
