# generated using pymatgen
data_Ba3PrTc2O9
_symmetry_space_group_name_H-M   'P 1'
_cell_length_a   6.05085000
_cell_length_b   6.05125113
_cell_length_c   15.01953500
_cell_angle_alpha   90.00000000
_cell_angle_beta   90.00000000
_cell_angle_gamma   119.99780718
_symmetry_Int_Tables_number   1
_chemical_formula_structural   Ba3PrTc2O9
_chemical_formula_sum   'Ba6 Pr2 Tc4 O18'
_cell_volume   476.27554084
_cell_formula_units_Z   2
loop_
 _symmetry_equiv_pos_site_id
 _symmetry_equiv_pos_as_xyz
  1  'x, y, z'
loop_
 _atom_site_type_symbol
 _atom_site_label
 _atom_site_symmetry_multiplicity
 _atom_site_fract_x
 _atom_site_fract_y
 _atom_site_fract_z
 _atom_site_occupancy
  Ba  Ba0  1  0.666654  0.333306  0.108980  1
  Ba  Ba1  1  0.000013  0.000025  0.250000  1
  Ba  Ba2  1  0.666654  0.333306  0.391020  1
  Ba  Ba3  1  0.333346  0.666694  0.608980  1
  Ba  Ba4  1  0.999987  0.999975  0.750000  1
  Ba  Ba5  1  0.333346  0.666694  0.891020  1
  Pr  Pr6  1  0.000000  0.000000  0.000000  1
  Pr  Pr7  1  0.000000  0.000000  0.500000  1
  Tc  Tc8  1  0.333307  0.666615  0.166400  1
  Tc  Tc9  1  0.333307  0.666615  0.333600  1
  Tc  Tc10  1  0.666693  0.333385  0.666400  1
  Tc  Tc11  1  0.666693  0.333385  0.833600  1
  O  O12  1  0.177426  0.354853  0.095054  1
  O  O13  1  0.177435  0.822554  0.095112  1
  O  O14  1  0.645120  0.822554  0.095112  1
  O  O15  1  0.016472  0.508298  0.250000  1
  O  O16  1  0.491827  0.508298  0.250000  1
  O  O17  1  0.491744  0.983488  0.250000  1
  O  O18  1  0.177426  0.354853  0.404946  1
  O  O19  1  0.177435  0.822554  0.404888  1
  O  O20  1  0.645120  0.822554  0.404888  1
  O  O21  1  0.354881  0.177447  0.595112  1
  O  O22  1  0.822566  0.177447  0.595112  1
  O  O23  1  0.822574  0.645146  0.595054  1
  O  O24  1  0.508256  0.016512  0.750000  1
  O  O25  1  0.508173  0.491701  0.750000  1
  O  O26  1  0.983528  0.491701  0.750000  1
  O  O27  1  0.354881  0.177447  0.904888  1
  O  O28  1  0.822566  0.177447  0.904888  1
  O  O29  1  0.822574  0.645146  0.904946  1
