# generated using pymatgen
data_Al5Ga(B4Ir9)2
_symmetry_space_group_name_H-M   'P 1'
_cell_length_a   9.02496888
_cell_length_b   9.00841803
_cell_length_c   5.73275000
_cell_angle_alpha   90.00000000
_cell_angle_beta   90.00000000
_cell_angle_gamma   119.92976738
_symmetry_Int_Tables_number   1
_chemical_formula_structural   Al5Ga(B4Ir9)2
_chemical_formula_sum   'Al5 Ga1 B8 Ir18'
_cell_volume   403.91948040
_cell_formula_units_Z   1
loop_
 _symmetry_equiv_pos_site_id
 _symmetry_equiv_pos_as_xyz
  1  'x, y, z'
loop_
 _atom_site_type_symbol
 _atom_site_label
 _atom_site_symmetry_multiplicity
 _atom_site_fract_x
 _atom_site_fract_y
 _atom_site_fract_z
 _atom_site_occupancy
  Al  Al0  1  0.460346  0.004576  0.750000  1
  Al  Al1  1  0.455147  0.994229  0.250000  1
  Al  Al2  1  0.539434  0.544011  0.250000  1
  Al  Al3  1  0.544807  0.539214  0.750000  1
  Al  Al4  1  0.005967  0.462115  0.250000  1
  Ga  Ga5  1  0.990819  0.453789  0.750000  1
  B  B6  1  0.807225  0.000026  0.500383  1
  B  B7  1  0.807225  0.000026  0.999617  1
  B  B8  1  0.000486  0.807277  0.499418  1
  B  B9  1  0.193203  0.193589  0.500511  1
  B  B10  1  0.193203  0.193589  0.999489  1
  B  B11  1  0.000486  0.807277  0.000582  1
  B  B12  1  0.665651  0.332381  0.250000  1
  B  B13  1  0.335774  0.667764  0.750000  1
  Ir  Ir14  1  0.808301  0.536175  0.502871  1
  Ir  Ir15  1  0.536630  0.809979  0.495032  1
  Ir  Ir16  1  0.995112  0.178992  0.750000  1
  Ir  Ir17  1  0.275796  0.464736  0.494850  1
  Ir  Ir18  1  0.005007  0.184371  0.250000  1
  Ir  Ir19  1  0.724008  0.188207  0.503893  1
  Ir  Ir20  1  0.816583  0.821407  0.250000  1
  Ir  Ir21  1  0.191349  0.726769  0.495091  1
  Ir  Ir22  1  0.463539  0.273491  0.505058  1
  Ir  Ir23  1  0.808301  0.536175  0.997129  1
  Ir  Ir24  1  0.463539  0.273491  0.994942  1
  Ir  Ir25  1  0.183467  0.004640  0.750000  1
  Ir  Ir26  1  0.178973  0.995437  0.250000  1
  Ir  Ir27  1  0.191349  0.726769  0.004909  1
  Ir  Ir28  1  0.821834  0.816576  0.750000  1
  Ir  Ir29  1  0.724008  0.188207  0.996107  1
  Ir  Ir30  1  0.275796  0.464736  0.005150  1
  Ir  Ir31  1  0.536630  0.809979  0.004968  1
