# generated using pymatgen
data_Er8Re9Si16W3
_symmetry_space_group_name_H-M   'P 1'
_cell_length_a   6.74620953
_cell_length_b   6.74623307
_cell_length_c   12.83596795
_cell_angle_alpha   90.06909592
_cell_angle_beta   89.92692726
_cell_angle_gamma   89.95633439
_symmetry_Int_Tables_number   1
_chemical_formula_structural   Er8Re9Si16W3
_chemical_formula_sum   'Er8 Re9 Si16 W3'
_cell_volume   584.18310924
_cell_formula_units_Z   1
loop_
 _symmetry_equiv_pos_site_id
 _symmetry_equiv_pos_as_xyz
  1  'x, y, z'
loop_
 _atom_site_type_symbol
 _atom_site_label
 _atom_site_symmetry_multiplicity
 _atom_site_fract_x
 _atom_site_fract_y
 _atom_site_fract_z
 _atom_site_occupancy
  Er  Er0  1  0.336041  0.992146  0.469961  1
  Er  Er1  1  0.511592  0.833807  0.718986  1
  Er  Er2  1  0.488232  0.165869  0.218171  1
  Er  Er3  1  0.833823  0.511561  0.281022  1
  Er  Er4  1  0.165875  0.488215  0.781813  1
  Er  Er5  1  0.662066  0.010165  0.970184  1
  Er  Er6  1  0.992129  0.336062  0.530059  1
  Er  Er7  1  0.010153  0.662043  0.029773  1
  Re  Re8  1  0.337570  0.337576  0.999958  1
  Re  Re9  1  0.189994  0.980327  0.866559  1
  Re  Re10  1  0.506665  0.692325  0.118584  1
  Re  Re11  1  0.492621  0.313016  0.619757  1
  Re  Re12  1  0.692309  0.506646  0.881379  1
  Re  Re13  1  0.313002  0.492596  0.380285  1
  Re  Re14  1  0.811018  0.013300  0.367231  1
  Re  Re15  1  0.980309  0.190065  0.133430  1
  Re  Re16  1  0.013254  0.811021  0.632791  1
  Si  Si17  1  0.200972  0.114932  0.681303  1
  Si  Si18  1  0.390454  0.694500  0.931662  1
  Si  Si19  1  0.614269  0.302213  0.431353  1
  Si  Si20  1  0.694508  0.390454  0.068341  1
  Si  Si21  1  0.302202  0.614275  0.568657  1
  Si  Si22  1  0.799117  0.885211  0.180330  1
  Si  Si23  1  0.114939  0.200958  0.318700  1
  Si  Si24  1  0.885204  0.799100  0.819674  1
  Si  Si25  1  0.268687  0.986039  0.058519  1
  Si  Si26  1  0.519568  0.781946  0.310731  1
  Si  Si27  1  0.480055  0.219551  0.811684  1
  Si  Si28  1  0.781924  0.519541  0.689269  1
  Si  Si29  1  0.219559  0.480046  0.188321  1
  Si  Si30  1  0.725701  0.019264  0.560276  1
  Si  Si31  1  0.986028  0.268682  0.941483  1
  Si  Si32  1  0.019263  0.725705  0.439737  1
  W  W33  1  0.160438  0.838688  0.249663  1
  W  W34  1  0.838683  0.160377  0.750363  1
  W  W35  1  0.661779  0.661779  0.499991  1
