# generated using pymatgen
data_Pr3Th5Ni8
_symmetry_space_group_name_H-M   'P 1'
_cell_length_a   4.27785600
_cell_length_b   5.71930022
_cell_length_c   14.36667513
_cell_angle_alpha   89.35994421
_cell_angle_beta   90.00000000
_cell_angle_gamma   90.00000000
_symmetry_Int_Tables_number   1
_chemical_formula_structural   Pr3Th5Ni8
_chemical_formula_sum   'Pr3 Th5 Ni8'
_cell_volume   351.47806590
_cell_formula_units_Z   1
loop_
 _symmetry_equiv_pos_site_id
 _symmetry_equiv_pos_as_xyz
  1  'x, y, z'
loop_
 _atom_site_type_symbol
 _atom_site_label
 _atom_site_symmetry_multiplicity
 _atom_site_fract_x
 _atom_site_fract_y
 _atom_site_fract_z
 _atom_site_occupancy
  Pr  Pr0  1  0.250000  0.537145  0.282745  1
  Pr  Pr1  1  0.750000  0.463408  0.718420  1
  Pr  Pr2  1  0.250000  0.963921  0.782052  1
  Th  Th3  1  0.250000  0.752125  0.534767  1
  Th  Th4  1  0.250000  0.747487  0.036757  1
  Th  Th5  1  0.750000  0.252563  0.965846  1
  Th  Th6  1  0.750000  0.037133  0.218504  1
  Th  Th7  1  0.750000  0.249051  0.463777  1
  Ni  Ni8  1  0.250000  0.039802  0.357502  1
  Ni  Ni9  1  0.750000  0.532969  0.137882  1
  Ni  Ni10  1  0.750000  0.764698  0.404005  1
  Ni  Ni11  1  0.250000  0.465813  0.866078  1
  Ni  Ni12  1  0.750000  0.964662  0.633884  1
  Ni  Ni13  1  0.750000  0.742761  0.906794  1
  Ni  Ni14  1  0.250000  0.242210  0.098888  1
  Ni  Ni15  1  0.250000  0.244251  0.592097  1
