# generated using pymatgen
data_PmPrCuSi3
_symmetry_space_group_name_H-M   'P 1'
_cell_length_a   5.88550939
_cell_length_b   5.88767434
_cell_length_c   5.88767393
_cell_angle_alpha   139.65270036
_cell_angle_beta   106.46971843
_cell_angle_gamma   87.38896441
_symmetry_Int_Tables_number   1
_chemical_formula_structural   PmPrCuSi3
_chemical_formula_sum   'Pm1 Pr1 Cu1 Si3'
_cell_volume   121.79562288
_cell_formula_units_Z   1
loop_
 _symmetry_equiv_pos_site_id
 _symmetry_equiv_pos_as_xyz
  1  'x, y, z'
loop_
 _atom_site_type_symbol
 _atom_site_label
 _atom_site_symmetry_multiplicity
 _atom_site_fract_x
 _atom_site_fract_y
 _atom_site_fract_z
 _atom_site_occupancy
  Pm  Pm0  1  0.502112  0.502692  0.999420  1
  Pr  Pr1  1  0.996687  0.997218  0.999469  1
  Cu  Cu2  1  0.420109  0.751121  0.668988  1
  Si  Si3  1  0.574082  0.248962  0.325121  1
  Si  Si4  1  0.095387  0.751150  0.344238  1
  Si  Si5  1  0.911625  0.248860  0.662766  1
