# generated using pymatgen
data_TbHo7Ti11Si16W
_symmetry_space_group_name_H-M   'P 1'
_cell_length_a   7.02595022
_cell_length_b   7.02520909
_cell_length_c   12.91578648
_cell_angle_alpha   90.00180852
_cell_angle_beta   89.98655544
_cell_angle_gamma   90.04097119
_symmetry_Int_Tables_number   1
_chemical_formula_structural   TbHo7Ti11Si16W
_chemical_formula_sum   'Tb1 Ho7 Ti11 Si16 W1'
_cell_volume   637.50714519
_cell_formula_units_Z   1
loop_
 _symmetry_equiv_pos_site_id
 _symmetry_equiv_pos_as_xyz
  1  'x, y, z'
loop_
 _atom_site_type_symbol
 _atom_site_label
 _atom_site_symmetry_multiplicity
 _atom_site_fract_x
 _atom_site_fract_y
 _atom_site_fract_z
 _atom_site_occupancy
  Tb  Tb0  1  0.339933  0.003983  0.467212  1
  Ho  Ho1  1  0.497575  0.839840  0.718003  1
  Ho  Ho2  1  0.500545  0.159314  0.215115  1
  Ho  Ho3  1  0.839948  0.497486  0.282099  1
  Ho  Ho4  1  0.159086  0.500342  0.784695  1
  Ho  Ho5  1  0.658101  0.998767  0.966996  1
  Ho  Ho6  1  0.002773  0.340710  0.533267  1
  Ho  Ho7  1  0.998719  0.658159  0.032563  1
  Ti  Ti8  1  0.174099  0.827197  0.249069  1
  Ti  Ti9  1  0.827307  0.174444  0.750978  1
  Ti  Ti10  1  0.673361  0.672792  0.500007  1
  Ti  Ti11  1  0.154103  0.009208  0.876977  1
  Ti  Ti12  1  0.491542  0.651420  0.123840  1
  Ti  Ti13  1  0.507979  0.348921  0.626848  1
  Ti  Ti14  1  0.651622  0.491542  0.875992  1
  Ti  Ti15  1  0.348899  0.507376  0.373260  1
  Ti  Ti16  1  0.847665  0.991977  0.375605  1
  Ti  Ti17  1  0.009030  0.154179  0.122913  1
  Ti  Ti18  1  0.992189  0.847580  0.624603  1
  Si  Si19  1  0.201806  0.130474  0.685103  1
  Si  Si20  1  0.369690  0.700458  0.934138  1
  Si  Si21  1  0.631538  0.298287  0.434222  1
  Si  Si22  1  0.700521  0.369715  0.065796  1
  Si  Si23  1  0.297274  0.629633  0.566107  1
  Si  Si24  1  0.797984  0.869760  0.184003  1
  Si  Si25  1  0.129628  0.202797  0.314750  1
  Si  Si26  1  0.869844  0.797903  0.815939  1
  Si  Si27  1  0.290753  0.954098  0.064508  1
  Si  Si28  1  0.546964  0.791346  0.314233  1
  Si  Si29  1  0.452814  0.208359  0.815848  1
  Si  Si30  1  0.791917  0.546387  0.685458  1
  Si  Si31  1  0.208281  0.452980  0.184102  1
  Si  Si32  1  0.709784  0.047651  0.565477  1
  Si  Si33  1  0.954064  0.290758  0.935421  1
  Si  Si34  1  0.046532  0.708009  0.434873  1
  W  W35  1  0.326129  0.326148  0.999980  1
