# generated using pymatgen
data_Tm16In2NiAg2Rh3
_symmetry_space_group_name_H-M   'P 1'
_cell_length_a   9.45156469
_cell_length_b   9.44815873
_cell_length_c   9.43334642
_cell_angle_alpha   59.72241615
_cell_angle_beta   59.93609290
_cell_angle_gamma   59.98807074
_symmetry_Int_Tables_number   1
_chemical_formula_structural   Tm16In2NiAg2Rh3
_chemical_formula_sum   'Tm16 In2 Ni1 Ag2 Rh3'
_cell_volume   594.06507588
_cell_formula_units_Z   1
loop_
 _symmetry_equiv_pos_site_id
 _symmetry_equiv_pos_as_xyz
  1  'x, y, z'
loop_
 _atom_site_type_symbol
 _atom_site_label
 _atom_site_symmetry_multiplicity
 _atom_site_fract_x
 _atom_site_fract_y
 _atom_site_fract_z
 _atom_site_occupancy
  Tm  Tm0  1  0.060864  0.068134  0.437238  1
  Tm  Tm1  1  0.433765  0.068134  0.437238  1
  Tm  Tm2  1  0.059651  0.437782  0.065759  1
  Tm  Tm3  1  0.048764  0.652525  0.645955  1
  Tm  Tm4  1  0.436809  0.437782  0.065759  1
  Tm  Tm5  1  0.652028  0.051302  0.644643  1
  Tm  Tm6  1  0.187039  0.810466  0.191917  1
  Tm  Tm7  1  0.188665  0.189650  0.810939  1
  Tm  Tm8  1  0.810580  0.810466  0.191917  1
  Tm  Tm9  1  0.436640  0.064120  0.062601  1
  Tm  Tm10  1  0.811709  0.186012  0.190571  1
  Tm  Tm11  1  0.063791  0.435093  0.437325  1
  Tm  Tm12  1  0.810746  0.189650  0.810939  1
  Tm  Tm13  1  0.189892  0.809843  0.810372  1
  Tm  Tm14  1  0.648286  0.646603  0.056826  1
  Tm  Tm15  1  0.652757  0.652525  0.645955  1
  In  In16  1  0.418801  0.743874  0.418523  1
  In  In17  1  0.420288  0.417367  0.742057  1
  Ni  Ni18  1  0.858157  0.857216  0.426471  1
  Ag  Ag19  1  0.416698  0.414626  0.417196  1
  Ag  Ag20  1  0.751479  0.414626  0.417196  1
  Rh  Rh21  1  0.856791  0.856267  0.857457  1
  Rh  Rh22  1  0.429486  0.856267  0.857457  1
  Rh  Rh23  1  0.856316  0.429671  0.857697  1
