# generated using pymatgen
data_Sr9As4S15
_symmetry_space_group_name_H-M   'P 1'
_cell_length_a   10.89297546
_cell_length_b   10.89297566
_cell_length_c   10.89297445
_cell_angle_alpha   114.71094443
_cell_angle_beta   114.71094175
_cell_angle_gamma   114.71093901
_symmetry_Int_Tables_number   1
_chemical_formula_structural   Sr9As4S15
_chemical_formula_sum   'Sr9 As4 S15'
_cell_volume   742.06624673
_cell_formula_units_Z   1
loop_
 _symmetry_equiv_pos_site_id
 _symmetry_equiv_pos_as_xyz
  1  'x, y, z'
loop_
 _atom_site_type_symbol
 _atom_site_label
 _atom_site_symmetry_multiplicity
 _atom_site_fract_x
 _atom_site_fract_y
 _atom_site_fract_z
 _atom_site_occupancy
  Sr  Sr0  1  0.583519  0.329617  0.583519  1
  Sr  Sr1  1  0.583519  0.583519  0.329617  1
  Sr  Sr2  1  0.329617  0.583519  0.583519  1
  Sr  Sr3  1  0.228376  0.756594  0.965207  1
  Sr  Sr4  1  0.965207  0.228376  0.756594  1
  Sr  Sr5  1  0.756594  0.965207  0.228376  1
  Sr  Sr6  1  0.228376  0.965207  0.756594  1
  Sr  Sr7  1  0.756594  0.228376  0.965207  1
  Sr  Sr8  1  0.965207  0.756594  0.228376  1
  As  As9  1  0.081434  0.081434  0.081434  1
  As  As10  1  0.402119  0.829088  0.402119  1
  As  As11  1  0.402119  0.402119  0.829088  1
  As  As12  1  0.829088  0.402119  0.402119  1
  S  S13  1  0.946137  0.508292  0.946137  1
  S  S14  1  0.946137  0.946137  0.508292  1
  S  S15  1  0.508292  0.946137  0.946137  1
  S  S16  1  0.155456  0.347517  0.155456  1
  S  S17  1  0.155456  0.155456  0.347517  1
  S  S18  1  0.347517  0.155456  0.155456  1
  S  S19  1  0.638016  0.885254  0.638016  1
  S  S20  1  0.638016  0.638016  0.885254  1
  S  S21  1  0.885254  0.638016  0.638016  1
  S  S22  1  0.578749  0.027592  0.391682  1
  S  S23  1  0.391682  0.578749  0.027592  1
  S  S24  1  0.027592  0.391682  0.578749  1
  S  S25  1  0.578749  0.391682  0.027592  1
  S  S26  1  0.391682  0.027592  0.578749  1
  S  S27  1  0.027592  0.578749  0.391682  1
