# generated using pymatgen
data_Y2InH2
_symmetry_space_group_name_H-M   'P 1'
_cell_length_a   6.60305981
_cell_length_b   6.60305979
_cell_length_c   6.60305900
_cell_angle_alpha   146.45822102
_cell_angle_beta   146.45822073
_cell_angle_gamma   48.16664721
_symmetry_Int_Tables_number   1
_chemical_formula_structural   Y2InH2
_chemical_formula_sum   'Y2 In1 H2'
_cell_volume   87.53309178
_cell_formula_units_Z   1
loop_
 _symmetry_equiv_pos_site_id
 _symmetry_equiv_pos_as_xyz
  1  'x, y, z'
loop_
 _atom_site_type_symbol
 _atom_site_label
 _atom_site_symmetry_multiplicity
 _atom_site_fract_x
 _atom_site_fract_y
 _atom_site_fract_z
 _atom_site_occupancy
  Y  Y0  1  0.347875  0.347875  0.000000  1
  Y  Y1  1  0.652126  0.652126  0.000000  1
  In  In2  1  0.000000  0.000000  0.000000  1
  H  H3  1  0.749999  0.250000  0.499999  1
  H  H4  1  0.250000  0.749999  0.499999  1
