# generated using pymatgen
data_Ho4Ga4Ni2IrRu
_symmetry_space_group_name_H-M   'P 1'
_cell_length_a   4.25518800
_cell_length_b   6.83014302
_cell_length_c   7.57153644
_cell_angle_alpha   90.12423426
_cell_angle_beta   90.00000000
_cell_angle_gamma   90.00000000
_symmetry_Int_Tables_number   1
_chemical_formula_structural   Ho4Ga4Ni2IrRu
_chemical_formula_sum   'Ho4 Ga4 Ni2 Ir1 Ru1'
_cell_volume   220.05515479
_cell_formula_units_Z   1
loop_
 _symmetry_equiv_pos_site_id
 _symmetry_equiv_pos_as_xyz
  1  'x, y, z'
loop_
 _atom_site_type_symbol
 _atom_site_label
 _atom_site_symmetry_multiplicity
 _atom_site_fract_x
 _atom_site_fract_y
 _atom_site_fract_z
 _atom_site_occupancy
  Ho  Ho0  1  0.250000  0.522380  0.688575  1
  Ho  Ho1  1  0.250000  0.022785  0.812918  1
  Ho  Ho2  1  0.750000  0.983175  0.194275  1
  Ho  Ho3  1  0.750000  0.484461  0.303485  1
  Ga  Ga4  1  0.750000  0.334172  0.918644  1
  Ga  Ga5  1  0.250000  0.168116  0.435327  1
  Ga  Ga6  1  0.750000  0.837908  0.583854  1
  Ga  Ga7  1  0.250000  0.667367  0.063651  1
  Ni  Ni8  1  0.750000  0.714831  0.895681  1
  Ni  Ni9  1  0.750000  0.215719  0.604182  1
  Ir  Ir10  1  0.250000  0.775518  0.395276  1
  Ru  Ru11  1  0.250000  0.273566  0.104132  1
