# generated using pymatgen
data_Tb13Ho3In4(PdPt)2
_symmetry_space_group_name_H-M   'P 1'
_cell_length_a   9.72830305
_cell_length_b   9.72541028
_cell_length_c   9.72302400
_cell_angle_alpha   60.02780666
_cell_angle_beta   60.10460478
_cell_angle_gamma   59.97393026
_symmetry_Int_Tables_number   1
_chemical_formula_structural   Tb13Ho3In4(PdPt)2
_chemical_formula_sum   'Tb13 Ho3 In4 Pd2 Pt2'
_cell_volume   650.99710412
_cell_formula_units_Z   1
loop_
 _symmetry_equiv_pos_site_id
 _symmetry_equiv_pos_as_xyz
  1  'x, y, z'
loop_
 _atom_site_type_symbol
 _atom_site_label
 _atom_site_symmetry_multiplicity
 _atom_site_fract_x
 _atom_site_fract_y
 _atom_site_fract_z
 _atom_site_occupancy
  Tb  Tb0  1  0.649683  0.054101  0.649689  1
  Tb  Tb1  1  0.063279  0.063389  0.437373  1
  Tb  Tb2  1  0.437373  0.435959  0.063279  1
  Tb  Tb3  1  0.649689  0.646528  0.649683  1
  Tb  Tb4  1  0.809323  0.191551  0.188157  1
  Tb  Tb5  1  0.188157  0.810967  0.809323  1
  Tb  Tb6  1  0.056082  0.647304  0.649502  1
  Tb  Tb7  1  0.437690  0.063343  0.063100  1
  Tb  Tb8  1  0.435137  0.064863  0.435137  1
  Tb  Tb9  1  0.061336  0.438664  0.061336  1
  Tb  Tb10  1  0.649502  0.647109  0.056082  1
  Tb  Tb11  1  0.190451  0.809549  0.190451  1
  Tb  Tb12  1  0.063100  0.435865  0.437690  1
  Ho  Ho13  1  0.809016  0.810355  0.188848  1
  Ho  Ho14  1  0.810143  0.189857  0.810143  1
  Ho  Ho15  1  0.188848  0.191780  0.809016  1
  In  In16  1  0.416971  0.416333  0.417004  1
  In  In17  1  0.418110  0.417166  0.747487  1
  In  In18  1  0.417004  0.749691  0.416971  1
  In  In19  1  0.747487  0.417235  0.418110  1
  Pd  Pd20  1  0.857235  0.855744  0.429338  1
  Pd  Pd21  1  0.429338  0.857683  0.857235  1
  Pt  Pt22  1  0.858805  0.428857  0.856236  1
  Pt  Pt23  1  0.856236  0.856102  0.858805  1
