# generated using pymatgen
data_SmEr3(WO6)2
_symmetry_space_group_name_H-M   'P 1'
_cell_length_a   5.40141100
_cell_length_b   7.70157698
_cell_length_c   11.47153190
_cell_angle_alpha   75.38195548
_cell_angle_beta   90.00000000
_cell_angle_gamma   90.00000000
_symmetry_Int_Tables_number   1
_chemical_formula_structural   SmEr3(WO6)2
_chemical_formula_sum   'Sm2 Er6 W4 O24'
_cell_volume   461.76127550
_cell_formula_units_Z   2
loop_
 _symmetry_equiv_pos_site_id
 _symmetry_equiv_pos_as_xyz
  1  'x, y, z'
loop_
 _atom_site_type_symbol
 _atom_site_label
 _atom_site_symmetry_multiplicity
 _atom_site_fract_x
 _atom_site_fract_y
 _atom_site_fract_z
 _atom_site_occupancy
  Sm  Sm0  1  0.684966  0.500000  0.750000  1
  Sm  Sm1  1  0.315034  0.500000  0.250000  1
  Er  Er2  1  0.739922  0.000000  0.750000  1
  Er  Er3  1  0.260078  0.000000  0.250000  1
  Er  Er4  1  0.187909  0.798168  0.577441  1
  Er  Er5  1  0.812091  0.798168  0.077441  1
  Er  Er6  1  0.187909  0.201832  0.922559  1
  Er  Er7  1  0.812091  0.201832  0.422559  1
  W  W8  1  0.253396  0.725441  0.885426  1
  W  W9  1  0.746604  0.725441  0.385426  1
  W  W10  1  0.253396  0.274559  0.614574  1
  W  W11  1  0.746604  0.274559  0.114574  1
  O  O12  1  0.038760  0.941195  0.895540  1
  O  O13  1  0.530771  0.849603  0.930894  1
  O  O14  1  0.961240  0.941195  0.395540  1
  O  O15  1  0.459033  0.792663  0.727299  1
  O  O16  1  0.469229  0.849603  0.430894  1
  O  O17  1  0.985976  0.715673  0.769621  1
  O  O18  1  0.540967  0.792663  0.227299  1
  O  O19  1  0.856448  0.638804  0.547452  1
  O  O20  1  0.355438  0.490261  0.888709  1
  O  O21  1  0.014024  0.715673  0.269621  1
  O  O22  1  0.355438  0.509739  0.611291  1
  O  O23  1  0.856448  0.361196  0.952548  1
  O  O24  1  0.143552  0.638804  0.047452  1
  O  O25  1  0.644562  0.490261  0.388709  1
  O  O26  1  0.985976  0.284327  0.730379  1
  O  O27  1  0.644562  0.509739  0.111291  1
  O  O28  1  0.143552  0.361196  0.452548  1
  O  O29  1  0.459033  0.207337  0.772701  1
  O  O30  1  0.014024  0.284327  0.230379  1
  O  O31  1  0.530771  0.150397  0.569106  1
  O  O32  1  0.540967  0.207337  0.272701  1
  O  O33  1  0.038760  0.058805  0.604460  1
  O  O34  1  0.469229  0.150397  0.069106  1
  O  O35  1  0.961240  0.058805  0.104460  1
