# generated using pymatgen
data_Pr6Dy7Y3(CdIr)4
_symmetry_space_group_name_H-M   'P 1'
_cell_length_a   9.78345513
_cell_length_b   9.78397347
_cell_length_c   9.79547071
_cell_angle_alpha   59.95761512
_cell_angle_beta   60.03856896
_cell_angle_gamma   60.07951445
_symmetry_Int_Tables_number   1
_chemical_formula_structural   Pr6Dy7Y3(CdIr)4
_chemical_formula_sum   'Pr6 Dy7 Y3 Cd4 Ir4'
_cell_volume   663.38426335
_cell_formula_units_Z   1
loop_
 _symmetry_equiv_pos_site_id
 _symmetry_equiv_pos_as_xyz
  1  'x, y, z'
loop_
 _atom_site_type_symbol
 _atom_site_label
 _atom_site_symmetry_multiplicity
 _atom_site_fract_x
 _atom_site_fract_y
 _atom_site_fract_z
 _atom_site_occupancy
  Pr  Pr0  1  0.941062  0.559254  0.558669  1
  Pr  Pr1  1  0.558669  0.941015  0.941062  1
  Pr  Pr2  1  0.559100  0.940900  0.559100  1
  Pr  Pr3  1  0.941266  0.558734  0.941266  1
  Pr  Pr4  1  0.558449  0.559078  0.941274  1
  Pr  Pr5  1  0.941274  0.941199  0.558449  1
  Dy  Dy6  1  0.347246  0.346920  0.347396  1
  Dy  Dy7  1  0.347575  0.347036  0.958175  1
  Dy  Dy8  1  0.347396  0.958438  0.347246  1
  Dy  Dy9  1  0.958175  0.347214  0.347575  1
  Dy  Dy10  1  0.811964  0.188038  0.187341  1
  Dy  Dy11  1  0.187341  0.812657  0.811964  1
  Dy  Dy12  1  0.187700  0.812300  0.187700  1
  Y  Y13  1  0.812061  0.187939  0.812061  1
  Y  Y14  1  0.187534  0.188327  0.811721  1
  Y  Y15  1  0.811721  0.812418  0.187534  1
  Cd  Cd16  1  0.579337  0.579167  0.579207  1
  Cd  Cd17  1  0.579373  0.579317  0.262103  1
  Cd  Cd18  1  0.579207  0.262289  0.579337  1
  Cd  Cd19  1  0.262103  0.579207  0.579373  1
  Ir  Ir20  1  0.141191  0.140511  0.142485  1
  Ir  Ir21  1  0.142393  0.140495  0.575378  1
  Ir  Ir22  1  0.142485  0.575814  0.141191  1
  Ir  Ir23  1  0.575378  0.141735  0.142393  1
