# generated using pymatgen
data_Y3Co5(Ni2As3)2
_symmetry_space_group_name_H-M   'P 1'
_cell_length_a   3.85255900
_cell_length_b   10.87206400
_cell_length_c   12.75165100
_cell_angle_alpha   90.00000000
_cell_angle_beta   90.00000000
_cell_angle_gamma   90.00000000
_symmetry_Int_Tables_number   1
_chemical_formula_structural   Y3Co5(Ni2As3)2
_chemical_formula_sum   'Y6 Co10 Ni8 As12'
_cell_volume   534.10631973
_cell_formula_units_Z   2
loop_
 _symmetry_equiv_pos_site_id
 _symmetry_equiv_pos_as_xyz
  1  'x, y, z'
loop_
 _atom_site_type_symbol
 _atom_site_label
 _atom_site_symmetry_multiplicity
 _atom_site_fract_x
 _atom_site_fract_y
 _atom_site_fract_z
 _atom_site_occupancy
  Y  Y0  1  0.000000  0.500000  0.521065  1
  Y  Y1  1  0.500000  0.000000  0.478935  1
  Y  Y2  1  0.500000  0.815034  0.206383  1
  Y  Y3  1  0.500000  0.184966  0.206383  1
  Y  Y4  1  0.000000  0.684966  0.793617  1
  Y  Y5  1  0.000000  0.315034  0.793617  1
  Co  Co6  1  0.000000  0.500000  0.982010  1
  Co  Co7  1  0.500000  0.000000  0.017990  1
  Co  Co8  1  0.500000  0.334314  0.997113  1
  Co  Co9  1  0.500000  0.665686  0.997113  1
  Co  Co10  1  0.000000  0.165686  0.002887  1
  Co  Co11  1  0.000000  0.834314  0.002887  1
  Co  Co12  1  0.500000  0.299563  0.428208  1
  Co  Co13  1  0.500000  0.700437  0.428208  1
  Co  Co14  1  0.000000  0.200437  0.571792  1
  Co  Co15  1  0.000000  0.799563  0.571792  1
  Ni  Ni16  1  0.500000  0.500000  0.157919  1
  Ni  Ni17  1  0.000000  0.000000  0.842081  1
  Ni  Ni18  1  0.500000  0.500000  0.701456  1
  Ni  Ni19  1  0.000000  0.000000  0.298544  1
  Ni  Ni20  1  0.500000  0.878336  0.708274  1
  Ni  Ni21  1  0.500000  0.121664  0.708274  1
  Ni  Ni22  1  0.000000  0.621664  0.291726  1
  Ni  Ni23  1  0.000000  0.378336  0.291726  1
  As  As24  1  0.500000  0.500000  0.879843  1
  As  As25  1  0.000000  0.000000  0.120157  1
  As  As26  1  0.500000  0.500000  0.346918  1
  As  As27  1  0.000000  0.000000  0.653082  1
  As  As28  1  0.500000  0.313820  0.612707  1
  As  As29  1  0.500000  0.686180  0.612707  1
  As  As30  1  0.000000  0.186180  0.387293  1
  As  As31  1  0.000000  0.813820  0.387293  1
  As  As32  1  0.500000  0.846835  0.893850  1
  As  As33  1  0.500000  0.153165  0.893850  1
  As  As34  1  0.000000  0.653165  0.106150  1
  As  As35  1  0.000000  0.346835  0.106150  1
