# generated using pymatgen
data_Li2LaGdIr2
_symmetry_space_group_name_H-M   'P 1'
_cell_length_a   3.95386300
_cell_length_b   7.11548519
_cell_length_c   8.52403400
_cell_angle_alpha   87.77383387
_cell_angle_beta   90.00000000
_cell_angle_gamma   90.00000000
_symmetry_Int_Tables_number   1
_chemical_formula_structural   Li2LaGdIr2
_chemical_formula_sum   'Li4 La2 Gd2 Ir4'
_cell_volume   239.63122922
_cell_formula_units_Z   2
loop_
 _symmetry_equiv_pos_site_id
 _symmetry_equiv_pos_as_xyz
  1  'x, y, z'
loop_
 _atom_site_type_symbol
 _atom_site_label
 _atom_site_symmetry_multiplicity
 _atom_site_fract_x
 _atom_site_fract_y
 _atom_site_fract_z
 _atom_site_occupancy
  Li  Li0  1  0.250000  0.629668  0.553001  1
  Li  Li1  1  0.750000  0.370332  0.446999  1
  Li  Li2  1  0.750000  0.883311  0.051696  1
  Li  Li3  1  0.250000  0.116689  0.948304  1
  La  La4  1  0.250000  0.550451  0.182478  1
  La  La5  1  0.750000  0.449549  0.817522  1
  Gd  Gd6  1  0.750000  0.949771  0.675241  1
  Gd  Gd7  1  0.250000  0.050229  0.324759  1
  Ir  Ir8  1  0.250000  0.743406  0.866100  1
  Ir  Ir9  1  0.750000  0.256594  0.133900  1
  Ir  Ir10  1  0.750000  0.763898  0.371326  1
  Ir  Ir11  1  0.250000  0.236102  0.628674  1
