# generated using pymatgen
data_Tb4Tm2ScCo17P12
_symmetry_space_group_name_H-M   'P 1'
_cell_length_a   3.71261200
_cell_length_b   10.59518400
_cell_length_c   12.27586500
_cell_angle_alpha   90.00000000
_cell_angle_beta   90.00000000
_cell_angle_gamma   90.00000000
_symmetry_Int_Tables_number   1
_chemical_formula_structural   Tb4Tm2ScCo17P12
_chemical_formula_sum   'Tb4 Tm2 Sc1 Co17 P12'
_cell_volume   482.88105960
_cell_formula_units_Z   1
loop_
 _symmetry_equiv_pos_site_id
 _symmetry_equiv_pos_as_xyz
  1  'x, y, z'
loop_
 _atom_site_type_symbol
 _atom_site_label
 _atom_site_symmetry_multiplicity
 _atom_site_fract_x
 _atom_site_fract_y
 _atom_site_fract_z
 _atom_site_occupancy
  Tb  Tb0  1  0.000000  0.500000  0.528465  1
  Tb  Tb1  1  0.500000  0.000000  0.477930  1
  Tb  Tb2  1  0.500000  0.821325  0.207272  1
  Tb  Tb3  1  0.500000  0.178675  0.207272  1
  Tm  Tm4  1  0.000000  0.681825  0.795887  1
  Tm  Tm5  1  0.000000  0.318175  0.795887  1
  Sc  Sc6  1  0.500000  0.500000  0.152263  1
  Co  Co7  1  0.000000  0.000000  0.837125  1
  Co  Co8  1  0.500000  0.500000  0.704751  1
  Co  Co9  1  0.000000  0.000000  0.295502  1
  Co  Co10  1  0.000000  0.500000  0.983201  1
  Co  Co11  1  0.500000  0.000000  0.011176  1
  Co  Co12  1  0.500000  0.327364  0.988451  1
  Co  Co13  1  0.500000  0.672636  0.988451  1
  Co  Co14  1  0.000000  0.162759  0.000184  1
  Co  Co15  1  0.000000  0.837241  0.000184  1
  Co  Co16  1  0.500000  0.294901  0.435250  1
  Co  Co17  1  0.500000  0.705099  0.435250  1
  Co  Co18  1  0.000000  0.202515  0.572008  1
  Co  Co19  1  0.000000  0.797485  0.572008  1
  Co  Co20  1  0.500000  0.879780  0.708654  1
  Co  Co21  1  0.500000  0.120220  0.708654  1
  Co  Co22  1  0.000000  0.622196  0.296905  1
  Co  Co23  1  0.000000  0.377804  0.296905  1
  P  P24  1  0.500000  0.500000  0.882094  1
  P  P25  1  0.000000  0.000000  0.114530  1
  P  P26  1  0.500000  0.500000  0.357897  1
  P  P27  1  0.000000  0.000000  0.655495  1
  P  P28  1  0.500000  0.309225  0.619601  1
  P  P29  1  0.500000  0.690775  0.619601  1
  P  P30  1  0.000000  0.189708  0.387110  1
  P  P31  1  0.000000  0.810292  0.387110  1
  P  P32  1  0.500000  0.850340  0.888131  1
  P  P33  1  0.500000  0.149660  0.888131  1
  P  P34  1  0.000000  0.662838  0.100332  1
  P  P35  1  0.000000  0.337162  0.100332  1
