# generated using pymatgen
data_Sr6Sn8BiSb
_symmetry_space_group_name_H-M   'P 1'
_cell_length_a   9.04960678
_cell_length_b   9.04960684
_cell_length_c   9.04960776
_cell_angle_alpha   120.28004137
_cell_angle_beta   120.28003940
_cell_angle_gamma   89.51563784
_symmetry_Int_Tables_number   1
_chemical_formula_structural   Sr6Sn8BiSb
_chemical_formula_sum   'Sr6 Sn8 Bi1 Sb1'
_cell_volume   521.81332683
_cell_formula_units_Z   1
loop_
 _symmetry_equiv_pos_site_id
 _symmetry_equiv_pos_as_xyz
  1  'x, y, z'
loop_
 _atom_site_type_symbol
 _atom_site_label
 _atom_site_symmetry_multiplicity
 _atom_site_fract_x
 _atom_site_fract_y
 _atom_site_fract_z
 _atom_site_occupancy
  Sr  Sr0  1  0.246536  0.246536  0.000000  1
  Sr  Sr1  1  0.753464  0.753464  0.000000  1
  Sr  Sr2  1  0.160347  0.666860  0.827208  1
  Sr  Sr3  1  0.839653  0.333140  0.172792  1
  Sr  Sr4  1  0.666860  0.839653  0.506513  1
  Sr  Sr5  1  0.333140  0.160347  0.493487  1
  Sn  Sn6  1  0.830480  0.331124  0.785394  1
  Sn  Sn7  1  0.169520  0.668876  0.214606  1
  Sn  Sn8  1  0.545729  0.045086  0.214606  1
  Sn  Sn9  1  0.331124  0.545729  0.500643  1
  Sn  Sn10  1  0.954914  0.169520  0.500643  1
  Sn  Sn11  1  0.454271  0.954914  0.785394  1
  Sn  Sn12  1  0.668876  0.454271  0.499357  1
  Sn  Sn13  1  0.045086  0.830480  0.499357  1
  Bi  Bi14  1  0.500000  0.500000  0.000000  1
  Sb  Sb15  1  0.000000  0.000000  0.000000  1
