# generated using pymatgen
data_Li4Nd4MgPd4
_symmetry_space_group_name_H-M   'P 1'
_cell_length_a   8.44356897
_cell_length_b   8.44357025
_cell_length_c   8.44356900
_cell_angle_alpha   93.74477116
_cell_angle_beta   93.74477173
_cell_angle_gamma   150.38617361
_symmetry_Int_Tables_number   1
_chemical_formula_structural   Li4Nd4MgPd4
_chemical_formula_sum   'Li4 Nd4 Mg1 Pd4'
_cell_volume   287.58871506
_cell_formula_units_Z   1
loop_
 _symmetry_equiv_pos_site_id
 _symmetry_equiv_pos_as_xyz
  1  'x, y, z'
loop_
 _atom_site_type_symbol
 _atom_site_label
 _atom_site_symmetry_multiplicity
 _atom_site_fract_x
 _atom_site_fract_y
 _atom_site_fract_z
 _atom_site_occupancy
  Li  Li0  1  0.597800  0.077856  0.675656  1
  Li  Li1  1  0.922144  0.597800  0.519944  1
  Li  Li2  1  0.077856  0.402200  0.480056  1
  Li  Li3  1  0.402200  0.922144  0.324344  1
  Nd  Nd4  1  0.120388  0.798655  0.919043  1
  Nd  Nd5  1  0.201345  0.120388  0.321732  1
  Nd  Nd6  1  0.879612  0.201345  0.080957  1
  Nd  Nd7  1  0.798655  0.879612  0.678268  1
  Mg  Mg8  1  0.500000  0.500000  0.000000  1
  Pd  Pd9  1  0.434831  0.251773  0.686604  1
  Pd  Pd10  1  0.565169  0.748227  0.313396  1
  Pd  Pd11  1  0.251773  0.565169  0.816942  1
  Pd  Pd12  1  0.748227  0.434831  0.183058  1
