# generated using pymatgen
data_K3Ca(Si2Au5)4
_symmetry_space_group_name_H-M   'P 1'
_cell_length_a   7.09285700
_cell_length_b   9.06339501
_cell_length_c   10.15789000
_cell_angle_alpha   90.14744676
_cell_angle_beta   90.00000000
_cell_angle_gamma   90.00000000
_symmetry_Int_Tables_number   1
_chemical_formula_structural   K3Ca(Si2Au5)4
_chemical_formula_sum   'K3 Ca1 Si8 Au20'
_cell_volume   653.00150147
_cell_formula_units_Z   1
loop_
 _symmetry_equiv_pos_site_id
 _symmetry_equiv_pos_as_xyz
  1  'x, y, z'
loop_
 _atom_site_type_symbol
 _atom_site_label
 _atom_site_symmetry_multiplicity
 _atom_site_fract_x
 _atom_site_fract_y
 _atom_site_fract_z
 _atom_site_occupancy
  K  K0  1  0.250000  0.249311  0.119644  1
  K  K1  1  0.250000  0.748262  0.380182  1
  K  K2  1  0.750000  0.751082  0.879885  1
  Ca  Ca3  1  0.750000  0.249067  0.626131  1
  Si  Si4  1  0.250000  0.038440  0.634679  1
  Si  Si5  1  0.250000  0.540609  0.866685  1
  Si  Si6  1  0.750000  0.962714  0.361744  1
  Si  Si7  1  0.750000  0.460952  0.135028  1
  Si  Si8  1  0.250000  0.327660  0.457425  1
  Si  Si9  1  0.250000  0.825996  0.040848  1
  Si  Si10  1  0.750000  0.673907  0.542302  1
  Si  Si11  1  0.750000  0.174160  0.957659  1
  Au  Au12  1  0.044271  0.103727  0.399044  1
  Au  Au13  1  0.453260  0.598404  0.103662  1
  Au  Au14  1  0.550650  0.902850  0.606399  1
  Au  Au15  1  0.950439  0.399724  0.888634  1
  Au  Au16  1  0.949350  0.902850  0.606399  1
  Au  Au17  1  0.549561  0.399724  0.888634  1
  Au  Au18  1  0.455729  0.103727  0.399044  1
  Au  Au19  1  0.046740  0.598404  0.103662  1
  Au  Au20  1  0.031256  0.067808  0.859818  1
  Au  Au21  1  0.470731  0.562446  0.637073  1
  Au  Au22  1  0.533072  0.933671  0.136425  1
  Au  Au23  1  0.958296  0.429722  0.369413  1
  Au  Au24  1  0.966928  0.933671  0.136425  1
  Au  Au25  1  0.541704  0.429722  0.369413  1
  Au  Au26  1  0.468744  0.067808  0.859818  1
  Au  Au27  1  0.029269  0.562446  0.637073  1
  Au  Au28  1  0.250000  0.300197  0.698280  1
  Au  Au29  1  0.250000  0.800379  0.799144  1
  Au  Au30  1  0.750000  0.700331  0.301631  1
  Au  Au31  1  0.750000  0.200224  0.197796  1
