# generated using pymatgen
data_Zr8CoHg4Pd7
_symmetry_space_group_name_H-M   'P 1'
_cell_length_a   7.54756432
_cell_length_b   7.54756456
_cell_length_c   6.76464708
_cell_angle_alpha   90.16216258
_cell_angle_beta   89.83783625
_cell_angle_gamma   89.79267890
_symmetry_Int_Tables_number   1
_chemical_formula_structural   Zr8CoHg4Pd7
_chemical_formula_sum   'Zr8 Co1 Hg4 Pd7'
_cell_volume   385.34743109
_cell_formula_units_Z   1
loop_
 _symmetry_equiv_pos_site_id
 _symmetry_equiv_pos_as_xyz
  1  'x, y, z'
loop_
 _atom_site_type_symbol
 _atom_site_label
 _atom_site_symmetry_multiplicity
 _atom_site_fract_x
 _atom_site_fract_y
 _atom_site_fract_z
 _atom_site_occupancy
  Zr  Zr0  1  0.664593  0.643492  0.492500  1
  Zr  Zr1  1  0.805495  0.194505  0.492338  1
  Zr  Zr2  1  0.687381  0.675573  0.004833  1
  Zr  Zr3  1  0.830600  0.169400  0.009969  1
  Zr  Zr4  1  0.186375  0.813625  0.499103  1
  Zr  Zr5  1  0.324427  0.312619  0.004833  1
  Zr  Zr6  1  0.152141  0.847859  0.998727  1
  Zr  Zr7  1  0.356508  0.335407  0.492500  1
  Co  Co8  1  0.624980  0.375020  0.227497  1
  Hg  Hg9  1  0.996710  0.498149  0.249080  1
  Hg  Hg10  1  0.499424  0.997753  0.747442  1
  Hg  Hg11  1  0.501851  0.003290  0.249080  1
  Hg  Hg12  1  0.002247  0.500576  0.747442  1
  Pd  Pd13  1  0.372024  0.627976  0.778652  1
  Pd  Pd14  1  0.870227  0.873914  0.721614  1
  Pd  Pd15  1  0.626676  0.373324  0.785123  1
  Pd  Pd16  1  0.373543  0.626457  0.217360  1
  Pd  Pd17  1  0.126497  0.127783  0.280146  1
  Pd  Pd18  1  0.872217  0.873503  0.280146  1
  Pd  Pd19  1  0.126086  0.129773  0.721614  1
