# generated using pymatgen
data_Ce2Tm3Os2
_symmetry_space_group_name_H-M   'P 1'
_cell_length_a   6.34457896
_cell_length_b   7.14676038
_cell_length_c   8.63018499
_cell_angle_alpha   96.25090243
_cell_angle_beta   111.56649575
_cell_angle_gamma   89.99999959
_symmetry_Int_Tables_number   1
_chemical_formula_structural   Ce2Tm3Os2
_chemical_formula_sum   'Ce4 Tm6 Os4'
_cell_volume   361.42152919
_cell_formula_units_Z   2
loop_
 _symmetry_equiv_pos_site_id
 _symmetry_equiv_pos_as_xyz
  1  'x, y, z'
loop_
 _atom_site_type_symbol
 _atom_site_label
 _atom_site_symmetry_multiplicity
 _atom_site_fract_x
 _atom_site_fract_y
 _atom_site_fract_z
 _atom_site_occupancy
  Ce  Ce0  1  0.790844  0.091823  0.810484  1
  Ce  Ce1  1  0.980360  0.408177  0.189516  1
  Ce  Ce2  1  0.209156  0.908177  0.189516  1
  Ce  Ce3  1  0.019640  0.591823  0.810484  1
  Tm  Tm4  1  0.205803  0.182534  0.566094  1
  Tm  Tm5  1  0.639709  0.317466  0.433906  1
  Tm  Tm6  1  0.794197  0.817466  0.433906  1
  Tm  Tm7  1  0.360291  0.682534  0.566094  1
  Tm  Tm8  1  0.421767  0.250000  0.000000  1
  Tm  Tm9  1  0.578233  0.750000  0.000000  1
  Os  Os10  1  0.616663  0.413965  0.778919  1
  Os  Os11  1  0.837743  0.086035  0.221081  1
  Os  Os12  1  0.383337  0.586035  0.221081  1
  Os  Os13  1  0.162257  0.913965  0.778919  1
