# generated using pymatgen
data_CeY3(Th5Os3)2
_symmetry_space_group_name_H-M   'P 1'
_cell_length_a   9.86693980
_cell_length_b   9.91589868
_cell_length_c   6.37931472
_cell_angle_alpha   89.99650487
_cell_angle_beta   90.27802545
_cell_angle_gamma   119.95760382
_symmetry_Int_Tables_number   1
_chemical_formula_structural   CeY3(Th5Os3)2
_chemical_formula_sum   'Ce1 Y3 Th10 Os6'
_cell_volume   540.75167025
_cell_formula_units_Z   1
loop_
 _symmetry_equiv_pos_site_id
 _symmetry_equiv_pos_as_xyz
  1  'x, y, z'
loop_
 _atom_site_type_symbol
 _atom_site_label
 _atom_site_symmetry_multiplicity
 _atom_site_fract_x
 _atom_site_fract_y
 _atom_site_fract_z
 _atom_site_occupancy
  Ce  Ce0  1  0.251125  0.128629  0.511784  1
  Y  Y1  1  0.461617  0.535837  0.295196  1
  Y  Y2  1  0.074506  0.536297  0.299991  1
  Y  Y3  1  0.927051  0.462722  0.798795  1
  Th  Th4  1  0.538797  0.080080  0.794556  1
  Th  Th5  1  0.746212  0.872865  0.012757  1
  Th  Th6  1  0.668179  0.334173  0.275495  1
  Th  Th7  1  0.125889  0.871042  0.009117  1
  Th  Th8  1  0.460674  0.919405  0.294909  1
  Th  Th9  1  0.535842  0.463678  0.797883  1
  Th  Th10  1  0.874794  0.129833  0.512841  1
  Th  Th11  1  0.124379  0.252256  0.014345  1
  Th  Th12  1  0.873906  0.746679  0.509442  1
  Th  Th13  1  0.332353  0.665266  0.769646  1
  Os  Os14  1  0.811746  0.628982  0.047898  1
  Os  Os15  1  0.812227  0.182012  0.047412  1
  Os  Os16  1  0.630313  0.815082  0.546618  1
  Os  Os17  1  0.373079  0.187860  0.045637  1
  Os  Os18  1  0.187347  0.365234  0.554549  1
  Os  Os19  1  0.189965  0.822068  0.545125  1
