# generated using pymatgen
data_Ho17Er3(IrRh5)2
_symmetry_space_group_name_H-M   'P 1'
_cell_length_a   10.84476013
_cell_length_b   10.84545500
_cell_length_c   6.33302201
_cell_angle_alpha   89.99862566
_cell_angle_beta   90.00594600
_cell_angle_gamma   90.00084540
_symmetry_Int_Tables_number   1
_chemical_formula_structural   Ho17Er3(IrRh5)2
_chemical_formula_sum   'Ho17 Er3 Ir2 Rh10'
_cell_volume   744.86697914
_cell_formula_units_Z   1
loop_
 _symmetry_equiv_pos_site_id
 _symmetry_equiv_pos_as_xyz
  1  'x, y, z'
loop_
 _atom_site_type_symbol
 _atom_site_label
 _atom_site_symmetry_multiplicity
 _atom_site_fract_x
 _atom_site_fract_y
 _atom_site_fract_z
 _atom_site_occupancy
  Ho  Ho0  1  0.290936  0.089623  0.377884  1
  Ho  Ho1  1  0.290891  0.910397  0.877922  1
  Ho  Ho2  1  0.709120  0.088225  0.877692  1
  Ho  Ho3  1  0.709074  0.911764  0.377670  1
  Ho  Ho4  1  0.586897  0.790119  0.877819  1
  Ho  Ho5  1  0.586883  0.209886  0.377843  1
  Ho  Ho6  1  0.411201  0.790313  0.378597  1
  Ho  Ho7  1  0.411185  0.209683  0.878582  1
  Ho  Ho8  1  0.210417  0.412765  0.621539  1
  Ho  Ho9  1  0.210420  0.587246  0.121533  1
  Ho  Ho10  1  0.790880  0.411509  0.121983  1
  Ho  Ho11  1  0.790875  0.588474  0.621960  1
  Ho  Ho12  1  0.911874  0.709298  0.122092  1
  Ho  Ho13  1  0.911876  0.290746  0.622141  1
  Ho  Ho14  1  0.089812  0.708869  0.622367  1
  Ho  Ho15  1  0.089796  0.291078  0.122313  1
  Ho  Ho16  1  0.999875  0.999755  0.500030  1
  Er  Er17  1  0.999915  0.000266  0.000046  1
  Er  Er18  1  0.499689  0.499780  0.999964  1
  Er  Er19  1  0.499694  0.500207  0.499962  1
  Ir  Ir20  1  0.346200  0.345516  0.249944  1
  Ir  Ir21  1  0.346197  0.654486  0.749938  1
  Rh  Rh22  1  0.845632  0.153998  0.250021  1
  Rh  Rh23  1  0.845636  0.846008  0.750327  1
  Rh  Rh24  1  0.153269  0.153603  0.749927  1
  Rh  Rh25  1  0.153281  0.846393  0.249608  1
  Rh  Rh26  1  0.654804  0.345840  0.750112  1
  Rh  Rh27  1  0.654803  0.654156  0.250123  1
  Rh  Rh28  1  0.500553  0.999788  0.123240  1
  Rh  Rh29  1  0.500554  0.000210  0.623222  1
  Rh  Rh30  1  0.998886  0.499899  0.876807  1
  Rh  Rh31  1  0.998880  0.500102  0.376792  1
