# generated using pymatgen
data_Sm2HoSc(Co4P3)2
_symmetry_space_group_name_H-M   'P 1'
_cell_length_a   3.75421100
_cell_length_b   10.73190800
_cell_length_c   12.46053400
_cell_angle_alpha   90.00000000
_cell_angle_beta   90.00000000
_cell_angle_gamma   90.00000000
_symmetry_Int_Tables_number   1
_chemical_formula_structural   Sm2HoSc(Co4P3)2
_chemical_formula_sum   'Sm4 Ho2 Sc2 Co16 P12'
_cell_volume   502.03300920
_cell_formula_units_Z   2
loop_
 _symmetry_equiv_pos_site_id
 _symmetry_equiv_pos_as_xyz
  1  'x, y, z'
loop_
 _atom_site_type_symbol
 _atom_site_label
 _atom_site_symmetry_multiplicity
 _atom_site_fract_x
 _atom_site_fract_y
 _atom_site_fract_z
 _atom_site_occupancy
  Sm  Sm0  1  0.000000  0.500000  0.528653  1
  Sm  Sm1  1  0.500000  0.000000  0.472562  1
  Sm  Sm2  1  0.500000  0.821979  0.205841  1
  Sm  Sm3  1  0.500000  0.178021  0.205841  1
  Ho  Ho4  1  0.000000  0.677418  0.794598  1
  Ho  Ho5  1  0.000000  0.322582  0.794598  1
  Sc  Sc6  1  0.500000  0.500000  0.155981  1
  Sc  Sc7  1  0.000000  0.000000  0.843828  1
  Co  Co8  1  0.000000  0.500000  0.986395  1
  Co  Co9  1  0.500000  0.000000  0.009959  1
  Co  Co10  1  0.500000  0.296096  0.434190  1
  Co  Co11  1  0.500000  0.703904  0.434190  1
  Co  Co12  1  0.000000  0.204973  0.569066  1
  Co  Co13  1  0.000000  0.795027  0.569066  1
  Co  Co14  1  0.500000  0.877913  0.704218  1
  Co  Co15  1  0.500000  0.122087  0.704218  1
  Co  Co16  1  0.000000  0.620663  0.297535  1
  Co  Co17  1  0.000000  0.379337  0.297535  1
  Co  Co18  1  0.500000  0.331839  0.993243  1
  Co  Co19  1  0.500000  0.668161  0.993243  1
  Co  Co20  1  0.000000  0.169596  0.003226  1
  Co  Co21  1  0.000000  0.830404  0.003226  1
  Co  Co22  1  0.500000  0.500000  0.707885  1
  Co  Co23  1  0.000000  0.000000  0.293481  1
  P  P24  1  0.500000  0.307905  0.617256  1
  P  P25  1  0.500000  0.692095  0.617256  1
  P  P26  1  0.000000  0.193885  0.386524  1
  P  P27  1  0.000000  0.806115  0.386524  1
  P  P28  1  0.500000  0.500000  0.885429  1
  P  P29  1  0.000000  0.000000  0.110774  1
  P  P30  1  0.500000  0.838929  0.892088  1
  P  P31  1  0.500000  0.161071  0.892088  1
  P  P32  1  0.000000  0.659207  0.104446  1
  P  P33  1  0.000000  0.340793  0.104446  1
  P  P34  1  0.500000  0.500000  0.358052  1
  P  P35  1  0.000000  0.000000  0.642539  1
