# generated using pymatgen
data_BeNbBW
_symmetry_space_group_name_H-M   'P 1'
_cell_length_a   4.66548644
_cell_length_b   4.66548591
_cell_length_c   3.24861600
_cell_angle_alpha   90.00000000
_cell_angle_beta   90.00000000
_cell_angle_gamma   139.00065366
_symmetry_Int_Tables_number   1
_chemical_formula_structural   BeNbBW
_chemical_formula_sum   'Be1 Nb1 B1 W1'
_cell_volume   46.39053807
_cell_formula_units_Z   1
loop_
 _symmetry_equiv_pos_site_id
 _symmetry_equiv_pos_as_xyz
  1  'x, y, z'
loop_
 _atom_site_type_symbol
 _atom_site_label
 _atom_site_symmetry_multiplicity
 _atom_site_fract_x
 _atom_site_fract_y
 _atom_site_fract_z
 _atom_site_occupancy
  Be  Be0  1  0.435535  0.564465  0.500000  1
  Nb  Nb1  1  0.148593  0.851407  0.500000  1
  B  B2  1  0.563059  0.436941  0.000000  1
  W  W3  1  0.852813  0.147187  0.000000  1
