# generated using pymatgen
data_Sc6Ta4Al12Os7
_symmetry_space_group_name_H-M   'P 1'
_cell_length_a   8.88265262
_cell_length_b   8.88265290
_cell_length_c   8.88265300
_cell_angle_alpha   60.00000333
_cell_angle_beta   60.00000231
_cell_angle_gamma   60.00000257
_symmetry_Int_Tables_number   1
_chemical_formula_structural   Sc6Ta4Al12Os7
_chemical_formula_sum   'Sc6 Ta4 Al12 Os7'
_cell_volume   495.57922899
_cell_formula_units_Z   1
loop_
 _symmetry_equiv_pos_site_id
 _symmetry_equiv_pos_as_xyz
  1  'x, y, z'
loop_
 _atom_site_type_symbol
 _atom_site_label
 _atom_site_symmetry_multiplicity
 _atom_site_fract_x
 _atom_site_fract_y
 _atom_site_fract_z
 _atom_site_occupancy
  Sc  Sc0  1  0.710884  0.710884  0.289116  1
  Sc  Sc1  1  0.289116  0.710884  0.289116  1
  Sc  Sc2  1  0.710884  0.289116  0.289116  1
  Sc  Sc3  1  0.289116  0.289116  0.710884  1
  Sc  Sc4  1  0.710884  0.289116  0.710884  1
  Sc  Sc5  1  0.289116  0.710884  0.710884  1
  Ta  Ta6  1  0.879149  0.879149  0.362551  1
  Ta  Ta7  1  0.879149  0.362551  0.879149  1
  Ta  Ta8  1  0.362551  0.879149  0.879149  1
  Ta  Ta9  1  0.879149  0.879149  0.879149  1
  Al  Al10  1  0.121364  0.121364  0.635908  1
  Al  Al11  1  0.121364  0.635908  0.121364  1
  Al  Al12  1  0.635908  0.121364  0.121364  1
  Al  Al13  1  0.121364  0.121364  0.121364  1
  Al  Al14  1  0.661863  0.661863  0.014413  1
  Al  Al15  1  0.661863  0.014413  0.661863  1
  Al  Al16  1  0.014413  0.661863  0.661863  1
  Al  Al17  1  0.661863  0.661863  0.661863  1
  Al  Al18  1  0.335323  0.335323  0.994031  1
  Al  Al19  1  0.335323  0.994031  0.335323  1
  Al  Al20  1  0.994031  0.335323  0.335323  1
  Al  Al21  1  0.335323  0.335323  0.335323  1
  Os  Os22  1  0.000000  0.000000  0.000000  1
  Os  Os23  1  0.996908  0.996908  0.503092  1
  Os  Os24  1  0.503092  0.996908  0.503092  1
  Os  Os25  1  0.996908  0.503092  0.503092  1
  Os  Os26  1  0.503092  0.503092  0.996908  1
  Os  Os27  1  0.996908  0.503092  0.996908  1
  Os  Os28  1  0.503092  0.996908  0.996908  1
