# generated using pymatgen
data_HoEr4(In2Co)2
_symmetry_space_group_name_H-M   'P 1'
_cell_length_a   3.54823600
_cell_length_b   7.91257500
_cell_length_c   17.94637300
_cell_angle_alpha   90.00000000
_cell_angle_beta   90.00000000
_cell_angle_gamma   90.00000000
_symmetry_Int_Tables_number   1
_chemical_formula_structural   HoEr4(In2Co)2
_chemical_formula_sum   'Ho2 Er8 In8 Co4'
_cell_volume   503.85668774
_cell_formula_units_Z   2
loop_
 _symmetry_equiv_pos_site_id
 _symmetry_equiv_pos_as_xyz
  1  'x, y, z'
loop_
 _atom_site_type_symbol
 _atom_site_label
 _atom_site_symmetry_multiplicity
 _atom_site_fract_x
 _atom_site_fract_y
 _atom_site_fract_z
 _atom_site_occupancy
  Ho  Ho0  1  0.000000  0.500000  0.500000  1
  Ho  Ho1  1  0.000000  0.000000  0.000000  1
  Er  Er2  1  0.000000  0.747184  0.278063  1
  Er  Er3  1  0.000000  0.252816  0.721937  1
  Er  Er4  1  0.000000  0.752816  0.778063  1
  Er  Er5  1  0.000000  0.247184  0.221937  1
  Er  Er6  1  0.000000  0.616474  0.090381  1
  Er  Er7  1  0.000000  0.383526  0.909619  1
  Er  Er8  1  0.000000  0.883526  0.590381  1
  Er  Er9  1  0.000000  0.116474  0.409619  1
  In  In10  1  0.500000  0.704890  0.930623  1
  In  In11  1  0.500000  0.295110  0.069377  1
  In  In12  1  0.500000  0.795110  0.430623  1
  In  In13  1  0.500000  0.204890  0.569377  1
  In  In14  1  0.500000  0.569614  0.652298  1
  In  In15  1  0.500000  0.430386  0.347702  1
  In  In16  1  0.500000  0.930386  0.152298  1
  In  In17  1  0.500000  0.069614  0.847702  1
  Co  Co18  1  0.500000  0.523115  0.195730  1
  Co  Co19  1  0.500000  0.476885  0.804270  1
  Co  Co20  1  0.500000  0.976885  0.695730  1
  Co  Co21  1  0.500000  0.023115  0.304270  1
