# generated using pymatgen
data_Tm6Al16Os6Pt
_symmetry_space_group_name_H-M   'P 1'
_cell_length_a   8.91226038
_cell_length_b   8.91226019
_cell_length_c   8.91226000
_cell_angle_alpha   60.00000071
_cell_angle_beta   60.00000140
_cell_angle_gamma   60.00000024
_symmetry_Int_Tables_number   1
_chemical_formula_structural   Tm6Al16Os6Pt
_chemical_formula_sum   'Tm6 Al16 Os6 Pt1'
_cell_volume   500.55128535
_cell_formula_units_Z   1
loop_
 _symmetry_equiv_pos_site_id
 _symmetry_equiv_pos_as_xyz
  1  'x, y, z'
loop_
 _atom_site_type_symbol
 _atom_site_label
 _atom_site_symmetry_multiplicity
 _atom_site_fract_x
 _atom_site_fract_y
 _atom_site_fract_z
 _atom_site_occupancy
  Tm  Tm0  1  0.711448  0.711448  0.288552  1
  Tm  Tm1  1  0.288552  0.711448  0.288552  1
  Tm  Tm2  1  0.711448  0.288552  0.288552  1
  Tm  Tm3  1  0.288552  0.288552  0.711448  1
  Tm  Tm4  1  0.711448  0.288552  0.711448  1
  Tm  Tm5  1  0.288552  0.711448  0.711448  1
  Al  Al6  1  0.876870  0.876870  0.369390  1
  Al  Al7  1  0.876870  0.369390  0.876870  1
  Al  Al8  1  0.369390  0.876870  0.876870  1
  Al  Al9  1  0.876870  0.876870  0.876870  1
  Al  Al10  1  0.123130  0.123130  0.630610  1
  Al  Al11  1  0.123130  0.630610  0.123130  1
  Al  Al12  1  0.630610  0.123130  0.123130  1
  Al  Al13  1  0.123130  0.123130  0.123130  1
  Al  Al14  1  0.666412  0.666412  0.000765  1
  Al  Al15  1  0.666412  0.000765  0.666412  1
  Al  Al16  1  0.000765  0.666412  0.666412  1
  Al  Al17  1  0.666412  0.666412  0.666412  1
  Al  Al18  1  0.333588  0.333588  0.999235  1
  Al  Al19  1  0.333588  0.999235  0.333588  1
  Al  Al20  1  0.999235  0.333588  0.333588  1
  Al  Al21  1  0.333588  0.333588  0.333588  1
  Os  Os22  1  0.000000  0.000000  0.500000  1
  Os  Os23  1  0.500000  0.000000  0.500000  1
  Os  Os24  1  0.000000  0.500000  0.500000  1
  Os  Os25  1  0.500000  0.500000  0.000000  1
  Os  Os26  1  0.000000  0.500000  0.000000  1
  Os  Os27  1  0.500000  0.000000  0.000000  1
  Pt  Pt28  1  0.000000  0.000000  0.000000  1
