# generated using pymatgen
data_Er4Ga18CoNiRh4
_symmetry_space_group_name_H-M   'P 1'
_cell_length_a   7.51676901
_cell_length_b   7.51676798
_cell_length_c   9.42638423
_cell_angle_alpha   90.05971628
_cell_angle_beta   90.05971740
_cell_angle_gamma   120.33404941
_symmetry_Int_Tables_number   1
_chemical_formula_structural   Er4Ga18CoNiRh4
_chemical_formula_sum   'Er4 Ga18 Co1 Ni1 Rh4'
_cell_volume   459.69038764
_cell_formula_units_Z   1
loop_
 _symmetry_equiv_pos_site_id
 _symmetry_equiv_pos_as_xyz
  1  'x, y, z'
loop_
 _atom_site_type_symbol
 _atom_site_label
 _atom_site_symmetry_multiplicity
 _atom_site_fract_x
 _atom_site_fract_y
 _atom_site_fract_z
 _atom_site_occupancy
  Er  Er0  1  0.996469  0.658865  0.250501  1
  Er  Er1  1  0.003531  0.341135  0.749499  1
  Er  Er2  1  0.658865  0.996469  0.250501  1
  Er  Er3  1  0.341135  0.003531  0.749499  1
  Ga  Ga4  1  0.107396  0.107396  0.251336  1
  Ga  Ga5  1  0.892604  0.892604  0.748664  1
  Ga  Ga6  1  0.998978  0.326125  0.078403  1
  Ga  Ga7  1  0.001022  0.673875  0.921597  1
  Ga  Ga8  1  0.000929  0.675617  0.577313  1
  Ga  Ga9  1  0.324383  0.999071  0.422687  1
  Ga  Ga10  1  0.999071  0.324383  0.422687  1
  Ga  Ga11  1  0.675617  0.000929  0.577313  1
  Ga  Ga12  1  0.673875  0.001022  0.921597  1
  Ga  Ga13  1  0.326125  0.998978  0.078403  1
  Ga  Ga14  1  0.324691  0.324691  0.563542  1
  Ga  Ga15  1  0.675309  0.675309  0.436458  1
  Ga  Ga16  1  0.672780  0.672780  0.064484  1
  Ga  Ga17  1  0.327220  0.327220  0.935516  1
  Ga  Ga18  1  0.337278  0.541491  0.250104  1
  Ga  Ga19  1  0.662722  0.458509  0.749896  1
  Ga  Ga20  1  0.541491  0.337278  0.250104  1
  Ga  Ga21  1  0.458509  0.662722  0.749896  1
  Co  Co22  1  0.000000  0.000000  0.500000  1
  Ni  Ni23  1  0.000000  0.000000  0.000000  1
  Rh  Rh24  1  0.671710  0.328290  0.000000  1
  Rh  Rh25  1  0.328290  0.671710  0.000000  1
  Rh  Rh26  1  0.328090  0.671910  0.500000  1
  Rh  Rh27  1  0.671910  0.328090  0.500000  1
