# generated using pymatgen
data_Tb8Tm12Si15Sn
_symmetry_space_group_name_H-M   'P 1'
_cell_length_a   7.35984359
_cell_length_b   7.68017996
_cell_length_c   14.53902796
_cell_angle_alpha   90.07529983
_cell_angle_beta   89.36524030
_cell_angle_gamma   90.05608675
_symmetry_Int_Tables_number   1
_chemical_formula_structural   Tb8Tm12Si15Sn
_chemical_formula_sum   'Tb8 Tm12 Si15 Sn1'
_cell_volume   821.76591408
_cell_formula_units_Z   1
loop_
 _symmetry_equiv_pos_site_id
 _symmetry_equiv_pos_as_xyz
  1  'x, y, z'
loop_
 _atom_site_type_symbol
 _atom_site_label
 _atom_site_symmetry_multiplicity
 _atom_site_fract_x
 _atom_site_fract_y
 _atom_site_fract_z
 _atom_site_occupancy
  Tb  Tb0  1  0.015754  0.178775  0.097630  1
  Tb  Tb1  1  0.983876  0.821545  0.903132  1
  Tb  Tb2  1  0.484742  0.679452  0.902931  1
  Tb  Tb3  1  0.985579  0.826730  0.599505  1
  Tb  Tb4  1  0.515474  0.320383  0.098057  1
  Tb  Tb5  1  0.009712  0.172557  0.398724  1
  Tb  Tb6  1  0.515510  0.318394  0.399499  1
  Tb  Tb7  1  0.497470  0.686243  0.600838  1
  Tm  Tm8  1  0.163212  0.508798  0.754029  1
  Tm  Tm9  1  0.835823  0.490045  0.249635  1
  Tm  Tm10  1  0.336921  0.010275  0.249375  1
  Tm  Tm11  1  0.665510  0.989903  0.751746  1
  Tm  Tm12  1  0.339865  0.163788  0.628716  1
  Tm  Tm13  1  0.665545  0.823844  0.374977  1
  Tm  Tm14  1  0.164081  0.685813  0.370903  1
  Tm  Tm15  1  0.670653  0.821263  0.122395  1
  Tm  Tm16  1  0.822909  0.323097  0.624411  1
  Tm  Tm17  1  0.328342  0.177181  0.877314  1
  Tm  Tm18  1  0.827941  0.321799  0.877227  1
  Tm  Tm19  1  0.171597  0.678322  0.123274  1
  Si  Si20  1  0.035139  0.111950  0.751158  1
  Si  Si21  1  0.962573  0.893032  0.247160  1
  Si  Si22  1  0.464484  0.608469  0.248656  1
  Si  Si23  1  0.533657  0.392166  0.752156  1
  Si  Si24  1  0.282515  0.868510  0.752373  1
  Si  Si25  1  0.717733  0.128237  0.247862  1
  Si  Si26  1  0.217435  0.371549  0.249117  1
  Si  Si27  1  0.784154  0.629666  0.751400  1
  Si  Si28  1  0.829409  0.535852  0.459284  1
  Si  Si29  1  0.336458  0.967726  0.460281  1
  Si  Si30  1  0.843996  0.531929  0.038890  1
  Si  Si31  1  0.664158  0.033488  0.538156  1
  Si  Si32  1  0.155403  0.467240  0.962060  1
  Si  Si33  1  0.655928  0.032471  0.961321  1
  Si  Si34  1  0.342901  0.968245  0.039333  1
  Sn  Sn35  1  0.173543  0.461261  0.536479  1
