# generated using pymatgen
data_CeMoH9
_symmetry_space_group_name_H-M   'P 1'
_cell_length_a   4.83684800
_cell_length_b   4.83684866
_cell_length_c   8.92897200
_cell_angle_alpha   90.00000000
_cell_angle_beta   90.00000000
_cell_angle_gamma   119.99999551
_symmetry_Int_Tables_number   1
_chemical_formula_structural   CeMoH9
_chemical_formula_sum   'Ce2 Mo2 H18'
_cell_volume   180.90769941
_cell_formula_units_Z   2
loop_
 _symmetry_equiv_pos_site_id
 _symmetry_equiv_pos_as_xyz
  1  'x, y, z'
loop_
 _atom_site_type_symbol
 _atom_site_label
 _atom_site_symmetry_multiplicity
 _atom_site_fract_x
 _atom_site_fract_y
 _atom_site_fract_z
 _atom_site_occupancy
  Ce  Ce0  1  0.000000  0.000000  0.000000  1
  Ce  Ce1  1  0.000000  0.000000  0.500000  1
  Mo  Mo2  1  0.333333  0.666667  0.250000  1
  Mo  Mo3  1  0.666667  0.333333  0.750000  1
  H  H4  1  0.481144  0.518856  0.391581  1
  H  H5  1  0.481144  0.962288  0.391581  1
  H  H6  1  0.037712  0.518856  0.391581  1
  H  H7  1  0.962288  0.481144  0.891581  1
  H  H8  1  0.128944  0.257889  0.250000  1
  H  H9  1  0.871056  0.128944  0.750000  1
  H  H10  1  0.257889  0.128944  0.750000  1
  H  H11  1  0.742111  0.871056  0.250000  1
  H  H12  1  0.128944  0.871056  0.250000  1
  H  H13  1  0.871056  0.742111  0.750000  1
  H  H14  1  0.481144  0.962288  0.108419  1
  H  H15  1  0.518856  0.481144  0.608419  1
  H  H16  1  0.962288  0.481144  0.608419  1
  H  H17  1  0.037712  0.518856  0.108419  1
  H  H18  1  0.481144  0.518856  0.108419  1
  H  H19  1  0.518856  0.037712  0.891581  1
  H  H20  1  0.518856  0.481144  0.891581  1
  H  H21  1  0.518856  0.037712  0.608419  1
