# generated using pymatgen
data_TbYSi3Ni
_symmetry_space_group_name_H-M   'P 1'
_cell_length_a   4.07478200
_cell_length_b   7.94915514
_cell_length_c   7.94347050
_cell_angle_alpha   120.06444193
_cell_angle_beta   90.00000000
_cell_angle_gamma   90.00000000
_symmetry_Int_Tables_number   1
_chemical_formula_structural   TbYSi3Ni
_chemical_formula_sum   'Tb2 Y2 Si6 Ni2'
_cell_volume   222.68137329
_cell_formula_units_Z   2
loop_
 _symmetry_equiv_pos_site_id
 _symmetry_equiv_pos_as_xyz
  1  'x, y, z'
loop_
 _atom_site_type_symbol
 _atom_site_label
 _atom_site_symmetry_multiplicity
 _atom_site_fract_x
 _atom_site_fract_y
 _atom_site_fract_z
 _atom_site_occupancy
  Tb  Tb0  1  0.500000  0.999995  0.000013  1
  Tb  Tb1  1  0.500000  0.499968  0.999964  1
  Y  Y2  1  0.500000  0.999986  0.499974  1
  Y  Y3  1  0.500000  0.500023  0.499990  1
  Si  Si4  1  0.000000  0.829329  0.170905  1
  Si  Si5  1  0.000000  0.828752  0.657777  1
  Si  Si6  1  0.000000  0.342069  0.171287  1
  Si  Si7  1  0.000000  0.170646  0.829093  1
  Si  Si8  1  0.000000  0.657920  0.828705  1
  Si  Si9  1  0.000000  0.171261  0.342255  1
  Ni  Ni10  1  0.000000  0.667057  0.333026  1
  Ni  Ni11  1  0.000000  0.333096  0.667112  1
