# generated using pymatgen
data_Ho5Tm(Si3Ru2)2
_symmetry_space_group_name_H-M   'P 1'
_cell_length_a   5.72767067
_cell_length_b   5.72767081
_cell_length_c   13.72154118
_cell_angle_alpha   90.08322641
_cell_angle_beta   89.91677300
_cell_angle_gamma   137.36815928
_symmetry_Int_Tables_number   1
_chemical_formula_structural   Ho5Tm(Si3Ru2)2
_chemical_formula_sum   'Ho5 Tm1 Si6 Ru4'
_cell_volume   304.88065501
_cell_formula_units_Z   1
loop_
 _symmetry_equiv_pos_site_id
 _symmetry_equiv_pos_as_xyz
  1  'x, y, z'
loop_
 _atom_site_type_symbol
 _atom_site_label
 _atom_site_symmetry_multiplicity
 _atom_site_fract_x
 _atom_site_fract_y
 _atom_site_fract_z
 _atom_site_occupancy
  Ho  Ho0  1  0.924043  0.075957  0.385435  1
  Ho  Ho1  1  0.075724  0.924276  0.614928  1
  Ho  Ho2  1  0.924276  0.075724  0.114175  1
  Ho  Ho3  1  0.642560  0.357440  0.249635  1
  Ho  Ho4  1  0.357434  0.642566  0.750375  1
  Tm  Tm5  1  0.076664  0.923336  0.886123  1
  Si  Si6  1  0.617467  0.382533  0.461659  1
  Si  Si7  1  0.382328  0.617672  0.538502  1
  Si  Si8  1  0.617170  0.382830  0.037675  1
  Si  Si9  1  0.383396  0.616604  0.961592  1
  Si  Si10  1  0.329540  0.670460  0.249716  1
  Si  Si11  1  0.669545  0.330455  0.750800  1
  Ru  Ru12  1  0.787296  0.212704  0.918297  1
  Ru  Ru13  1  0.212909  0.787091  0.080861  1
  Ru  Ru14  1  0.786358  0.213642  0.581676  1
  Ru  Ru15  1  0.213291  0.786709  0.418550  1
