# generated using pymatgen
data_MnTl2FeF7
_symmetry_space_group_name_H-M   'P 1'
_cell_length_a   8.11903133
_cell_length_b   8.11903090
_cell_length_c   8.11903100
_cell_angle_alpha   120.43244021
_cell_angle_beta   115.90300147
_cell_angle_gamma   93.24633943
_symmetry_Int_Tables_number   1
_chemical_formula_structural   MnTl2FeF7
_chemical_formula_sum   'Mn2 Tl4 Fe2 F14'
_cell_volume   387.53882583
_cell_formula_units_Z   2
loop_
 _symmetry_equiv_pos_site_id
 _symmetry_equiv_pos_as_xyz
  1  'x, y, z'
loop_
 _atom_site_type_symbol
 _atom_site_label
 _atom_site_symmetry_multiplicity
 _atom_site_fract_x
 _atom_site_fract_y
 _atom_site_fract_z
 _atom_site_occupancy
  Mn  Mn0  1  0.500000  0.500000  0.500000  1
  Mn  Mn1  1  0.500000  0.000000  0.000000  1
  Tl  Tl2  1  0.500000  0.500000  0.000000  1
  Tl  Tl3  1  0.000000  0.000000  0.000000  1
  Tl  Tl4  1  0.000000  0.500000  0.000000  1
  Tl  Tl5  1  0.000000  0.000000  0.500000  1
  Fe  Fe6  1  0.000000  0.500000  0.500000  1
  Fe  Fe7  1  0.500000  0.000000  0.500000  1
  F  F8  1  0.883754  0.583013  0.300740  1
  F  F9  1  0.217726  0.916987  0.300740  1
  F  F10  1  0.187698  0.788547  0.752174  1
  F  F11  1  0.463627  0.711453  0.399149  1
  F  F12  1  0.463627  0.064479  0.752174  1
  F  F13  1  0.187698  0.435521  0.399149  1
  F  F14  1  0.812302  0.564479  0.600851  1
  F  F15  1  0.536373  0.935521  0.247826  1
  F  F16  1  0.536373  0.288547  0.600851  1
  F  F17  1  0.812302  0.211453  0.247826  1
  F  F18  1  0.405391  0.250000  0.155391  1
  F  F19  1  0.116246  0.416987  0.699260  1
  F  F20  1  0.782274  0.083013  0.699260  1
  F  F21  1  0.594609  0.750000  0.844609  1
