# generated using pymatgen
data_Tb5Ce3(TcB6)4
_symmetry_space_group_name_H-M   'P 1'
_cell_length_a   3.74000800
_cell_length_b   9.20560467
_cell_length_c   11.58558837
_cell_angle_alpha   90.08732930
_cell_angle_beta   90.00000000
_cell_angle_gamma   90.00000000
_symmetry_Int_Tables_number   1
_chemical_formula_structural   Tb5Ce3(TcB6)4
_chemical_formula_sum   'Tb5 Ce3 Tc4 B24'
_cell_volume   398.88016539
_cell_formula_units_Z   1
loop_
 _symmetry_equiv_pos_site_id
 _symmetry_equiv_pos_as_xyz
  1  'x, y, z'
loop_
 _atom_site_type_symbol
 _atom_site_label
 _atom_site_symmetry_multiplicity
 _atom_site_fract_x
 _atom_site_fract_y
 _atom_site_fract_z
 _atom_site_occupancy
  Tb  Tb0  1  0.000000  0.176936  0.914053  1
  Tb  Tb1  1  0.000000  0.943803  0.371869  1
  Tb  Tb2  1  0.000000  0.056815  0.629036  1
  Tb  Tb3  1  0.000000  0.442332  0.128712  1
  Tb  Tb4  1  0.000000  0.556556  0.870971  1
  Ce  Ce5  1  0.000000  0.322196  0.414523  1
  Ce  Ce6  1  0.000000  0.677397  0.586224  1
  Ce  Ce7  1  0.000000  0.824135  0.085403  1
  Tc  Tc8  1  0.000000  0.638152  0.321033  1
  Tc  Tc9  1  0.000000  0.363124  0.677697  1
  Tc  Tc10  1  0.000000  0.138185  0.179718  1
  Tc  Tc11  1  0.000000  0.861135  0.820998  1
  B  B12  1  0.500000  0.554421  0.431679  1
  B  B13  1  0.500000  0.445679  0.568148  1
  B  B14  1  0.500000  0.054127  0.067602  1
  B  B15  1  0.500000  0.946004  0.932281  1
  B  B16  1  0.500000  0.747949  0.418203  1
  B  B17  1  0.500000  0.251704  0.582103  1
  B  B18  1  0.500000  0.247794  0.081162  1
  B  B19  1  0.500000  0.752447  0.918242  1
  B  B20  1  0.500000  0.790524  0.265797  1
  B  B21  1  0.500000  0.208927  0.734506  1
  B  B22  1  0.500000  0.290381  0.233619  1
  B  B23  1  0.500000  0.709566  0.765964  1
  B  B24  1  0.500000  0.631361  0.185824  1
  B  B25  1  0.500000  0.368317  0.814355  1
  B  B26  1  0.500000  0.131683  0.313939  1
  B  B27  1  0.500000  0.868796  0.686320  1
  B  B28  1  0.500000  0.984216  0.211917  1
  B  B29  1  0.500000  0.016904  0.787854  1
  B  B30  1  0.500000  0.483946  0.287481  1
  B  B31  1  0.500000  0.515870  0.712676  1
  B  B32  1  0.500000  0.604544  0.029072  1
  B  B33  1  0.500000  0.393988  0.970353  1
  B  B34  1  0.500000  0.107538  0.470485  1
  B  B35  1  0.500000  0.892548  0.530183  1
