# generated using pymatgen
data_Tb6Sc4Sn5Bi
_symmetry_space_group_name_H-M   'P 1'
_cell_length_a   8.86133900
_cell_length_b   8.85560136
_cell_length_c   6.29642500
_cell_angle_alpha   90.00000000
_cell_angle_beta   90.00000000
_cell_angle_gamma   120.02143131
_symmetry_Int_Tables_number   1
_chemical_formula_structural   Tb6Sc4Sn5Bi
_chemical_formula_sum   'Tb6 Sc4 Sn5 Bi1'
_cell_volume   427.80735490
_cell_formula_units_Z   1
loop_
 _symmetry_equiv_pos_site_id
 _symmetry_equiv_pos_as_xyz
  1  'x, y, z'
loop_
 _atom_site_type_symbol
 _atom_site_label
 _atom_site_symmetry_multiplicity
 _atom_site_fract_x
 _atom_site_fract_y
 _atom_site_fract_z
 _atom_site_occupancy
  Tb  Tb0  1  0.763140  0.000000  0.750000  1
  Tb  Tb1  1  0.759958  0.759528  0.250000  1
  Tb  Tb2  1  0.239128  0.000000  0.250000  1
  Tb  Tb3  1  0.238663  0.243451  0.750000  1
  Tb  Tb4  1  0.995212  0.756549  0.750000  1
  Tb  Tb5  1  0.000431  0.240472  0.250000  1
  Sc  Sc6  1  0.332512  0.663429  0.497917  1
  Sc  Sc7  1  0.669084  0.336571  0.002083  1
  Sc  Sc8  1  0.669084  0.336571  0.497917  1
  Sc  Sc9  1  0.332512  0.663429  0.002083  1
  Sn  Sn10  1  0.400971  0.400279  0.250000  1
  Sn  Sn11  1  0.000692  0.599721  0.250000  1
  Sn  Sn12  1  0.999703  0.401033  0.750000  1
  Sn  Sn13  1  0.598670  0.598967  0.750000  1
  Sn  Sn14  1  0.600301  0.000000  0.250000  1
  Bi  Bi15  1  0.399937  0.000000  0.750000  1
