# generated using pymatgen
data_SrNd2Zn11
_symmetry_space_group_name_H-M   'P 1'
_cell_length_a   4.54533988
_cell_length_b   8.38322257
_cell_length_c   8.38322207
_cell_angle_alpha   64.44517341
_cell_angle_beta   74.27041702
_cell_angle_gamma   74.27041939
_symmetry_Int_Tables_number   1
_chemical_formula_structural   SrNd2Zn11
_chemical_formula_sum   'Sr1 Nd2 Zn11'
_cell_volume   272.99167507
_cell_formula_units_Z   1
loop_
 _symmetry_equiv_pos_site_id
 _symmetry_equiv_pos_as_xyz
  1  'x, y, z'
loop_
 _atom_site_type_symbol
 _atom_site_label
 _atom_site_symmetry_multiplicity
 _atom_site_fract_x
 _atom_site_fract_y
 _atom_site_fract_z
 _atom_site_occupancy
  Sr  Sr0  1  0.000000  0.000000  0.000000  1
  Nd  Nd1  1  0.697190  0.302810  0.302810  1
  Nd  Nd2  1  0.302810  0.697190  0.697190  1
  Zn  Zn3  1  0.664439  0.691927  0.979195  1
  Zn  Zn4  1  0.335561  0.308073  0.020805  1
  Zn  Zn5  1  0.664439  0.979195  0.691927  1
  Zn  Zn6  1  0.335561  0.020805  0.308073  1
  Zn  Zn7  1  0.500000  0.684988  0.315012  1
  Zn  Zn8  1  0.500000  0.315012  0.684988  1
  Zn  Zn9  1  0.861630  0.422669  0.854070  1
  Zn  Zn10  1  0.138370  0.577331  0.145930  1
  Zn  Zn11  1  0.861630  0.854070  0.422669  1
  Zn  Zn12  1  0.138370  0.145930  0.577331  1
  Zn  Zn13  1  0.000000  0.500000  0.500000  1
