# generated using pymatgen
data_La8Yb11PrSn16
_symmetry_space_group_name_H-M   'P 1'
_cell_length_a   8.05603167
_cell_length_b   8.58474068
_cell_length_c   16.18953496
_cell_angle_alpha   90.00122502
_cell_angle_beta   90.01136171
_cell_angle_gamma   90.06892094
_symmetry_Int_Tables_number   1
_chemical_formula_structural   La8Yb11PrSn16
_chemical_formula_sum   'La8 Yb11 Pr1 Sn16'
_cell_volume   1119.65029028
_cell_formula_units_Z   1
loop_
 _symmetry_equiv_pos_site_id
 _symmetry_equiv_pos_as_xyz
  1  'x, y, z'
loop_
 _atom_site_type_symbol
 _atom_site_label
 _atom_site_symmetry_multiplicity
 _atom_site_fract_x
 _atom_site_fract_y
 _atom_site_fract_z
 _atom_site_occupancy
  La  La0  1  0.831090  0.674484  0.875307  1
  La  La1  1  0.489196  0.313295  0.905299  1
  La  La2  1  0.990282  0.185047  0.595122  1
  La  La3  1  0.509796  0.685412  0.403799  1
  La  La4  1  0.011826  0.815985  0.098155  1
  La  La5  1  0.509619  0.684316  0.097555  1
  La  La6  1  0.009585  0.814916  0.403221  1
  La  La7  1  0.489155  0.314931  0.593714  1
  Yb  Yb8  1  0.328537  0.827502  0.877419  1
  Yb  Yb9  1  0.829071  0.671549  0.622503  1
  Yb  Yb10  1  0.671212  0.172007  0.376383  1
  Yb  Yb11  1  0.173189  0.327642  0.124763  1
  Yb  Yb12  1  0.669750  0.172370  0.124646  1
  Yb  Yb13  1  0.171237  0.328414  0.376356  1
  Yb  Yb14  1  0.328050  0.828075  0.622557  1
  Yb  Yb15  1  0.156947  0.500396  0.748911  1
  Yb  Yb16  1  0.655359  0.997515  0.748023  1
  Yb  Yb17  1  0.843998  0.496194  0.250543  1
  Yb  Yb18  1  0.342770  0.004810  0.250652  1
  Pr  Pr19  1  0.990352  0.183399  0.903423  1
  Sn  Sn20  1  0.331070  0.036381  0.039403  1
  Sn  Sn21  1  0.833343  0.465076  0.460252  1
  Sn  Sn22  1  0.667144  0.964495  0.538880  1
  Sn  Sn23  1  0.168213  0.532006  0.961080  1
  Sn  Sn24  1  0.666928  0.966176  0.961697  1
  Sn  Sn25  1  0.165708  0.534760  0.539177  1
  Sn  Sn26  1  0.332350  0.035624  0.460700  1
  Sn  Sn27  1  0.834012  0.462879  0.040850  1
  Sn  Sn28  1  0.527322  0.604094  0.749246  1
  Sn  Sn29  1  0.030925  0.898180  0.749432  1
  Sn  Sn30  1  0.471508  0.396426  0.250997  1
  Sn  Sn31  1  0.971053  0.104660  0.250198  1
  Sn  Sn32  1  0.284048  0.140477  0.749863  1
  Sn  Sn33  1  0.781146  0.359086  0.750095  1
  Sn  Sn34  1  0.716011  0.861136  0.249591  1
  Sn  Sn35  1  0.218199  0.640282  0.250185  1
