# generated using pymatgen
data_Li4Pr3NdPd4
_symmetry_space_group_name_H-M   'P 1'
_cell_length_a   4.12248000
_cell_length_b   7.38105254
_cell_length_c   8.69624959
_cell_angle_alpha   89.90743446
_cell_angle_beta   90.00000000
_cell_angle_gamma   90.00000000
_symmetry_Int_Tables_number   1
_chemical_formula_structural   Li4Pr3NdPd4
_chemical_formula_sum   'Li4 Pr3 Nd1 Pd4'
_cell_volume   264.61123717
_cell_formula_units_Z   1
loop_
 _symmetry_equiv_pos_site_id
 _symmetry_equiv_pos_as_xyz
  1  'x, y, z'
loop_
 _atom_site_type_symbol
 _atom_site_label
 _atom_site_symmetry_multiplicity
 _atom_site_fract_x
 _atom_site_fract_y
 _atom_site_fract_z
 _atom_site_occupancy
  Li  Li0  1  0.250000  0.128661  0.054721  1
  Li  Li1  1  0.250000  0.627211  0.444833  1
  Li  Li2  1  0.750000  0.871194  0.946073  1
  Li  Li3  1  0.750000  0.372792  0.553716  1
  Pr  Pr4  1  0.250000  0.048756  0.686810  1
  Pr  Pr5  1  0.250000  0.548169  0.813604  1
  Pr  Pr6  1  0.750000  0.951879  0.312714  1
  Nd  Nd7  1  0.750000  0.451363  0.186506  1
  Pd  Pd8  1  0.250000  0.247638  0.379717  1
  Pd  Pd9  1  0.250000  0.743929  0.120014  1
  Pd  Pd10  1  0.750000  0.754360  0.619023  1
  Pd  Pd11  1  0.750000  0.254048  0.882269  1
