# generated using pymatgen
data_Lu3In3Cu2Ru
_symmetry_space_group_name_H-M   'P 1'
_cell_length_a   7.66588300
_cell_length_b   7.66588325
_cell_length_c   3.63663500
_cell_angle_alpha   90.00000000
_cell_angle_beta   90.00000000
_cell_angle_gamma   119.99999460
_symmetry_Int_Tables_number   1
_chemical_formula_structural   Lu3In3Cu2Ru
_chemical_formula_sum   'Lu3 In3 Cu2 Ru1'
_cell_volume   185.07798261
_cell_formula_units_Z   1
loop_
 _symmetry_equiv_pos_site_id
 _symmetry_equiv_pos_as_xyz
  1  'x, y, z'
loop_
 _atom_site_type_symbol
 _atom_site_label
 _atom_site_symmetry_multiplicity
 _atom_site_fract_x
 _atom_site_fract_y
 _atom_site_fract_z
 _atom_site_occupancy
  Lu  Lu0  1  0.582893  0.980160  0.000000  1
  Lu  Lu1  1  0.019840  0.602733  0.000000  1
  Lu  Lu2  1  0.397267  0.417107  0.000000  1
  In  In3  1  0.264204  0.004782  0.500000  1
  In  In4  1  0.995218  0.259422  0.500000  1
  In  In5  1  0.740578  0.735796  0.500000  1
  Cu  Cu6  1  0.666667  0.333333  0.500000  1
  Cu  Cu7  1  0.000000  0.000000  0.000000  1
  Ru  Ru8  1  0.333333  0.666667  0.500000  1
