# generated using pymatgen
data_HoNi3P2
_symmetry_space_group_name_H-M   'P 1'
_cell_length_a   3.75277200
_cell_length_b   10.43055600
_cell_length_c   12.28285000
_cell_angle_alpha   90.00000000
_cell_angle_beta   90.00000000
_cell_angle_gamma   90.00000000
_symmetry_Int_Tables_number   1
_chemical_formula_structural   HoNi3P2
_chemical_formula_sum   'Ho6 Ni18 P12'
_cell_volume   480.79372057
_cell_formula_units_Z   6
loop_
 _symmetry_equiv_pos_site_id
 _symmetry_equiv_pos_as_xyz
  1  'x, y, z'
loop_
 _atom_site_type_symbol
 _atom_site_label
 _atom_site_symmetry_multiplicity
 _atom_site_fract_x
 _atom_site_fract_y
 _atom_site_fract_z
 _atom_site_occupancy
  Ho  Ho0  1  0.752095  0.000000  0.478798  1
  Ho  Ho1  1  0.252095  0.500000  0.521202  1
  Ho  Ho2  1  0.251762  0.683367  0.794218  1
  Ho  Ho3  1  0.251762  0.316633  0.794218  1
  Ho  Ho4  1  0.751762  0.816633  0.205782  1
  Ho  Ho5  1  0.751762  0.183367  0.205782  1
  Ni  Ni6  1  0.751217  0.000000  0.016368  1
  Ni  Ni7  1  0.251217  0.500000  0.983632  1
  Ni  Ni8  1  0.252366  0.199090  0.570923  1
  Ni  Ni9  1  0.252366  0.800910  0.570923  1
  Ni  Ni10  1  0.752366  0.300910  0.429077  1
  Ni  Ni11  1  0.752366  0.699090  0.429077  1
  Ni  Ni12  1  0.252134  0.620791  0.288941  1
  Ni  Ni13  1  0.252134  0.379209  0.288941  1
  Ni  Ni14  1  0.752134  0.879209  0.711059  1
  Ni  Ni15  1  0.752134  0.120791  0.711059  1
  Ni  Ni16  1  0.251123  0.167342  0.004113  1
  Ni  Ni17  1  0.251123  0.832658  0.004113  1
  Ni  Ni18  1  0.751123  0.332658  0.995887  1
  Ni  Ni19  1  0.751123  0.667342  0.995887  1
  Ni  Ni20  1  0.252184  0.000000  0.841585  1
  Ni  Ni21  1  0.752184  0.500000  0.158415  1
  Ni  Ni22  1  0.251561  0.000000  0.300335  1
  Ni  Ni23  1  0.751561  0.500000  0.699665  1
  P  P24  1  0.252128  0.186507  0.385541  1
  P  P25  1  0.252128  0.813493  0.385541  1
  P  P26  1  0.752128  0.313493  0.614459  1
  P  P27  1  0.752128  0.686507  0.614459  1
  P  P28  1  0.251472  0.000000  0.123857  1
  P  P29  1  0.751472  0.500000  0.876143  1
  P  P30  1  0.251575  0.652046  0.107657  1
  P  P31  1  0.251575  0.347954  0.107657  1
  P  P32  1  0.751575  0.847954  0.892343  1
  P  P33  1  0.751575  0.152046  0.892343  1
  P  P34  1  0.252099  0.000000  0.655788  1
  P  P35  1  0.752099  0.500000  0.344212  1
