# generated using pymatgen
data_ThZnPRu2
_symmetry_space_group_name_H-M   'P 1'
_cell_length_a   4.05586400
_cell_length_b   4.05586400
_cell_length_c   10.60047000
_cell_angle_alpha   90.00000000
_cell_angle_beta   90.00000000
_cell_angle_gamma   90.00000000
_symmetry_Int_Tables_number   1
_chemical_formula_structural   ThZnPRu2
_chemical_formula_sum   'Th2 Zn2 P2 Ru4'
_cell_volume   174.37807905
_cell_formula_units_Z   2
loop_
 _symmetry_equiv_pos_site_id
 _symmetry_equiv_pos_as_xyz
  1  'x, y, z'
loop_
 _atom_site_type_symbol
 _atom_site_label
 _atom_site_symmetry_multiplicity
 _atom_site_fract_x
 _atom_site_fract_y
 _atom_site_fract_z
 _atom_site_occupancy
  Th  Th0  1  0.000000  0.500000  0.748074  1
  Th  Th1  1  0.500000  0.000000  0.251926  1
  Zn  Zn2  1  0.000000  0.000000  0.500000  1
  Zn  Zn3  1  0.500000  0.500000  0.500000  1
  P  P4  1  0.500000  0.000000  0.886135  1
  P  P5  1  0.000000  0.500000  0.113865  1
  Ru  Ru6  1  0.000000  0.500000  0.334965  1
  Ru  Ru7  1  0.500000  0.000000  0.665035  1
  Ru  Ru8  1  0.500000  0.500000  0.000000  1
  Ru  Ru9  1  0.000000  0.000000  0.000000  1
