# generated using pymatgen
data_ThCr4Tc7Os
_symmetry_space_group_name_H-M   'P 1'
_cell_length_a   6.84864593
_cell_length_b   6.85664198
_cell_length_c   6.84864465
_cell_angle_alpha   96.98156012
_cell_angle_beta   96.75539036
_cell_angle_gamma   139.44571550
_symmetry_Int_Tables_number   1
_chemical_formula_structural   ThCr4Tc7Os
_chemical_formula_sum   'Th1 Cr4 Tc7 Os1'
_cell_volume   196.25203811
_cell_formula_units_Z   1
loop_
 _symmetry_equiv_pos_site_id
 _symmetry_equiv_pos_as_xyz
  1  'x, y, z'
loop_
 _atom_site_type_symbol
 _atom_site_label
 _atom_site_symmetry_multiplicity
 _atom_site_fract_x
 _atom_site_fract_y
 _atom_site_fract_z
 _atom_site_occupancy
  Th  Th0  1  0.000072  0.999410  0.999338  1
  Cr  Cr1  1  0.999521  0.998749  0.498794  1
  Cr  Cr2  1  0.000438  0.499214  0.999223  1
  Cr  Cr3  1  0.499956  0.998749  0.999228  1
  Cr  Cr4  1  0.499991  0.499214  0.498776  1
  Tc  Tc5  1  0.278633  0.499414  0.778010  1
  Tc  Tc6  1  0.721404  0.499414  0.220781  1
  Tc  Tc7  1  0.499685  0.725204  0.225518  1
  Tc  Tc8  1  0.000288  0.359747  0.359459  1
  Tc  Tc9  1  0.999871  0.643287  0.643416  1
  Tc  Tc10  1  0.642562  0.000247  0.642813  1
  Tc  Tc11  1  0.357434  0.000247  0.357685  1
  Os  Os12  1  0.500145  0.277102  0.776957  1
