# generated using pymatgen
data_Y4LuIrRu
_symmetry_space_group_name_H-M   'P 1'
_cell_length_a   6.42324788
_cell_length_b   7.28840339
_cell_length_c   8.51696747
_cell_angle_alpha   96.78453318
_cell_angle_beta   112.81546269
_cell_angle_gamma   89.92765760
_symmetry_Int_Tables_number   1
_chemical_formula_structural   Y4LuIrRu
_chemical_formula_sum   'Y8 Lu2 Ir2 Ru2'
_cell_volume   364.52088969
_cell_formula_units_Z   2
loop_
 _symmetry_equiv_pos_site_id
 _symmetry_equiv_pos_as_xyz
  1  'x, y, z'
loop_
 _atom_site_type_symbol
 _atom_site_label
 _atom_site_symmetry_multiplicity
 _atom_site_fract_x
 _atom_site_fract_y
 _atom_site_fract_z
 _atom_site_occupancy
  Y  Y0  1  0.525286  0.080552  0.816761  1
  Y  Y1  1  0.474714  0.919448  0.183239  1
  Y  Y2  1  0.711153  0.416015  0.184252  1
  Y  Y3  1  0.288847  0.583985  0.815748  1
  Y  Y4  1  0.291208  0.314720  0.436096  1
  Y  Y5  1  0.708792  0.685280  0.563904  1
  Y  Y6  1  0.859114  0.184528  0.565489  1
  Y  Y7  1  0.140886  0.815472  0.434511  1
  Lu  Lu8  1  0.073145  0.250799  0.999336  1
  Lu  Lu9  1  0.926855  0.749201  0.000664  1
  Ir  Ir10  1  0.318544  0.573725  0.216503  1
  Ir  Ir11  1  0.681456  0.426275  0.783497  1
  Ru  Ru12  1  0.103829  0.925714  0.787281  1
  Ru  Ru13  1  0.896171  0.074286  0.212719  1
