# generated using pymatgen
data_La2Nd2Te7Pd
_symmetry_space_group_name_H-M   'P 1'
_cell_length_a   4.34986674
_cell_length_b   8.90094292
_cell_length_c   9.46177917
_cell_angle_alpha   89.94850703
_cell_angle_beta   90.02787542
_cell_angle_gamma   90.00606980
_symmetry_Int_Tables_number   1
_chemical_formula_structural   La2Nd2Te7Pd
_chemical_formula_sum   'La2 Nd2 Te7 Pd1'
_cell_volume   366.34017373
_cell_formula_units_Z   1
loop_
 _symmetry_equiv_pos_site_id
 _symmetry_equiv_pos_as_xyz
  1  'x, y, z'
loop_
 _atom_site_type_symbol
 _atom_site_label
 _atom_site_symmetry_multiplicity
 _atom_site_fract_x
 _atom_site_fract_y
 _atom_site_fract_z
 _atom_site_occupancy
  La  La0  1  0.003339  0.249670  0.741241  1
  La  La1  1  0.499281  0.497426  0.269855  1
  Nd  Nd2  1  0.000920  0.750316  0.710615  1
  Nd  Nd3  1  0.499449  0.002924  0.268839  1
  Te  Te4  1  0.996948  0.941464  0.001954  1
  Te  Te5  1  0.997224  0.559250  0.998916  1
  Te  Te6  1  0.503655  0.248677  0.002779  1
  Te  Te7  1  0.999713  0.753676  0.368689  1
  Te  Te8  1  0.000040  0.246213  0.373320  1
  Te  Te9  1  0.501517  0.999407  0.628312  1
  Te  Te10  1  0.501576  0.500384  0.629864  1
  Pd  Pd11  1  0.496338  0.750593  0.006541  1
