# generated using pymatgen
data_LuPu2Hf3F22
_symmetry_space_group_name_H-M   'P 1'
_cell_length_a   8.41796551
_cell_length_b   8.41796657
_cell_length_c   8.44329900
_cell_angle_alpha   124.88366245
_cell_angle_beta   106.48857587
_cell_angle_gamma   98.14557590
_symmetry_Int_Tables_number   1
_chemical_formula_structural   LuPu2Hf3F22
_chemical_formula_sum   'Lu1 Pu2 Hf3 F22'
_cell_volume   434.04779008
_cell_formula_units_Z   1
loop_
 _symmetry_equiv_pos_site_id
 _symmetry_equiv_pos_as_xyz
  1  'x, y, z'
loop_
 _atom_site_type_symbol
 _atom_site_label
 _atom_site_symmetry_multiplicity
 _atom_site_fract_x
 _atom_site_fract_y
 _atom_site_fract_z
 _atom_site_occupancy
  Lu  Lu0  1  0.682139  0.635104  0.317244  1
  Pu  Pu1  1  0.748182  0.244414  0.492092  1
  Pu  Pu2  1  0.247679  0.743910  0.492092  1
  Hf  Hf3  1  0.320401  0.364740  0.685142  1
  Hf  Hf4  1  0.178586  0.865325  0.043913  1
  Hf  Hf5  1  0.816142  0.134154  0.950294  1
  F  F6  1  0.708512  0.913035  0.348046  1
  F  F7  1  0.292921  0.100359  0.653336  1
  F  F8  1  0.552976  0.360417  0.653336  1
  F  F9  1  0.946604  0.605433  0.813466  1
  F  F10  1  0.435011  0.639533  0.348046  1
  F  F11  1  0.055799  0.392461  0.186409  1
  F  F12  1  0.793947  0.130609  0.186409  1
  F  F13  1  0.208033  0.866862  0.813466  1
  F  F14  1  0.493378  0.495507  0.988885  1
  F  F15  1  0.002074  0.002131  0.004205  1
  F  F16  1  0.782437  0.878143  0.660581  1
  F  F17  1  0.220532  0.129653  0.350184  1
  F  F18  1  0.277765  0.630600  0.908367  1
  F  F19  1  0.721123  0.363012  0.084135  1
  F  F20  1  0.969175  0.741016  0.424565  1
  F  F21  1  0.048249  0.264646  0.585041  1
  F  F22  1  0.320394  0.536792  0.585041  1
  F  F23  1  0.176268  0.762890  0.213846  1
  F  F24  1  0.683548  0.455389  0.424565  1
  F  F25  1  0.823164  0.242721  0.786726  1
  F  F26  1  0.544005  0.963562  0.786726  1
  F  F27  1  0.450957  0.037579  0.213846  1
