# generated using pymatgen
data_Li4Y2ThSn4
_symmetry_space_group_name_H-M   'P 1'
_cell_length_a   4.66688888
_cell_length_b   7.08757704
_cell_length_c   8.67365713
_cell_angle_alpha   114.11498029
_cell_angle_beta   105.60635219
_cell_angle_gamma   90.00000273
_symmetry_Int_Tables_number   1
_chemical_formula_structural   Li4Y2ThSn4
_chemical_formula_sum   'Li4 Y2 Th1 Sn4'
_cell_volume   250.22635968
_cell_formula_units_Z   1
loop_
 _symmetry_equiv_pos_site_id
 _symmetry_equiv_pos_as_xyz
  1  'x, y, z'
loop_
 _atom_site_type_symbol
 _atom_site_label
 _atom_site_symmetry_multiplicity
 _atom_site_fract_x
 _atom_site_fract_y
 _atom_site_fract_z
 _atom_site_occupancy
  Li  Li0  1  0.326076  0.013290  0.652150  1
  Li  Li1  1  0.672403  0.981268  0.344806  1
  Li  Li2  1  0.326076  0.638860  0.652150  1
  Li  Li3  1  0.672403  0.363538  0.344806  1
  Y  Y4  1  0.129404  0.629404  0.258808  1
  Y  Y5  1  0.001357  0.001357  0.002714  1
  Th  Th6  1  0.871673  0.371673  0.743344  1
  Sn  Sn7  1  0.213072  0.213072  0.426142  1
  Sn  Sn8  1  0.787116  0.787116  0.574234  1
  Sn  Sn9  1  0.500211  0.296820  0.000422  1
  Sn  Sn10  1  0.500211  0.703602  0.000422  1
