# generated using pymatgen
data_Er4ReOs7
_symmetry_space_group_name_H-M   'P 1'
_cell_length_a   5.28874334
_cell_length_b   5.28874332
_cell_length_c   8.80177300
_cell_angle_alpha   90.00000000
_cell_angle_beta   90.00000000
_cell_angle_gamma   118.37106538
_symmetry_Int_Tables_number   1
_chemical_formula_structural   Er4ReOs7
_chemical_formula_sum   'Er4 Re1 Os7'
_cell_volume   216.62215043
_cell_formula_units_Z   1
loop_
 _symmetry_equiv_pos_site_id
 _symmetry_equiv_pos_as_xyz
  1  'x, y, z'
loop_
 _atom_site_type_symbol
 _atom_site_label
 _atom_site_symmetry_multiplicity
 _atom_site_fract_x
 _atom_site_fract_y
 _atom_site_fract_z
 _atom_site_occupancy
  Er  Er0  1  0.330669  0.669331  0.435832  1
  Er  Er1  1  0.666323  0.333677  0.565921  1
  Er  Er2  1  0.666323  0.333677  0.934079  1
  Er  Er3  1  0.330669  0.669331  0.064168  1
  Re  Re4  1  0.833410  0.166590  0.250000  1
  Os  Os5  1  0.993371  0.006629  0.500001  1
  Os  Os6  1  0.993371  0.006629  0.999999  1
  Os  Os7  1  0.827692  0.649541  0.250000  1
  Os  Os8  1  0.350459  0.172308  0.250000  1
  Os  Os9  1  0.175942  0.824058  0.750000  1
  Os  Os10  1  0.172286  0.340515  0.750000  1
  Os  Os11  1  0.659485  0.827714  0.750000  1
