# generated using pymatgen
data_HoTmNi3Ir
_symmetry_space_group_name_H-M   'P 1'
_cell_length_a   5.19811877
_cell_length_b   5.19811722
_cell_length_c   5.19811864
_cell_angle_alpha   57.83389468
_cell_angle_beta   57.83388816
_cell_angle_gamma   57.83389082
_symmetry_Int_Tables_number   1
_chemical_formula_structural   HoTmNi3Ir
_chemical_formula_sum   'Ho1 Tm1 Ni3 Ir1'
_cell_volume   94.37771267
_cell_formula_units_Z   1
loop_
 _symmetry_equiv_pos_site_id
 _symmetry_equiv_pos_as_xyz
  1  'x, y, z'
loop_
 _atom_site_type_symbol
 _atom_site_label
 _atom_site_symmetry_multiplicity
 _atom_site_fract_x
 _atom_site_fract_y
 _atom_site_fract_z
 _atom_site_occupancy
  Ho  Ho0  1  0.248089  0.248089  0.248089  1
  Tm  Tm1  1  0.001951  0.001951  0.001951  1
  Ni  Ni2  1  0.625320  0.625320  0.124166  1
  Ni  Ni3  1  0.625320  0.124166  0.625320  1
  Ni  Ni4  1  0.124166  0.625320  0.625320  1
  Ir  Ir5  1  0.625154  0.625154  0.625154  1
