# generated using pymatgen
data_Cd41Ni8
_symmetry_space_group_name_H-M   'P 1'
_cell_length_a   10.02057047
_cell_length_b   10.02056961
_cell_length_c   10.02057000
_cell_angle_alpha   94.78020638
_cell_angle_beta   94.78020597
_cell_angle_gamma   94.78020476
_symmetry_Int_Tables_number   1
_chemical_formula_structural   Cd41Ni8
_chemical_formula_sum   'Cd41 Ni8'
_cell_volume   995.05878097
_cell_formula_units_Z   1
loop_
 _symmetry_equiv_pos_site_id
 _symmetry_equiv_pos_as_xyz
  1  'x, y, z'
loop_
 _atom_site_type_symbol
 _atom_site_label
 _atom_site_symmetry_multiplicity
 _atom_site_fract_x
 _atom_site_fract_y
 _atom_site_fract_z
 _atom_site_occupancy
  Cd  Cd0  1  0.000000  0.000000  0.000000  1
  Cd  Cd1  1  0.500000  0.500000  0.500000  1
  Cd  Cd2  1  0.000000  0.500000  0.500000  1
  Cd  Cd3  1  0.500000  0.000000  0.500000  1
  Cd  Cd4  1  0.500000  0.500000  0.000000  1
  Cd  Cd5  1  0.779791  0.452831  0.068893  1
  Cd  Cd6  1  0.068893  0.779791  0.452831  1
  Cd  Cd7  1  0.452831  0.068893  0.779791  1
  Cd  Cd8  1  0.220209  0.547169  0.931107  1
  Cd  Cd9  1  0.931107  0.220209  0.547169  1
  Cd  Cd10  1  0.547169  0.931107  0.220209  1
  Cd  Cd11  1  0.735029  0.043995  0.873407  1
  Cd  Cd12  1  0.873407  0.735029  0.043995  1
  Cd  Cd13  1  0.043995  0.873407  0.735029  1
  Cd  Cd14  1  0.264971  0.956005  0.126593  1
  Cd  Cd15  1  0.126593  0.264971  0.956005  1
  Cd  Cd16  1  0.956005  0.126593  0.264971  1
  Cd  Cd17  1  0.687074  0.176364  0.126335  1
  Cd  Cd18  1  0.126335  0.687074  0.176364  1
  Cd  Cd19  1  0.176364  0.126335  0.687074  1
  Cd  Cd20  1  0.312926  0.823636  0.873665  1
  Cd  Cd21  1  0.873665  0.312926  0.823636  1
  Cd  Cd22  1  0.823636  0.873665  0.312926  1
  Cd  Cd23  1  0.388347  0.359348  0.739632  1
  Cd  Cd24  1  0.739632  0.388347  0.359348  1
  Cd  Cd25  1  0.359348  0.739632  0.388347  1
  Cd  Cd26  1  0.611653  0.640652  0.260368  1
  Cd  Cd27  1  0.260368  0.611653  0.640652  1
  Cd  Cd28  1  0.640652  0.260368  0.611653  1
  Cd  Cd29  1  0.966817  0.595002  0.786898  1
  Cd  Cd30  1  0.786898  0.966817  0.595002  1
  Cd  Cd31  1  0.595002  0.786898  0.966817  1
  Cd  Cd32  1  0.033183  0.404998  0.213102  1
  Cd  Cd33  1  0.213102  0.033183  0.404998  1
  Cd  Cd34  1  0.404998  0.213102  0.033183  1
  Cd  Cd35  1  0.670279  0.536268  0.778079  1
  Cd  Cd36  1  0.778079  0.670279  0.536268  1
  Cd  Cd37  1  0.536268  0.778079  0.670279  1
  Cd  Cd38  1  0.329721  0.463732  0.221921  1
  Cd  Cd39  1  0.221921  0.329721  0.463732  1
  Cd  Cd40  1  0.463732  0.221921  0.329721  1
  Ni  Ni41  1  0.616875  0.285254  0.886037  1
  Ni  Ni42  1  0.886037  0.616875  0.285254  1
  Ni  Ni43  1  0.285254  0.886037  0.616875  1
  Ni  Ni44  1  0.383125  0.714746  0.113963  1
  Ni  Ni45  1  0.113963  0.383125  0.714746  1
  Ni  Ni46  1  0.714746  0.113963  0.383125  1
  Ni  Ni47  1  0.796401  0.796401  0.796401  1
  Ni  Ni48  1  0.203599  0.203599  0.203599  1
