# generated using pymatgen
data_Gd3Th2Sn3N
_symmetry_space_group_name_H-M   'P 1'
_cell_length_a   9.14432600
_cell_length_b   9.14432721
_cell_length_c   6.43865200
_cell_angle_alpha   90.00000000
_cell_angle_beta   90.00000000
_cell_angle_gamma   120.42695991
_symmetry_Int_Tables_number   1
_chemical_formula_structural   Gd3Th2Sn3N
_chemical_formula_sum   'Gd6 Th4 Sn6 N2'
_cell_volume   464.24201255
_cell_formula_units_Z   2
loop_
 _symmetry_equiv_pos_site_id
 _symmetry_equiv_pos_as_xyz
  1  'x, y, z'
loop_
 _atom_site_type_symbol
 _atom_site_label
 _atom_site_symmetry_multiplicity
 _atom_site_fract_x
 _atom_site_fract_y
 _atom_site_fract_z
 _atom_site_occupancy
  Gd  Gd0  1  0.665611  0.333448  0.000292  1
  Gd  Gd1  1  0.333448  0.665611  0.000292  1
  Gd  Gd2  1  0.333448  0.665611  0.499708  1
  Gd  Gd3  1  0.665611  0.333448  0.499708  1
  Gd  Gd4  1  0.776419  0.998598  0.250000  1
  Gd  Gd5  1  0.998598  0.776419  0.250000  1
  Th  Th6  1  0.779379  0.779379  0.750000  1
  Th  Th7  1  0.222997  0.999827  0.750000  1
  Th  Th8  1  0.999827  0.222997  0.750000  1
  Th  Th9  1  0.218988  0.218988  0.250000  1
  Sn  Sn10  1  0.405771  0.405771  0.750000  1
  Sn  Sn11  1  0.594454  0.999905  0.750000  1
  Sn  Sn12  1  0.999905  0.594454  0.750000  1
  Sn  Sn13  1  0.600065  0.600065  0.250000  1
  Sn  Sn14  1  0.401929  0.996531  0.250000  1
  Sn  Sn15  1  0.996531  0.401929  0.250000  1
  N  N16  1  0.003511  0.003511  0.996495  1
  N  N17  1  0.003511  0.003511  0.503505  1
