# generated using pymatgen
data_ErZr(Si7Ir3)2
_symmetry_space_group_name_H-M   'P 1'
_cell_length_a   8.00897598
_cell_length_b   8.00897623
_cell_length_c   8.00897607
_cell_angle_alpha   56.65899243
_cell_angle_beta   56.65898577
_cell_angle_gamma   56.65898668
_symmetry_Int_Tables_number   1
_chemical_formula_structural   ErZr(Si7Ir3)2
_chemical_formula_sum   'Er1 Zr1 Si14 Ir6'
_cell_volume   335.22810635
_cell_formula_units_Z   1
loop_
 _symmetry_equiv_pos_site_id
 _symmetry_equiv_pos_as_xyz
  1  'x, y, z'
loop_
 _atom_site_type_symbol
 _atom_site_label
 _atom_site_symmetry_multiplicity
 _atom_site_fract_x
 _atom_site_fract_y
 _atom_site_fract_z
 _atom_site_occupancy
  Er  Er0  1  0.500000  0.500000  0.500000  1
  Zr  Zr1  1  0.000000  0.000000  0.000000  1
  Si  Si2  1  0.851724  0.062348  0.675387  1
  Si  Si3  1  0.675387  0.851724  0.062348  1
  Si  Si4  1  0.062348  0.675387  0.851724  1
  Si  Si5  1  0.649605  0.828619  0.433632  1
  Si  Si6  1  0.250203  0.250203  0.250203  1
  Si  Si7  1  0.749797  0.749797  0.749797  1
  Si  Si8  1  0.171381  0.566368  0.350395  1
  Si  Si9  1  0.566368  0.350395  0.171381  1
  Si  Si10  1  0.350395  0.171381  0.566368  1
  Si  Si11  1  0.937652  0.324613  0.148276  1
  Si  Si12  1  0.324613  0.148276  0.937652  1
  Si  Si13  1  0.148276  0.937652  0.324613  1
  Si  Si14  1  0.828619  0.433632  0.649605  1
  Si  Si15  1  0.433632  0.649605  0.828619  1
  Ir  Ir16  1  0.751027  0.070747  0.428184  1
  Ir  Ir17  1  0.428184  0.751027  0.070747  1
  Ir  Ir18  1  0.070747  0.428184  0.751027  1
  Ir  Ir19  1  0.248973  0.929253  0.571816  1
  Ir  Ir20  1  0.571816  0.248973  0.929253  1
  Ir  Ir21  1  0.929253  0.571816  0.248973  1
