# generated using pymatgen
data_TaNb2Ga2PdC
_symmetry_space_group_name_H-M   'P 1'
_cell_length_a   8.38064301
_cell_length_b   8.37742654
_cell_length_c   8.38064276
_cell_angle_alpha   59.96312793
_cell_angle_beta   59.97638306
_cell_angle_gamma   59.96312991
_symmetry_Int_Tables_number   1
_chemical_formula_structural   TaNb2Ga2PdC
_chemical_formula_sum   'Ta4 Nb8 Ga8 Pd4 C4'
_cell_volume   415.74836687
_cell_formula_units_Z   4
loop_
 _symmetry_equiv_pos_site_id
 _symmetry_equiv_pos_as_xyz
  1  'x, y, z'
loop_
 _atom_site_type_symbol
 _atom_site_label
 _atom_site_symmetry_multiplicity
 _atom_site_fract_x
 _atom_site_fract_y
 _atom_site_fract_z
 _atom_site_occupancy
  Ta  Ta0  1  0.568114  0.931923  0.932360  1
  Ta  Ta1  1  0.932360  0.931923  0.568114  1
  Ta  Ta2  1  0.682251  0.318152  0.682251  1
  Ta  Ta3  1  0.931947  0.568210  0.931947  1
  Nb  Nb4  1  0.567214  0.932673  0.567214  1
  Nb  Nb5  1  0.317005  0.683320  0.683511  1
  Nb  Nb6  1  0.682976  0.317340  0.317225  1
  Nb  Nb7  1  0.316887  0.683301  0.316887  1
  Nb  Nb8  1  0.683511  0.683320  0.317005  1
  Nb  Nb9  1  0.317225  0.317340  0.682976  1
  Nb  Nb10  1  0.566453  0.566259  0.933778  1
  Nb  Nb11  1  0.933778  0.566259  0.566453  1
  Ga  Ga12  1  0.914404  0.913228  0.914404  1
  Ga  Ga13  1  0.991519  0.336523  0.335584  1
  Ga  Ga14  1  0.336740  0.991163  0.336740  1
  Ga  Ga15  1  0.335584  0.336523  0.991519  1
  Ga  Ga16  1  0.914244  0.258688  0.914244  1
  Ga  Ga17  1  0.913403  0.914282  0.258393  1
  Ga  Ga18  1  0.258393  0.914282  0.913403  1
  Ga  Ga19  1  0.336455  0.335258  0.336455  1
  Pd  Pd20  1  0.125583  0.125018  0.125583  1
  Pd  Pd21  1  0.625693  0.124980  0.121193  1
  Pd  Pd22  1  0.124157  0.625041  0.124157  1
  Pd  Pd23  1  0.121193  0.124980  0.625693  1
  C  C24  1  0.625885  0.623449  0.625885  1
  C  C25  1  0.123461  0.626319  0.626555  1
  C  C26  1  0.627009  0.123926  0.627009  1
  C  C27  1  0.626555  0.626319  0.123461  1
