# generated using pymatgen
data_Pr4Tm6Pb7Au
_symmetry_space_group_name_H-M   'P 1'
_cell_length_a   8.08678200
_cell_length_b   8.49734100
_cell_length_c   15.79679200
_cell_angle_alpha   90.00000000
_cell_angle_beta   90.00000000
_cell_angle_gamma   90.00000000
_symmetry_Int_Tables_number   1
_chemical_formula_structural   Pr4Tm6Pb7Au
_chemical_formula_sum   'Pr8 Tm12 Pb14 Au2'
_cell_volume   1085.49463771
_cell_formula_units_Z   2
loop_
 _symmetry_equiv_pos_site_id
 _symmetry_equiv_pos_as_xyz
  1  'x, y, z'
loop_
 _atom_site_type_symbol
 _atom_site_label
 _atom_site_symmetry_multiplicity
 _atom_site_fract_x
 _atom_site_fract_y
 _atom_site_fract_z
 _atom_site_occupancy
  Pr  Pr0  1  0.487350  0.684174  0.596217  1
  Pr  Pr1  1  0.987350  0.815826  0.903783  1
  Pr  Pr2  1  0.514965  0.320203  0.094878  1
  Pr  Pr3  1  0.014965  0.179797  0.405122  1
  Pr  Pr4  1  0.514965  0.320203  0.405122  1
  Pr  Pr5  1  0.014965  0.179797  0.094878  1
  Pr  Pr6  1  0.487350  0.684174  0.903783  1
  Pr  Pr7  1  0.987350  0.815826  0.596217  1
  Tm  Tm8  1  0.651398  0.167983  0.633726  1
  Tm  Tm9  1  0.151398  0.332017  0.866274  1
  Tm  Tm10  1  0.349598  0.838434  0.123816  1
  Tm  Tm11  1  0.849598  0.661566  0.376184  1
  Tm  Tm12  1  0.349598  0.838434  0.376184  1
  Tm  Tm13  1  0.849598  0.661566  0.123816  1
  Tm  Tm14  1  0.651398  0.167983  0.866274  1
  Tm  Tm15  1  0.151398  0.332017  0.633726  1
  Tm  Tm16  1  0.798247  0.492844  0.750000  1
  Tm  Tm17  1  0.298247  0.007156  0.750000  1
  Tm  Tm18  1  0.186116  0.501403  0.250000  1
  Tm  Tm19  1  0.686116  0.998597  0.250000  1
  Pb  Pb20  1  0.691454  0.959659  0.460637  1
  Pb  Pb21  1  0.191454  0.540341  0.039363  1
  Pb  Pb22  1  0.305848  0.041437  0.955797  1
  Pb  Pb23  1  0.805848  0.458563  0.544203  1
  Pb  Pb24  1  0.305848  0.041437  0.544203  1
  Pb  Pb25  1  0.805848  0.458563  0.955797  1
  Pb  Pb26  1  0.691454  0.959659  0.039363  1
  Pb  Pb27  1  0.191454  0.540341  0.460637  1
  Pb  Pb28  1  0.545289  0.629863  0.250000  1
  Pb  Pb29  1  0.045289  0.870137  0.250000  1
  Pb  Pb30  1  0.691268  0.862003  0.750000  1
  Pb  Pb31  1  0.191268  0.637997  0.750000  1
  Pb  Pb32  1  0.326241  0.150959  0.250000  1
  Pb  Pb33  1  0.826241  0.349041  0.250000  1
  Au  Au34  1  0.451613  0.365223  0.750000  1
  Au  Au35  1  0.951613  0.134777  0.750000  1
