# generated using pymatgen
data_YHo7Sc11Si16Ag
_symmetry_space_group_name_H-M   'P 1'
_cell_length_a   7.02307110
_cell_length_b   7.38393029
_cell_length_c   13.99629907
_cell_angle_alpha   90.00940749
_cell_angle_beta   90.00724030
_cell_angle_gamma   89.91805516
_symmetry_Int_Tables_number   1
_chemical_formula_structural   YHo7Sc11Si16Ag
_chemical_formula_sum   'Y1 Ho7 Sc11 Si16 Ag1'
_cell_volume   725.81746347
_cell_formula_units_Z   1
loop_
 _symmetry_equiv_pos_site_id
 _symmetry_equiv_pos_as_xyz
  1  'x, y, z'
loop_
 _atom_site_type_symbol
 _atom_site_label
 _atom_site_symmetry_multiplicity
 _atom_site_fract_x
 _atom_site_fract_y
 _atom_site_fract_z
 _atom_site_occupancy
  Y  Y0  1  0.011057  0.175301  0.096087  1
  Ho  Ho1  1  0.990133  0.815061  0.900931  1
  Ho  Ho2  1  0.484493  0.673807  0.901477  1
  Ho  Ho3  1  0.990182  0.815197  0.598934  1
  Ho  Ho4  1  0.510555  0.323516  0.096248  1
  Ho  Ho5  1  0.011318  0.175615  0.403674  1
  Ho  Ho6  1  0.510597  0.323438  0.403794  1
  Ho  Ho7  1  0.484417  0.673911  0.598468  1
  Sc  Sc8  1  0.838327  0.497211  0.250100  1
  Sc  Sc9  1  0.340172  0.003242  0.250094  1
  Sc  Sc10  1  0.657499  0.997518  0.749977  1
  Sc  Sc11  1  0.325962  0.182407  0.626758  1
  Sc  Sc12  1  0.671106  0.823565  0.375113  1
  Sc  Sc13  1  0.170633  0.678665  0.374189  1
  Sc  Sc14  1  0.671014  0.823433  0.125033  1
  Sc  Sc15  1  0.835903  0.327057  0.626619  1
  Sc  Sc16  1  0.326009  0.182459  0.873205  1
  Sc  Sc17  1  0.835729  0.327230  0.873272  1
  Sc  Sc18  1  0.170615  0.678584  0.125889  1
  Si  Si19  1  0.027941  0.099406  0.750004  1
  Si  Si20  1  0.968676  0.887763  0.250171  1
  Si  Si21  1  0.467256  0.616182  0.250020  1
  Si  Si22  1  0.536825  0.385182  0.750000  1
  Si  Si23  1  0.288183  0.882408  0.750005  1
  Si  Si24  1  0.713739  0.127911  0.250198  1
  Si  Si25  1  0.213652  0.372427  0.250269  1
  Si  Si26  1  0.776599  0.629508  0.749987  1
  Si  Si27  1  0.161572  0.460297  0.531902  1
  Si  Si28  1  0.842628  0.535320  0.462103  1
  Si  Si29  1  0.344195  0.965540  0.462764  1
  Si  Si30  1  0.842401  0.535884  0.037760  1
  Si  Si31  1  0.658029  0.033865  0.540287  1
  Si  Si32  1  0.161744  0.460770  0.967914  1
  Si  Si33  1  0.657893  0.033774  0.959626  1
  Si  Si34  1  0.344875  0.965117  0.037148  1
  Ag  Ag35  1  0.158066  0.511427  0.749982  1
