# generated using pymatgen
data_Lu3Al2GaGe2Rh
_symmetry_space_group_name_H-M   'P 1'
_cell_length_a   6.88374800
_cell_length_b   6.85561310
_cell_length_c   4.17605600
_cell_angle_alpha   90.00000000
_cell_angle_beta   90.00000000
_cell_angle_gamma   120.13584977
_symmetry_Int_Tables_number   1
_chemical_formula_structural   Lu3Al2GaGe2Rh
_chemical_formula_sum   'Lu3 Al2 Ga1 Ge2 Rh1'
_cell_volume   170.44021299
_cell_formula_units_Z   1
loop_
 _symmetry_equiv_pos_site_id
 _symmetry_equiv_pos_as_xyz
  1  'x, y, z'
loop_
 _atom_site_type_symbol
 _atom_site_label
 _atom_site_symmetry_multiplicity
 _atom_site_fract_x
 _atom_site_fract_y
 _atom_site_fract_z
 _atom_site_occupancy
  Lu  Lu0  1  0.412841  0.000000  0.000000  1
  Lu  Lu1  1  0.999303  0.411894  0.000000  1
  Lu  Lu2  1  0.587411  0.588107  0.000000  1
  Al  Al3  1  0.232735  0.231776  0.500000  1
  Al  Al4  1  0.000959  0.768224  0.500000  1
  Ga  Ga5  1  0.765695  0.000000  0.500000  1
  Ge  Ge6  1  0.666159  0.334773  0.500000  1
  Ge  Ge7  1  0.331386  0.665227  0.500000  1
  Rh  Rh8  1  0.003513  0.000000  0.000000  1
