# generated using pymatgen
data_Ba12Si15H
_symmetry_space_group_name_H-M   'P 1'
_cell_length_a   8.52499618
_cell_length_b   8.52499608
_cell_length_c   11.95830748
_cell_angle_alpha   90.54871822
_cell_angle_beta   90.54871863
_cell_angle_gamma   90.52310047
_symmetry_Int_Tables_number   1
_chemical_formula_structural   Ba12Si15H
_chemical_formula_sum   'Ba12 Si15 H1'
_cell_volume   868.96001890
_cell_formula_units_Z   1
loop_
 _symmetry_equiv_pos_site_id
 _symmetry_equiv_pos_as_xyz
  1  'x, y, z'
loop_
 _atom_site_type_symbol
 _atom_site_label
 _atom_site_symmetry_multiplicity
 _atom_site_fract_x
 _atom_site_fract_y
 _atom_site_fract_z
 _atom_site_occupancy
  Ba  Ba0  1  0.510864  0.985575  0.742851  1
  Ba  Ba1  1  0.501011  0.005452  0.245123  1
  Ba  Ba2  1  0.985575  0.510864  0.742851  1
  Ba  Ba3  1  0.005452  0.501011  0.245123  1
  Ba  Ba4  1  0.986945  0.986945  0.824912  1
  Ba  Ba5  1  0.500936  0.500936  0.327236  1
  Ba  Ba6  1  0.507220  0.507220  0.665405  1
  Ba  Ba7  1  0.003311  0.003311  0.162636  1
  Ba  Ba8  1  0.666860  0.666860  0.000033  1
  Ba  Ba9  1  0.833277  0.179943  0.487447  1
  Ba  Ba10  1  0.179943  0.833277  0.487447  1
  Ba  Ba11  1  0.332789  0.332789  0.988293  1
  Si  Si12  1  0.197237  0.197237  0.642416  1
  Si  Si13  1  0.801519  0.801519  0.346754  1
  Si  Si14  1  0.302803  0.702887  0.139047  1
  Si  Si15  1  0.702887  0.302803  0.139047  1
  Si  Si16  1  0.699223  0.296056  0.849432  1
  Si  Si17  1  0.296056  0.699223  0.849432  1
  Si  Si18  1  0.199731  0.199731  0.355725  1
  Si  Si19  1  0.698329  0.100673  0.996068  1
  Si  Si20  1  0.300589  0.902215  0.993054  1
  Si  Si21  1  0.100673  0.698329  0.996068  1
  Si  Si22  1  0.612607  0.812653  0.491973  1
  Si  Si23  1  0.902215  0.300589  0.993054  1
  Si  Si24  1  0.200127  0.401140  0.500475  1
  Si  Si25  1  0.812653  0.612607  0.491973  1
  Si  Si26  1  0.401140  0.200127  0.500475  1
  H  H27  1  0.758029  0.758029  0.795647  1
