# generated using pymatgen
data_Na13Hg5
_symmetry_space_group_name_H-M   'P 1'
_cell_length_a   16.28572499
_cell_length_b   16.28572479
_cell_length_c   6.98702608
_cell_angle_alpha   103.15175023
_cell_angle_beta   103.15174950
_cell_angle_gamma   16.87043587
_symmetry_Int_Tables_number   1
_chemical_formula_structural   Na13Hg5
_chemical_formula_sum   'Na13 Hg5'
_cell_volume   523.37442578
_cell_formula_units_Z   1
loop_
 _symmetry_equiv_pos_site_id
 _symmetry_equiv_pos_as_xyz
  1  'x, y, z'
loop_
 _atom_site_type_symbol
 _atom_site_label
 _atom_site_symmetry_multiplicity
 _atom_site_fract_x
 _atom_site_fract_y
 _atom_site_fract_z
 _atom_site_occupancy
  Na  Na0  1  0.114490  0.114490  0.116651  1
  Na  Na1  1  0.222314  0.222314  0.111408  1
  Na  Na2  1  0.343060  0.343060  0.214720  1
  Na  Na3  1  0.450774  0.450774  0.184660  1
  Na  Na4  1  0.563373  0.563373  0.316143  1
  Na  Na5  1  0.787794  0.787794  0.416033  1
  Na  Na6  1  0.000000  0.000000  0.500000  1
  Na  Na7  1  0.212206  0.212206  0.583968  1
  Na  Na8  1  0.436627  0.436627  0.683857  1
  Na  Na9  1  0.549226  0.549226  0.815339  1
  Na  Na10  1  0.656939  0.656939  0.785280  1
  Na  Na11  1  0.777685  0.777685  0.888591  1
  Na  Na12  1  0.885511  0.885511  0.883350  1
  Hg  Hg13  1  0.000000  0.000000  0.000000  1
  Hg  Hg14  1  0.677304  0.677304  0.298665  1
  Hg  Hg15  1  0.900381  0.900381  0.387940  1
  Hg  Hg16  1  0.099619  0.099619  0.612061  1
  Hg  Hg17  1  0.322696  0.322696  0.701335  1
