# generated using pymatgen
data_Dy3VCo7NiP6
_symmetry_space_group_name_H-M   'P 1'
_cell_length_a   3.70672600
_cell_length_b   10.51279700
_cell_length_c   12.21435700
_cell_angle_alpha   90.00000000
_cell_angle_beta   90.00000000
_cell_angle_gamma   90.00000000
_symmetry_Int_Tables_number   1
_chemical_formula_structural   Dy3VCo7NiP6
_chemical_formula_sum   'Dy6 V2 Co14 Ni2 P12'
_cell_volume   475.96977167
_cell_formula_units_Z   2
loop_
 _symmetry_equiv_pos_site_id
 _symmetry_equiv_pos_as_xyz
  1  'x, y, z'
loop_
 _atom_site_type_symbol
 _atom_site_label
 _atom_site_symmetry_multiplicity
 _atom_site_fract_x
 _atom_site_fract_y
 _atom_site_fract_z
 _atom_site_occupancy
  Dy  Dy0  1  0.000000  0.500000  0.520854  1
  Dy  Dy1  1  0.500000  0.000000  0.479146  1
  Dy  Dy2  1  0.500000  0.817411  0.203695  1
  Dy  Dy3  1  0.500000  0.182589  0.203695  1
  Dy  Dy4  1  0.000000  0.682589  0.796305  1
  Dy  Dy5  1  0.000000  0.317411  0.796305  1
  V  V6  1  0.500000  0.500000  0.154768  1
  V  V7  1  0.000000  0.000000  0.845232  1
  Co  Co8  1  0.000000  0.500000  0.987424  1
  Co  Co9  1  0.500000  0.000000  0.012576  1
  Co  Co10  1  0.500000  0.332715  0.992760  1
  Co  Co11  1  0.500000  0.667285  0.992760  1
  Co  Co12  1  0.000000  0.167285  0.007240  1
  Co  Co13  1  0.000000  0.832715  0.007240  1
  Co  Co14  1  0.500000  0.296537  0.431612  1
  Co  Co15  1  0.500000  0.703463  0.431612  1
  Co  Co16  1  0.000000  0.203463  0.568388  1
  Co  Co17  1  0.000000  0.796537  0.568388  1
  Co  Co18  1  0.500000  0.878625  0.708166  1
  Co  Co19  1  0.500000  0.121375  0.708166  1
  Co  Co20  1  0.000000  0.621375  0.291834  1
  Co  Co21  1  0.000000  0.378625  0.291834  1
  Ni  Ni22  1  0.500000  0.500000  0.701822  1
  Ni  Ni23  1  0.000000  0.000000  0.298178  1
  P  P24  1  0.500000  0.500000  0.883164  1
  P  P25  1  0.000000  0.000000  0.116836  1
  P  P26  1  0.500000  0.500000  0.345470  1
  P  P27  1  0.000000  0.000000  0.654530  1
  P  P28  1  0.500000  0.310170  0.615610  1
  P  P29  1  0.500000  0.689830  0.615610  1
  P  P30  1  0.000000  0.189830  0.384390  1
  P  P31  1  0.000000  0.810170  0.384390  1
  P  P32  1  0.500000  0.846226  0.891949  1
  P  P33  1  0.500000  0.153774  0.891949  1
  P  P34  1  0.000000  0.653774  0.108051  1
  P  P35  1  0.000000  0.346226  0.108051  1
