# generated using pymatgen
data_Zr6GaPN2
_symmetry_space_group_name_H-M   'P 1'
_cell_length_a   5.88727199
_cell_length_b   5.88727287
_cell_length_c   8.66401100
_cell_angle_alpha   90.00000000
_cell_angle_beta   90.00000000
_cell_angle_gamma   145.99914323
_symmetry_Int_Tables_number   1
_chemical_formula_structural   Zr6GaPN2
_chemical_formula_sum   'Zr6 Ga1 P1 N2'
_cell_volume   167.92623071
_cell_formula_units_Z   1
loop_
 _symmetry_equiv_pos_site_id
 _symmetry_equiv_pos_as_xyz
  1  'x, y, z'
loop_
 _atom_site_type_symbol
 _atom_site_label
 _atom_site_symmetry_multiplicity
 _atom_site_fract_x
 _atom_site_fract_y
 _atom_site_fract_z
 _atom_site_occupancy
  Zr  Zr0  1  0.632914  0.367086  0.438990  1
  Zr  Zr1  1  0.371609  0.628391  0.545629  1
  Zr  Zr2  1  0.632914  0.367086  0.061010  1
  Zr  Zr3  1  0.371609  0.628391  0.954371  1
  Zr  Zr4  1  0.934390  0.065610  0.250000  1
  Zr  Zr5  1  0.052044  0.947956  0.750000  1
  Ga  Ga6  1  0.747402  0.252598  0.750000  1
  P  P7  1  0.255137  0.744863  0.250000  1
  N  N8  1  0.000992  0.999008  0.496141  1
  N  N9  1  0.000992  0.999008  0.003859  1
