# generated using pymatgen
data_Dy4MnTc6Os
_symmetry_space_group_name_H-M   'P 1'
_cell_length_a   5.28087800
_cell_length_b   5.28087893
_cell_length_c   9.09854100
_cell_angle_alpha   90.00000000
_cell_angle_beta   90.00000000
_cell_angle_gamma   120.00000670
_symmetry_Int_Tables_number   1
_chemical_formula_structural   Dy4MnTc6Os
_chemical_formula_sum   'Dy4 Mn1 Tc6 Os1'
_cell_volume   219.74282541
_cell_formula_units_Z   1
loop_
 _symmetry_equiv_pos_site_id
 _symmetry_equiv_pos_as_xyz
  1  'x, y, z'
loop_
 _atom_site_type_symbol
 _atom_site_label
 _atom_site_symmetry_multiplicity
 _atom_site_fract_x
 _atom_site_fract_y
 _atom_site_fract_z
 _atom_site_occupancy
  Dy  Dy0  1  0.333333  0.666667  0.435221  1
  Dy  Dy1  1  0.666667  0.333333  0.564779  1
  Dy  Dy2  1  0.666667  0.333333  0.937414  1
  Dy  Dy3  1  0.333333  0.666667  0.062586  1
  Mn  Mn4  1  0.000000  0.000000  0.500000  1
  Tc  Tc5  1  0.830739  0.169261  0.252879  1
  Tc  Tc6  1  0.830739  0.661476  0.252879  1
  Tc  Tc7  1  0.338524  0.169261  0.252879  1
  Tc  Tc8  1  0.169261  0.830739  0.747121  1
  Tc  Tc9  1  0.169261  0.338524  0.747121  1
  Tc  Tc10  1  0.661476  0.830739  0.747121  1
  Os  Os11  1  0.000000  0.000000  0.000000  1
