# generated using pymatgen
data_DyTiCdSbO7
_symmetry_space_group_name_H-M   'P 1'
_cell_length_a   7.29488600
_cell_length_b   7.29488600
_cell_length_c   10.34418100
_cell_angle_alpha   90.00000000
_cell_angle_beta   90.00000000
_cell_angle_gamma   90.00000000
_symmetry_Int_Tables_number   1
_chemical_formula_structural   DyTiCdSbO7
_chemical_formula_sum   'Dy4 Ti4 Cd4 Sb4 O28'
_cell_volume   550.46933395
_cell_formula_units_Z   4
loop_
 _symmetry_equiv_pos_site_id
 _symmetry_equiv_pos_as_xyz
  1  'x, y, z'
loop_
 _atom_site_type_symbol
 _atom_site_label
 _atom_site_symmetry_multiplicity
 _atom_site_fract_x
 _atom_site_fract_y
 _atom_site_fract_z
 _atom_site_occupancy
  Dy  Dy0  1  0.000000  0.733524  0.000000  1
  Dy  Dy1  1  0.266476  0.000000  0.250000  1
  Dy  Dy2  1  0.000000  0.266476  0.500000  1
  Dy  Dy3  1  0.733524  0.000000  0.750000  1
  Ti  Ti4  1  0.764086  0.000000  0.250000  1
  Ti  Ti5  1  0.000000  0.764086  0.500000  1
  Ti  Ti6  1  0.235914  0.000000  0.750000  1
  Ti  Ti7  1  0.000000  0.235914  0.000000  1
  Cd  Cd8  1  0.500000  0.741545  0.000000  1
  Cd  Cd9  1  0.500000  0.258455  0.500000  1
  Cd  Cd10  1  0.741545  0.500000  0.750000  1
  Cd  Cd11  1  0.258455  0.500000  0.250000  1
  Sb  Sb12  1  0.242643  0.500000  0.750000  1
  Sb  Sb13  1  0.500000  0.757357  0.500000  1
  Sb  Sb14  1  0.500000  0.242643  0.000000  1
  Sb  Sb15  1  0.757357  0.500000  0.250000  1
  O  O16  1  0.250923  0.749077  0.125000  1
  O  O17  1  0.550691  0.947384  0.367160  1
  O  O18  1  0.749077  0.250923  0.625000  1
  O  O19  1  0.953425  0.953425  0.375000  1
  O  O20  1  0.052616  0.449309  0.882840  1
  O  O21  1  0.046575  0.046575  0.875000  1
  O  O22  1  0.046575  0.953425  0.625000  1
  O  O23  1  0.249704  0.231372  0.074793  1
  O  O24  1  0.231372  0.249704  0.675207  1
  O  O25  1  0.249704  0.768628  0.425207  1
  O  O26  1  0.449267  0.449267  0.875000  1
  O  O27  1  0.449309  0.052616  0.867160  1
  O  O28  1  0.449309  0.947384  0.632840  1
  O  O29  1  0.550733  0.550733  0.375000  1
  O  O30  1  0.550691  0.052616  0.132840  1
  O  O31  1  0.550733  0.449267  0.125000  1
  O  O32  1  0.750296  0.768628  0.574793  1
  O  O33  1  0.749077  0.749077  0.875000  1
  O  O34  1  0.768628  0.249704  0.324793  1
  O  O35  1  0.768628  0.750296  0.175207  1
  O  O36  1  0.750296  0.231372  0.925207  1
  O  O37  1  0.947384  0.550691  0.382840  1
  O  O38  1  0.947384  0.449309  0.117160  1
  O  O39  1  0.953425  0.046575  0.125000  1
  O  O40  1  0.052616  0.550691  0.617160  1
  O  O41  1  0.250923  0.250923  0.375000  1
  O  O42  1  0.231372  0.750296  0.824793  1
  O  O43  1  0.449267  0.550733  0.625000  1
