# generated using pymatgen
data_K5Rb5(Sb2Au)2
_symmetry_space_group_name_H-M   'P 1'
_cell_length_a   6.13543000
_cell_length_b   6.13542892
_cell_length_c   21.21195000
_cell_angle_alpha   90.00000000
_cell_angle_beta   90.00000000
_cell_angle_gamma   120.00000580
_symmetry_Int_Tables_number   1
_chemical_formula_structural   K5Rb5(Sb2Au)2
_chemical_formula_sum   'K5 Rb5 Sb4 Au2'
_cell_volume   691.51425302
_cell_formula_units_Z   1
loop_
 _symmetry_equiv_pos_site_id
 _symmetry_equiv_pos_as_xyz
  1  'x, y, z'
loop_
 _atom_site_type_symbol
 _atom_site_label
 _atom_site_symmetry_multiplicity
 _atom_site_fract_x
 _atom_site_fract_y
 _atom_site_fract_z
 _atom_site_occupancy
  K  K0  1  0.333333  0.666667  0.949698  1
  K  K1  1  0.000000  0.000000  0.146163  1
  K  K2  1  0.000000  0.000000  0.646434  1
  K  K3  1  0.000000  0.000000  0.854284  1
  K  K4  1  0.000000  0.000000  0.353480  1
  Rb  Rb5  1  0.333333  0.666667  0.550338  1
  Rb  Rb6  1  0.666667  0.333333  0.049969  1
  Rb  Rb7  1  0.666667  0.333333  0.449603  1
  Rb  Rb8  1  0.333333  0.666667  0.750537  1
  Rb  Rb9  1  0.666667  0.333333  0.249786  1
  Sb  Sb10  1  0.333333  0.666667  0.122601  1
  Sb  Sb11  1  0.666667  0.333333  0.623823  1
  Sb  Sb12  1  0.333333  0.666667  0.376103  1
  Sb  Sb13  1  0.666667  0.333333  0.877263  1
  Au  Au14  1  0.666667  0.333333  0.750487  1
  Au  Au15  1  0.333333  0.666667  0.249431  1
