# generated using pymatgen
data_Er2AsPd7Pt
_symmetry_space_group_name_H-M   'P 1'
_cell_length_a   4.11560200
_cell_length_b   4.12017300
_cell_length_c   11.18196300
_cell_angle_alpha   90.00000000
_cell_angle_beta   90.00000000
_cell_angle_gamma   90.00000000
_symmetry_Int_Tables_number   1
_chemical_formula_structural   Er2AsPd7Pt
_chemical_formula_sum   'Er2 As1 Pd7 Pt1'
_cell_volume   189.61245981
_cell_formula_units_Z   1
loop_
 _symmetry_equiv_pos_site_id
 _symmetry_equiv_pos_as_xyz
  1  'x, y, z'
loop_
 _atom_site_type_symbol
 _atom_site_label
 _atom_site_symmetry_multiplicity
 _atom_site_fract_x
 _atom_site_fract_y
 _atom_site_fract_z
 _atom_site_occupancy
  Er  Er0  1  0.500000  0.500000  0.820310  1
  Er  Er1  1  0.500000  0.500000  0.179690  1
  As  As2  1  0.000000  0.000000  0.500000  1
  Pd  Pd3  1  0.500000  0.000000  0.000000  1
  Pd  Pd4  1  0.500000  0.000000  0.632666  1
  Pd  Pd5  1  0.000000  0.500000  0.632688  1
  Pd  Pd6  1  0.500000  0.000000  0.367334  1
  Pd  Pd7  1  0.000000  0.500000  0.367312  1
  Pd  Pd8  1  0.000000  0.000000  0.817960  1
  Pd  Pd9  1  0.000000  0.000000  0.182040  1
  Pt  Pt10  1  0.000000  0.500000  0.000000  1
