# generated using pymatgen
data_Lu5S6
_symmetry_space_group_name_H-M   'P 1'
_cell_length_a   7.61388402
_cell_length_b   5.39295261
_cell_length_c   6.58264452
_cell_angle_alpha   114.17458887
_cell_angle_beta   106.81043547
_cell_angle_gamma   89.99428519
_symmetry_Int_Tables_number   1
_chemical_formula_structural   Lu5S6
_chemical_formula_sum   'Lu5 S6'
_cell_volume   233.87339118
_cell_formula_units_Z   1
loop_
 _symmetry_equiv_pos_site_id
 _symmetry_equiv_pos_as_xyz
  1  'x, y, z'
loop_
 _atom_site_type_symbol
 _atom_site_label
 _atom_site_symmetry_multiplicity
 _atom_site_fract_x
 _atom_site_fract_y
 _atom_site_fract_z
 _atom_site_occupancy
  Lu  Lu0  1  0.029671  0.998108  0.906798  1
  Lu  Lu1  1  0.521160  0.992594  0.899288  1
  Lu  Lu2  1  0.195270  0.322665  0.557836  1
  Lu  Lu3  1  0.859157  0.657756  0.227793  1
  Lu  Lu4  1  0.685374  0.318406  0.546633  1
  S  S5  1  0.357594  0.160628  0.227520  1
  S  S6  1  0.693724  0.827680  0.566017  1
  S  S7  1  0.527377  0.488863  0.890724  1
  S  S8  1  0.189801  0.826419  0.565014  1
  S  S9  1  0.021599  0.488670  0.888101  1
  S  S10  1  0.858419  0.157830  0.227802  1
