# generated using pymatgen
data_Tb10In2Bi3Pb
_symmetry_space_group_name_H-M   'P 1'
_cell_length_a   9.10337600
_cell_length_b   9.08901883
_cell_length_c   6.60518900
_cell_angle_alpha   90.00000000
_cell_angle_beta   90.00000000
_cell_angle_gamma   119.81474293
_symmetry_Int_Tables_number   1
_chemical_formula_structural   Tb10In2Bi3Pb
_chemical_formula_sum   'Tb10 In2 Bi3 Pb1'
_cell_volume   474.17982361
_cell_formula_units_Z   1
loop_
 _symmetry_equiv_pos_site_id
 _symmetry_equiv_pos_as_xyz
  1  'x, y, z'
loop_
 _atom_site_type_symbol
 _atom_site_label
 _atom_site_symmetry_multiplicity
 _atom_site_fract_x
 _atom_site_fract_y
 _atom_site_fract_z
 _atom_site_occupancy
  Tb  Tb0  1  0.660253  0.330356  0.997862  1
  Tb  Tb1  1  0.342062  0.668036  0.997789  1
  Tb  Tb2  1  0.342062  0.668036  0.502211  1
  Tb  Tb3  1  0.660253  0.330356  0.502138  1
  Tb  Tb4  1  0.756132  0.764647  0.750000  1
  Tb  Tb5  1  0.242498  0.008706  0.750000  1
  Tb  Tb6  1  0.000422  0.235875  0.750000  1
  Tb  Tb7  1  0.241012  0.239621  0.250000  1
  Tb  Tb8  1  0.760971  0.994270  0.250000  1
  Tb  Tb9  1  0.995988  0.760527  0.250000  1
  In  In10  1  0.394790  0.395669  0.750000  1
  In  In11  1  0.605427  0.002845  0.750000  1
  Bi  Bi12  1  0.001490  0.609533  0.750000  1
  Bi  Bi13  1  0.391904  0.996760  0.250000  1
  Bi  Bi14  1  0.999240  0.392468  0.250000  1
  Pb  Pb15  1  0.605496  0.602295  0.250000  1
