# generated using pymatgen
data_Lu2Fe5C4
_symmetry_space_group_name_H-M   'P 1'
_cell_length_a   6.85908949
_cell_length_b   5.69326110
_cell_length_c   5.18430594
_cell_angle_alpha   78.05854378
_cell_angle_beta   54.31478735
_cell_angle_gamma   47.65197161
_symmetry_Int_Tables_number   1
_chemical_formula_structural   Lu2Fe5C4
_chemical_formula_sum   'Lu2 Fe5 C4'
_cell_volume   115.54636499
_cell_formula_units_Z   1
loop_
 _symmetry_equiv_pos_site_id
 _symmetry_equiv_pos_as_xyz
  1  'x, y, z'
loop_
 _atom_site_type_symbol
 _atom_site_label
 _atom_site_symmetry_multiplicity
 _atom_site_fract_x
 _atom_site_fract_y
 _atom_site_fract_z
 _atom_site_occupancy
  Lu  Lu0  1  0.853784  0.853628  0.146419  1
  Lu  Lu1  1  0.146237  0.146355  0.853564  1
  Fe  Fe2  1  0.499996  0.499982  0.000007  1
  Fe  Fe3  1  0.250193  0.249768  0.249893  1
  Fe  Fe4  1  0.000010  0.000012  0.499986  1
  Fe  Fe5  1  0.500010  0.499998  0.499989  1
  Fe  Fe6  1  0.749776  0.750259  0.750147  1
  C  C7  1  0.472788  0.790862  0.208769  1
  C  C8  1  0.209157  0.527263  0.472342  1
  C  C9  1  0.790824  0.472756  0.527669  1
  C  C10  1  0.527228  0.209116  0.791219  1
