# generated using pymatgen
data_NdY(Tm9Pt8)2
_symmetry_space_group_name_H-M   'P 1'
_cell_length_a   7.39735609
_cell_length_b   7.48453534
_cell_length_c   14.58768200
_cell_angle_alpha   90.01103117
_cell_angle_beta   90.00869813
_cell_angle_gamma   90.03240288
_symmetry_Int_Tables_number   1
_chemical_formula_structural   NdY(Tm9Pt8)2
_chemical_formula_sum   'Nd1 Y1 Tm18 Pt16'
_cell_volume   807.65813692
_cell_formula_units_Z   1
loop_
 _symmetry_equiv_pos_site_id
 _symmetry_equiv_pos_as_xyz
  1  'x, y, z'
loop_
 _atom_site_type_symbol
 _atom_site_label
 _atom_site_symmetry_multiplicity
 _atom_site_fract_x
 _atom_site_fract_y
 _atom_site_fract_z
 _atom_site_occupancy
  Nd  Nd0  1  0.500978  0.677596  0.408232  1
  Y  Y1  1  0.999359  0.821275  0.092157  1
  Tm  Tm2  1  0.681364  0.990390  0.249397  1
  Tm  Tm3  1  0.180105  0.509808  0.249277  1
  Tm  Tm4  1  0.818920  0.489528  0.750117  1
  Tm  Tm5  1  0.319134  0.010300  0.750234  1
  Tm  Tm6  1  0.657885  0.834105  0.623307  1
  Tm  Tm7  1  0.156853  0.666556  0.877413  1
  Tm  Tm8  1  0.846197  0.331273  0.377526  1
  Tm  Tm9  1  0.344602  0.167557  0.122021  1
  Tm  Tm10  1  0.343746  0.167370  0.377779  1
  Tm  Tm11  1  0.844277  0.332456  0.121728  1
  Tm  Tm12  1  0.155222  0.668081  0.622502  1
  Tm  Tm13  1  0.655896  0.832168  0.877775  1
  Tm  Tm14  1  0.998423  0.821476  0.406913  1
  Tm  Tm15  1  0.497995  0.679372  0.092831  1
  Tm  Tm16  1  0.502229  0.318149  0.593846  1
  Tm  Tm17  1  0.002006  0.181198  0.906979  1
  Tm  Tm18  1  0.001494  0.179685  0.592882  1
  Tm  Tm19  1  0.501521  0.320167  0.907167  1
  Pt  Pt20  1  0.818940  0.643223  0.249787  1
  Pt  Pt21  1  0.315884  0.858059  0.247255  1
  Pt  Pt22  1  0.681526  0.144372  0.750171  1
  Pt  Pt23  1  0.181371  0.355438  0.750057  1
  Pt  Pt24  1  0.546850  0.383935  0.248464  1
  Pt  Pt25  1  0.046161  0.115327  0.250498  1
  Pt  Pt26  1  0.953444  0.886925  0.750209  1
  Pt  Pt27  1  0.453369  0.613014  0.749824  1
  Pt  Pt28  1  0.817247  0.530373  0.543877  1
  Pt  Pt29  1  0.316186  0.968584  0.957371  1
  Pt  Pt30  1  0.686416  0.037869  0.460090  1
  Pt  Pt31  1  0.185556  0.465481  0.040831  1
  Pt  Pt32  1  0.177667  0.462566  0.459717  1
  Pt  Pt33  1  0.681995  0.034671  0.041086  1
  Pt  Pt34  1  0.314232  0.970830  0.543207  1
  Pt  Pt35  1  0.814950  0.530819  0.957472  1
