# generated using pymatgen
data_Y16MgIn3Ir3Pt
_symmetry_space_group_name_H-M   'P 1'
_cell_length_a   9.73681407
_cell_length_b   9.73681739
_cell_length_c   9.72038726
_cell_angle_alpha   59.99793029
_cell_angle_beta   59.99787016
_cell_angle_gamma   60.09646400
_symmetry_Int_Tables_number   1
_chemical_formula_structural   Y16MgIn3Ir3Pt
_chemical_formula_sum   'Y16 Mg1 In3 Ir3 Pt1'
_cell_volume   652.08510441
_cell_formula_units_Z   1
loop_
 _symmetry_equiv_pos_site_id
 _symmetry_equiv_pos_as_xyz
  1  'x, y, z'
loop_
 _atom_site_type_symbol
 _atom_site_label
 _atom_site_symmetry_multiplicity
 _atom_site_fract_x
 _atom_site_fract_y
 _atom_site_fract_z
 _atom_site_occupancy
  Y  Y0  1  0.806883  0.188757  0.813911  1
  Y  Y1  1  0.937705  0.565526  0.561516  1
  Y  Y2  1  0.565526  0.937705  0.561517  1
  Y  Y3  1  0.808201  0.192305  0.190784  1
  Y  Y4  1  0.192305  0.808200  0.190784  1
  Y  Y5  1  0.352685  0.950156  0.347919  1
  Y  Y6  1  0.939795  0.939795  0.558900  1
  Y  Y7  1  0.560087  0.941147  0.939550  1
  Y  Y8  1  0.188757  0.806883  0.813911  1
  Y  Y9  1  0.349298  0.349298  0.954622  1
  Y  Y10  1  0.563489  0.563489  0.937207  1
  Y  Y11  1  0.349595  0.349596  0.346510  1
  Y  Y12  1  0.191782  0.191782  0.810971  1
  Y  Y13  1  0.811210  0.811209  0.187614  1
  Y  Y14  1  0.941148  0.560086  0.939550  1
  Y  Y15  1  0.950156  0.352685  0.347919  1
  Mg  Mg16  1  0.576402  0.576402  0.576590  1
  In  In17  1  0.581824  0.252419  0.583009  1
  In  In18  1  0.583081  0.583081  0.250989  1
  In  In19  1  0.252418  0.581824  0.583009  1
  Ir  Ir20  1  0.576064  0.139699  0.142168  1
  Ir  Ir21  1  0.139698  0.576064  0.142168  1
  Ir  Ir22  1  0.141559  0.141559  0.143521  1
  Pt  Pt23  1  0.140332  0.140332  0.575361  1
