# generated using pymatgen
data_MgSn11Pd4
_symmetry_space_group_name_H-M   'P 1'
_cell_length_a   9.26981891
_cell_length_b   9.26981941
_cell_length_c   6.59452964
_cell_angle_alpha   89.71163156
_cell_angle_beta   89.71162586
_cell_angle_gamma   138.94152333
_symmetry_Int_Tables_number   1
_chemical_formula_structural   MgSn11Pd4
_chemical_formula_sum   'Mg1 Sn11 Pd4'
_cell_volume   372.16360801
_cell_formula_units_Z   1
loop_
 _symmetry_equiv_pos_site_id
 _symmetry_equiv_pos_as_xyz
  1  'x, y, z'
loop_
 _atom_site_type_symbol
 _atom_site_label
 _atom_site_symmetry_multiplicity
 _atom_site_fract_x
 _atom_site_fract_y
 _atom_site_fract_z
 _atom_site_occupancy
  Mg  Mg0  1  0.167917  0.167917  0.329266  1
  Sn  Sn1  1  0.659348  0.659348  0.165600  1
  Sn  Sn2  1  0.342178  0.342178  0.838283  1
  Sn  Sn3  1  0.850313  0.850313  0.655374  1
  Sn  Sn4  1  0.156847  0.488827  0.176048  1
  Sn  Sn5  1  0.998169  0.661376  0.328698  1
  Sn  Sn6  1  0.337607  0.003347  0.670465  1
  Sn  Sn7  1  0.503591  0.839352  0.827660  1
  Sn  Sn8  1  0.839352  0.503591  0.827660  1
  Sn  Sn9  1  0.003347  0.337607  0.670465  1
  Sn  Sn10  1  0.661376  0.998169  0.328698  1
  Sn  Sn11  1  0.488827  0.156847  0.176048  1
  Pd  Pd12  1  0.912488  0.081245  0.001031  1
  Pd  Pd13  1  0.583107  0.414287  0.501836  1
  Pd  Pd14  1  0.081245  0.912488  0.001031  1
  Pd  Pd15  1  0.414287  0.583107  0.501836  1
