# generated using pymatgen
data_AcYNi12P5
_symmetry_space_group_name_H-M   'P 1'
_cell_length_a   3.68799500
_cell_length_b   10.80679667
_cell_length_c   13.24794562
_cell_angle_alpha   71.54381870
_cell_angle_beta   90.00000000
_cell_angle_gamma   90.00000000
_symmetry_Int_Tables_number   1
_chemical_formula_structural   AcYNi12P5
_chemical_formula_sum   'Ac2 Y2 Ni24 P10'
_cell_volume   500.84508427
_cell_formula_units_Z   2
loop_
 _symmetry_equiv_pos_site_id
 _symmetry_equiv_pos_as_xyz
  1  'x, y, z'
loop_
 _atom_site_type_symbol
 _atom_site_label
 _atom_site_symmetry_multiplicity
 _atom_site_fract_x
 _atom_site_fract_y
 _atom_site_fract_z
 _atom_site_occupancy
  Ac  Ac0  1  0.250000  0.746350  0.187940  1
  Ac  Ac1  1  0.750000  0.253650  0.812060  1
  Y  Y2  1  0.250000  0.782499  0.681093  1
  Y  Y3  1  0.750000  0.217501  0.318907  1
  Ni  Ni4  1  0.250000  0.568071  0.015961  1
  Ni  Ni5  1  0.250000  0.563452  0.447617  1
  Ni  Ni6  1  0.750000  0.501474  0.342107  1
  Ni  Ni7  1  0.250000  0.498526  0.657893  1
  Ni  Ni8  1  0.750000  0.504779  0.152513  1
  Ni  Ni9  1  0.250000  0.495221  0.847487  1
  Ni  Ni10  1  0.750000  0.436548  0.552383  1
  Ni  Ni11  1  0.250000  0.336551  0.141070  1
  Ni  Ni12  1  0.750000  0.663641  0.563347  1
  Ni  Ni13  1  0.250000  0.336359  0.436653  1
  Ni  Ni14  1  0.750000  0.907121  0.305656  1
  Ni  Ni15  1  0.250000  0.092879  0.694344  1
  Ni  Ni16  1  0.750000  0.917690  0.989497  1
  Ni  Ni17  1  0.250000  0.082310  0.010503  1
  Ni  Ni18  1  0.750000  0.921358  0.491210  1
  Ni  Ni19  1  0.250000  0.078642  0.508790  1
  Ni  Ni20  1  0.750000  0.932204  0.794730  1
  Ni  Ni21  1  0.250000  0.067796  0.205270  1
  Ni  Ni22  1  0.250000  0.788160  0.440628  1
  Ni  Ni23  1  0.750000  0.211840  0.559372  1
  Ni  Ni24  1  0.250000  0.795406  0.914485  1
  Ni  Ni25  1  0.750000  0.204594  0.085515  1
  Ni  Ni26  1  0.750000  0.663449  0.858930  1
  Ni  Ni27  1  0.750000  0.431929  0.984039  1
  P  P28  1  0.250000  0.004969  0.872002  1
  P  P29  1  0.750000  0.995031  0.127998  1
  P  P30  1  0.250000  0.303673  0.987256  1
  P  P31  1  0.750000  0.696327  0.012744  1
  P  P32  1  0.250000  0.441177  0.262127  1
  P  P33  1  0.750000  0.558823  0.737873  1
  P  P34  1  0.250000  0.997369  0.377833  1
  P  P35  1  0.750000  0.002631  0.622167  1
  P  P36  1  0.250000  0.313652  0.606735  1
  P  P37  1  0.750000  0.686348  0.393265  1
