# generated using pymatgen
data_Nd2AsSe
_symmetry_space_group_name_H-M   'P 1'
_cell_length_a   7.39213301
_cell_length_b   7.39213238
_cell_length_c   7.39213165
_cell_angle_alpha   33.44876463
_cell_angle_beta   33.44877281
_cell_angle_gamma   33.44876698
_symmetry_Int_Tables_number   1
_chemical_formula_structural   Nd2AsSe
_chemical_formula_sum   'Nd2 As1 Se1'
_cell_volume   109.28968470
_cell_formula_units_Z   1
loop_
 _symmetry_equiv_pos_site_id
 _symmetry_equiv_pos_as_xyz
  1  'x, y, z'
loop_
 _atom_site_type_symbol
 _atom_site_label
 _atom_site_symmetry_multiplicity
 _atom_site_fract_x
 _atom_site_fract_y
 _atom_site_fract_z
 _atom_site_occupancy
  Nd  Nd0  1  0.253642  0.253642  0.253642  1
  Nd  Nd1  1  0.746358  0.746358  0.746358  1
  As  As2  1  0.000000  0.000000  0.000000  1
  Se  Se3  1  0.500000  0.500000  0.500000  1
