# generated using pymatgen
data_La12As3PBr12
_symmetry_space_group_name_H-M   'P 1'
_cell_length_a   10.60236097
_cell_length_b   10.58708029
_cell_length_c   10.58707801
_cell_angle_alpha   109.44162735
_cell_angle_beta   109.49989955
_cell_angle_gamma   109.50120495
_symmetry_Int_Tables_number   1
_chemical_formula_structural   La12As3PBr12
_chemical_formula_sum   'La12 As3 P1 Br12'
_cell_volume   914.48585837
_cell_formula_units_Z   1
loop_
 _symmetry_equiv_pos_site_id
 _symmetry_equiv_pos_as_xyz
  1  'x, y, z'
loop_
 _atom_site_type_symbol
 _atom_site_label
 _atom_site_symmetry_multiplicity
 _atom_site_fract_x
 _atom_site_fract_y
 _atom_site_fract_z
 _atom_site_occupancy
  La  La0  1  0.475231  0.491938  0.233898  1
  La  La1  1  0.749986  0.240192  0.259793  1
  La  La2  1  0.749997  0.010003  0.490002  1
  La  La3  1  0.239998  0.479995  0.489999  1
  La  La4  1  0.258679  0.741961  0.233891  1
  La  La5  1  0.024776  0.266106  0.008071  1
  La  La6  1  0.009800  0.019593  0.259803  1
  La  La7  1  0.483285  0.741966  0.008065  1
  La  La8  1  0.490206  0.240206  0.480403  1
  La  La9  1  0.016718  0.491932  0.758029  1
  La  La10  1  0.259997  0.009998  0.019993  1
  La  La11  1  0.241327  0.266097  0.758037  1
  As  As12  1  0.249999  0.250458  0.249542  1
  As  As13  1  0.499542  0.999083  0.249542  1
  As  As14  1  0.000457  0.250456  0.500917  1
  P  P15  1  0.249998  0.500001  0.000000  1
  Br  Br16  1  0.249999  0.754650  0.745357  1
  Br  Br17  1  0.510022  0.505128  0.755481  1
  Br  Br18  1  0.989980  0.744523  0.994877  1
  Br  Br19  1  0.745458  0.250350  0.755479  1
  Br  Br20  1  0.995353  0.990709  0.745356  1
  Br  Br21  1  0.249998  0.995933  0.504065  1
  Br  Br22  1  0.754066  0.508134  0.504069  1
  Br  Br23  1  0.504896  0.250355  0.994873  1
  Br  Br24  1  0.754545  0.744523  0.249651  1
  Br  Br25  1  0.745934  0.995932  0.991867  1
  Br  Br26  1  0.995104  0.505129  0.249643  1
  Br  Br27  1  0.504650  0.754649  0.509296  1
