# generated using pymatgen
data_La14Y2Cd4Ir3Ru
_symmetry_space_group_name_H-M   'P 1'
_cell_length_a   10.04906968
_cell_length_b   10.07281875
_cell_length_c   10.04406225
_cell_angle_alpha   59.90523823
_cell_angle_beta   60.82056260
_cell_angle_gamma   59.92178847
_symmetry_Int_Tables_number   1
_chemical_formula_structural   La14Y2Cd4Ir3Ru
_chemical_formula_sum   'La14 Y2 Cd4 Ir3 Ru1'
_cell_volume   722.29755054
_cell_formula_units_Z   1
loop_
 _symmetry_equiv_pos_site_id
 _symmetry_equiv_pos_as_xyz
  1  'x, y, z'
loop_
 _atom_site_type_symbol
 _atom_site_label
 _atom_site_symmetry_multiplicity
 _atom_site_fract_x
 _atom_site_fract_y
 _atom_site_fract_z
 _atom_site_occupancy
  La  La0  1  0.440725  0.439500  0.059277  1
  La  La1  1  0.060179  0.059704  0.440374  1
  La  La2  1  0.440725  0.060498  0.059277  1
  La  La3  1  0.846159  0.851623  0.844529  1
  La  La4  1  0.685947  0.312988  0.313655  1
  La  La5  1  0.060179  0.439744  0.440374  1
  La  La6  1  0.310396  0.685816  0.685956  1
  La  La7  1  0.310396  0.317832  0.685956  1
  La  La8  1  0.853635  0.844252  0.457860  1
  La  La9  1  0.685947  0.687410  0.313655  1
  La  La10  1  0.455666  0.846335  0.851665  1
  La  La11  1  0.057678  0.442657  0.057008  1
  La  La12  1  0.846159  0.457689  0.844529  1
  La  La13  1  0.444117  0.056266  0.443352  1
  Y  Y14  1  0.307343  0.692788  0.307080  1
  Y  Y15  1  0.692319  0.307108  0.693465  1
  Cd  Cd16  1  0.080948  0.762295  0.080929  1
  Cd  Cd17  1  0.076010  0.081084  0.761820  1
  Cd  Cd18  1  0.762021  0.081144  0.075690  1
  Cd  Cd19  1  0.080948  0.075827  0.080929  1
  Ir  Ir20  1  0.638577  0.080002  0.639950  1
  Ir  Ir21  1  0.638577  0.641471  0.639950  1
  Ir  Ir22  1  0.640915  0.639779  0.079525  1
  Ru  Ru23  1  0.084432  0.636187  0.643194  1
