# generated using pymatgen
data_Ba4ScNbO8
_symmetry_space_group_name_H-M   'P 1'
_cell_length_a   7.40128616
_cell_length_b   7.40128696
_cell_length_c   5.89736900
_cell_angle_alpha   90.00000000
_cell_angle_beta   90.00000000
_cell_angle_gamma   133.09409294
_symmetry_Int_Tables_number   1
_chemical_formula_structural   Ba4ScNbO8
_chemical_formula_sum   'Ba4 Sc1 Nb1 O8'
_cell_volume   235.90330643
_cell_formula_units_Z   1
loop_
 _symmetry_equiv_pos_site_id
 _symmetry_equiv_pos_as_xyz
  1  'x, y, z'
loop_
 _atom_site_type_symbol
 _atom_site_label
 _atom_site_symmetry_multiplicity
 _atom_site_fract_x
 _atom_site_fract_y
 _atom_site_fract_z
 _atom_site_occupancy
  Ba  Ba0  1  0.646826  0.353174  0.000000  1
  Ba  Ba1  1  0.145068  0.854932  0.500000  1
  Ba  Ba2  1  0.854932  0.145068  0.500000  1
  Ba  Ba3  1  0.353174  0.646826  0.000000  1
  Sc  Sc4  1  0.000000  0.000000  0.000000  1
  Nb  Nb5  1  0.500000  0.500000  0.500000  1
  O  O6  1  0.842908  0.157092  0.000000  1
  O  O7  1  0.348375  0.651625  0.500000  1
  O  O8  1  0.651625  0.348375  0.500000  1
  O  O9  1  0.157092  0.842908  0.000000  1
  O  O10  1  0.743648  0.743648  0.741270  1
  O  O11  1  0.256352  0.256352  0.258730  1
  O  O12  1  0.256352  0.256352  0.741270  1
  O  O13  1  0.743648  0.743648  0.258730  1
