# generated using pymatgen
data_U(TaSe2)4
_symmetry_space_group_name_H-M   'P 1'
_cell_length_a   6.97555900
_cell_length_b   6.97556036
_cell_length_c   14.09888000
_cell_angle_alpha   90.00000000
_cell_angle_beta   90.00000000
_cell_angle_gamma   120.00000779
_symmetry_Int_Tables_number   1
_chemical_formula_structural   U(TaSe2)4
_chemical_formula_sum   'U2 Ta8 Se16'
_cell_volume   594.11884615
_cell_formula_units_Z   2
loop_
 _symmetry_equiv_pos_site_id
 _symmetry_equiv_pos_as_xyz
  1  'x, y, z'
loop_
 _atom_site_type_symbol
 _atom_site_label
 _atom_site_symmetry_multiplicity
 _atom_site_fract_x
 _atom_site_fract_y
 _atom_site_fract_z
 _atom_site_occupancy
  U  U0  1  0.000000  0.000000  0.500000  1
  U  U1  1  0.000000  0.000000  0.000000  1
  Ta  Ta2  1  0.507832  0.492168  0.750000  1
  Ta  Ta3  1  0.015662  0.507832  0.250000  1
  Ta  Ta4  1  0.492168  0.984338  0.250000  1
  Ta  Ta5  1  0.507832  0.015662  0.750000  1
  Ta  Ta6  1  0.984338  0.492168  0.750000  1
  Ta  Ta7  1  0.492168  0.507832  0.250000  1
  Ta  Ta8  1  0.000000  0.000000  0.750000  1
  Ta  Ta9  1  0.000000  0.000000  0.250000  1
  Se  Se10  1  0.828494  0.171506  0.366070  1
  Se  Se11  1  0.828494  0.656988  0.366070  1
  Se  Se12  1  0.343012  0.171506  0.366070  1
  Se  Se13  1  0.656988  0.828494  0.866070  1
  Se  Se14  1  0.171506  0.343012  0.633930  1
  Se  Se15  1  0.171506  0.828494  0.866070  1
  Se  Se16  1  0.171506  0.343012  0.866070  1
  Se  Se17  1  0.828494  0.171506  0.133930  1
  Se  Se18  1  0.343012  0.171506  0.133930  1
  Se  Se19  1  0.656988  0.828494  0.633930  1
  Se  Se20  1  0.333333  0.666667  0.125768  1
  Se  Se21  1  0.666667  0.333333  0.625768  1
  Se  Se22  1  0.666667  0.333333  0.874232  1
  Se  Se23  1  0.333333  0.666667  0.374232  1
  Se  Se24  1  0.828494  0.656988  0.133930  1
  Se  Se25  1  0.171506  0.828494  0.633930  1
