# generated using pymatgen
data_Tm12Co4HgOs
_symmetry_space_group_name_H-M   'P 1'
_cell_length_a   8.16047928
_cell_length_b   8.16064900
_cell_length_c   8.16047835
_cell_angle_alpha   111.42447481
_cell_angle_beta   110.74930711
_cell_angle_gamma   106.28602554
_symmetry_Int_Tables_number   1
_chemical_formula_structural   Tm12Co4HgOs
_chemical_formula_sum   'Tm12 Co4 Hg1 Os1'
_cell_volume   417.37065707
_cell_formula_units_Z   1
loop_
 _symmetry_equiv_pos_site_id
 _symmetry_equiv_pos_as_xyz
  1  'x, y, z'
loop_
 _atom_site_type_symbol
 _atom_site_label
 _atom_site_symmetry_multiplicity
 _atom_site_fract_x
 _atom_site_fract_y
 _atom_site_fract_z
 _atom_site_occupancy
  Tm  Tm0  1  0.580043  0.273768  0.306272  1
  Tm  Tm1  1  0.180085  0.224863  0.404980  1
  Tm  Tm2  1  0.180119  0.775137  0.955224  1
  Tm  Tm3  1  0.683871  0.490590  0.806719  1
  Tm  Tm4  1  0.683860  0.877129  0.193269  1
  Tm  Tm5  1  0.967497  0.273768  0.693724  1
  Tm  Tm6  1  0.032503  0.726232  0.306276  1
  Tm  Tm7  1  0.316140  0.122871  0.806731  1
  Tm  Tm8  1  0.316129  0.509410  0.193281  1
  Tm  Tm9  1  0.819881  0.224863  0.044776  1
  Tm  Tm10  1  0.819915  0.775137  0.595020  1
  Tm  Tm11  1  0.419957  0.726232  0.693728  1
  Co  Co12  1  0.887276  0.887290  0.000013  1
  Co  Co13  1  0.371210  0.500000  0.871210  1
  Co  Co14  1  0.628790  0.500000  0.128790  1
  Co  Co15  1  0.112724  0.112710  0.999987  1
  Hg  Hg16  1  0.500000  0.000000  0.500000  1
  Os  Os17  1  0.000000  0.500000  0.500000  1
