# generated using pymatgen
data_Nd2ErTm(ReB6)2
_symmetry_space_group_name_H-M   'P 1'
_cell_length_a   3.71561300
_cell_length_b   9.22703103
_cell_length_c   11.68607903
_cell_angle_alpha   90.00846482
_cell_angle_beta   90.00000000
_cell_angle_gamma   90.00000000
_symmetry_Int_Tables_number   1
_chemical_formula_structural   Nd2ErTm(ReB6)2
_chemical_formula_sum   'Nd4 Er2 Tm2 Re4 B24'
_cell_volume   400.64642231
_cell_formula_units_Z   2
loop_
 _symmetry_equiv_pos_site_id
 _symmetry_equiv_pos_as_xyz
  1  'x, y, z'
loop_
 _atom_site_type_symbol
 _atom_site_label
 _atom_site_symmetry_multiplicity
 _atom_site_fract_x
 _atom_site_fract_y
 _atom_site_fract_z
 _atom_site_occupancy
  Nd  Nd0  1  0.000000  0.322791  0.414412  1
  Nd  Nd1  1  0.000000  0.677209  0.585588  1
  Nd  Nd2  1  0.000000  0.822587  0.085468  1
  Nd  Nd3  1  0.000000  0.177413  0.914532  1
  Er  Er4  1  0.000000  0.943160  0.369447  1
  Er  Er5  1  0.000000  0.056840  0.630553  1
  Tm  Tm6  1  0.000000  0.443139  0.130349  1
  Tm  Tm7  1  0.000000  0.556861  0.869651  1
  Re  Re8  1  0.000000  0.639356  0.318626  1
  Re  Re9  1  0.000000  0.360644  0.681374  1
  Re  Re10  1  0.000000  0.139998  0.181044  1
  Re  Re11  1  0.000000  0.860002  0.818956  1
  B  B12  1  0.500000  0.555211  0.430166  1
  B  B13  1  0.500000  0.444789  0.569834  1
  B  B14  1  0.500000  0.055364  0.069717  1
  B  B15  1  0.500000  0.944636  0.930283  1
  B  B16  1  0.500000  0.750092  0.415486  1
  B  B17  1  0.500000  0.249908  0.584514  1
  B  B18  1  0.500000  0.250711  0.084371  1
  B  B19  1  0.500000  0.749289  0.915629  1
  B  B20  1  0.500000  0.791611  0.265751  1
  B  B21  1  0.500000  0.208389  0.734249  1
  B  B22  1  0.500000  0.292274  0.234071  1
  B  B23  1  0.500000  0.707726  0.765929  1
  B  B24  1  0.500000  0.629187  0.185638  1
  B  B25  1  0.500000  0.370813  0.814362  1
  B  B26  1  0.500000  0.129687  0.313945  1
  B  B27  1  0.500000  0.870313  0.686055  1
  B  B28  1  0.500000  0.983867  0.213264  1
  B  B29  1  0.500000  0.016133  0.786736  1
  B  B30  1  0.500000  0.483436  0.286362  1
  B  B31  1  0.500000  0.516564  0.713638  1
  B  B32  1  0.500000  0.595452  0.026293  1
  B  B33  1  0.500000  0.404548  0.973707  1
  B  B34  1  0.500000  0.096010  0.473609  1
  B  B35  1  0.500000  0.903990  0.526391  1
