# generated using pymatgen
data_Y17Tm3Pb16
_symmetry_space_group_name_H-M   'P 1'
_cell_length_a   8.22169900
_cell_length_b   8.30293444
_cell_length_c   15.67056700
_cell_angle_alpha   90.00000000
_cell_angle_beta   90.00000000
_cell_angle_gamma   90.01868010
_symmetry_Int_Tables_number   1
_chemical_formula_structural   Y17Tm3Pb16
_chemical_formula_sum   'Y17 Tm3 Pb16'
_cell_volume   1069.73909848
_cell_formula_units_Z   1
loop_
 _symmetry_equiv_pos_site_id
 _symmetry_equiv_pos_as_xyz
  1  'x, y, z'
loop_
 _atom_site_type_symbol
 _atom_site_label
 _atom_site_symmetry_multiplicity
 _atom_site_fract_x
 _atom_site_fract_y
 _atom_site_fract_z
 _atom_site_occupancy
  Y  Y0  1  0.377544  0.841214  0.879153  1
  Y  Y1  1  0.876825  0.659275  0.620788  1
  Y  Y2  1  0.622735  0.158922  0.379042  1
  Y  Y3  1  0.122741  0.341033  0.121082  1
  Y  Y4  1  0.622735  0.158922  0.120958  1
  Y  Y5  1  0.122741  0.341033  0.378918  1
  Y  Y6  1  0.377544  0.841214  0.620847  1
  Y  Y7  1  0.876825  0.659275  0.879212  1
  Y  Y8  1  0.535356  0.323722  0.899887  1
  Y  Y9  1  0.034918  0.175850  0.600112  1
  Y  Y10  1  0.464868  0.676127  0.399742  1
  Y  Y11  1  0.964886  0.823827  0.100175  1
  Y  Y12  1  0.464868  0.676127  0.100258  1
  Y  Y13  1  0.964886  0.823827  0.399825  1
  Y  Y14  1  0.535356  0.323722  0.600113  1
  Y  Y15  1  0.034918  0.175850  0.899888  1
  Y  Y16  1  0.208845  0.503598  0.750000  1
  Tm  Tm17  1  0.709095  0.996120  0.750000  1
  Tm  Tm18  1  0.790957  0.496153  0.250000  1
  Tm  Tm19  1  0.290726  0.003818  0.250000  1
  Pb  Pb20  1  0.281080  0.032724  0.043326  1
  Pb  Pb21  1  0.781196  0.467339  0.456688  1
  Pb  Pb22  1  0.718868  0.967398  0.543141  1
  Pb  Pb23  1  0.218922  0.532904  0.957418  1
  Pb  Pb24  1  0.718868  0.967398  0.956859  1
  Pb  Pb25  1  0.218922  0.532904  0.542582  1
  Pb  Pb26  1  0.281080  0.032724  0.456674  1
  Pb  Pb27  1  0.781196  0.467339  0.043312  1
  Pb  Pb28  1  0.572847  0.626531  0.750000  1
  Pb  Pb29  1  0.071518  0.874782  0.750000  1
  Pb  Pb30  1  0.428314  0.373900  0.250000  1
  Pb  Pb31  1  0.928167  0.125917  0.250000  1
  Pb  Pb32  1  0.347739  0.152176  0.750000  1
  Pb  Pb33  1  0.846412  0.346156  0.750000  1
  Pb  Pb34  1  0.652750  0.846439  0.250000  1
  Pb  Pb35  1  0.152747  0.653738  0.250000  1
