# generated using pymatgen
data_Cs6Sc(InBr6)3
_symmetry_space_group_name_H-M   'P 1'
_cell_length_a   7.97064000
_cell_length_b   7.97063974
_cell_length_c   20.27187500
_cell_angle_alpha   90.00000000
_cell_angle_beta   90.00000000
_cell_angle_gamma   119.99999278
_symmetry_Int_Tables_number   1
_chemical_formula_structural   Cs6Sc(InBr6)3
_chemical_formula_sum   'Cs6 Sc1 In3 Br18'
_cell_volume   1115.34944963
_cell_formula_units_Z   1
loop_
 _symmetry_equiv_pos_site_id
 _symmetry_equiv_pos_as_xyz
  1  'x, y, z'
loop_
 _atom_site_type_symbol
 _atom_site_label
 _atom_site_symmetry_multiplicity
 _atom_site_fract_x
 _atom_site_fract_y
 _atom_site_fract_z
 _atom_site_occupancy
  Cs  Cs0  1  0.333333  0.666667  0.071558  1
  Cs  Cs1  1  0.666667  0.333333  0.928335  1
  Cs  Cs2  1  0.666667  0.333333  0.571731  1
  Cs  Cs3  1  0.333333  0.666667  0.428624  1
  Cs  Cs4  1  0.000000  0.000000  0.250027  1
  Cs  Cs5  1  0.000000  0.000000  0.749817  1
  Sc  Sc6  1  0.333333  0.666667  0.841794  1
  In  In7  1  0.333333  0.666667  0.657462  1
  In  In8  1  0.666667  0.333333  0.343124  1
  In  In9  1  0.666667  0.333333  0.156877  1
  Br  Br10  1  0.169641  0.339283  0.591347  1
  Br  Br11  1  0.830567  0.661134  0.408895  1
  Br  Br12  1  0.660717  0.830359  0.591347  1
  Br  Br13  1  0.830517  0.661033  0.090977  1
  Br  Br14  1  0.338866  0.169433  0.408895  1
  Br  Br15  1  0.174164  0.348329  0.907514  1
  Br  Br16  1  0.169641  0.830359  0.591347  1
  Br  Br17  1  0.338967  0.169483  0.090977  1
  Br  Br18  1  0.830567  0.169433  0.408895  1
  Br  Br19  1  0.651671  0.825836  0.907514  1
  Br  Br20  1  0.830517  0.169483  0.090977  1
  Br  Br21  1  0.174164  0.825836  0.907514  1
  Br  Br22  1  0.512582  0.025164  0.249956  1
  Br  Br23  1  0.485885  0.971770  0.751527  1
  Br  Br24  1  0.974836  0.487418  0.249956  1
  Br  Br25  1  0.028230  0.514115  0.751527  1
  Br  Br26  1  0.512582  0.487418  0.249956  1
  Br  Br27  1  0.485885  0.514115  0.751527  1
