# generated using pymatgen
data_Y2LuGaSn3Ir2
_symmetry_space_group_name_H-M   'P 1'
_cell_length_a   7.44151721
_cell_length_b   7.42227337
_cell_length_c   4.11382200
_cell_angle_alpha   90.00000000
_cell_angle_beta   90.00000000
_cell_angle_gamma   120.44917308
_symmetry_Int_Tables_number   1
_chemical_formula_structural   Y2LuGaSn3Ir2
_chemical_formula_sum   'Y2 Lu1 Ga1 Sn3 Ir2'
_cell_volume   195.88042037
_cell_formula_units_Z   1
loop_
 _symmetry_equiv_pos_site_id
 _symmetry_equiv_pos_as_xyz
  1  'x, y, z'
loop_
 _atom_site_type_symbol
 _atom_site_label
 _atom_site_symmetry_multiplicity
 _atom_site_fract_x
 _atom_site_fract_y
 _atom_site_fract_z
 _atom_site_occupancy
  Y  Y0  1  0.987258  0.397021  0.500000  1
  Y  Y1  1  0.602137  0.589894  0.500000  1
  Lu  Lu2  1  0.410213  0.018926  0.500000  1
  Ga  Ga3  1  0.334001  0.669800  0.000000  1
  Sn  Sn4  1  0.995813  0.742364  0.000000  1
  Sn  Sn5  1  0.257238  0.252234  0.000000  1
  Sn  Sn6  1  0.747363  0.003284  0.000000  1
  Ir  Ir7  1  0.661881  0.326829  0.000000  1
  Ir  Ir8  1  0.004096  0.999649  0.500000  1
