# generated using pymatgen
data_Tb7Dy9In4Ru3Rh
_symmetry_space_group_name_H-M   'P 1'
_cell_length_a   9.66719395
_cell_length_b   9.69210447
_cell_length_c   9.69571964
_cell_angle_alpha   59.80595284
_cell_angle_beta   59.71662480
_cell_angle_gamma   59.73956728
_symmetry_Int_Tables_number   1
_chemical_formula_structural   Tb7Dy9In4Ru3Rh
_chemical_formula_sum   'Tb7 Dy9 In4 Ru3 Rh1'
_cell_volume   638.77910890
_cell_formula_units_Z   1
loop_
 _symmetry_equiv_pos_site_id
 _symmetry_equiv_pos_as_xyz
  1  'x, y, z'
loop_
 _atom_site_type_symbol
 _atom_site_label
 _atom_site_symmetry_multiplicity
 _atom_site_fract_x
 _atom_site_fract_y
 _atom_site_fract_z
 _atom_site_occupancy
  Tb  Tb0  1  0.042137  0.652065  0.652800  1
  Tb  Tb1  1  0.442957  0.059952  0.059378  1
  Tb  Tb2  1  0.441703  0.061257  0.437454  1
  Tb  Tb3  1  0.059198  0.441980  0.057828  1
  Tb  Tb4  1  0.652558  0.650549  0.044770  1
  Tb  Tb5  1  0.190041  0.810049  0.193987  1
  Tb  Tb6  1  0.060819  0.440256  0.440575  1
  Dy  Dy7  1  0.808679  0.808632  0.191810  1
  Dy  Dy8  1  0.809151  0.191802  0.808002  1
  Dy  Dy9  1  0.190345  0.194615  0.809056  1
  Dy  Dy10  1  0.652202  0.044151  0.651189  1
  Dy  Dy11  1  0.057762  0.056974  0.443311  1
  Dy  Dy12  1  0.442402  0.437418  0.060695  1
  Dy  Dy13  1  0.652583  0.650486  0.650895  1
  Dy  Dy14  1  0.810540  0.192119  0.192032  1
  Dy  Dy15  1  0.190420  0.809133  0.808149  1
  In  In16  1  0.418718  0.418098  0.418045  1
  In  In17  1  0.418388  0.417993  0.746514  1
  In  In18  1  0.417683  0.746979  0.418051  1
  In  In19  1  0.748116  0.416830  0.417600  1
  Ru  Ru20  1  0.857484  0.417899  0.859795  1
  Ru  Ru21  1  0.858732  0.862159  0.861415  1
  Ru  Ru22  1  0.857418  0.859870  0.418389  1
  Rh  Rh23  1  0.419963  0.858736  0.858260  1
