# generated using pymatgen
data_Nd3Ho2Er3(CdPt)2
_symmetry_space_group_name_H-M   'P 1'
_cell_length_a   9.75477975
_cell_length_b   9.75477945
_cell_length_c   9.75477900
_cell_angle_alpha   59.99999815
_cell_angle_beta   59.99999915
_cell_angle_gamma   60.00000039
_symmetry_Int_Tables_number   1
_chemical_formula_structural   Nd3Ho2Er3(CdPt)2
_chemical_formula_sum   'Nd6 Ho4 Er6 Cd4 Pt4'
_cell_volume   656.35281488
_cell_formula_units_Z   2
loop_
 _symmetry_equiv_pos_site_id
 _symmetry_equiv_pos_as_xyz
  1  'x, y, z'
loop_
 _atom_site_type_symbol
 _atom_site_label
 _atom_site_symmetry_multiplicity
 _atom_site_fract_x
 _atom_site_fract_y
 _atom_site_fract_z
 _atom_site_occupancy
  Nd  Nd0  1  0.937952  0.562048  0.562048  1
  Nd  Nd1  1  0.562048  0.937952  0.937952  1
  Nd  Nd2  1  0.562048  0.937952  0.562048  1
  Nd  Nd3  1  0.937952  0.562048  0.937952  1
  Nd  Nd4  1  0.562048  0.562048  0.937952  1
  Nd  Nd5  1  0.937952  0.937952  0.562048  1
  Ho  Ho6  1  0.350285  0.350285  0.350285  1
  Ho  Ho7  1  0.350285  0.350285  0.949144  1
  Ho  Ho8  1  0.350285  0.949144  0.350285  1
  Ho  Ho9  1  0.949144  0.350285  0.350285  1
  Er  Er10  1  0.812666  0.187334  0.187334  1
  Er  Er11  1  0.187334  0.812666  0.812666  1
  Er  Er12  1  0.187334  0.812666  0.187334  1
  Er  Er13  1  0.812666  0.187334  0.812666  1
  Er  Er14  1  0.187334  0.187334  0.812666  1
  Er  Er15  1  0.812666  0.812666  0.187334  1
  Cd  Cd16  1  0.579746  0.579746  0.579746  1
  Cd  Cd17  1  0.579746  0.579746  0.260763  1
  Cd  Cd18  1  0.579746  0.260763  0.579746  1
  Cd  Cd19  1  0.260763  0.579746  0.579746  1
  Pt  Pt20  1  0.142417  0.142417  0.142417  1
  Pt  Pt21  1  0.142417  0.142417  0.572749  1
  Pt  Pt22  1  0.142417  0.572749  0.142417  1
  Pt  Pt23  1  0.572749  0.142417  0.142417  1
