# generated using pymatgen
data_Li2PaTiRh4
_symmetry_space_group_name_H-M   'P 1'
_cell_length_a   5.89746400
_cell_length_b   5.89706300
_cell_length_c   6.92989000
_cell_angle_alpha   90.00000000
_cell_angle_beta   90.00045103
_cell_angle_gamma   90.00000000
_symmetry_Int_Tables_number   1
_chemical_formula_structural   Li2PaTiRh4
_chemical_formula_sum   'Li4 Pa2 Ti2 Rh8'
_cell_volume   241.00575151
_cell_formula_units_Z   2
loop_
 _symmetry_equiv_pos_site_id
 _symmetry_equiv_pos_as_xyz
  1  'x, y, z'
loop_
 _atom_site_type_symbol
 _atom_site_label
 _atom_site_symmetry_multiplicity
 _atom_site_fract_x
 _atom_site_fract_y
 _atom_site_fract_z
 _atom_site_occupancy
  Li  Li0  1  0.750002  0.250001  0.000012  1
  Li  Li1  1  0.249998  0.750000  0.000010  1
  Li  Li2  1  0.749999  0.250001  0.500000  1
  Li  Li3  1  0.250003  0.750000  0.500001  1
  Pa  Pa4  1  0.249987  0.250001  0.999994  1
  Pa  Pa5  1  0.750009  0.750000  0.999990  1
  Ti  Ti6  1  0.749966  0.750000  0.500005  1
  Ti  Ti7  1  0.250031  0.250001  0.500006  1
  Rh  Rh8  1  0.500039  0.999960  0.263864  1
  Rh  Rh9  1  0.500039  0.500041  0.263864  1
  Rh  Rh10  1  0.999961  0.999962  0.263893  1
  Rh  Rh11  1  0.999961  0.500041  0.263893  1
  Rh  Rh12  1  0.999963  0.999964  0.736100  1
  Rh  Rh13  1  0.999963  0.500034  0.736100  1
  Rh  Rh14  1  0.500040  0.999962  0.736134  1
  Rh  Rh15  1  0.500040  0.500036  0.736134  1
