# generated using pymatgen
data_Ho2Tm2NbOs7
_symmetry_space_group_name_H-M   'P 1'
_cell_length_a   5.43859000
_cell_length_b   5.43856037
_cell_length_c   8.64149600
_cell_angle_alpha   89.99994411
_cell_angle_beta   90.00145028
_cell_angle_gamma   120.00299050
_symmetry_Int_Tables_number   1
_chemical_formula_structural   Ho2Tm2NbOs7
_chemical_formula_sum   'Ho2 Tm2 Nb1 Os7'
_cell_volume   221.34858508
_cell_formula_units_Z   1
loop_
 _symmetry_equiv_pos_site_id
 _symmetry_equiv_pos_as_xyz
  1  'x, y, z'
loop_
 _atom_site_type_symbol
 _atom_site_label
 _atom_site_symmetry_multiplicity
 _atom_site_fract_x
 _atom_site_fract_y
 _atom_site_fract_z
 _atom_site_occupancy
  Ho  Ho0  1  0.666666  0.333326  0.572561  1
  Ho  Ho1  1  0.333334  0.666674  0.427439  1
  Tm  Tm2  1  0.333337  0.666672  0.061061  1
  Tm  Tm3  1  0.666663  0.333328  0.938939  1
  Nb  Nb4  1  0.000000  0.000000  0.500000  1
  Os  Os5  1  0.000000  0.000000  0.000000  1
  Os  Os6  1  0.174021  0.348056  0.752693  1
  Os  Os7  1  0.174030  0.825982  0.752690  1
  Os  Os8  1  0.651945  0.825965  0.752685  1
  Os  Os9  1  0.825979  0.651944  0.247307  1
  Os  Os10  1  0.825970  0.174018  0.247310  1
  Os  Os11  1  0.348055  0.174035  0.247315  1
