# generated using pymatgen
data_YLuPa2As6Ru7
_symmetry_space_group_name_H-M   'P 1'
_cell_length_a   7.21194531
_cell_length_b   7.25178736
_cell_length_c   7.25178650
_cell_angle_alpha   109.80441253
_cell_angle_beta   109.38397492
_cell_angle_gamma   109.38396430
_symmetry_Int_Tables_number   1
_chemical_formula_structural   YLuPa2As6Ru7
_chemical_formula_sum   'Y1 Lu1 Pa2 As6 Ru7'
_cell_volume   291.38104015
_cell_formula_units_Z   1
loop_
 _symmetry_equiv_pos_site_id
 _symmetry_equiv_pos_as_xyz
  1  'x, y, z'
loop_
 _atom_site_type_symbol
 _atom_site_label
 _atom_site_symmetry_multiplicity
 _atom_site_fract_x
 _atom_site_fract_y
 _atom_site_fract_z
 _atom_site_occupancy
  Y  Y0  1  0.500000  0.000000  0.000000  1
  Lu  Lu1  1  0.500000  0.500000  0.500000  1
  Pa  Pa2  1  0.000000  0.000000  0.500000  1
  Pa  Pa3  1  0.000000  0.500000  0.000000  1
  As  As4  1  0.321204  0.007377  0.315880  1
  As  As5  1  0.000789  0.315340  0.315340  1
  As  As6  1  0.999211  0.684660  0.684660  1
  As  As7  1  0.321204  0.315880  0.007377  1
  As  As8  1  0.678796  0.684120  0.992623  1
  As  As9  1  0.678796  0.992623  0.684120  1
  Ru  Ru10  1  0.755385  0.506882  0.251477  1
  Ru  Ru11  1  0.500000  0.747943  0.252057  1
  Ru  Ru12  1  0.500000  0.252057  0.747943  1
  Ru  Ru13  1  0.755385  0.251477  0.506882  1
  Ru  Ru14  1  0.244615  0.748523  0.493118  1
  Ru  Ru15  1  0.244615  0.493118  0.748523  1
  Ru  Ru16  1  0.000000  0.000000  0.000000  1
