# generated using pymatgen
data_YHfB6Os
_symmetry_space_group_name_H-M   'P 1'
_cell_length_a   3.56220900
_cell_length_b   9.01349000
_cell_length_c   11.38611400
_cell_angle_alpha   90.00000000
_cell_angle_beta   90.00000000
_cell_angle_gamma   90.00000000
_symmetry_Int_Tables_number   1
_chemical_formula_structural   YHfB6Os
_chemical_formula_sum   'Y4 Hf4 B24 Os4'
_cell_volume   365.58461049
_cell_formula_units_Z   4
loop_
 _symmetry_equiv_pos_site_id
 _symmetry_equiv_pos_as_xyz
  1  'x, y, z'
loop_
 _atom_site_type_symbol
 _atom_site_label
 _atom_site_symmetry_multiplicity
 _atom_site_fract_x
 _atom_site_fract_y
 _atom_site_fract_z
 _atom_site_occupancy
  Y  Y0  1  0.000000  0.321252  0.413862  1
  Y  Y1  1  0.000000  0.678748  0.586138  1
  Y  Y2  1  0.000000  0.821252  0.086138  1
  Y  Y3  1  0.000000  0.178748  0.913862  1
  Hf  Hf4  1  0.000000  0.945008  0.374409  1
  Hf  Hf5  1  0.000000  0.054992  0.625592  1
  Hf  Hf6  1  0.000000  0.445008  0.125591  1
  Hf  Hf7  1  0.000000  0.554992  0.874408  1
  B  B8  1  0.500000  0.554956  0.433713  1
  B  B9  1  0.500000  0.445044  0.566287  1
  B  B10  1  0.500000  0.054956  0.066287  1
  B  B11  1  0.500000  0.945044  0.933713  1
  B  B12  1  0.500000  0.752750  0.418476  1
  B  B13  1  0.500000  0.247250  0.581524  1
  B  B14  1  0.500000  0.252750  0.081524  1
  B  B15  1  0.500000  0.747250  0.918476  1
  B  B16  1  0.500000  0.795257  0.263698  1
  B  B17  1  0.500000  0.204743  0.736302  1
  B  B18  1  0.500000  0.295256  0.236302  1
  B  B19  1  0.500000  0.704743  0.763698  1
  B  B20  1  0.500000  0.629752  0.182376  1
  B  B21  1  0.500000  0.370248  0.817624  1
  B  B22  1  0.500000  0.129752  0.317624  1
  B  B23  1  0.500000  0.870248  0.682376  1
  B  B24  1  0.500000  0.981992  0.213738  1
  B  B25  1  0.500000  0.018008  0.786262  1
  B  B26  1  0.500000  0.481992  0.286262  1
  B  B27  1  0.500000  0.518008  0.713738  1
  B  B28  1  0.500000  0.600647  0.027055  1
  B  B29  1  0.500000  0.399353  0.972945  1
  B  B30  1  0.500000  0.100647  0.472945  1
  B  B31  1  0.500000  0.899353  0.527055  1
  Os  Os32  1  0.000000  0.641581  0.318969  1
  Os  Os33  1  0.000000  0.358419  0.681031  1
  Os  Os34  1  0.000000  0.141581  0.181031  1
  Os  Os35  1  0.000000  0.858419  0.818969  1
