# generated using pymatgen
data_Ho4MgCo2Pt
_symmetry_space_group_name_H-M   'P 1'
_cell_length_a   7.06438582
_cell_length_b   7.06438557
_cell_length_c   8.41766800
_cell_angle_alpha   114.81038908
_cell_angle_beta   114.81038814
_cell_angle_gamma   89.99999365
_symmetry_Int_Tables_number   1
_chemical_formula_structural   Ho4MgCo2Pt
_chemical_formula_sum   'Ho8 Mg2 Co4 Pt2'
_cell_volume   338.12379251
_cell_formula_units_Z   2
loop_
 _symmetry_equiv_pos_site_id
 _symmetry_equiv_pos_as_xyz
  1  'x, y, z'
loop_
 _atom_site_type_symbol
 _atom_site_label
 _atom_site_symmetry_multiplicity
 _atom_site_fract_x
 _atom_site_fract_y
 _atom_site_fract_z
 _atom_site_occupancy
  Ho  Ho0  1  0.455709  0.314384  0.270094  1
  Ho  Ho1  1  0.955710  0.455709  0.270094  1
  Ho  Ho2  1  0.314384  0.814383  0.270094  1
  Ho  Ho3  1  0.814383  0.955710  0.270094  1
  Ho  Ho4  1  0.185616  0.044291  0.729905  1
  Ho  Ho5  1  0.685615  0.185616  0.729905  1
  Ho  Ho6  1  0.044291  0.544290  0.729905  1
  Ho  Ho7  1  0.544290  0.685615  0.729905  1
  Mg  Mg8  1  0.000000  0.000000  0.000000  1
  Mg  Mg9  1  0.500000  0.500000  0.000000  1
  Co  Co10  1  0.615224  0.115224  0.000000  1
  Co  Co11  1  0.115224  0.384777  0.000000  1
  Co  Co12  1  0.884776  0.615224  0.000000  1
  Co  Co13  1  0.384777  0.884776  0.000000  1
  Pt  Pt14  1  0.250000  0.250000  0.500000  1
  Pt  Pt15  1  0.750000  0.750000  0.500000  1
