# generated using pymatgen
data_NaEu3(DyTe2)4
_symmetry_space_group_name_H-M   'P 1'
_cell_length_a   8.97529521
_cell_length_b   8.97529563
_cell_length_c   8.93676527
_cell_angle_alpha   59.85727628
_cell_angle_beta   59.85727405
_cell_angle_gamma   59.99999574
_symmetry_Int_Tables_number   1
_chemical_formula_structural   NaEu3(DyTe2)4
_chemical_formula_sum   'Na1 Eu3 Dy4 Te8'
_cell_volume   507.95187765
_cell_formula_units_Z   1
loop_
 _symmetry_equiv_pos_site_id
 _symmetry_equiv_pos_as_xyz
  1  'x, y, z'
loop_
 _atom_site_type_symbol
 _atom_site_label
 _atom_site_symmetry_multiplicity
 _atom_site_fract_x
 _atom_site_fract_y
 _atom_site_fract_z
 _atom_site_occupancy
  Na  Na0  1  0.125000  0.125000  0.625000  1
  Eu  Eu1  1  0.125000  0.625000  0.125000  1
  Eu  Eu2  1  0.625000  0.125000  0.125000  1
  Eu  Eu3  1  0.125000  0.125000  0.125000  1
  Dy  Dy4  1  0.625000  0.125000  0.625000  1
  Dy  Dy5  1  0.625000  0.625000  0.625000  1
  Dy  Dy6  1  0.125000  0.625000  0.625000  1
  Dy  Dy7  1  0.625000  0.625000  0.125000  1
  Te  Te8  1  0.377637  0.862558  0.382168  1
  Te  Te9  1  0.872363  0.387442  0.867832  1
  Te  Te10  1  0.870569  0.870569  0.388292  1
  Te  Te11  1  0.872363  0.872363  0.867832  1
  Te  Te12  1  0.862558  0.377637  0.382168  1
  Te  Te13  1  0.379431  0.379431  0.861708  1
  Te  Te14  1  0.377637  0.377637  0.382168  1
  Te  Te15  1  0.387442  0.872363  0.867832  1
