# generated using pymatgen
data_Ho5TiRuO12
_symmetry_space_group_name_H-M   'P 1'
_cell_length_a   6.82726072
_cell_length_b   6.82726029
_cell_length_c   7.26102855
_cell_angle_alpha   74.46636348
_cell_angle_beta   74.46636758
_cell_angle_gamma   50.64769121
_symmetry_Int_Tables_number   1
_chemical_formula_structural   Ho5TiRuO12
_chemical_formula_sum   'Ho5 Ti1 Ru1 O12'
_cell_volume   249.95836209
_cell_formula_units_Z   1
loop_
 _symmetry_equiv_pos_site_id
 _symmetry_equiv_pos_as_xyz
  1  'x, y, z'
loop_
 _atom_site_type_symbol
 _atom_site_label
 _atom_site_symmetry_multiplicity
 _atom_site_fract_x
 _atom_site_fract_y
 _atom_site_fract_z
 _atom_site_occupancy
  Ho  Ho0  1  0.303690  0.299926  0.360355  1
  Ho  Ho1  1  0.700074  0.696310  0.639645  1
  Ho  Ho2  1  0.688623  0.696655  0.168569  1
  Ho  Ho3  1  0.303345  0.311377  0.831431  1
  Ho  Ho4  1  0.001129  0.998871  0.500000  1
  Ti  Ti5  1  0.766822  0.233178  0.000000  1
  Ru  Ru6  1  0.250480  0.749520  0.000000  1
  O  O7  1  0.096644  0.597533  0.573960  1
  O  O8  1  0.001309  0.997842  0.186252  1
  O  O9  1  0.402467  0.903356  0.426040  1
  O  O10  1  0.497644  0.502708  0.188087  1
  O  O11  1  0.095151  0.574219  0.084068  1
  O  O12  1  0.903082  0.402934  0.424511  1
  O  O13  1  0.002158  0.998691  0.813748  1
  O  O14  1  0.597066  0.096917  0.575489  1
  O  O15  1  0.497292  0.502356  0.811913  1
  O  O16  1  0.570816  0.103572  0.082198  1
  O  O17  1  0.425781  0.904849  0.915932  1
  O  O18  1  0.896428  0.429184  0.917802  1
