# generated using pymatgen
data_Nd8Al(Si4Ir)3
_symmetry_space_group_name_H-M   'P 1'
_cell_length_a   8.24940900
_cell_length_b   8.24940982
_cell_length_c   8.53152500
_cell_angle_alpha   90.00000000
_cell_angle_beta   90.00000000
_cell_angle_gamma   119.99999269
_symmetry_Int_Tables_number   1
_chemical_formula_structural   Nd8Al(Si4Ir)3
_chemical_formula_sum   'Nd8 Al1 Si12 Ir3'
_cell_volume   502.80900509
_cell_formula_units_Z   1
loop_
 _symmetry_equiv_pos_site_id
 _symmetry_equiv_pos_as_xyz
  1  'x, y, z'
loop_
 _atom_site_type_symbol
 _atom_site_label
 _atom_site_symmetry_multiplicity
 _atom_site_fract_x
 _atom_site_fract_y
 _atom_site_fract_z
 _atom_site_occupancy
  Nd  Nd0  1  0.497083  0.502917  0.754205  1
  Nd  Nd1  1  0.498513  0.501487  0.246182  1
  Nd  Nd2  1  0.005834  0.502917  0.754205  1
  Nd  Nd3  1  0.002972  0.501487  0.246182  1
  Nd  Nd4  1  0.497083  0.994166  0.754205  1
  Nd  Nd5  1  0.498513  0.997028  0.246182  1
  Nd  Nd6  1  0.000000  0.000000  0.751001  1
  Nd  Nd7  1  0.000000  0.000000  0.248019  1
  Al  Al8  1  0.666667  0.333333  0.505057  1
  Si  Si9  1  0.832517  0.167483  0.999302  1
  Si  Si10  1  0.166926  0.833074  0.000569  1
  Si  Si11  1  0.334965  0.167483  0.999302  1
  Si  Si12  1  0.168868  0.831132  0.500482  1
  Si  Si13  1  0.666149  0.833074  0.000569  1
  Si  Si14  1  0.838012  0.161988  0.498564  1
  Si  Si15  1  0.832517  0.665035  0.999302  1
  Si  Si16  1  0.662265  0.831132  0.500482  1
  Si  Si17  1  0.166926  0.333851  0.000569  1
  Si  Si18  1  0.323976  0.161988  0.498564  1
  Si  Si19  1  0.168868  0.337735  0.500482  1
  Si  Si20  1  0.838012  0.676024  0.498564  1
  Ir  Ir21  1  0.666667  0.333333  0.998076  1
  Ir  Ir22  1  0.333333  0.666667  0.001496  1
  Ir  Ir23  1  0.333333  0.666667  0.498440  1
