# generated using pymatgen
data_La2SmOsI3
_symmetry_space_group_name_H-M   'P 1'
_cell_length_a   4.36198100
_cell_length_b   9.50311094
_cell_length_c   12.55907665
_cell_angle_alpha   87.75655132
_cell_angle_beta   90.00000000
_cell_angle_gamma   90.00000000
_symmetry_Int_Tables_number   1
_chemical_formula_structural   La2SmOsI3
_chemical_formula_sum   'La4 Sm2 Os2 I6'
_cell_volume   520.20470235
_cell_formula_units_Z   2
loop_
 _symmetry_equiv_pos_site_id
 _symmetry_equiv_pos_as_xyz
  1  'x, y, z'
loop_
 _atom_site_type_symbol
 _atom_site_label
 _atom_site_symmetry_multiplicity
 _atom_site_fract_x
 _atom_site_fract_y
 _atom_site_fract_z
 _atom_site_occupancy
  La  La0  1  0.750000  0.119562  0.668644  1
  La  La1  1  0.250000  0.880438  0.331356  1
  La  La2  1  0.750000  0.098695  0.102453  1
  La  La3  1  0.250000  0.901305  0.897547  1
  Sm  Sm4  1  0.250000  0.313178  0.879349  1
  Sm  Sm5  1  0.750000  0.686822  0.120651  1
  Os  Os6  1  0.750000  0.115786  0.872793  1
  Os  Os7  1  0.250000  0.884214  0.127207  1
  I  I8  1  0.750000  0.133935  0.380327  1
  I  I9  1  0.250000  0.866065  0.619673  1
  I  I10  1  0.250000  0.373656  0.626393  1
  I  I11  1  0.750000  0.626344  0.373607  1
  I  I12  1  0.750000  0.602302  0.870143  1
  I  I13  1  0.250000  0.397698  0.129857  1
