# generated using pymatgen
data_Hg2I(BrO4)3
_symmetry_space_group_name_H-M   'P 1'
_cell_length_a   5.66073479
_cell_length_b   5.99106157
_cell_length_c   9.29463062
_cell_angle_alpha   76.61246657
_cell_angle_beta   89.62475260
_cell_angle_gamma   89.10124138
_symmetry_Int_Tables_number   1
_chemical_formula_structural   Hg2I(BrO4)3
_chemical_formula_sum   'Hg2 I1 Br3 O12'
_cell_volume   306.61163622
_cell_formula_units_Z   1
loop_
 _symmetry_equiv_pos_site_id
 _symmetry_equiv_pos_as_xyz
  1  'x, y, z'
loop_
 _atom_site_type_symbol
 _atom_site_label
 _atom_site_symmetry_multiplicity
 _atom_site_fract_x
 _atom_site_fract_y
 _atom_site_fract_z
 _atom_site_occupancy
  Hg  Hg0  1  0.767790  0.923794  0.194909  1
  Hg  Hg1  1  0.260268  0.059362  0.826266  1
  I  I2  1  0.729054  0.279327  0.415621  1
  Br  Br3  1  0.283456  0.616018  0.138176  1
  Br  Br4  1  0.782193  0.374837  0.858258  1
  Br  Br5  1  0.249556  0.740660  0.591426  1
  O  O6  1  0.913377  0.526682  0.334959  1
  O  O7  1  0.415276  0.501260  0.648225  1
  O  O8  1  0.486226  0.670852  0.003904  1
  O  O9  1  0.991216  0.329296  0.987430  1
  O  O10  1  0.409541  0.712822  0.277202  1
  O  O11  1  0.913270  0.268665  0.721468  1
  O  O12  1  0.934364  0.042540  0.410136  1
  O  O13  1  0.429610  0.963934  0.602487  1
  O  O14  1  0.587136  0.159984  0.938929  1
  O  O15  1  0.082612  0.837097  0.060486  1
  O  O16  1  0.557652  0.233881  0.256074  1
  O  O17  1  0.065566  0.758989  0.734044  1
