# generated using pymatgen
data_Ca6Zn4Pd12N
_symmetry_space_group_name_H-M   'P 1'
_cell_length_a   8.19365171
_cell_length_b   8.19365010
_cell_length_c   8.19365100
_cell_angle_alpha   109.47122285
_cell_angle_beta   109.47121888
_cell_angle_gamma   109.47122287
_symmetry_Int_Tables_number   1
_chemical_formula_structural   Ca6Zn4Pd12N
_chemical_formula_sum   'Ca6 Zn4 Pd12 N1'
_cell_volume   423.45812484
_cell_formula_units_Z   1
loop_
 _symmetry_equiv_pos_site_id
 _symmetry_equiv_pos_as_xyz
  1  'x, y, z'
loop_
 _atom_site_type_symbol
 _atom_site_label
 _atom_site_symmetry_multiplicity
 _atom_site_fract_x
 _atom_site_fract_y
 _atom_site_fract_z
 _atom_site_occupancy
  Ca  Ca0  1  0.000000  0.269592  0.269592  1
  Ca  Ca1  1  0.269592  0.000000  0.269592  1
  Ca  Ca2  1  0.730408  0.000000  0.730408  1
  Ca  Ca3  1  0.730408  0.730408  0.000000  1
  Ca  Ca4  1  0.269592  0.269592  0.000000  1
  Ca  Ca5  1  0.000000  0.730408  0.730408  1
  Zn  Zn6  1  0.500000  0.500000  0.500000  1
  Zn  Zn7  1  0.500000  0.000000  0.000000  1
  Zn  Zn8  1  0.000000  0.500000  0.000000  1
  Zn  Zn9  1  0.000000  0.000000  0.500000  1
  Pd  Pd10  1  0.663731  0.331866  0.331866  1
  Pd  Pd11  1  0.331866  0.000000  0.668134  1
  Pd  Pd12  1  0.331866  0.663731  0.331866  1
  Pd  Pd13  1  0.331866  0.331866  0.663731  1
  Pd  Pd14  1  0.331866  0.668134  0.000000  1
  Pd  Pd15  1  0.000000  0.331866  0.668134  1
  Pd  Pd16  1  0.000000  0.668134  0.331866  1
  Pd  Pd17  1  0.668134  0.668134  0.336269  1
  Pd  Pd18  1  0.668134  0.000000  0.331866  1
  Pd  Pd19  1  0.668134  0.331866  0.000000  1
  Pd  Pd20  1  0.668134  0.336269  0.668134  1
  Pd  Pd21  1  0.336269  0.668134  0.668134  1
  N  N22  1  0.000000  0.000000  0.000000  1
