# generated using pymatgen
data_Dy2Er3Bi2Os
_symmetry_space_group_name_H-M   'P 1'
_cell_length_a   7.91543200
_cell_length_b   9.00847300
_cell_length_c   12.47587900
_cell_angle_alpha   90.00000000
_cell_angle_beta   90.00000000
_cell_angle_gamma   90.00000000
_symmetry_Int_Tables_number   1
_chemical_formula_structural   Dy2Er3Bi2Os
_chemical_formula_sum   'Dy8 Er12 Bi8 Os4'
_cell_volume   889.60447224
_cell_formula_units_Z   4
loop_
 _symmetry_equiv_pos_site_id
 _symmetry_equiv_pos_as_xyz
  1  'x, y, z'
loop_
 _atom_site_type_symbol
 _atom_site_label
 _atom_site_symmetry_multiplicity
 _atom_site_fract_x
 _atom_site_fract_y
 _atom_site_fract_z
 _atom_site_occupancy
  Dy  Dy0  1  0.662688  0.750000  0.709028  1
  Dy  Dy1  1  0.337312  0.250000  0.290972  1
  Dy  Dy2  1  0.162688  0.250000  0.790972  1
  Dy  Dy3  1  0.837312  0.750000  0.209028  1
  Dy  Dy4  1  0.129372  0.750000  0.812015  1
  Dy  Dy5  1  0.870628  0.250000  0.187985  1
  Dy  Dy6  1  0.629372  0.250000  0.687985  1
  Dy  Dy7  1  0.370628  0.750000  0.312015  1
  Er  Er8  1  0.557476  0.750000  0.994924  1
  Er  Er9  1  0.442524  0.250000  0.005076  1
  Er  Er10  1  0.057476  0.250000  0.505076  1
  Er  Er11  1  0.942524  0.750000  0.494924  1
  Er  Er12  1  0.828298  0.458889  0.933561  1
  Er  Er13  1  0.171702  0.541111  0.066439  1
  Er  Er14  1  0.328298  0.541111  0.566439  1
  Er  Er15  1  0.171702  0.958889  0.066439  1
  Er  Er16  1  0.671702  0.458889  0.433561  1
  Er  Er17  1  0.828298  0.041111  0.933561  1
  Er  Er18  1  0.671702  0.041111  0.433561  1
  Er  Er19  1  0.328298  0.958889  0.566439  1
  Bi  Bi20  1  0.937954  0.004675  0.672248  1
  Bi  Bi21  1  0.062046  0.995325  0.327752  1
  Bi  Bi22  1  0.437954  0.995325  0.827752  1
  Bi  Bi23  1  0.062046  0.504675  0.327752  1
  Bi  Bi24  1  0.562046  0.004675  0.172248  1
  Bi  Bi25  1  0.937954  0.495325  0.672248  1
  Bi  Bi26  1  0.562046  0.495325  0.172248  1
  Bi  Bi27  1  0.437954  0.504675  0.827752  1
  Os  Os28  1  0.925705  0.750000  0.991852  1
  Os  Os29  1  0.074295  0.250000  0.008148  1
  Os  Os30  1  0.425705  0.250000  0.508148  1
  Os  Os31  1  0.574295  0.750000  0.491852  1
