# generated using pymatgen
data_Er4Tm4Sc11Si16Ag
_symmetry_space_group_name_H-M   'P 1'
_cell_length_a   6.99878414
_cell_length_b   7.36612780
_cell_length_c   13.95797518
_cell_angle_alpha   90.00483148
_cell_angle_beta   90.01774046
_cell_angle_gamma   89.90903042
_symmetry_Int_Tables_number   1
_chemical_formula_structural   Er4Tm4Sc11Si16Ag
_chemical_formula_sum   'Er4 Tm4 Sc11 Si16 Ag1'
_cell_volume   719.58764900
_cell_formula_units_Z   1
loop_
 _symmetry_equiv_pos_site_id
 _symmetry_equiv_pos_as_xyz
  1  'x, y, z'
loop_
 _atom_site_type_symbol
 _atom_site_label
 _atom_site_symmetry_multiplicity
 _atom_site_fract_x
 _atom_site_fract_y
 _atom_site_fract_z
 _atom_site_occupancy
  Er  Er0  1  0.011131  0.176535  0.096025  1
  Er  Er1  1  0.990344  0.814475  0.901767  1
  Er  Er2  1  0.485120  0.674217  0.902411  1
  Er  Er3  1  0.990197  0.814413  0.598187  1
  Tm  Tm4  1  0.510353  0.322666  0.095942  1
  Tm  Tm5  1  0.011193  0.176710  0.403871  1
  Tm  Tm6  1  0.510341  0.322660  0.404108  1
  Tm  Tm7  1  0.485114  0.674345  0.597647  1
  Sc  Sc8  1  0.838273  0.496358  0.250038  1
  Sc  Sc9  1  0.340534  0.003994  0.250038  1
  Sc  Sc10  1  0.656943  0.996931  0.749964  1
  Sc  Sc11  1  0.325609  0.182401  0.626951  1
  Sc  Sc12  1  0.671090  0.823785  0.374854  1
  Sc  Sc13  1  0.170486  0.678847  0.374044  1
  Sc  Sc14  1  0.671087  0.823760  0.125210  1
  Sc  Sc15  1  0.836148  0.326933  0.626798  1
  Sc  Sc16  1  0.325584  0.182330  0.873018  1
  Sc  Sc17  1  0.836199  0.326921  0.873153  1
  Sc  Sc18  1  0.170504  0.678768  0.125994  1
  Si  Si19  1  0.026947  0.095843  0.749978  1
  Si  Si20  1  0.969638  0.890138  0.250064  1
  Si  Si21  1  0.467897  0.614056  0.250024  1
  Si  Si22  1  0.535723  0.387294  0.749935  1
  Si  Si23  1  0.288204  0.879421  0.749915  1
  Si  Si24  1  0.714125  0.130382  0.250108  1
  Si  Si25  1  0.213304  0.369932  0.250093  1
  Si  Si26  1  0.776027  0.631386  0.749884  1
  Si  Si27  1  0.163187  0.460248  0.531637  1
  Si  Si28  1  0.841309  0.535016  0.462182  1
  Si  Si29  1  0.343344  0.965983  0.462733  1
  Si  Si30  1  0.841301  0.535140  0.037793  1
  Si  Si31  1  0.658734  0.033680  0.540197  1
  Si  Si32  1  0.162971  0.460310  0.968380  1
  Si  Si33  1  0.658751  0.033828  0.959815  1
  Si  Si34  1  0.343548  0.966032  0.037269  1
  Ag  Ag35  1  0.158739  0.514262  0.749971  1
