# generated using pymatgen
data_Er3Tm(SiRh2)8
_symmetry_space_group_name_H-M   'P 1'
_cell_length_a   4.11307900
_cell_length_b   9.07617613
_cell_length_c   11.26463116
_cell_angle_alpha   90.01961896
_cell_angle_beta   90.00000000
_cell_angle_gamma   90.00000000
_symmetry_Int_Tables_number   1
_chemical_formula_structural   Er3Tm(SiRh2)8
_chemical_formula_sum   'Er3 Tm1 Si8 Rh16'
_cell_volume   420.52025315
_cell_formula_units_Z   1
loop_
 _symmetry_equiv_pos_site_id
 _symmetry_equiv_pos_as_xyz
  1  'x, y, z'
loop_
 _atom_site_type_symbol
 _atom_site_label
 _atom_site_symmetry_multiplicity
 _atom_site_fract_x
 _atom_site_fract_y
 _atom_site_fract_z
 _atom_site_occupancy
  Er  Er0  1  0.250000  0.147332  0.824733  1
  Er  Er1  1  0.250000  0.352547  0.325138  1
  Er  Er2  1  0.750000  0.852134  0.174844  1
  Tm  Tm3  1  0.750000  0.647106  0.675168  1
  Si  Si4  1  0.250000  0.412259  0.637203  1
  Si  Si5  1  0.250000  0.087830  0.136787  1
  Si  Si6  1  0.750000  0.588133  0.363217  1
  Si  Si7  1  0.750000  0.911831  0.862612  1
  Si  Si8  1  0.250000  0.616760  0.058424  1
  Si  Si9  1  0.250000  0.883940  0.558360  1
  Si  Si10  1  0.750000  0.383576  0.941871  1
  Si  Si11  1  0.750000  0.116580  0.441597  1
  Rh  Rh12  1  0.250000  0.615977  0.502252  1
  Rh  Rh13  1  0.250000  0.885120  0.000475  1
  Rh  Rh14  1  0.750000  0.385183  0.499135  1
  Rh  Rh15  1  0.750000  0.115361  0.998818  1
  Rh  Rh16  1  0.250000  0.684136  0.268900  1
  Rh  Rh17  1  0.250000  0.813384  0.767709  1
  Rh  Rh18  1  0.750000  0.315704  0.731572  1
  Rh  Rh19  1  0.750000  0.185081  0.231259  1
  Rh  Rh20  1  0.250000  0.172834  0.559280  1
  Rh  Rh21  1  0.250000  0.327102  0.059054  1
  Rh  Rh22  1  0.750000  0.827502  0.441079  1
  Rh  Rh23  1  0.750000  0.672544  0.940601  1
  Rh  Rh24  1  0.250000  0.007078  0.343870  1
  Rh  Rh25  1  0.250000  0.493288  0.844248  1
  Rh  Rh26  1  0.750000  0.992653  0.656154  1
  Rh  Rh27  1  0.750000  0.507026  0.155638  1
