# generated using pymatgen
data_YbHo(Al3Pd)3
_symmetry_space_group_name_H-M   'P 1'
_cell_length_a   7.63784404
_cell_length_b   7.63642134
_cell_length_c   9.47622400
_cell_angle_alpha   90.00000000
_cell_angle_beta   90.00000000
_cell_angle_gamma   119.65333622
_symmetry_Int_Tables_number   1
_chemical_formula_structural   YbHo(Al3Pd)3
_chemical_formula_sum   'Yb2 Ho2 Al18 Pd6'
_cell_volume   480.32271732
_cell_formula_units_Z   2
loop_
 _symmetry_equiv_pos_site_id
 _symmetry_equiv_pos_as_xyz
  1  'x, y, z'
loop_
 _atom_site_type_symbol
 _atom_site_label
 _atom_site_symmetry_multiplicity
 _atom_site_fract_x
 _atom_site_fract_y
 _atom_site_fract_z
 _atom_site_occupancy
  Yb  Yb0  1  0.995512  0.668402  0.250000  1
  Yb  Yb1  1  0.004488  0.331598  0.750000  1
  Ho  Ho2  1  0.669346  0.996398  0.250000  1
  Ho  Ho3  1  0.330654  0.003602  0.750000  1
  Al  Al4  1  0.129351  0.130975  0.250000  1
  Al  Al5  1  0.870649  0.869025  0.750000  1
  Al  Al6  1  0.000926  0.334905  0.076041  1
  Al  Al7  1  0.999074  0.665095  0.923959  1
  Al  Al8  1  0.999074  0.665095  0.576041  1
  Al  Al9  1  0.334255  0.999658  0.424016  1
  Al  Al10  1  0.000926  0.334905  0.423959  1
  Al  Al11  1  0.665745  0.000342  0.575984  1
  Al  Al12  1  0.665745  0.000342  0.924016  1
  Al  Al13  1  0.334255  0.999658  0.075984  1
  Al  Al14  1  0.333068  0.332968  0.558057  1
  Al  Al15  1  0.666932  0.667032  0.441943  1
  Al  Al16  1  0.666932  0.667032  0.058057  1
  Al  Al17  1  0.333068  0.332968  0.941943  1
  Al  Al18  1  0.342209  0.547982  0.250000  1
  Al  Al19  1  0.657791  0.452018  0.750000  1
  Al  Al20  1  0.543390  0.335484  0.250000  1
  Al  Al21  1  0.456610  0.664516  0.750000  1
  Pd  Pd22  1  0.672253  0.328533  0.000301  1
  Pd  Pd23  1  0.327747  0.671467  0.999699  1
  Pd  Pd24  1  0.327747  0.671467  0.500301  1
  Pd  Pd25  1  0.672253  0.328533  0.499699  1
  Pd  Pd26  1  0.000000  0.000000  0.000000  1
  Pd  Pd27  1  0.000000  0.000000  0.500000  1
