# generated using pymatgen
data_BaSrLa8(Si3O13)2
_symmetry_space_group_name_H-M   'P 1'
_cell_length_a   9.80984500
_cell_length_b   9.80984427
_cell_length_c   7.33455300
_cell_angle_alpha   90.00000000
_cell_angle_beta   90.00000000
_cell_angle_gamma   119.99999819
_symmetry_Int_Tables_number   1
_chemical_formula_structural   BaSrLa8(Si3O13)2
_chemical_formula_sum   'Ba1 Sr1 La8 Si6 O26'
_cell_volume   611.26362024
_cell_formula_units_Z   1
loop_
 _symmetry_equiv_pos_site_id
 _symmetry_equiv_pos_as_xyz
  1  'x, y, z'
loop_
 _atom_site_type_symbol
 _atom_site_label
 _atom_site_symmetry_multiplicity
 _atom_site_fract_x
 _atom_site_fract_y
 _atom_site_fract_z
 _atom_site_occupancy
  Ba  Ba0  1  0.333333  0.666667  0.568215  1
  Sr  Sr1  1  0.666667  0.333333  0.062204  1
  La  La2  1  0.241710  0.231766  0.818683  1
  La  La3  1  0.990056  0.758290  0.818683  1
  La  La4  1  0.768234  0.009944  0.818683  1
  La  La5  1  0.758195  0.767398  0.317440  1
  La  La6  1  0.009203  0.241805  0.317440  1
  La  La7  1  0.232602  0.990797  0.317440  1
  La  La8  1  0.666667  0.333333  0.562614  1
  La  La9  1  0.333333  0.666667  0.066422  1
  Si  Si10  1  0.024371  0.394403  0.819309  1
  Si  Si11  1  0.370032  0.975629  0.819309  1
  Si  Si12  1  0.605597  0.629968  0.819309  1
  Si  Si13  1  0.969302  0.601700  0.311561  1
  Si  Si14  1  0.632399  0.030698  0.311561  1
  Si  Si15  1  0.398300  0.367601  0.311561  1
  O  O16  1  0.912420  0.655357  0.497775  1
  O  O17  1  0.742936  0.087580  0.497775  1
  O  O18  1  0.344643  0.257064  0.497775  1
  O  O19  1  0.082855  0.332994  0.997049  1
  O  O20  1  0.250139  0.917145  0.997049  1
  O  O21  1  0.667006  0.749861  0.997049  1
  O  O22  1  0.113004  0.587732  0.837564  1
  O  O23  1  0.474728  0.886996  0.837564  1
  O  O24  1  0.412268  0.525272  0.837564  1
  O  O25  1  0.878270  0.407962  0.316828  1
  O  O26  1  0.529691  0.121730  0.316828  1
  O  O27  1  0.592038  0.470309  0.316828  1
  O  O28  1  0.832504  0.313025  0.806874  1
  O  O29  1  0.480521  0.167496  0.806874  1
  O  O30  1  0.686975  0.519479  0.806874  1
  O  O31  1  0.161131  0.683284  0.297012  1
  O  O32  1  0.522154  0.838869  0.297012  1
  O  O33  1  0.316716  0.477846  0.297012  1
  O  O34  1  0.088783  0.340620  0.639644  1
  O  O35  1  0.251837  0.911217  0.639644  1
  O  O36  1  0.659380  0.748163  0.639644  1
  O  O37  1  0.908097  0.665304  0.138896  1
  O  O38  1  0.757208  0.091903  0.138896  1
  O  O39  1  0.334696  0.242792  0.138896  1
  O  O40  1  0.000000  0.000000  0.820774  1
  O  O41  1  0.000000  0.000000  0.329906  1
