# generated using pymatgen
data_DyHoFe3Tc14C3
_symmetry_space_group_name_H-M   'P 1'
_cell_length_a   6.89501133
_cell_length_b   6.89501179
_cell_length_c   6.89501088
_cell_angle_alpha   82.31065568
_cell_angle_beta   82.31065563
_cell_angle_gamma   82.31066000
_symmetry_Int_Tables_number   1
_chemical_formula_structural   DyHoFe3Tc14C3
_chemical_formula_sum   'Dy1 Ho1 Fe3 Tc14 C3'
_cell_volume   319.67888565
_cell_formula_units_Z   1
loop_
 _symmetry_equiv_pos_site_id
 _symmetry_equiv_pos_as_xyz
  1  'x, y, z'
loop_
 _atom_site_type_symbol
 _atom_site_label
 _atom_site_symmetry_multiplicity
 _atom_site_fract_x
 _atom_site_fract_y
 _atom_site_fract_z
 _atom_site_occupancy
  Dy  Dy0  1  0.651253  0.651253  0.651253  1
  Ho  Ho1  1  0.348405  0.348405  0.348405  1
  Fe  Fe2  1  0.999913  0.999913  0.499928  1
  Fe  Fe3  1  0.499928  0.999913  0.999913  1
  Fe  Fe4  1  0.999913  0.499928  0.999913  1
  Tc  Tc5  1  0.723949  0.275980  0.000050  1
  Tc  Tc6  1  0.000050  0.723949  0.275980  1
  Tc  Tc7  1  0.275980  0.000050  0.723949  1
  Tc  Tc8  1  0.000050  0.275980  0.723949  1
  Tc  Tc9  1  0.723949  0.000050  0.275980  1
  Tc  Tc10  1  0.275980  0.723949  0.000050  1
  Tc  Tc11  1  0.348444  0.861163  0.348444  1
  Tc  Tc12  1  0.348444  0.348444  0.861163  1
  Tc  Tc13  1  0.861163  0.348444  0.348444  1
  Tc  Tc14  1  0.651291  0.139711  0.651291  1
  Tc  Tc15  1  0.651291  0.651291  0.139711  1
  Tc  Tc16  1  0.139711  0.651291  0.651291  1
  Tc  Tc17  1  0.898781  0.898781  0.898781  1
  Tc  Tc18  1  0.101295  0.101295  0.101295  1
  C  C19  1  0.499509  0.499509  0.001194  1
  C  C20  1  0.001194  0.499509  0.499509  1
  C  C21  1  0.499509  0.001194  0.499509  1
