# generated using pymatgen
data_Eu2(AlAg2)3
_symmetry_space_group_name_H-M   'P 1'
_cell_length_a   8.97245845
_cell_length_b   8.97245799
_cell_length_c   8.97245915
_cell_angle_alpha   57.63204931
_cell_angle_beta   57.63205052
_cell_angle_gamma   57.63204839
_symmetry_Int_Tables_number   1
_chemical_formula_structural   Eu2(AlAg2)3
_chemical_formula_sum   'Eu4 Al6 Ag12'
_cell_volume   482.96505360
_cell_formula_units_Z   2
loop_
 _symmetry_equiv_pos_site_id
 _symmetry_equiv_pos_as_xyz
  1  'x, y, z'
loop_
 _atom_site_type_symbol
 _atom_site_label
 _atom_site_symmetry_multiplicity
 _atom_site_fract_x
 _atom_site_fract_y
 _atom_site_fract_z
 _atom_site_occupancy
  Eu  Eu0  1  0.907558  0.907558  0.907558  1
  Eu  Eu1  1  0.407558  0.407558  0.407558  1
  Eu  Eu2  1  0.092442  0.092442  0.092442  1
  Eu  Eu3  1  0.592442  0.592442  0.592442  1
  Al  Al4  1  0.564140  0.750000  0.935860  1
  Al  Al5  1  0.935860  0.564140  0.750000  1
  Al  Al6  1  0.750000  0.935860  0.564140  1
  Al  Al7  1  0.435860  0.250000  0.064140  1
  Al  Al8  1  0.064140  0.435860  0.250000  1
  Al  Al9  1  0.250000  0.064140  0.435860  1
  Ag  Ag10  1  0.478777  0.863418  0.201209  1
  Ag  Ag11  1  0.201209  0.478777  0.863418  1
  Ag  Ag12  1  0.863418  0.201209  0.478777  1
  Ag  Ag13  1  0.701209  0.363418  0.978777  1
  Ag  Ag14  1  0.978777  0.701209  0.363418  1
  Ag  Ag15  1  0.363418  0.978777  0.701209  1
  Ag  Ag16  1  0.521223  0.136582  0.798791  1
  Ag  Ag17  1  0.798791  0.521223  0.136582  1
  Ag  Ag18  1  0.136582  0.798791  0.521223  1
  Ag  Ag19  1  0.298791  0.636582  0.021223  1
  Ag  Ag20  1  0.021223  0.298791  0.636582  1
  Ag  Ag21  1  0.636582  0.021223  0.298791  1
