# generated using pymatgen
data_Ho19Lu(Cd3Ir)2
_symmetry_space_group_name_H-M   'P 1'
_cell_length_a   9.53607100
_cell_length_b   9.53607098
_cell_length_c   9.80987400
_cell_angle_alpha   90.00000000
_cell_angle_beta   90.00000000
_cell_angle_gamma   119.99999661
_symmetry_Int_Tables_number   1
_chemical_formula_structural   Ho19Lu(Cd3Ir)2
_chemical_formula_sum   'Ho19 Lu1 Cd6 Ir2'
_cell_volume   772.56143758
_cell_formula_units_Z   1
loop_
 _symmetry_equiv_pos_site_id
 _symmetry_equiv_pos_as_xyz
  1  'x, y, z'
loop_
 _atom_site_type_symbol
 _atom_site_label
 _atom_site_symmetry_multiplicity
 _atom_site_fract_x
 _atom_site_fract_y
 _atom_site_fract_z
 _atom_site_occupancy
  Ho  Ho0  1  0.000000  0.000000  0.000000  1
  Ho  Ho1  1  0.209033  0.790967  0.441005  1
  Ho  Ho2  1  0.209033  0.418069  0.441005  1
  Ho  Ho3  1  0.581931  0.790967  0.441005  1
  Ho  Ho4  1  0.790967  0.209033  0.558995  1
  Ho  Ho5  1  0.790967  0.581931  0.558995  1
  Ho  Ho6  1  0.418069  0.209033  0.558995  1
  Ho  Ho7  1  0.790402  0.209598  0.941382  1
  Ho  Ho8  1  0.790402  0.580803  0.941382  1
  Ho  Ho9  1  0.419197  0.209598  0.941382  1
  Ho  Ho10  1  0.209598  0.790402  0.058618  1
  Ho  Ho11  1  0.209598  0.419197  0.058618  1
  Ho  Ho12  1  0.580803  0.790402  0.058618  1
  Ho  Ho13  1  0.541226  0.458774  0.250260  1
  Ho  Ho14  1  0.541226  0.082452  0.250260  1
  Ho  Ho15  1  0.917548  0.458774  0.250260  1
  Ho  Ho16  1  0.458774  0.541226  0.749740  1
  Ho  Ho17  1  0.458774  0.917548  0.749740  1
  Ho  Ho18  1  0.082452  0.541226  0.749740  1
  Lu  Lu19  1  0.000000  0.000000  0.500000  1
  Cd  Cd20  1  0.886216  0.113784  0.251154  1
  Cd  Cd21  1  0.886216  0.772434  0.251154  1
  Cd  Cd22  1  0.227566  0.113784  0.251154  1
  Cd  Cd23  1  0.113784  0.886216  0.748846  1
  Cd  Cd24  1  0.113784  0.227566  0.748846  1
  Cd  Cd25  1  0.772434  0.886216  0.748846  1
  Ir  Ir26  1  0.333333  0.666667  0.250545  1
  Ir  Ir27  1  0.666667  0.333333  0.749455  1
