# generated using pymatgen
data_La2Ga5Rh3
_symmetry_space_group_name_H-M   'P 1'
_cell_length_a   8.74389136
_cell_length_b   8.74389220
_cell_length_c   8.74389110
_cell_angle_alpha   141.01727381
_cell_angle_beta   107.65695284
_cell_angle_gamma   85.37390743
_symmetry_Int_Tables_number   1
_chemical_formula_structural   La2Ga5Rh3
_chemical_formula_sum   'La4 Ga10 Rh6'
_cell_volume   387.09294959
_cell_formula_units_Z   2
loop_
 _symmetry_equiv_pos_site_id
 _symmetry_equiv_pos_as_xyz
  1  'x, y, z'
loop_
 _atom_site_type_symbol
 _atom_site_label
 _atom_site_symmetry_multiplicity
 _atom_site_fract_x
 _atom_site_fract_y
 _atom_site_fract_z
 _atom_site_occupancy
  La  La0  1  0.363539  0.135711  0.227828  1
  La  La1  1  0.636461  0.864289  0.772172  1
  La  La2  1  0.092118  0.364289  0.727828  1
  La  La3  1  0.907882  0.635711  0.272172  1
  Ga  Ga4  1  0.000000  0.250000  0.250000  1
  Ga  Ga5  1  0.000000  0.750000  0.750000  1
  Ga  Ga6  1  0.709500  0.959500  0.250000  1
  Ga  Ga7  1  0.290500  0.540500  0.250000  1
  Ga  Ga8  1  0.290500  0.040500  0.750000  1
  Ga  Ga9  1  0.709500  0.459500  0.750000  1
  Ga  Ga10  1  0.571819  0.406151  0.165668  1
  Ga  Ga11  1  0.240483  0.906151  0.334332  1
  Ga  Ga12  1  0.759517  0.093849  0.665668  1
  Ga  Ga13  1  0.428181  0.593849  0.834332  1
  Rh  Rh14  1  0.952389  0.854906  0.097483  1
  Rh  Rh15  1  0.500000  0.750000  0.250000  1
  Rh  Rh16  1  0.757423  0.354906  0.402517  1
  Rh  Rh17  1  0.242577  0.645094  0.597483  1
  Rh  Rh18  1  0.047611  0.145094  0.902517  1
  Rh  Rh19  1  0.500000  0.250000  0.750000  1
