# generated using pymatgen
data_MoPd8
_symmetry_space_group_name_H-M   'P 1'
_cell_length_a   6.23371613
_cell_length_b   6.23371606
_cell_length_c   6.23371566
_cell_angle_alpha   95.76109767
_cell_angle_beta   95.76113720
_cell_angle_gamma   143.05741176
_symmetry_Int_Tables_number   1
_chemical_formula_structural   MoPd8
_chemical_formula_sum   'Mo1 Pd8'
_cell_volume   138.08776149
_cell_formula_units_Z   1
loop_
 _symmetry_equiv_pos_site_id
 _symmetry_equiv_pos_as_xyz
  1  'x, y, z'
loop_
 _atom_site_type_symbol
 _atom_site_label
 _atom_site_symmetry_multiplicity
 _atom_site_fract_x
 _atom_site_fract_y
 _atom_site_fract_z
 _atom_site_occupancy
  Mo  Mo0  1  0.000000  0.000000  0.000000  1
  Pd  Pd1  1  0.661981  0.338020  0.000000  1
  Pd  Pd2  1  0.338020  0.661981  0.000000  1
  Pd  Pd3  1  0.328857  0.000000  0.328857  1
  Pd  Pd4  1  0.000000  0.328857  0.328857  1
  Pd  Pd5  1  0.661981  0.661981  0.323961  1
  Pd  Pd6  1  0.338019  0.338019  0.676038  1
  Pd  Pd7  1  0.671143  0.000000  0.671143  1
  Pd  Pd8  1  0.000000  0.671143  0.671143  1
