# generated using pymatgen
data_YMg2PaRh2
_symmetry_space_group_name_H-M   'P 1'
_cell_length_a   3.79334000
_cell_length_b   7.39526459
_cell_length_c   9.09900767
_cell_angle_alpha   91.62129985
_cell_angle_beta   90.00000000
_cell_angle_gamma   90.00000000
_symmetry_Int_Tables_number   1
_chemical_formula_structural   YMg2PaRh2
_chemical_formula_sum   'Y2 Mg4 Pa2 Rh4'
_cell_volume   255.15002835
_cell_formula_units_Z   2
loop_
 _symmetry_equiv_pos_site_id
 _symmetry_equiv_pos_as_xyz
  1  'x, y, z'
loop_
 _atom_site_type_symbol
 _atom_site_label
 _atom_site_symmetry_multiplicity
 _atom_site_fract_x
 _atom_site_fract_y
 _atom_site_fract_z
 _atom_site_occupancy
  Y  Y0  1  0.250000  0.530417  0.817511  1
  Y  Y1  1  0.750000  0.469583  0.182489  1
  Mg  Mg2  1  0.750000  0.852338  0.951186  1
  Mg  Mg3  1  0.250000  0.147662  0.048814  1
  Mg  Mg4  1  0.250000  0.639201  0.447240  1
  Mg  Mg5  1  0.750000  0.360799  0.552760  1
  Pa  Pa6  1  0.750000  0.969214  0.313151  1
  Pa  Pa7  1  0.250000  0.030786  0.686849  1
  Rh  Rh8  1  0.750000  0.783213  0.635615  1
  Rh  Rh9  1  0.250000  0.216787  0.364385  1
  Rh  Rh10  1  0.250000  0.773982  0.168488  1
  Rh  Rh11  1  0.750000  0.226018  0.831512  1
