# generated using pymatgen
data_Ac8Tb9Er3Sn16
_symmetry_space_group_name_H-M   'P 1'
_cell_length_a   8.28156600
_cell_length_b   8.46335846
_cell_length_c   15.98998300
_cell_angle_alpha   90.00000000
_cell_angle_beta   90.00000000
_cell_angle_gamma   89.93493483
_symmetry_Int_Tables_number   1
_chemical_formula_structural   Ac8Tb9Er3Sn16
_chemical_formula_sum   'Ac8 Tb9 Er3 Sn16'
_cell_volume   1120.73497352
_cell_formula_units_Z   1
loop_
 _symmetry_equiv_pos_site_id
 _symmetry_equiv_pos_as_xyz
  1  'x, y, z'
loop_
 _atom_site_type_symbol
 _atom_site_label
 _atom_site_symmetry_multiplicity
 _atom_site_fract_x
 _atom_site_fract_y
 _atom_site_fract_z
 _atom_site_occupancy
  Ac  Ac0  1  0.513549  0.322464  0.904393  1
  Ac  Ac1  1  0.013164  0.176783  0.595512  1
  Ac  Ac2  1  0.486542  0.677385  0.404132  1
  Ac  Ac3  1  0.986714  0.823118  0.095651  1
  Ac  Ac4  1  0.486542  0.677385  0.095868  1
  Ac  Ac5  1  0.986714  0.823118  0.404349  1
  Ac  Ac6  1  0.513549  0.322464  0.595607  1
  Ac  Ac7  1  0.013164  0.176783  0.904488  1
  Tb  Tb8  1  0.357470  0.837428  0.876448  1
  Tb  Tb9  1  0.856783  0.662472  0.623565  1
  Tb  Tb10  1  0.642831  0.162580  0.376264  1
  Tb  Tb11  1  0.143000  0.337942  0.124013  1
  Tb  Tb12  1  0.642831  0.162580  0.123736  1
  Tb  Tb13  1  0.143000  0.337942  0.375987  1
  Tb  Tb14  1  0.357470  0.837428  0.623552  1
  Tb  Tb15  1  0.856783  0.662472  0.876435  1
  Tb  Tb16  1  0.193041  0.503362  0.750000  1
  Er  Er17  1  0.693126  0.995452  0.750000  1
  Er  Er18  1  0.806958  0.495649  0.250000  1
  Er  Er19  1  0.307182  0.004649  0.250000  1
  Sn  Sn20  1  0.310255  0.044312  0.044481  1
  Sn  Sn21  1  0.810345  0.455986  0.455463  1
  Sn  Sn22  1  0.689517  0.955799  0.544262  1
  Sn  Sn23  1  0.189569  0.544233  0.956316  1
  Sn  Sn24  1  0.689517  0.955799  0.955738  1
  Sn  Sn25  1  0.189569  0.544233  0.543684  1
  Sn  Sn26  1  0.310255  0.044312  0.455519  1
  Sn  Sn27  1  0.810345  0.455986  0.044537  1
  Sn  Sn28  1  0.556092  0.631992  0.750000  1
  Sn  Sn29  1  0.054903  0.868456  0.750000  1
  Sn  Sn30  1  0.445114  0.368315  0.250000  1
  Sn  Sn31  1  0.944974  0.131757  0.250000  1
  Sn  Sn32  1  0.320752  0.134646  0.750000  1
  Sn  Sn33  1  0.820830  0.363915  0.750000  1
  Sn  Sn34  1  0.678953  0.864179  0.250000  1
  Sn  Sn35  1  0.178600  0.636624  0.250000  1
