# generated using pymatgen
data_Rb4NdSm3(SiSe4)4
_symmetry_space_group_name_H-M   'P 1'
_cell_length_a   7.09859512
_cell_length_b   6.80164383
_cell_length_c   19.01338370
_cell_angle_alpha   72.07299213
_cell_angle_beta   90.00594727
_cell_angle_gamma   90.02145332
_symmetry_Int_Tables_number   1
_chemical_formula_structural   Rb4NdSm3(SiSe4)4
_chemical_formula_sum   'Rb4 Nd1 Sm3 Si4 Se16'
_cell_volume   873.43658604
_cell_formula_units_Z   1
loop_
 _symmetry_equiv_pos_site_id
 _symmetry_equiv_pos_as_xyz
  1  'x, y, z'
loop_
 _atom_site_type_symbol
 _atom_site_label
 _atom_site_symmetry_multiplicity
 _atom_site_fract_x
 _atom_site_fract_y
 _atom_site_fract_z
 _atom_site_occupancy
  Rb  Rb0  1  0.251789  0.725156  0.034062  1
  Rb  Rb1  1  0.248261  0.725034  0.534162  1
  Rb  Rb2  1  0.751775  0.274914  0.465958  1
  Rb  Rb3  1  0.748215  0.274877  0.965819  1
  Nd  Nd4  1  0.772630  0.226483  0.226612  1
  Sm  Sm5  1  0.225837  0.772268  0.773503  1
  Sm  Sm6  1  0.725839  0.227762  0.726503  1
  Sm  Sm7  1  0.274145  0.772256  0.273600  1
  Si  Si8  1  0.260817  0.215859  0.836076  1
  Si  Si9  1  0.239003  0.215785  0.336314  1
  Si  Si10  1  0.760762  0.784180  0.663918  1
  Si  Si11  1  0.739169  0.784385  0.163654  1
  Se  Se12  1  0.493217  0.984210  0.649859  1
  Se  Se13  1  0.181396  0.418674  0.217839  1
  Se  Se14  1  0.505275  0.013971  0.351300  1
  Se  Se15  1  0.993219  0.015752  0.850117  1
  Se  Se16  1  0.321063  0.418323  0.717760  1
  Se  Se17  1  0.255383  0.416116  0.911955  1
  Se  Se18  1  0.744400  0.587509  0.086767  1
  Se  Se19  1  0.821076  0.581741  0.782244  1
  Se  Se20  1  0.755345  0.583933  0.588034  1
  Se  Se21  1  0.244599  0.416337  0.411961  1
  Se  Se22  1  0.495469  0.971371  0.859520  1
  Se  Se23  1  0.995464  0.028757  0.640473  1
  Se  Se24  1  0.502928  0.027252  0.139741  1
  Se  Se25  1  0.008496  0.981868  0.149232  1
  Se  Se26  1  0.005846  0.969542  0.360448  1
  Se  Se27  1  0.678583  0.585686  0.282569  1
