# generated using pymatgen
data_Hf18Re7Ir2W
_symmetry_space_group_name_H-M   'P 1'
_cell_length_a   8.54593900
_cell_length_b   8.67680082
_cell_length_c   8.67680900
_cell_angle_alpha   120.00261397
_cell_angle_beta   90.00023954
_cell_angle_gamma   89.99873093
_symmetry_Int_Tables_number   1
_chemical_formula_structural   Hf18Re7Ir2W
_chemical_formula_sum   'Hf18 Re7 Ir2 W1'
_cell_volume   557.18401172
_cell_formula_units_Z   1
loop_
 _symmetry_equiv_pos_site_id
 _symmetry_equiv_pos_as_xyz
  1  'x, y, z'
loop_
 _atom_site_type_symbol
 _atom_site_label
 _atom_site_symmetry_multiplicity
 _atom_site_fract_x
 _atom_site_fract_y
 _atom_site_fract_z
 _atom_site_occupancy
  Hf  Hf0  1  0.554360  0.803769  0.607546  1
  Hf  Hf1  1  0.554351  0.803774  0.196225  1
  Hf  Hf2  1  0.554361  0.392455  0.196235  1
  Hf  Hf3  1  0.445640  0.196231  0.392454  1
  Hf  Hf4  1  0.445649  0.196226  0.803775  1
  Hf  Hf5  1  0.445639  0.607545  0.803765  1
  Hf  Hf6  1  0.054496  0.195667  0.391328  1
  Hf  Hf7  1  0.054478  0.195663  0.804336  1
  Hf  Hf8  1  0.054497  0.608673  0.804332  1
  Hf  Hf9  1  0.945504  0.804333  0.608672  1
  Hf  Hf10  1  0.945522  0.804337  0.195664  1
  Hf  Hf11  1  0.945503  0.391327  0.195668  1
  Hf  Hf12  1  0.750301  0.458238  0.916458  1
  Hf  Hf13  1  0.750296  0.458226  0.541778  1
  Hf  Hf14  1  0.750294  0.083544  0.541763  1
  Hf  Hf15  1  0.249699  0.541762  0.083542  1
  Hf  Hf16  1  0.249704  0.541774  0.458222  1
  Hf  Hf17  1  0.249706  0.916456  0.458237  1
  Re  Re18  1  0.749587  0.110670  0.221326  1
  Re  Re19  1  0.749596  0.110679  0.889324  1
  Re  Re20  1  0.749591  0.778671  0.889335  1
  Re  Re21  1  0.250413  0.889330  0.778674  1
  Re  Re22  1  0.250404  0.889321  0.110676  1
  Re  Re23  1  0.250409  0.221329  0.110665  1
  Re  Re24  1  0.000000  0.000000  0.000000  1
  Ir  Ir25  1  0.750318  0.666675  0.333329  1
  Ir  Ir26  1  0.249682  0.333325  0.666671  1
  W  W27  1  0.500000  0.000000  0.000000  1
