# generated using pymatgen
data_NaHg3(BrO3)8
_symmetry_space_group_name_H-M   'P 1'
_cell_length_a   5.78480658
_cell_length_b   11.17595665
_cell_length_c   11.26838800
_cell_angle_alpha   119.45886211
_cell_angle_beta   90.02560321
_cell_angle_gamma   90.10350768
_symmetry_Int_Tables_number   1
_chemical_formula_structural   NaHg3(BrO3)8
_chemical_formula_sum   'Na1 Hg3 Br8 O24'
_cell_volume   634.31819846
_cell_formula_units_Z   1
loop_
 _symmetry_equiv_pos_site_id
 _symmetry_equiv_pos_as_xyz
  1  'x, y, z'
loop_
 _atom_site_type_symbol
 _atom_site_label
 _atom_site_symmetry_multiplicity
 _atom_site_fract_x
 _atom_site_fract_y
 _atom_site_fract_z
 _atom_site_occupancy
  Na  Na0  1  0.149456  0.766372  0.510113  1
  Hg  Hg1  1  0.642411  0.232354  0.489045  1
  Hg  Hg2  1  0.147867  0.264982  0.003902  1
  Hg  Hg3  1  0.647286  0.731495  0.992359  1
  Br  Br4  1  0.279037  0.415759  0.352671  1
  Br  Br5  1  0.763031  0.580026  0.647586  1
  Br  Br6  1  0.276184  0.915915  0.851846  1
  Br  Br7  1  0.774020  0.083493  0.142973  1
  Br  Br8  1  0.767240  0.090737  0.689321  1
  Br  Br9  1  0.286700  0.917188  0.312803  1
  Br  Br10  1  0.262443  0.413438  0.809162  1
  Br  Br11  1  0.786269  0.585350  0.192730  1
  O  O12  1  0.411084  0.895977  0.975338  1
  O  O13  1  0.918458  0.100327  0.020639  1
  O  O14  1  0.393483  0.803575  0.703261  1
  O  O15  1  0.887313  0.203395  0.293250  1
  O  O16  1  0.386604  0.295895  0.201402  1
  O  O17  1  0.882447  0.688111  0.803105  1
  O  O18  1  0.883113  0.234919  0.816793  1
  O  O19  1  0.419274  0.777358  0.185795  1
  O  O20  1  0.925951  0.959897  0.672438  1
  O  O21  1  0.422057  0.059491  0.321215  1
  O  O22  1  0.382488  0.071102  0.878545  1
  O  O23  1  0.880174  0.933665  0.125549  1
  O  O24  1  0.384644  0.270874  0.683624  1
  O  O25  1  0.927312  0.720468  0.312844  1
  O  O26  1  0.345916  0.414545  0.956156  1
  O  O27  1  0.851334  0.582081  0.042433  1
  O  O28  1  0.406627  0.549735  0.819039  1
  O  O29  1  0.924529  0.443368  0.177039  1
  O  O30  1  0.386441  0.565285  0.379951  1
  O  O31  1  0.860830  0.423655  0.627064  1
  O  O32  1  0.420750  0.390761  0.474909  1
  O  O33  1  0.918849  0.604737  0.538528  1
  O  O34  1  0.848504  0.096432  0.541511  1
  O  O35  1  0.359471  0.917241  0.455057  1
