# generated using pymatgen
data_BaPr(NbS2)6
_symmetry_space_group_name_H-M   'P 1'
_cell_length_a   5.85742900
_cell_length_b   5.85742898
_cell_length_c   15.24080900
_cell_angle_alpha   90.00000000
_cell_angle_beta   90.00000000
_cell_angle_gamma   120.00000578
_symmetry_Int_Tables_number   1
_chemical_formula_structural   BaPr(NbS2)6
_chemical_formula_sum   'Ba1 Pr1 Nb6 S12'
_cell_volume   452.84824745
_cell_formula_units_Z   1
loop_
 _symmetry_equiv_pos_site_id
 _symmetry_equiv_pos_as_xyz
  1  'x, y, z'
loop_
 _atom_site_type_symbol
 _atom_site_label
 _atom_site_symmetry_multiplicity
 _atom_site_fract_x
 _atom_site_fract_y
 _atom_site_fract_z
 _atom_site_occupancy
  Ba  Ba0  1  0.333333  0.666667  0.250000  1
  Pr  Pr1  1  0.666667  0.333333  0.750000  1
  Nb  Nb2  1  0.333333  0.666667  0.987807  1
  Nb  Nb3  1  0.000000  0.000000  0.986764  1
  Nb  Nb4  1  0.666667  0.333333  0.985805  1
  Nb  Nb5  1  0.333333  0.666667  0.512193  1
  Nb  Nb6  1  0.000000  0.000000  0.513236  1
  Nb  Nb7  1  0.666667  0.333333  0.514195  1
  S  S8  1  0.670748  0.666322  0.410647  1
  S  S9  1  0.665817  0.671694  0.616194  1
  S  S10  1  0.005879  0.671694  0.883806  1
  S  S11  1  0.665817  0.994121  0.883806  1
  S  S12  1  0.670748  0.004427  0.089353  1
  S  S13  1  0.333678  0.004427  0.410647  1
  S  S14  1  0.005879  0.334183  0.616194  1
  S  S15  1  0.328306  0.994121  0.616194  1
  S  S16  1  0.995573  0.666322  0.089353  1
  S  S17  1  0.328306  0.334183  0.883806  1
  S  S18  1  0.995573  0.329252  0.410647  1
  S  S19  1  0.333678  0.329252  0.089353  1
