# generated using pymatgen
data_TaNb3Ni2(P2O7)6
_symmetry_space_group_name_H-M   'P 1'
_cell_length_a   8.07650868
_cell_length_b   6.62836410
_cell_length_c   16.94641066
_cell_angle_alpha   67.43199798
_cell_angle_beta   89.98363282
_cell_angle_gamma   90.00318423
_symmetry_Int_Tables_number   1
_chemical_formula_structural   TaNb3Ni2(P2O7)6
_chemical_formula_sum   'Ta1 Nb3 Ni2 P12 O42'
_cell_volume   837.73990800
_cell_formula_units_Z   1
loop_
 _symmetry_equiv_pos_site_id
 _symmetry_equiv_pos_as_xyz
  1  'x, y, z'
loop_
 _atom_site_type_symbol
 _atom_site_label
 _atom_site_symmetry_multiplicity
 _atom_site_fract_x
 _atom_site_fract_y
 _atom_site_fract_z
 _atom_site_occupancy
  Ta  Ta0  1  0.519934  0.700578  0.333169  1
  Nb  Nb1  1  0.979607  0.702127  0.833222  1
  Nb  Nb2  1  0.019946  0.298520  0.167030  1
  Nb  Nb3  1  0.479701  0.298932  0.666528  1
  Ni  Ni4  1  0.499979  0.000048  0.000209  1
  Ni  Ni5  1  0.000200  0.000036  0.499824  1
  P  P6  1  0.397007  0.821978  0.839997  1
  P  P7  1  0.602795  0.176638  0.160570  1
  P  P8  1  0.897009  0.178859  0.659820  1
  P  P9  1  0.103962  0.821145  0.339897  1
  P  P10  1  0.106979  0.551462  0.665101  1
  P  P11  1  0.892370  0.449190  0.335016  1
  P  P12  1  0.606726  0.449111  0.834791  1
  P  P13  1  0.393391  0.550200  0.165747  1
  P  P14  1  0.883200  0.797652  0.015993  1
  P  P15  1  0.116599  0.202900  0.984319  1
  P  P16  1  0.383715  0.203168  0.483725  1
  P  P17  1  0.616425  0.797600  0.514985  1
  O  O18  1  0.783961  0.831707  0.543203  1
  O  O19  1  0.216716  0.167091  0.455459  1
  O  O20  1  0.283622  0.166888  0.955965  1
  O  O21  1  0.716141  0.832767  0.044524  1
  O  O22  1  0.390985  0.231974  0.570497  1
  O  O23  1  0.607840  0.767891  0.428421  1
  O  O24  1  0.890405  0.768791  0.929213  1
  O  O25  1  0.109540  0.232375  0.070995  1
  O  O26  1  0.447294  0.597253  0.831103  1
  O  O27  1  0.552135  0.400445  0.170054  1
  O  O28  1  0.947522  0.403447  0.668713  1
  O  O29  1  0.052151  0.597285  0.330739  1
  O  O30  1  0.256897  0.392668  0.690143  1
  O  O31  1  0.741998  0.607249  0.310651  1
  O  O32  1  0.756872  0.607590  0.809883  1
  O  O33  1  0.242464  0.393027  0.190988  1
  O  O34  1  0.428389  0.999118  0.748709  1
  O  O35  1  0.571603  0.998378  0.251603  1
  O  O36  1  0.927935  0.001750  0.751143  1
  O  O37  1  0.072476  0.999001  0.248847  1
  O  O38  1  0.206526  0.797240  0.852425  1
  O  O39  1  0.793282  0.202151  0.148076  1
  O  O40  1  0.706628  0.204165  0.647200  1
  O  O41  1  0.294475  0.795112  0.351846  1
  O  O42  1  0.129040  0.733546  0.581011  1
  O  O43  1  0.871450  0.266956  0.419141  1
  O  O44  1  0.628390  0.266915  0.918883  1
  O  O45  1  0.372193  0.731907  0.081543  1
  O  O46  1  0.073782  0.624515  0.740287  1
  O  O47  1  0.924439  0.376288  0.259694  1
  O  O48  1  0.573804  0.376419  0.759484  1
  O  O49  1  0.427525  0.623409  0.240825  1
  O  O50  1  0.490124  0.859121  0.908412  1
  O  O51  1  0.509787  0.140643  0.091909  1
  O  O52  1  0.990205  0.141038  0.591562  1
  O  O53  1  0.011726  0.858168  0.408548  1
  O  O54  1  0.974131  0.601561  0.083657  1
  O  O55  1  0.025869  0.398891  0.916512  1
  O  O56  1  0.473811  0.400156  0.415928  1
  O  O57  1  0.525048  0.602480  0.583039  1
  O  O58  1  0.501578  0.002100  0.498936  1
  O  O59  1  0.999697  0.000384  0.000290  1
