# generated using pymatgen
data_Dy16In3HgIr4
_symmetry_space_group_name_H-M   'P 1'
_cell_length_a   9.64908823
_cell_length_b   9.64908877
_cell_length_c   9.64908801
_cell_angle_alpha   59.99600301
_cell_angle_beta   59.99600347
_cell_angle_gamma   59.99600309
_symmetry_Int_Tables_number   1
_chemical_formula_structural   Dy16In3HgIr4
_chemical_formula_sum   'Dy16 In3 Hg1 Ir4'
_cell_volume   635.19122745
_cell_formula_units_Z   1
loop_
 _symmetry_equiv_pos_site_id
 _symmetry_equiv_pos_as_xyz
  1  'x, y, z'
loop_
 _atom_site_type_symbol
 _atom_site_label
 _atom_site_symmetry_multiplicity
 _atom_site_fract_x
 _atom_site_fract_y
 _atom_site_fract_z
 _atom_site_occupancy
  Dy  Dy0  1  0.597910  0.597910  0.597910  1
  Dy  Dy1  1  0.601073  0.601073  0.200246  1
  Dy  Dy2  1  0.601073  0.200246  0.601073  1
  Dy  Dy3  1  0.200246  0.601073  0.601073  1
  Dy  Dy4  1  0.058569  0.440549  0.440549  1
  Dy  Dy5  1  0.436504  0.059853  0.059853  1
  Dy  Dy6  1  0.440549  0.058569  0.440549  1
  Dy  Dy7  1  0.059853  0.436504  0.059853  1
  Dy  Dy8  1  0.440549  0.440549  0.058569  1
  Dy  Dy9  1  0.059853  0.059853  0.436504  1
  Dy  Dy10  1  0.186527  0.811702  0.811702  1
  Dy  Dy11  1  0.810277  0.190015  0.190015  1
  Dy  Dy12  1  0.811702  0.186527  0.811702  1
  Dy  Dy13  1  0.190015  0.810277  0.190015  1
  Dy  Dy14  1  0.811702  0.811702  0.186527  1
  Dy  Dy15  1  0.190015  0.190015  0.810277  1
  In  In16  1  0.832167  0.832167  0.502917  1
  In  In17  1  0.832167  0.502917  0.832167  1
  In  In18  1  0.502917  0.832167  0.832167  1
  Hg  Hg19  1  0.835426  0.835426  0.835426  1
  Ir  Ir20  1  0.392488  0.392488  0.392488  1
  Ir  Ir21  1  0.391323  0.391323  0.825773  1
  Ir  Ir22  1  0.391323  0.825773  0.391323  1
  Ir  Ir23  1  0.825773  0.391323  0.391323  1
