# generated using pymatgen
data_Yb3TmTcOs7
_symmetry_space_group_name_H-M   'P 1'
_cell_length_a   5.33544400
_cell_length_b   5.33544346
_cell_length_c   8.64997000
_cell_angle_alpha   90.00000000
_cell_angle_beta   90.00000000
_cell_angle_gamma   119.99999094
_symmetry_Int_Tables_number   1
_chemical_formula_structural   Yb3TmTcOs7
_chemical_formula_sum   'Yb3 Tm1 Tc1 Os7'
_cell_volume   213.24868448
_cell_formula_units_Z   1
loop_
 _symmetry_equiv_pos_site_id
 _symmetry_equiv_pos_as_xyz
  1  'x, y, z'
loop_
 _atom_site_type_symbol
 _atom_site_label
 _atom_site_symmetry_multiplicity
 _atom_site_fract_x
 _atom_site_fract_y
 _atom_site_fract_z
 _atom_site_occupancy
  Yb  Yb0  1  0.666667  0.333333  0.571055  1
  Yb  Yb1  1  0.666667  0.333333  0.934910  1
  Yb  Yb2  1  0.333333  0.666667  0.060534  1
  Tm  Tm3  1  0.333333  0.666667  0.430286  1
  Tc  Tc4  1  0.000000  0.000000  0.500690  1
  Os  Os5  1  0.000000  0.000000  0.001562  1
  Os  Os6  1  0.826843  0.173157  0.251310  1
  Os  Os7  1  0.826843  0.653686  0.251310  1
  Os  Os8  1  0.346314  0.173157  0.251310  1
  Os  Os9  1  0.172520  0.827480  0.749011  1
  Os  Os10  1  0.172520  0.345040  0.749011  1
  Os  Os11  1  0.654960  0.827480  0.749011  1
