# generated using pymatgen
data_Ti4MnI4
_symmetry_space_group_name_H-M   'P 1'
_cell_length_a   4.87697500
_cell_length_b   11.11439900
_cell_length_c   19.85198500
_cell_angle_alpha   90.00000000
_cell_angle_beta   90.00000000
_cell_angle_gamma   90.00000000
_symmetry_Int_Tables_number   1
_chemical_formula_structural   Ti4MnI4
_chemical_formula_sum   'Ti16 Mn4 I16'
_cell_volume   1076.06982057
_cell_formula_units_Z   4
loop_
 _symmetry_equiv_pos_site_id
 _symmetry_equiv_pos_as_xyz
  1  'x, y, z'
loop_
 _atom_site_type_symbol
 _atom_site_label
 _atom_site_symmetry_multiplicity
 _atom_site_fract_x
 _atom_site_fract_y
 _atom_site_fract_z
 _atom_site_occupancy
  Ti  Ti0  1  0.500000  0.563567  0.393758  1
  Ti  Ti1  1  0.500000  0.436433  0.606242  1
  Ti  Ti2  1  0.500000  0.063567  0.106242  1
  Ti  Ti3  1  0.500000  0.936433  0.893758  1
  Ti  Ti4  1  0.500000  0.690702  0.535142  1
  Ti  Ti5  1  0.500000  0.309298  0.464858  1
  Ti  Ti6  1  0.500000  0.190702  0.964858  1
  Ti  Ti7  1  0.500000  0.809298  0.035142  1
  Ti  Ti8  1  0.000000  0.679586  0.449872  1
  Ti  Ti9  1  0.000000  0.320414  0.550128  1
  Ti  Ti10  1  0.000000  0.179586  0.050128  1
  Ti  Ti11  1  0.000000  0.820414  0.949872  1
  Ti  Ti12  1  0.000000  0.409852  0.399895  1
  Ti  Ti13  1  0.000000  0.590148  0.600105  1
  Ti  Ti14  1  0.000000  0.909852  0.100105  1
  Ti  Ti15  1  0.000000  0.090148  0.899895  1
  Mn  Mn16  1  0.249950  0.500000  0.500000  1
  Mn  Mn17  1  0.750050  0.000000  0.000000  1
  Mn  Mn18  1  0.750050  0.500000  0.500000  1
  Mn  Mn19  1  0.249950  0.000000  0.000000  1
  I  I20  1  0.000000  0.841181  0.563862  1
  I  I21  1  0.000000  0.158819  0.436138  1
  I  I22  1  0.000000  0.341181  0.936138  1
  I  I23  1  0.000000  0.658819  0.063862  1
  I  I24  1  0.500000  0.339461  0.320683  1
  I  I25  1  0.500000  0.660539  0.679317  1
  I  I26  1  0.500000  0.839461  0.179317  1
  I  I27  1  0.500000  0.160539  0.820683  1
  I  I28  1  0.500000  0.821843  0.409600  1
  I  I29  1  0.500000  0.178157  0.590400  1
  I  I30  1  0.500000  0.321843  0.090400  1
  I  I31  1  0.500000  0.678157  0.909600  1
  I  I32  1  0.000000  0.612461  0.309439  1
  I  I33  1  0.000000  0.387539  0.690561  1
  I  I34  1  0.000000  0.112461  0.190561  1
  I  I35  1  0.000000  0.887539  0.809439  1
