# generated using pymatgen
data_Eu15DyIn4Ir3Rh
_symmetry_space_group_name_H-M   'P 1'
_cell_length_a   10.19944487
_cell_length_b   10.07863925
_cell_length_c   10.16540400
_cell_angle_alpha   59.71481962
_cell_angle_beta   60.11034953
_cell_angle_gamma   59.70801128
_symmetry_Int_Tables_number   1
_chemical_formula_structural   Eu15DyIn4Ir3Rh
_chemical_formula_sum   'Eu15 Dy1 In4 Ir3 Rh1'
_cell_volume   736.27074313
_cell_formula_units_Z   1
loop_
 _symmetry_equiv_pos_site_id
 _symmetry_equiv_pos_as_xyz
  1  'x, y, z'
loop_
 _atom_site_type_symbol
 _atom_site_label
 _atom_site_symmetry_multiplicity
 _atom_site_fract_x
 _atom_site_fract_y
 _atom_site_fract_z
 _atom_site_occupancy
  Eu  Eu0  1  0.695493  0.305676  0.304550  1
  Eu  Eu1  1  0.696092  0.694044  0.304932  1
  Eu  Eu2  1  0.305831  0.692604  0.306650  1
  Eu  Eu3  1  0.940216  0.946718  0.556533  1
  Eu  Eu4  1  0.154982  0.155949  0.533984  1
  Eu  Eu5  1  0.551701  0.949159  0.553243  1
  Eu  Eu6  1  0.154982  0.155949  0.155085  1
  Eu  Eu7  1  0.305413  0.307538  0.693524  1
  Eu  Eu8  1  0.941307  0.556029  0.556118  1
  Eu  Eu9  1  0.551005  0.552712  0.948142  1
  Eu  Eu10  1  0.551701  0.949159  0.945898  1
  Eu  Eu11  1  0.941307  0.556029  0.946545  1
  Eu  Eu12  1  0.156094  0.531584  0.156161  1
  Eu  Eu13  1  0.305831  0.692604  0.694915  1
  Eu  Eu14  1  0.695493  0.305676  0.694283  1
  Dy  Dy15  1  0.528686  0.158181  0.156566  1
  In  In16  1  0.919209  0.923337  0.234604  1
  In  In17  1  0.230921  0.923939  0.922570  1
  In  In18  1  0.919089  0.236420  0.922246  1
  In  In19  1  0.919209  0.923337  0.922852  1
  Ir  Ir20  1  0.373222  0.351583  0.354360  1
  Ir  Ir21  1  0.915437  0.360767  0.361899  1
  Ir  Ir22  1  0.373222  0.351583  0.920836  1
  Rh  Rh23  1  0.373556  0.919428  0.353508  1
