# generated using pymatgen
data_Y8Ho4Co4RhPb
_symmetry_space_group_name_H-M   'P 1'
_cell_length_a   8.35286900
_cell_length_b   8.35283187
_cell_length_c   8.35286936
_cell_angle_alpha   110.71199396
_cell_angle_beta   110.63907878
_cell_angle_gamma   107.08872065
_symmetry_Int_Tables_number   1
_chemical_formula_structural   Y8Ho4Co4RhPb
_chemical_formula_sum   'Y8 Ho4 Co4 Rh1 Pb1'
_cell_volume   448.04480056
_cell_formula_units_Z   1
loop_
 _symmetry_equiv_pos_site_id
 _symmetry_equiv_pos_as_xyz
  1  'x, y, z'
loop_
 _atom_site_type_symbol
 _atom_site_label
 _atom_site_symmetry_multiplicity
 _atom_site_fract_x
 _atom_site_fract_y
 _atom_site_fract_z
 _atom_site_occupancy
  Y  Y0  1  0.186451  0.292773  0.479224  1
  Y  Y1  1  0.813549  0.707227  0.520776  1
  Y  Y2  1  0.186451  0.707227  0.893680  1
  Y  Y3  1  0.813549  0.292773  0.106320  1
  Y  Y4  1  0.312383  0.618307  0.305925  1
  Y  Y5  1  0.687617  0.381693  0.694075  1
  Y  Y6  1  0.312382  0.006458  0.694076  1
  Y  Y7  1  0.687618  0.993542  0.305924  1
  Ho  Ho8  1  0.403604  0.207428  0.196177  1
  Ho  Ho9  1  0.596396  0.792572  0.803823  1
  Ho  Ho10  1  0.011253  0.207428  0.803824  1
  Ho  Ho11  1  0.988747  0.792572  0.196176  1
  Co  Co12  1  0.380224  0.000000  0.380224  1
  Co  Co13  1  0.619776  0.000000  0.619776  1
  Co  Co14  1  0.110730  0.610732  0.500001  1
  Co  Co15  1  0.889270  0.389268  0.499999  1
  Rh  Rh16  1  0.000000  0.000000  0.000000  1
  Pb  Pb17  1  0.500000  0.500000  0.000000  1
