# generated using pymatgen
data_Dy2Y2TmBi3
_symmetry_space_group_name_H-M   'P 1'
_cell_length_a   8.25062000
_cell_length_b   9.50958000
_cell_length_c   12.07240700
_cell_angle_alpha   90.00000000
_cell_angle_beta   90.00000000
_cell_angle_gamma   90.00000000
_symmetry_Int_Tables_number   1
_chemical_formula_structural   Dy2Y2TmBi3
_chemical_formula_sum   'Dy8 Y8 Tm4 Bi12'
_cell_volume   947.20021949
_cell_formula_units_Z   4
loop_
 _symmetry_equiv_pos_site_id
 _symmetry_equiv_pos_as_xyz
  1  'x, y, z'
loop_
 _atom_site_type_symbol
 _atom_site_label
 _atom_site_symmetry_multiplicity
 _atom_site_fract_x
 _atom_site_fract_y
 _atom_site_fract_z
 _atom_site_occupancy
  Dy  Dy0  1  0.306738  0.435140  0.940442  1
  Dy  Dy1  1  0.806738  0.064860  0.559558  1
  Dy  Dy2  1  0.693262  0.935140  0.059558  1
  Dy  Dy3  1  0.193262  0.564860  0.440442  1
  Dy  Dy4  1  0.693262  0.564860  0.059558  1
  Dy  Dy5  1  0.193262  0.935140  0.440442  1
  Dy  Dy6  1  0.306738  0.064860  0.940442  1
  Dy  Dy7  1  0.806738  0.435140  0.559558  1
  Y  Y8  1  0.186390  0.750000  0.718752  1
  Y  Y9  1  0.686390  0.750000  0.781248  1
  Y  Y10  1  0.813610  0.250000  0.281248  1
  Y  Y11  1  0.313610  0.250000  0.218752  1
  Y  Y12  1  0.353889  0.750000  0.215750  1
  Y  Y13  1  0.853889  0.750000  0.284250  1
  Y  Y14  1  0.646111  0.250000  0.784250  1
  Y  Y15  1  0.146111  0.250000  0.715750  1
  Tm  Tm16  1  0.025389  0.750000  0.988979  1
  Tm  Tm17  1  0.525389  0.750000  0.511021  1
  Tm  Tm18  1  0.974611  0.250000  0.011021  1
  Tm  Tm19  1  0.474611  0.250000  0.488979  1
  Bi  Bi20  1  0.433924  0.003805  0.672494  1
  Bi  Bi21  1  0.933924  0.496195  0.827506  1
  Bi  Bi22  1  0.566076  0.503805  0.327506  1
  Bi  Bi23  1  0.066076  0.996195  0.172494  1
  Bi  Bi24  1  0.566076  0.996195  0.327506  1
  Bi  Bi25  1  0.066076  0.503805  0.172494  1
  Bi  Bi26  1  0.433924  0.496195  0.672494  1
  Bi  Bi27  1  0.933924  0.003805  0.827506  1
  Bi  Bi28  1  0.406899  0.750000  0.957850  1
  Bi  Bi29  1  0.906899  0.750000  0.542150  1
  Bi  Bi30  1  0.593101  0.250000  0.042150  1
  Bi  Bi31  1  0.093101  0.250000  0.457850  1
