# generated using pymatgen
data_Tb8GaPtBr12
_symmetry_space_group_name_H-M   'P 1'
_cell_length_a   4.04008200
_cell_length_b   13.50499563
_cell_length_c   14.32485031
_cell_angle_alpha   90.69370776
_cell_angle_beta   90.00000000
_cell_angle_gamma   90.00000000
_symmetry_Int_Tables_number   1
_chemical_formula_structural   Tb8GaPtBr12
_chemical_formula_sum   'Tb8 Ga1 Pt1 Br12'
_cell_volume   781.52502260
_cell_formula_units_Z   1
loop_
 _symmetry_equiv_pos_site_id
 _symmetry_equiv_pos_as_xyz
  1  'x, y, z'
loop_
 _atom_site_type_symbol
 _atom_site_label
 _atom_site_symmetry_multiplicity
 _atom_site_fract_x
 _atom_site_fract_y
 _atom_site_fract_z
 _atom_site_occupancy
  Tb  Tb0  1  0.500000  0.118221  0.341164  1
  Tb  Tb1  1  0.500000  0.881779  0.658836  1
  Tb  Tb2  1  0.500000  0.619919  0.161043  1
  Tb  Tb3  1  0.500000  0.380081  0.838957  1
  Tb  Tb4  1  0.000000  0.114016  0.577073  1
  Tb  Tb5  1  0.000000  0.885984  0.422927  1
  Tb  Tb6  1  0.000000  0.621948  0.918751  1
  Tb  Tb7  1  0.000000  0.378052  0.081249  1
  Ga  Ga8  1  0.500000  0.500000  0.000000  1
  Pt  Pt9  1  0.500000  0.000000  0.500000  1
  Br  Br10  1  0.500000  0.245370  0.163657  1
  Br  Br11  1  0.500000  0.754630  0.836343  1
  Br  Br12  1  0.500000  0.741748  0.334014  1
  Br  Br13  1  0.500000  0.258252  0.665986  1
  Br  Br14  1  0.000000  0.255950  0.409808  1
  Br  Br15  1  0.000000  0.744050  0.590192  1
  Br  Br16  1  0.000000  0.753647  0.088389  1
  Br  Br17  1  0.000000  0.246353  0.911611  1
  Br  Br18  1  0.000000  0.003244  0.241049  1
  Br  Br19  1  0.000000  0.996756  0.758951  1
  Br  Br20  1  0.000000  0.501995  0.255014  1
  Br  Br21  1  0.000000  0.498005  0.744986  1
