# generated using pymatgen
data_Ta3Nb5CoCu3N2
_symmetry_space_group_name_H-M   'P 1'
_cell_length_a   8.29493836
_cell_length_b   8.29493848
_cell_length_c   8.29020700
_cell_angle_alpha   60.01886309
_cell_angle_beta   60.01886260
_cell_angle_gamma   59.92749536
_symmetry_Int_Tables_number   1
_chemical_formula_structural   Ta3Nb5CoCu3N2
_chemical_formula_sum   'Ta6 Nb10 Co2 Cu6 N4'
_cell_volume   403.23832227
_cell_formula_units_Z   2
loop_
 _symmetry_equiv_pos_site_id
 _symmetry_equiv_pos_as_xyz
  1  'x, y, z'
loop_
 _atom_site_type_symbol
 _atom_site_label
 _atom_site_symmetry_multiplicity
 _atom_site_fract_x
 _atom_site_fract_y
 _atom_site_fract_z
 _atom_site_occupancy
  Ta  Ta0  1  0.116125  0.634266  0.624805  1
  Ta  Ta1  1  0.634266  0.116125  0.624805  1
  Ta  Ta2  1  0.630605  0.630605  0.122722  1
  Ta  Ta3  1  0.630605  0.630605  0.616067  1
  Ta  Ta4  1  0.818053  0.818053  0.181947  1
  Ta  Ta5  1  0.183466  0.183466  0.816534  1
  Nb  Nb6  1  0.816683  0.181104  0.815501  1
  Nb  Nb7  1  0.181104  0.816683  0.186713  1
  Nb  Nb8  1  0.181104  0.816683  0.815501  1
  Nb  Nb9  1  0.816683  0.181104  0.186713  1
  Nb  Nb10  1  0.436336  0.436336  0.063664  1
  Nb  Nb11  1  0.068688  0.068688  0.431312  1
  Nb  Nb12  1  0.434875  0.066218  0.435676  1
  Nb  Nb13  1  0.066218  0.434875  0.063231  1
  Nb  Nb14  1  0.066218  0.434875  0.435676  1
  Nb  Nb15  1  0.434875  0.066218  0.063231  1
  Co  Co16  1  0.824965  0.824965  0.518892  1
  Co  Co17  1  0.824965  0.824965  0.831177  1
  Cu  Cu18  1  0.750243  0.416010  0.416874  1
  Cu  Cu19  1  0.416010  0.750243  0.416874  1
  Cu  Cu20  1  0.417961  0.417961  0.746212  1
  Cu  Cu21  1  0.417961  0.417961  0.417866  1
  Cu  Cu22  1  0.499568  0.831266  0.834582  1
  Cu  Cu23  1  0.831266  0.499568  0.834582  1
  N  N24  1  0.624881  0.124085  0.125517  1
  N  N25  1  0.124085  0.624881  0.125517  1
  N  N26  1  0.126094  0.126094  0.625537  1
  N  N27  1  0.126094  0.126094  0.122274  1
