# generated using pymatgen
data_Tm5GaBiPt
_symmetry_space_group_name_H-M   'P 1'
_cell_length_a   8.63321023
_cell_length_b   8.63321121
_cell_length_c   8.68209531
_cell_angle_alpha   125.68312559
_cell_angle_beta   125.68313224
_cell_angle_gamma   80.02549954
_symmetry_Int_Tables_number   1
_chemical_formula_structural   Tm5GaBiPt
_chemical_formula_sum   'Tm10 Ga2 Bi2 Pt2'
_cell_volume   413.01913801
_cell_formula_units_Z   2
loop_
 _symmetry_equiv_pos_site_id
 _symmetry_equiv_pos_as_xyz
  1  'x, y, z'
loop_
 _atom_site_type_symbol
 _atom_site_label
 _atom_site_symmetry_multiplicity
 _atom_site_fract_x
 _atom_site_fract_y
 _atom_site_fract_z
 _atom_site_occupancy
  Tm  Tm0  1  0.000000  0.000000  0.000000  1
  Tm  Tm1  1  0.500000  0.500000  0.000000  1
  Tm  Tm2  1  0.786180  0.286180  0.798330  1
  Tm  Tm3  1  0.213820  0.713820  0.201670  1
  Tm  Tm4  1  0.487850  0.987850  0.201670  1
  Tm  Tm5  1  0.300951  0.473249  0.500000  1
  Tm  Tm6  1  0.026751  0.199049  0.500000  1
  Tm  Tm7  1  0.512150  0.012150  0.798330  1
  Tm  Tm8  1  0.699049  0.526751  0.500000  1
  Tm  Tm9  1  0.973249  0.800951  0.500000  1
  Ga  Ga10  1  0.137589  0.637589  0.775179  1
  Ga  Ga11  1  0.862411  0.362411  0.224821  1
  Bi  Bi12  1  0.250000  0.250000  0.000000  1
  Bi  Bi13  1  0.750000  0.750000  0.000000  1
  Pt  Pt14  1  0.637407  0.862593  0.500000  1
  Pt  Pt15  1  0.362593  0.137407  0.500000  1
