# generated using pymatgen
data_YHo9Cd3Os
_symmetry_space_group_name_H-M   'P 1'
_cell_length_a   9.55996902
_cell_length_b   9.55996835
_cell_length_c   9.84544700
_cell_angle_alpha   90.00000000
_cell_angle_beta   90.00000000
_cell_angle_gamma   119.99186020
_symmetry_Int_Tables_number   1
_chemical_formula_structural   YHo9Cd3Os
_chemical_formula_sum   'Y2 Ho18 Cd6 Os2'
_cell_volume   779.31785325
_cell_formula_units_Z   2
loop_
 _symmetry_equiv_pos_site_id
 _symmetry_equiv_pos_as_xyz
  1  'x, y, z'
loop_
 _atom_site_type_symbol
 _atom_site_label
 _atom_site_symmetry_multiplicity
 _atom_site_fract_x
 _atom_site_fract_y
 _atom_site_fract_z
 _atom_site_occupancy
  Y  Y0  1  0.459957  0.919795  0.750000  1
  Y  Y1  1  0.080205  0.540043  0.750000  1
  Ho  Ho2  1  0.999966  0.000034  0.500067  1
  Ho  Ho3  1  0.999966  0.000034  0.999933  1
  Ho  Ho4  1  0.209656  0.790344  0.440251  1
  Ho  Ho5  1  0.209832  0.419404  0.440385  1
  Ho  Ho6  1  0.580596  0.790168  0.440385  1
  Ho  Ho7  1  0.790259  0.209741  0.559350  1
  Ho  Ho8  1  0.790035  0.580528  0.559453  1
  Ho  Ho9  1  0.419472  0.209965  0.559453  1
  Ho  Ho10  1  0.790259  0.209741  0.940650  1
  Ho  Ho11  1  0.790035  0.580528  0.940547  1
  Ho  Ho12  1  0.419472  0.209965  0.940547  1
  Ho  Ho13  1  0.209656  0.790344  0.059749  1
  Ho  Ho14  1  0.209832  0.419404  0.059615  1
  Ho  Ho15  1  0.580596  0.790168  0.059615  1
  Ho  Ho16  1  0.540019  0.459981  0.250000  1
  Ho  Ho17  1  0.540049  0.080043  0.250000  1
  Ho  Ho18  1  0.919957  0.459951  0.250000  1
  Ho  Ho19  1  0.460206  0.539794  0.750000  1
  Cd  Cd20  1  0.885433  0.114567  0.250000  1
  Cd  Cd21  1  0.885404  0.770854  0.250000  1
  Cd  Cd22  1  0.229146  0.114596  0.250000  1
  Cd  Cd23  1  0.114360  0.885640  0.750000  1
  Cd  Cd24  1  0.114665  0.228977  0.750000  1
  Cd  Cd25  1  0.771023  0.885335  0.750000  1
  Os  Os26  1  0.333366  0.666634  0.250000  1
  Os  Os27  1  0.666578  0.333422  0.750000  1
