# generated using pymatgen
data_Nd3Y13(CdPd)4
_symmetry_space_group_name_H-M   'P 1'
_cell_length_a   9.83368539
_cell_length_b   9.78382103
_cell_length_c   9.78382200
_cell_angle_alpha   59.99999671
_cell_angle_beta   60.16759519
_cell_angle_gamma   60.16759357
_symmetry_Int_Tables_number   1
_chemical_formula_structural   Nd3Y13(CdPd)4
_chemical_formula_sum   'Nd3 Y13 Cd4 Pd4'
_cell_volume   667.28883873
_cell_formula_units_Z   1
loop_
 _symmetry_equiv_pos_site_id
 _symmetry_equiv_pos_as_xyz
  1  'x, y, z'
loop_
 _atom_site_type_symbol
 _atom_site_label
 _atom_site_symmetry_multiplicity
 _atom_site_fract_x
 _atom_site_fract_y
 _atom_site_fract_z
 _atom_site_occupancy
  Nd  Nd0  1  0.355271  0.356682  0.356682  1
  Nd  Nd1  1  0.355271  0.356682  0.931365  1
  Nd  Nd2  1  0.355271  0.931365  0.356682  1
  Y  Y3  1  0.931975  0.356008  0.356008  1
  Y  Y4  1  0.813228  0.187265  0.187265  1
  Y  Y5  1  0.186577  0.813511  0.813511  1
  Y  Y6  1  0.186577  0.813511  0.186402  1
  Y  Y7  1  0.813228  0.187265  0.812244  1
  Y  Y8  1  0.186577  0.186402  0.813511  1
  Y  Y9  1  0.813228  0.812244  0.187265  1
  Y  Y10  1  0.932979  0.566357  0.566357  1
  Y  Y11  1  0.566518  0.932994  0.932994  1
  Y  Y12  1  0.566518  0.932994  0.567494  1
  Y  Y13  1  0.932979  0.566357  0.934307  1
  Y  Y14  1  0.566518  0.567494  0.932994  1
  Y  Y15  1  0.932979  0.934307  0.566357  1
  Cd  Cd16  1  0.589335  0.581447  0.581447  1
  Cd  Cd17  1  0.589335  0.581447  0.247772  1
  Cd  Cd18  1  0.589335  0.247772  0.581447  1
  Cd  Cd19  1  0.246348  0.584551  0.584551  1
  Pd  Pd20  1  0.139933  0.146315  0.146315  1
  Pd  Pd21  1  0.139933  0.146315  0.567437  1
  Pd  Pd22  1  0.139933  0.567437  0.146315  1
  Pd  Pd23  1  0.570156  0.143281  0.143281  1
