# generated using pymatgen
data_Ca2Ti2VO8
_symmetry_space_group_name_H-M   'P 1'
_cell_length_a   6.42459408
_cell_length_b   6.42459503
_cell_length_c   5.06319993
_cell_angle_alpha   71.69530918
_cell_angle_beta   71.69530284
_cell_angle_gamma   57.17099114
_symmetry_Int_Tables_number   1
_chemical_formula_structural   Ca2Ti2VO8
_chemical_formula_sum   'Ca2 Ti2 V1 O8'
_cell_volume   163.99225778
_cell_formula_units_Z   1
loop_
 _symmetry_equiv_pos_site_id
 _symmetry_equiv_pos_as_xyz
  1  'x, y, z'
loop_
 _atom_site_type_symbol
 _atom_site_label
 _atom_site_symmetry_multiplicity
 _atom_site_fract_x
 _atom_site_fract_y
 _atom_site_fract_z
 _atom_site_occupancy
  Ca  Ca0  1  0.725252  0.725164  0.336044  1
  Ca  Ca1  1  0.274836  0.274748  0.663956  1
  Ti  Ti2  1  0.992641  0.007359  0.500000  1
  Ti  Ti3  1  0.723392  0.276608  0.000000  1
  V  V4  1  0.257793  0.742207  0.000000  1
  O  O5  1  0.400184  0.391897  0.949607  1
  O  O6  1  0.608103  0.599816  0.050393  1
  O  O7  1  0.902709  0.897892  0.904752  1
  O  O8  1  0.102108  0.097291  0.095248  1
  O  O9  1  0.326082  0.878269  0.616175  1
  O  O10  1  0.888030  0.322862  0.600985  1
  O  O11  1  0.121731  0.673918  0.383825  1
  O  O12  1  0.677138  0.111970  0.399015  1
