# generated using pymatgen
data_Er2LuCd3Ga2Ag
_symmetry_space_group_name_H-M   'P 1'
_cell_length_a   7.31016902
_cell_length_b   7.31016883
_cell_length_c   4.31386500
_cell_angle_alpha   90.00000000
_cell_angle_beta   90.00000000
_cell_angle_gamma   119.99076540
_symmetry_Int_Tables_number   1
_chemical_formula_structural   Er2LuCd3Ga2Ag
_chemical_formula_sum   'Er2 Lu1 Cd3 Ga2 Ag1'
_cell_volume   199.66061893
_cell_formula_units_Z   1
loop_
 _symmetry_equiv_pos_site_id
 _symmetry_equiv_pos_as_xyz
  1  'x, y, z'
loop_
 _atom_site_type_symbol
 _atom_site_label
 _atom_site_symmetry_multiplicity
 _atom_site_fract_x
 _atom_site_fract_y
 _atom_site_fract_z
 _atom_site_occupancy
  Er  Er0  1  0.577796  0.999926  0.500000  1
  Er  Er1  1  0.999926  0.577796  0.500000  1
  Lu  Lu2  1  0.421746  0.421746  0.500000  1
  Cd  Cd3  1  0.748212  0.748212  0.000000  1
  Cd  Cd4  1  0.251508  0.000102  0.000000  1
  Cd  Cd5  1  0.000102  0.251508  0.000000  1
  Ga  Ga6  1  0.666345  0.333598  0.000000  1
  Ga  Ga7  1  0.333598  0.666345  0.000000  1
  Ag  Ag8  1  0.000766  0.000766  0.500000  1
