# generated using pymatgen
data_Na4Ac7Nd9Sn16
_symmetry_space_group_name_H-M   'P 1'
_cell_length_a   8.18299801
_cell_length_b   8.47253220
_cell_length_c   16.26316800
_cell_angle_alpha   90.03540186
_cell_angle_beta   90.05669365
_cell_angle_gamma   89.80003713
_symmetry_Int_Tables_number   1
_chemical_formula_structural   Na4Ac7Nd9Sn16
_chemical_formula_sum   'Na4 Ac7 Nd9 Sn16'
_cell_volume   1127.52941902
_cell_formula_units_Z   1
loop_
 _symmetry_equiv_pos_site_id
 _symmetry_equiv_pos_as_xyz
  1  'x, y, z'
loop_
 _atom_site_type_symbol
 _atom_site_label
 _atom_site_symmetry_multiplicity
 _atom_site_fract_x
 _atom_site_fract_y
 _atom_site_fract_z
 _atom_site_occupancy
  Na  Na0  1  0.828231  0.504104  0.748438  1
  Na  Na1  1  0.328334  0.996353  0.748478  1
  Na  Na2  1  0.173013  0.497208  0.250556  1
  Na  Na3  1  0.671733  0.002644  0.250609  1
  Ac  Ac4  1  0.003111  0.818467  0.900457  1
  Ac  Ac5  1  0.496491  0.319059  0.098080  1
  Ac  Ac6  1  0.994531  0.181515  0.404085  1
  Ac  Ac7  1  0.496553  0.319386  0.403856  1
  Ac  Ac8  1  0.996648  0.180637  0.097831  1
  Ac  Ac9  1  0.503819  0.681302  0.900821  1
  Ac  Ac10  1  0.002976  0.817573  0.597982  1
  Nd  Nd11  1  0.658072  0.174549  0.626173  1
  Nd  Nd12  1  0.159799  0.326530  0.871877  1
  Nd  Nd13  1  0.340637  0.825757  0.125972  1
  Nd  Nd14  1  0.842479  0.673228  0.374964  1
  Nd  Nd15  1  0.342225  0.825041  0.374712  1
  Nd  Nd16  1  0.841771  0.674421  0.126268  1
  Nd  Nd17  1  0.658377  0.174261  0.872567  1
  Nd  Nd18  1  0.158504  0.325980  0.625266  1
  Nd  Nd19  1  0.504735  0.684475  0.599977  1
  Sn  Sn20  1  0.668188  0.953698  0.467000  1
  Sn  Sn21  1  0.170734  0.540580  0.035093  1
  Sn  Sn22  1  0.328586  0.041160  0.963493  1
  Sn  Sn23  1  0.820885  0.463474  0.538441  1
  Sn  Sn24  1  0.331052  0.034715  0.538284  1
  Sn  Sn25  1  0.829647  0.458979  0.963566  1
  Sn  Sn26  1  0.670499  0.959219  0.035499  1
  Sn  Sn27  1  0.175225  0.542204  0.466074  1
  Sn  Sn28  1  0.461822  0.394456  0.747082  1
  Sn  Sn29  1  0.958791  0.108802  0.748895  1
  Sn  Sn30  1  0.541451  0.610566  0.250207  1
  Sn  Sn31  1  0.040420  0.889684  0.250962  1
  Sn  Sn32  1  0.699642  0.868446  0.747479  1
  Sn  Sn33  1  0.207179  0.631349  0.747413  1
  Sn  Sn34  1  0.296246  0.129093  0.250910  1
  Sn  Sn35  1  0.797599  0.371086  0.250636  1
