# generated using pymatgen
data_Nd7Y(GePt)8
_symmetry_space_group_name_H-M   'P 1'
_cell_length_a   4.48613200
_cell_length_b   7.68219231
_cell_length_c   14.57635400
_cell_angle_alpha   90.01623663
_cell_angle_beta   90.00000000
_cell_angle_gamma   90.00000000
_symmetry_Int_Tables_number   1
_chemical_formula_structural   Nd7Y(GePt)8
_chemical_formula_sum   'Nd7 Y1 Ge8 Pt8'
_cell_volume   502.34965964
_cell_formula_units_Z   1
loop_
 _symmetry_equiv_pos_site_id
 _symmetry_equiv_pos_as_xyz
  1  'x, y, z'
loop_
 _atom_site_type_symbol
 _atom_site_label
 _atom_site_symmetry_multiplicity
 _atom_site_fract_x
 _atom_site_fract_y
 _atom_site_fract_z
 _atom_site_occupancy
  Nd  Nd0  1  0.000000  0.211490  0.751591  1
  Nd  Nd1  1  0.000000  0.208858  0.248798  1
  Nd  Nd2  1  0.500000  0.788392  0.748323  1
  Nd  Nd3  1  0.000000  0.288176  0.498988  1
  Nd  Nd4  1  0.500000  0.712797  0.001545  1
  Nd  Nd5  1  0.000000  0.295462  0.001513  1
  Nd  Nd6  1  0.500000  0.705671  0.498463  1
  Y  Y7  1  0.500000  0.785082  0.251395  1
  Ge  Ge8  1  0.000000  0.588907  0.853279  1
  Ge  Ge9  1  0.000000  0.591260  0.149831  1
  Ge  Ge10  1  0.500000  0.411520  0.646147  1
  Ge  Ge11  1  0.500000  0.412408  0.352983  1
  Ge  Ge12  1  0.000000  0.909549  0.400741  1
  Ge  Ge13  1  0.000000  0.910535  0.595029  1
  Ge  Ge14  1  0.500000  0.088635  0.098749  1
  Ge  Ge15  1  0.500000  0.089082  0.904935  1
  Pt  Pt16  1  0.000000  0.923450  0.891701  1
  Pt  Pt17  1  0.000000  0.921595  0.112297  1
  Pt  Pt18  1  0.500000  0.076981  0.608138  1
  Pt  Pt19  1  0.500000  0.072819  0.387235  1
  Pt  Pt20  1  0.000000  0.584045  0.344595  1
  Pt  Pt21  1  0.000000  0.579455  0.650531  1
  Pt  Pt22  1  0.500000  0.423523  0.153257  1
  Pt  Pt23  1  0.500000  0.420305  0.849938  1
