# generated using pymatgen
data_Tm5Fe12Co7P12
_symmetry_space_group_name_H-M   'P 1'
_cell_length_a   11.89443600
_cell_length_b   11.89443673
_cell_length_c   3.66244500
_cell_angle_alpha   90.00000000
_cell_angle_beta   90.00000000
_cell_angle_gamma   120.00000354
_symmetry_Int_Tables_number   1
_chemical_formula_structural   Tm5Fe12Co7P12
_chemical_formula_sum   'Tm5 Fe12 Co7 P12'
_cell_volume   448.73450130
_cell_formula_units_Z   1
loop_
 _symmetry_equiv_pos_site_id
 _symmetry_equiv_pos_as_xyz
  1  'x, y, z'
loop_
 _atom_site_type_symbol
 _atom_site_label
 _atom_site_symmetry_multiplicity
 _atom_site_fract_x
 _atom_site_fract_y
 _atom_site_fract_z
 _atom_site_occupancy
  Tm  Tm0  1  0.666667  0.333333  0.000000  1
  Tm  Tm1  1  0.333333  0.666667  0.000000  1
  Tm  Tm2  1  0.814612  0.814612  0.500000  1
  Tm  Tm3  1  0.185388  0.000000  0.500000  1
  Tm  Tm4  1  0.000000  0.185388  0.500000  1
  Fe  Fe5  1  0.876463  0.358287  0.500000  1
  Fe  Fe6  1  0.641713  0.518176  0.500000  1
  Fe  Fe7  1  0.481824  0.123537  0.500000  1
  Fe  Fe8  1  0.358287  0.876463  0.500000  1
  Fe  Fe9  1  0.518176  0.641713  0.500000  1
  Fe  Fe10  1  0.123537  0.481824  0.500000  1
  Fe  Fe11  1  0.444125  0.444125  0.000000  1
  Fe  Fe12  1  0.555875  0.000000  0.000000  1
  Fe  Fe13  1  0.000000  0.555875  0.000000  1
  Fe  Fe14  1  0.284593  0.284593  0.500000  1
  Fe  Fe15  1  0.715407  0.000000  0.500000  1
  Fe  Fe16  1  0.000000  0.715407  0.500000  1
  Co  Co17  1  0.801941  0.179482  0.000000  1
  Co  Co18  1  0.820518  0.622458  0.000000  1
  Co  Co19  1  0.377542  0.198059  0.000000  1
  Co  Co20  1  0.179482  0.801941  0.000000  1
  Co  Co21  1  0.622458  0.820518  0.000000  1
  Co  Co22  1  0.198059  0.377542  0.000000  1
  Co  Co23  1  0.000000  0.000000  0.000000  1
  P  P24  1  0.684260  0.165345  0.500000  1
  P  P25  1  0.834655  0.518916  0.500000  1
  P  P26  1  0.481084  0.315740  0.500000  1
  P  P27  1  0.165345  0.684260  0.500000  1
  P  P28  1  0.518916  0.834655  0.500000  1
  P  P29  1  0.315740  0.481084  0.500000  1
  P  P30  1  0.182372  0.182372  0.000000  1
  P  P31  1  0.817628  0.000000  0.000000  1
  P  P32  1  0.000000  0.817628  0.000000  1
  P  P33  1  0.629372  0.629372  0.000000  1
  P  P34  1  0.370628  0.000000  0.000000  1
  P  P35  1  0.000000  0.370628  0.000000  1
