# generated using pymatgen
data_Li4Ir7RhO24
_symmetry_space_group_name_H-M   'P 1'
_cell_length_a   4.45781700
_cell_length_b   8.91381999
_cell_length_c   9.17846000
_cell_angle_alpha   90.00000000
_cell_angle_beta   90.00000000
_cell_angle_gamma   89.93934777
_symmetry_Int_Tables_number   1
_chemical_formula_structural   Li4Ir7RhO24
_chemical_formula_sum   'Li4 Ir7 Rh1 O24'
_cell_volume   364.71671878
_cell_formula_units_Z   1
loop_
 _symmetry_equiv_pos_site_id
 _symmetry_equiv_pos_as_xyz
  1  'x, y, z'
loop_
 _atom_site_type_symbol
 _atom_site_label
 _atom_site_symmetry_multiplicity
 _atom_site_fract_x
 _atom_site_fract_y
 _atom_site_fract_z
 _atom_site_occupancy
  Li  Li0  1  0.000000  0.500000  0.000286  1
  Li  Li1  1  0.501130  0.751064  0.499657  1
  Li  Li2  1  0.000000  0.000000  0.000905  1
  Li  Li3  1  0.498870  0.248936  0.499657  1
  Ir  Ir4  1  0.000000  0.500000  0.330838  1
  Ir  Ir5  1  0.500306  0.249914  0.831914  1
  Ir  Ir6  1  0.499694  0.750086  0.831914  1
  Ir  Ir7  1  0.500726  0.247751  0.169963  1
  Ir  Ir8  1  0.499274  0.752249  0.169963  1
  Ir  Ir9  1  0.000000  0.000000  0.666193  1
  Ir  Ir10  1  0.000000  0.500000  0.668587  1
  Rh  Rh11  1  0.000000  0.000000  0.330932  1
  O  O12  1  0.310244  0.155688  0.000157  1
  O  O13  1  0.311801  0.655451  0.000310  1
  O  O14  1  0.189866  0.406006  0.500143  1
  O  O15  1  0.191212  0.904397  0.502196  1
  O  O16  1  0.808788  0.095603  0.502196  1
  O  O17  1  0.810134  0.593994  0.500143  1
  O  O18  1  0.688199  0.344549  0.000310  1
  O  O19  1  0.689756  0.844312  0.000157  1
  O  O20  1  0.304577  0.152273  0.330466  1
  O  O21  1  0.300541  0.649728  0.330168  1
  O  O22  1  0.198726  0.399657  0.829735  1
  O  O23  1  0.198994  0.900397  0.829133  1
  O  O24  1  0.801006  0.099603  0.829133  1
  O  O25  1  0.801274  0.600343  0.829735  1
  O  O26  1  0.800186  0.100592  0.167121  1
  O  O27  1  0.799500  0.600319  0.169589  1
  O  O28  1  0.200500  0.399681  0.169589  1
  O  O29  1  0.199814  0.899408  0.167121  1
  O  O30  1  0.699459  0.350272  0.330168  1
  O  O31  1  0.695423  0.847727  0.330466  1
  O  O32  1  0.300788  0.149821  0.670348  1
  O  O33  1  0.301105  0.650185  0.670228  1
  O  O34  1  0.698895  0.349815  0.670228  1
  O  O35  1  0.699212  0.850179  0.670348  1
