# generated using pymatgen
data_Zr5Co16(P4Ru)3
_symmetry_space_group_name_H-M   'P 1'
_cell_length_a   11.88262100
_cell_length_b   11.88262192
_cell_length_c   3.66389900
_cell_angle_alpha   90.00000000
_cell_angle_beta   90.00000000
_cell_angle_gamma   119.99999466
_symmetry_Int_Tables_number   1
_chemical_formula_structural   Zr5Co16(P4Ru)3
_chemical_formula_sum   'Zr5 Co16 P12 Ru3'
_cell_volume   448.02131120
_cell_formula_units_Z   1
loop_
 _symmetry_equiv_pos_site_id
 _symmetry_equiv_pos_as_xyz
  1  'x, y, z'
loop_
 _atom_site_type_symbol
 _atom_site_label
 _atom_site_symmetry_multiplicity
 _atom_site_fract_x
 _atom_site_fract_y
 _atom_site_fract_z
 _atom_site_occupancy
  Zr  Zr0  1  0.666667  0.333333  0.000000  1
  Zr  Zr1  1  0.333333  0.666667  0.000000  1
  Zr  Zr2  1  0.820046  0.820046  0.500000  1
  Zr  Zr3  1  0.179954  0.000000  0.500000  1
  Zr  Zr4  1  0.000000  0.179954  0.500000  1
  Co  Co5  1  0.194555  0.374585  0.000000  1
  Co  Co6  1  0.180030  0.805445  0.000000  1
  Co  Co7  1  0.819970  0.625415  0.000000  1
  Co  Co8  1  0.805445  0.180030  0.000000  1
  Co  Co9  1  0.374585  0.194555  0.000000  1
  Co  Co10  1  0.128409  0.483995  0.500000  1
  Co  Co11  1  0.355586  0.871591  0.500000  1
  Co  Co12  1  0.516005  0.644414  0.500000  1
  Co  Co13  1  0.644414  0.516005  0.500000  1
  Co  Co14  1  0.871591  0.355586  0.500000  1
  Co  Co15  1  0.483995  0.128409  0.500000  1
  Co  Co16  1  0.000000  0.000000  0.000000  1
  Co  Co17  1  0.717642  0.000000  0.500000  1
  Co  Co18  1  0.000000  0.717642  0.500000  1
  Co  Co19  1  0.625415  0.819970  0.000000  1
  Co  Co20  1  0.282358  0.282358  0.500000  1
  P  P21  1  0.641720  0.641720  0.000000  1
  P  P22  1  0.358280  0.000000  0.000000  1
  P  P23  1  0.000000  0.358280  0.000000  1
  P  P24  1  0.481252  0.314509  0.500000  1
  P  P25  1  0.685491  0.166744  0.500000  1
  P  P26  1  0.833256  0.518748  0.500000  1
  P  P27  1  0.518748  0.833256  0.500000  1
  P  P28  1  0.166744  0.685491  0.500000  1
  P  P29  1  0.822742  0.000000  0.000000  1
  P  P30  1  0.000000  0.822742  0.000000  1
  P  P31  1  0.314509  0.481252  0.500000  1
  P  P32  1  0.177258  0.177258  0.000000  1
  Ru  Ru33  1  0.449025  0.449025  0.000000  1
  Ru  Ru34  1  0.550975  0.000000  0.000000  1
  Ru  Ru35  1  0.000000  0.550975  0.000000  1
