# generated using pymatgen
data_RbTm7Sc3(C2I9)2
_symmetry_space_group_name_H-M   'P 1'
_cell_length_a   11.41901121
_cell_length_b   11.37799541
_cell_length_c   11.36692934
_cell_angle_alpha   113.20660207
_cell_angle_beta   85.97182031
_cell_angle_gamma   120.72774910
_symmetry_Int_Tables_number   1
_chemical_formula_structural   RbTm7Sc3(C2I9)2
_chemical_formula_sum   'Rb1 Tm7 Sc3 C4 I18'
_cell_volume   1150.61929254
_cell_formula_units_Z   1
loop_
 _symmetry_equiv_pos_site_id
 _symmetry_equiv_pos_as_xyz
  1  'x, y, z'
loop_
 _atom_site_type_symbol
 _atom_site_label
 _atom_site_symmetry_multiplicity
 _atom_site_fract_x
 _atom_site_fract_y
 _atom_site_fract_z
 _atom_site_occupancy
  Rb  Rb0  1  0.498709  0.994999  0.498774  1
  Tm  Tm1  1  0.960665  0.035406  0.323669  1
  Tm  Tm2  1  0.907510  0.616298  0.709755  1
  Tm  Tm3  1  0.102075  0.943662  0.999309  1
  Tm  Tm4  1  0.037787  0.968710  0.679370  1
  Tm  Tm5  1  0.315138  0.273613  0.283690  1
  Tm  Tm6  1  0.720635  0.644878  0.984488  1
  Tm  Tm7  1  0.897627  0.054363  0.999353  1
  Sc  Sc8  1  0.697953  0.735410  0.729067  1
  Sc  Sc9  1  0.268998  0.343745  0.019640  1
  Sc  Sc10  1  0.093235  0.371124  0.276632  1
  C  C11  1  0.150510  0.215026  0.115377  1
  C  C12  1  0.851382  0.782640  0.884330  1
  C  C13  1  0.929086  0.862067  0.807388  1
  C  C14  1  0.072442  0.137274  0.192802  1
  I  I15  1  0.456496  0.534408  0.831456  1
  I  I16  1  0.380848  0.042826  0.157203  1
  I  I17  1  0.780917  0.861065  0.507890  1
  I  I18  1  0.848929  0.309995  0.157526  1
  I  I19  1  0.539847  0.468664  0.163188  1
  I  I20  1  0.218798  0.144795  0.495524  1
  I  I21  1  0.316566  0.105878  0.832574  1
  I  I22  1  0.681796  0.900114  0.172511  1
  I  I23  1  0.968279  0.753017  0.169676  1
  I  I24  1  0.934388  0.298647  0.492274  1
  I  I25  1  0.037566  0.252334  0.837026  1
  I  I26  1  0.069068  0.713616  0.503087  1
  I  I27  1  0.257131  0.605771  0.177882  1
  I  I28  1  0.738438  0.377538  0.814504  1
  I  I29  1  0.646012  0.455126  0.512732  1
  I  I30  1  0.159367  0.692278  0.845184  1
  I  I31  1  0.624640  0.952001  0.841034  1
  I  I32  1  0.337164  0.552713  0.485084  1
