# generated using pymatgen
data_Ca4Ga2Pd3Rh
_symmetry_space_group_name_H-M   'P 1'
_cell_length_a   5.72295274
_cell_length_b   5.80658854
_cell_length_c   7.86897393
_cell_angle_alpha   78.10668359
_cell_angle_beta   78.44450591
_cell_angle_gamma   59.26301650
_symmetry_Int_Tables_number   1
_chemical_formula_structural   Ca4Ga2Pd3Rh
_chemical_formula_sum   'Ca4 Ga2 Pd3 Rh1'
_cell_volume   218.52684670
_cell_formula_units_Z   1
loop_
 _symmetry_equiv_pos_site_id
 _symmetry_equiv_pos_as_xyz
  1  'x, y, z'
loop_
 _atom_site_type_symbol
 _atom_site_label
 _atom_site_symmetry_multiplicity
 _atom_site_fract_x
 _atom_site_fract_y
 _atom_site_fract_z
 _atom_site_occupancy
  Ca  Ca0  1  0.785280  0.519287  0.346067  1
  Ca  Ca1  1  0.488157  0.213151  0.145463  1
  Ca  Ca2  1  0.214568  0.487670  0.653793  1
  Ca  Ca3  1  0.511068  0.783223  0.854655  1
  Ga  Ga4  1  0.124753  0.866798  0.245502  1
  Ga  Ga5  1  0.877899  0.116963  0.756077  1
  Pd  Pd6  1  0.260264  0.995644  0.491771  1
  Pd  Pd7  1  0.996331  0.270954  0.996182  1
  Pd  Pd8  1  0.737084  0.006071  0.505604  1
  Rh  Rh9  1  0.004593  0.740239  0.004886  1
