# generated using pymatgen
data_YbLu3(Si5Os3)2
_symmetry_space_group_name_H-M   'P 1'
_cell_length_a   8.19901318
_cell_length_b   8.25698728
_cell_length_c   5.61185212
_cell_angle_alpha   70.21353374
_cell_angle_beta   70.05865415
_cell_angle_gamma   95.15155780
_symmetry_Int_Tables_number   1
_chemical_formula_structural   YbLu3(Si5Os3)2
_chemical_formula_sum   'Yb1 Lu3 Si10 Os6'
_cell_volume   326.88173040
_cell_formula_units_Z   1
loop_
 _symmetry_equiv_pos_site_id
 _symmetry_equiv_pos_as_xyz
  1  'x, y, z'
loop_
 _atom_site_type_symbol
 _atom_site_label
 _atom_site_symmetry_multiplicity
 _atom_site_fract_x
 _atom_site_fract_y
 _atom_site_fract_z
 _atom_site_occupancy
  Yb  Yb0  1  0.868934  0.599566  0.766032  1
  Lu  Lu1  1  0.409558  0.130240  0.730293  1
  Lu  Lu2  1  0.128280  0.399502  0.236053  1
  Lu  Lu3  1  0.591434  0.868852  0.269543  1
  Si  Si4  1  0.079155  0.262544  0.828153  1
  Si  Si5  1  0.731164  0.924609  0.672905  1
  Si  Si6  1  0.923061  0.738075  0.170563  1
  Si  Si7  1  0.269064  0.075047  0.326570  1
  Si  Si8  1  0.210671  0.797449  0.735396  1
  Si  Si9  1  0.787331  0.202191  0.266440  1
  Si  Si10  1  0.500931  0.500206  0.748840  1
  Si  Si11  1  0.500920  0.500277  0.250135  1
  Si  Si12  1  0.787421  0.202061  0.744218  1
  Si  Si13  1  0.210631  0.797314  0.256362  1
  Os  Os14  1  0.257746  0.547358  0.597505  1
  Os  Os15  1  0.439742  0.739155  0.910553  1
  Os  Os16  1  0.743150  0.451470  0.402587  1
  Os  Os17  1  0.558888  0.259143  0.091346  1
  Os  Os18  1  0.002049  0.001986  0.749140  1
  Os  Os19  1  0.999870  0.002955  0.247369  1
