# generated using pymatgen
data_Er4B16Os3Ru
_symmetry_space_group_name_H-M   'P 1'
_cell_length_a   3.55048500
_cell_length_b   5.94074003
_cell_length_c   11.49512306
_cell_angle_alpha   89.98859829
_cell_angle_beta   90.00012436
_cell_angle_gamma   89.99997422
_symmetry_Int_Tables_number   1
_chemical_formula_structural   Er4B16Os3Ru
_chemical_formula_sum   'Er4 B16 Os3 Ru1'
_cell_volume   242.46097441
_cell_formula_units_Z   1
loop_
 _symmetry_equiv_pos_site_id
 _symmetry_equiv_pos_as_xyz
  1  'x, y, z'
loop_
 _atom_site_type_symbol
 _atom_site_label
 _atom_site_symmetry_multiplicity
 _atom_site_fract_x
 _atom_site_fract_y
 _atom_site_fract_z
 _atom_site_occupancy
  Er  Er0  1  0.000001  0.628572  0.350238  1
  Er  Er1  1  0.999999  0.371397  0.649665  1
  Er  Er2  1  0.000001  0.128937  0.150549  1
  Er  Er3  1  0.000000  0.870972  0.849484  1
  B  B4  1  0.499999  0.790299  0.186315  1
  B  B5  1  0.500000  0.209648  0.813725  1
  B  B6  1  0.500000  0.290257  0.314122  1
  B  B7  1  0.499999  0.709762  0.685779  1
  B  B8  1  0.499999  0.864514  0.029767  1
  B  B9  1  0.499999  0.135652  0.970032  1
  B  B10  1  0.499999  0.364507  0.470014  1
  B  B11  1  0.500000  0.635354  0.530369  1
  B  B12  1  0.500000  0.887334  0.453176  1
  B  B13  1  0.500000  0.112539  0.546917  1
  B  B14  1  0.500000  0.387388  0.046979  1
  B  B15  1  0.500000  0.612780  0.952845  1
  B  B16  1  0.500000  0.976050  0.308013  1
  B  B17  1  0.500000  0.023456  0.692125  1
  B  B18  1  0.500000  0.475881  0.192068  1
  B  B19  1  0.500000  0.524569  0.807750  1
  Os  Os20  1  0.000000  0.642217  0.093380  1
  Os  Os21  1  0.000000  0.358005  0.906614  1
  Os  Os22  1  0.000005  0.141133  0.406721  1
  Ru  Ru23  1  0.000000  0.858777  0.593353  1
