# generated using pymatgen
data_Nd7ErSe12
_symmetry_space_group_name_H-M   'P 1'
_cell_length_a   11.13868703
_cell_length_b   4.18122200
_cell_length_c   11.49454202
_cell_angle_alpha   90.00000000
_cell_angle_beta   90.00759873
_cell_angle_gamma   90.00000000
_symmetry_Int_Tables_number   1
_chemical_formula_structural   Nd7ErSe12
_chemical_formula_sum   'Nd7 Er1 Se12'
_cell_volume   535.33901651
_cell_formula_units_Z   1
loop_
 _symmetry_equiv_pos_site_id
 _symmetry_equiv_pos_as_xyz
  1  'x, y, z'
loop_
 _atom_site_type_symbol
 _atom_site_label
 _atom_site_symmetry_multiplicity
 _atom_site_fract_x
 _atom_site_fract_y
 _atom_site_fract_z
 _atom_site_occupancy
  Nd  Nd0  1  0.686315  0.500000  0.011345  1
  Nd  Nd1  1  0.004340  0.500000  0.192259  1
  Nd  Nd2  1  0.498885  0.000000  0.302760  1
  Nd  Nd3  1  0.187211  0.000000  0.488604  1
  Nd  Nd4  1  0.812722  0.500000  0.511763  1
  Nd  Nd5  1  0.496424  0.500000  0.695948  1
  Nd  Nd6  1  0.002153  0.000000  0.807872  1
  Er  Er7  1  0.313066  0.000000  0.989581  1
  Se  Se8  1  0.876385  0.000000  0.044154  1
  Se  Se9  1  0.439127  0.500000  0.114801  1
  Se  Se10  1  0.202174  0.000000  0.224659  1
  Se  Se11  1  0.697045  0.500000  0.270514  1
  Se  Se12  1  0.944801  0.000000  0.378377  1
  Se  Se13  1  0.374696  0.500000  0.455173  1
  Se  Se14  1  0.623833  0.000000  0.544788  1
  Se  Se15  1  0.056282  0.500000  0.620993  1
  Se  Se16  1  0.298219  0.000000  0.733791  1
  Se  Se17  1  0.801321  0.500000  0.772447  1
  Se  Se18  1  0.550171  0.000000  0.883327  1
  Se  Se19  1  0.134825  0.500000  0.956844  1
