# generated using pymatgen
data_Ac6LaY3Si8O3
_symmetry_space_group_name_H-M   'P 1'
_cell_length_a   11.02812600
_cell_length_b   11.02812713
_cell_length_c   4.67350500
_cell_angle_alpha   90.00000000
_cell_angle_beta   90.00000000
_cell_angle_gamma   120.00000261
_symmetry_Int_Tables_number   1
_chemical_formula_structural   Ac6LaY3Si8O3
_chemical_formula_sum   'Ac6 La1 Y3 Si8 O3'
_cell_volume   492.23990164
_cell_formula_units_Z   1
loop_
 _symmetry_equiv_pos_site_id
 _symmetry_equiv_pos_as_xyz
  1  'x, y, z'
loop_
 _atom_site_type_symbol
 _atom_site_label
 _atom_site_symmetry_multiplicity
 _atom_site_fract_x
 _atom_site_fract_y
 _atom_site_fract_z
 _atom_site_occupancy
  Ac  Ac0  1  0.211681  0.788319  0.000000  1
  Ac  Ac1  1  0.576640  0.788319  0.000000  1
  Ac  Ac2  1  0.788319  0.576640  0.000000  1
  Ac  Ac3  1  0.211681  0.423360  0.000000  1
  Ac  Ac4  1  0.423360  0.211681  0.000000  1
  Ac  Ac5  1  0.788319  0.211681  0.000000  1
  La  La6  1  0.000000  0.000000  0.000000  1
  Y  Y7  1  0.000000  0.500000  0.500000  1
  Y  Y8  1  0.500000  0.500000  0.500000  1
  Y  Y9  1  0.500000  0.000000  0.500000  1
  Si  Si10  1  0.000000  0.779178  0.500000  1
  Si  Si11  1  0.000000  0.220822  0.500000  1
  Si  Si12  1  0.220822  0.220822  0.500000  1
  Si  Si13  1  0.779178  0.000000  0.500000  1
  Si  Si14  1  0.333333  0.666667  0.500000  1
  Si  Si15  1  0.220822  0.000000  0.500000  1
  Si  Si16  1  0.666667  0.333333  0.500000  1
  Si  Si17  1  0.779178  0.779178  0.500000  1
  O  O18  1  0.000000  0.500000  0.000000  1
  O  O19  1  0.500000  0.500000  0.000000  1
  O  O20  1  0.500000  0.000000  0.000000  1
