# generated using pymatgen
data_LiHf4Co19P12
_symmetry_space_group_name_H-M   'P 1'
_cell_length_a   3.59260500
_cell_length_b   10.10527554
_cell_length_c   11.65307771
_cell_angle_alpha   89.97667492
_cell_angle_beta   90.00000000
_cell_angle_gamma   90.00000000
_symmetry_Int_Tables_number   1
_chemical_formula_structural   LiHf4Co19P12
_chemical_formula_sum   'Li1 Hf4 Co19 P12'
_cell_volume   423.05636802
_cell_formula_units_Z   1
loop_
 _symmetry_equiv_pos_site_id
 _symmetry_equiv_pos_as_xyz
  1  'x, y, z'
loop_
 _atom_site_type_symbol
 _atom_site_label
 _atom_site_symmetry_multiplicity
 _atom_site_fract_x
 _atom_site_fract_y
 _atom_site_fract_z
 _atom_site_occupancy
  Li  Li0  1  0.250000  0.705183  0.990855  1
  Hf  Hf1  1  0.250000  0.580691  0.703125  1
  Hf  Hf2  1  0.250000  0.919660  0.203596  1
  Hf  Hf3  1  0.750000  0.420951  0.296835  1
  Hf  Hf4  1  0.750000  0.079033  0.797151  1
  Co  Co5  1  0.250000  0.779986  0.494335  1
  Co  Co6  1  0.750000  0.286361  0.010778  1
  Co  Co7  1  0.750000  0.220653  0.504916  1
  Co  Co8  1  0.250000  0.409278  0.485923  1
  Co  Co9  1  0.250000  0.091530  0.983621  1
  Co  Co10  1  0.750000  0.590350  0.516724  1
  Co  Co11  1  0.750000  0.908889  0.016249  1
  Co  Co12  1  0.250000  0.225527  0.179515  1
  Co  Co13  1  0.250000  0.276260  0.677908  1
  Co  Co14  1  0.750000  0.778453  0.819342  1
  Co  Co15  1  0.750000  0.722434  0.325466  1
  Co  Co16  1  0.250000  0.885035  0.699065  1
  Co  Co17  1  0.250000  0.618910  0.202258  1
  Co  Co18  1  0.750000  0.116372  0.297778  1
  Co  Co19  1  0.750000  0.381262  0.799173  1
  Co  Co20  1  0.250000  0.465819  0.929933  1
  Co  Co21  1  0.250000  0.033501  0.429119  1
  Co  Co22  1  0.750000  0.533968  0.068179  1
  Co  Co23  1  0.750000  0.967936  0.568562  1
  P  P24  1  0.250000  0.421286  0.114497  1
  P  P25  1  0.250000  0.081104  0.613609  1
  P  P26  1  0.750000  0.579215  0.881215  1
  P  P27  1  0.750000  0.919827  0.385311  1
  P  P28  1  0.250000  0.264167  0.869177  1
  P  P29  1  0.250000  0.235384  0.369399  1
  P  P30  1  0.750000  0.735385  0.136151  1
  P  P31  1  0.750000  0.766822  0.630460  1
  P  P32  1  0.250000  0.598796  0.390482  1
  P  P33  1  0.250000  0.899841  0.888874  1
  P  P34  1  0.750000  0.399581  0.611222  1
  P  P35  1  0.750000  0.100551  0.109198  1
