# generated using pymatgen
data_DyErPa2(NiGe)4
_symmetry_space_group_name_H-M   'P 1'
_cell_length_a   4.24474600
_cell_length_b   7.01435456
_cell_length_c   7.18389958
_cell_angle_alpha   89.67448368
_cell_angle_beta   90.00000000
_cell_angle_gamma   90.00000000
_symmetry_Int_Tables_number   1
_chemical_formula_structural   DyErPa2(NiGe)4
_chemical_formula_sum   'Dy1 Er1 Pa2 Ni4 Ge4'
_cell_volume   213.89107664
_cell_formula_units_Z   1
loop_
 _symmetry_equiv_pos_site_id
 _symmetry_equiv_pos_as_xyz
  1  'x, y, z'
loop_
 _atom_site_type_symbol
 _atom_site_label
 _atom_site_symmetry_multiplicity
 _atom_site_fract_x
 _atom_site_fract_y
 _atom_site_fract_z
 _atom_site_occupancy
  Dy  Dy0  1  0.250000  0.990756  0.291121  1
  Er  Er1  1  0.750000  0.009348  0.710718  1
  Pa  Pa2  1  0.250000  0.489592  0.207873  1
  Pa  Pa3  1  0.750000  0.510291  0.791598  1
  Ni  Ni4  1  0.750000  0.303662  0.419369  1
  Ni  Ni5  1  0.250000  0.207992  0.922047  1
  Ni  Ni6  1  0.750000  0.790112  0.076422  1
  Ni  Ni7  1  0.250000  0.696636  0.581504  1
  Ge  Ge8  1  0.250000  0.301085  0.591146  1
  Ge  Ge9  1  0.750000  0.202995  0.089326  1
  Ge  Ge10  1  0.250000  0.798819  0.909553  1
  Ge  Ge11  1  0.750000  0.698712  0.409323  1
