# generated using pymatgen
data_Nd5Sm3(PI6)2
_symmetry_space_group_name_H-M   'P 1'
_cell_length_a   4.26244100
_cell_length_b   14.02912387
_cell_length_c   14.81229800
_cell_angle_alpha   90.05241891
_cell_angle_beta   90.00000000
_cell_angle_gamma   90.00000000
_symmetry_Int_Tables_number   1
_chemical_formula_structural   Nd5Sm3(PI6)2
_chemical_formula_sum   'Nd5 Sm3 P2 I12'
_cell_volume   885.75005815
_cell_formula_units_Z   1
loop_
 _symmetry_equiv_pos_site_id
 _symmetry_equiv_pos_as_xyz
  1  'x, y, z'
loop_
 _atom_site_type_symbol
 _atom_site_label
 _atom_site_symmetry_multiplicity
 _atom_site_fract_x
 _atom_site_fract_y
 _atom_site_fract_z
 _atom_site_occupancy
  Nd  Nd0  1  0.500000  0.115378  0.348092  1
  Nd  Nd1  1  0.000000  0.110267  0.574315  1
  Nd  Nd2  1  0.000000  0.889885  0.425483  1
  Nd  Nd3  1  0.000000  0.609716  0.925828  1
  Nd  Nd4  1  0.000000  0.390566  0.073718  1
  Sm  Sm5  1  0.500000  0.884629  0.652121  1
  Sm  Sm6  1  0.500000  0.614633  0.151123  1
  Sm  Sm7  1  0.500000  0.385460  0.848711  1
  P  P8  1  0.500000  0.999022  0.501298  1
  P  P9  1  0.500000  0.500228  0.999806  1
  I  I10  1  0.500000  0.244048  0.162332  1
  I  I11  1  0.500000  0.756619  0.836443  1
  I  I12  1  0.500000  0.742896  0.336414  1
  I  I13  1  0.500000  0.256573  0.664316  1
  I  I14  1  0.000000  0.265864  0.416028  1
  I  I15  1  0.000000  0.736861  0.586141  1
  I  I16  1  0.000000  0.762717  0.086222  1
  I  I17  1  0.000000  0.237181  0.913503  1
  I  I18  1  0.000000  0.998355  0.234817  1
  I  I19  1  0.000000  0.999016  0.763578  1
  I  I20  1  0.000000  0.501327  0.263268  1
  I  I21  1  0.000000  0.498760  0.736445  1
