# generated using pymatgen
data_Tb2Y17Lu(Cd3Ru)2
_symmetry_space_group_name_H-M   'P 1'
_cell_length_a   9.64507100
_cell_length_b   9.64761863
_cell_length_c   9.88689622
_cell_angle_alpha   89.99999926
_cell_angle_beta   89.95079665
_cell_angle_gamma   120.00873909
_symmetry_Int_Tables_number   1
_chemical_formula_structural   Tb2Y17Lu(Cd3Ru)2
_chemical_formula_sum   'Tb2 Y17 Lu1 Cd6 Ru2'
_cell_volume   796.66859749
_cell_formula_units_Z   1
loop_
 _symmetry_equiv_pos_site_id
 _symmetry_equiv_pos_as_xyz
  1  'x, y, z'
loop_
 _atom_site_type_symbol
 _atom_site_label
 _atom_site_symmetry_multiplicity
 _atom_site_fract_x
 _atom_site_fract_y
 _atom_site_fract_z
 _atom_site_occupancy
  Tb  Tb0  1  0.209347  0.790811  0.439320  1
  Tb  Tb1  1  0.209347  0.418537  0.439320  1
  Y  Y2  1  0.999938  0.999969  0.000243  1
  Y  Y3  1  0.582301  0.791151  0.440028  1
  Y  Y4  1  0.790865  0.209128  0.560229  1
  Y  Y5  1  0.790865  0.581736  0.560229  1
  Y  Y6  1  0.418547  0.209273  0.560182  1
  Y  Y7  1  0.790186  0.209870  0.939796  1
  Y  Y8  1  0.790186  0.580314  0.939796  1
  Y  Y9  1  0.419849  0.209924  0.939928  1
  Y  Y10  1  0.209836  0.790330  0.060037  1
  Y  Y11  1  0.209836  0.419508  0.060037  1
  Y  Y12  1  0.580033  0.790018  0.060059  1
  Y  Y13  1  0.541014  0.458875  0.250222  1
  Y  Y14  1  0.541014  0.082138  0.250222  1
  Y  Y15  1  0.917577  0.458788  0.250184  1
  Y  Y16  1  0.459111  0.541296  0.749807  1
  Y  Y17  1  0.459111  0.917816  0.749807  1
  Y  Y18  1  0.082353  0.541177  0.749783  1
  Lu  Lu19  1  0.000111  0.000055  0.499889  1
  Cd  Cd20  1  0.886110  0.114019  0.251492  1
  Cd  Cd21  1  0.886110  0.772091  0.251492  1
  Cd  Cd22  1  0.227762  0.113882  0.251362  1
  Cd  Cd23  1  0.113767  0.885875  0.748604  1
  Cd  Cd24  1  0.113767  0.227892  0.748604  1
  Cd  Cd25  1  0.772147  0.886073  0.748388  1
  Ru  Ru26  1  0.332569  0.666285  0.251458  1
  Ru  Ru27  1  0.666338  0.333168  0.749483  1
