# generated using pymatgen
data_ErTh4(In2Ru)2
_symmetry_space_group_name_H-M   'P 1'
_cell_length_a   3.78460700
_cell_length_b   8.23644200
_cell_length_c   18.33945700
_cell_angle_alpha   90.00000000
_cell_angle_beta   90.00000000
_cell_angle_gamma   90.00000000
_symmetry_Int_Tables_number   1
_chemical_formula_structural   ErTh4(In2Ru)2
_chemical_formula_sum   'Er2 Th8 In8 Ru4'
_cell_volume   571.67197929
_cell_formula_units_Z   2
loop_
 _symmetry_equiv_pos_site_id
 _symmetry_equiv_pos_as_xyz
  1  'x, y, z'
loop_
 _atom_site_type_symbol
 _atom_site_label
 _atom_site_symmetry_multiplicity
 _atom_site_fract_x
 _atom_site_fract_y
 _atom_site_fract_z
 _atom_site_occupancy
  Er  Er0  1  0.000000  0.500000  0.500000  1
  Er  Er1  1  0.000000  0.000000  0.000000  1
  Th  Th2  1  0.000000  0.753552  0.276440  1
  Th  Th3  1  0.000000  0.246448  0.723560  1
  Th  Th4  1  0.000000  0.746448  0.776440  1
  Th  Th5  1  0.000000  0.253552  0.223560  1
  Th  Th6  1  0.000000  0.616699  0.087941  1
  Th  Th7  1  0.000000  0.383301  0.912059  1
  Th  Th8  1  0.000000  0.883301  0.587941  1
  Th  Th9  1  0.000000  0.116699  0.412059  1
  In  In10  1  0.500000  0.714400  0.933310  1
  In  In11  1  0.500000  0.285600  0.066690  1
  In  In12  1  0.500000  0.785600  0.433310  1
  In  In13  1  0.500000  0.214400  0.566690  1
  In  In14  1  0.500000  0.557761  0.646110  1
  In  In15  1  0.500000  0.442239  0.353890  1
  In  In16  1  0.500000  0.942239  0.146110  1
  In  In17  1  0.500000  0.057761  0.853890  1
  Ru  Ru18  1  0.500000  0.513516  0.194647  1
  Ru  Ru19  1  0.500000  0.486484  0.805353  1
  Ru  Ru20  1  0.500000  0.986484  0.694647  1
  Ru  Ru21  1  0.500000  0.013516  0.305353  1
