# generated using pymatgen
data_Pr3NdPd4PbAu
_symmetry_space_group_name_H-M   'P 1'
_cell_length_a   7.87548465
_cell_length_b   7.88115365
_cell_length_c   3.90790700
_cell_angle_alpha   90.00000000
_cell_angle_beta   90.00000000
_cell_angle_gamma   90.09403460
_symmetry_Int_Tables_number   1
_chemical_formula_structural   Pr3NdPd4PbAu
_chemical_formula_sum   'Pr3 Nd1 Pd4 Pb1 Au1'
_cell_volume   242.55527233
_cell_formula_units_Z   1
loop_
 _symmetry_equiv_pos_site_id
 _symmetry_equiv_pos_as_xyz
  1  'x, y, z'
loop_
 _atom_site_type_symbol
 _atom_site_label
 _atom_site_symmetry_multiplicity
 _atom_site_fract_x
 _atom_site_fract_y
 _atom_site_fract_z
 _atom_site_occupancy
  Pr  Pr0  1  0.669549  0.184052  0.500000  1
  Pr  Pr1  1  0.815613  0.669905  0.500000  1
  Pr  Pr2  1  0.184603  0.330397  0.500000  1
  Nd  Nd3  1  0.330439  0.815745  0.500000  1
  Pd  Pd4  1  0.873923  0.376601  0.000000  1
  Pd  Pd5  1  0.622458  0.873593  0.000000  1
  Pd  Pd6  1  0.376177  0.125214  0.000000  1
  Pd  Pd7  1  0.127036  0.624314  0.000000  1
  Pb  Pb8  1  0.000561  0.999672  0.000000  1
  Au  Au9  1  0.499641  0.500509  0.000000  1
