# generated using pymatgen
data_Sc3AlPt8
_symmetry_space_group_name_H-M   'P 1'
_cell_length_a   16.81419300
_cell_length_b   4.07779300
_cell_length_c   5.63623900
_cell_angle_alpha   90.00000000
_cell_angle_beta   90.00000000
_cell_angle_gamma   90.00000000
_symmetry_Int_Tables_number   1
_chemical_formula_structural   Sc3AlPt8
_chemical_formula_sum   'Sc6 Al2 Pt16'
_cell_volume   386.44759142
_cell_formula_units_Z   2
loop_
 _symmetry_equiv_pos_site_id
 _symmetry_equiv_pos_as_xyz
  1  'x, y, z'
loop_
 _atom_site_type_symbol
 _atom_site_label
 _atom_site_symmetry_multiplicity
 _atom_site_fract_x
 _atom_site_fract_y
 _atom_site_fract_z
 _atom_site_occupancy
  Sc  Sc0  1  0.090149  0.000000  0.304508  1
  Sc  Sc1  1  0.409851  0.000000  0.304508  1
  Sc  Sc2  1  0.590149  0.000000  0.695492  1
  Sc  Sc3  1  0.909850  0.000000  0.695492  1
  Sc  Sc4  1  0.250000  0.000000  0.792748  1
  Sc  Sc5  1  0.750000  0.000000  0.207253  1
  Al  Al6  1  0.000000  0.499999  0.000000  1
  Al  Al7  1  0.500000  0.499999  0.000000  1
  Pt  Pt8  1  0.250000  0.000000  0.285785  1
  Pt  Pt9  1  0.750000  0.000000  0.714216  1
  Pt  Pt10  1  0.166248  0.499999  0.548455  1
  Pt  Pt11  1  0.333752  0.499999  0.548455  1
  Pt  Pt12  1  0.666247  0.499999  0.451544  1
  Pt  Pt13  1  0.833753  0.499999  0.451544  1
  Pt  Pt14  1  0.161485  0.499999  0.045503  1
  Pt  Pt15  1  0.338516  0.499999  0.045503  1
  Pt  Pt16  1  0.661485  0.499999  0.954496  1
  Pt  Pt17  1  0.838516  0.499999  0.954496  1
  Pt  Pt18  1  0.000000  0.499999  0.499999  1
  Pt  Pt19  1  0.500000  0.499999  0.499999  1
  Pt  Pt20  1  0.072575  0.000000  0.800669  1
  Pt  Pt21  1  0.427425  0.000000  0.800669  1
  Pt  Pt22  1  0.572574  0.000000  0.199331  1
  Pt  Pt23  1  0.927425  0.000000  0.199331  1
