# generated using pymatgen
data_Tb11Y(PdRh)2
_symmetry_space_group_name_H-M   'P 1'
_cell_length_a   6.42741339
_cell_length_b   7.12791702
_cell_length_c   9.62784936
_cell_angle_alpha   90.00710019
_cell_angle_beta   89.96948422
_cell_angle_gamma   89.95646056
_symmetry_Int_Tables_number   1
_chemical_formula_structural   Tb11Y(PdRh)2
_chemical_formula_sum   'Tb11 Y1 Pd2 Rh2'
_cell_volume   441.09076442
_cell_formula_units_Z   1
loop_
 _symmetry_equiv_pos_site_id
 _symmetry_equiv_pos_as_xyz
  1  'x, y, z'
loop_
 _atom_site_type_symbol
 _atom_site_label
 _atom_site_symmetry_multiplicity
 _atom_site_fract_x
 _atom_site_fract_y
 _atom_site_fract_z
 _atom_site_occupancy
  Tb  Tb0  1  0.638063  0.023714  0.249858  1
  Tb  Tb1  1  0.362337  0.976070  0.749961  1
  Tb  Tb2  1  0.126322  0.463031  0.749726  1
  Tb  Tb3  1  0.873868  0.536470  0.249884  1
  Tb  Tb4  1  0.171633  0.179005  0.061633  1
  Tb  Tb5  1  0.828299  0.821391  0.938365  1
  Tb  Tb6  1  0.675370  0.316236  0.937860  1
  Tb  Tb7  1  0.828090  0.821516  0.561588  1
  Tb  Tb8  1  0.324719  0.683689  0.061629  1
  Tb  Tb9  1  0.172134  0.178788  0.438402  1
  Tb  Tb10  1  0.324380  0.683631  0.438466  1
  Y  Y11  1  0.674731  0.316461  0.561354  1
  Pd  Pd12  1  0.447465  0.388478  0.250128  1
  Pd  Pd13  1  0.551953  0.612223  0.750386  1
  Rh  Rh14  1  0.941492  0.112389  0.750828  1
  Rh  Rh15  1  0.059144  0.886908  0.249929  1
