# generated using pymatgen
data_Hf5(ZrH10)3
_symmetry_space_group_name_H-M   'P 1'
_cell_length_a   6.96524437
_cell_length_b   6.94159390
_cell_length_c   6.96301161
_cell_angle_alpha   109.37596715
_cell_angle_beta   109.55267844
_cell_angle_gamma   109.38812499
_symmetry_Int_Tables_number   1
_chemical_formula_structural   Hf5(ZrH10)3
_chemical_formula_sum   'Hf5 Zr3 H30'
_cell_volume   259.47053847
_cell_formula_units_Z   1
loop_
 _symmetry_equiv_pos_site_id
 _symmetry_equiv_pos_as_xyz
  1  'x, y, z'
loop_
 _atom_site_type_symbol
 _atom_site_label
 _atom_site_symmetry_multiplicity
 _atom_site_fract_x
 _atom_site_fract_y
 _atom_site_fract_z
 _atom_site_occupancy
  Hf  Hf0  1  0.905580  0.905101  0.905107  1
  Hf  Hf1  1  0.500376  0.999956  0.095039  1
  Hf  Hf2  1  0.000018  0.095519  0.500030  1
  Hf  Hf3  1  0.094319  0.499387  0.999457  1
  Hf  Hf4  1  0.000164  0.595943  0.500260  1
  Zr  Zr5  1  0.593445  0.500196  0.000572  1
  Zr  Zr6  1  0.499499  0.999345  0.592750  1
  Zr  Zr7  1  0.407450  0.407643  0.407697  1
  H  H8  1  0.656550  0.967171  0.383325  1
  H  H9  1  0.227048  0.311481  0.843585  1
  H  H10  1  0.184365  0.417364  0.532341  1
  H  H11  1  0.078842  0.267911  0.110529  1
  H  H12  1  0.268604  0.110841  0.079224  1
  H  H13  1  0.110124  0.078981  0.267935  1
  H  H14  1  0.467193  0.153173  0.888086  1
  H  H15  1  0.734174  0.346629  0.813832  1
  H  H16  1  0.627201  0.374842  0.251570  1
  H  H17  1  0.247528  0.624468  0.373413  1
  H  H18  1  0.750681  0.876808  0.125487  1
  H  H19  1  0.124783  0.749673  0.874410  1
  H  H20  1  0.372567  0.249315  0.624733  1
  H  H21  1  0.876724  0.124876  0.750027  1
  H  H22  1  0.773297  0.583878  0.616917  1
  H  H23  1  0.311119  0.843678  0.226483  1
  H  H24  1  0.383114  0.656177  0.966512  1
  H  H25  1  0.967629  0.385917  0.656227  1
  H  H26  1  0.533602  0.185536  0.415421  1
  H  H27  1  0.414782  0.533456  0.185583  1
  H  H28  1  0.843899  0.229725  0.312433  1
  H  H29  1  0.921538  0.690011  0.032720  1
  H  H30  1  0.814670  0.732340  0.348076  1
  H  H31  1  0.151925  0.884613  0.467512  1
  H  H32  1  0.689269  0.031822  0.920274  1
  H  H33  1  0.342277  0.810199  0.731364  1
  H  H34  1  0.889194  0.468669  0.157553  1
  H  H35  1  0.618686  0.770581  0.584122  1
  H  H36  1  0.585295  0.618861  0.770834  1
  H  H37  1  0.032469  0.917911  0.688563  1
