# generated using pymatgen
data_Pm4Zn(MoO4)3
_symmetry_space_group_name_H-M   'P 1'
_cell_length_a   5.56880734
_cell_length_b   5.91303174
_cell_length_c   8.00119382
_cell_angle_alpha   89.22572472
_cell_angle_beta   90.18809215
_cell_angle_gamma   89.70852780
_symmetry_Int_Tables_number   1
_chemical_formula_structural   Pm4Zn(MoO4)3
_chemical_formula_sum   'Pm4 Zn1 Mo3 O12'
_cell_volume   263.43864193
_cell_formula_units_Z   1
loop_
 _symmetry_equiv_pos_site_id
 _symmetry_equiv_pos_as_xyz
  1  'x, y, z'
loop_
 _atom_site_type_symbol
 _atom_site_label
 _atom_site_symmetry_multiplicity
 _atom_site_fract_x
 _atom_site_fract_y
 _atom_site_fract_z
 _atom_site_occupancy
  Pm  Pm0  1  0.982504  0.063521  0.245616  1
  Pm  Pm1  1  0.520025  0.574667  0.244519  1
  Pm  Pm2  1  0.479975  0.425333  0.755481  1
  Pm  Pm3  1  0.017495  0.936479  0.754384  1
  Zn  Zn4  1  0.500000  0.000000  0.000000  1
  Mo  Mo5  1  0.000000  0.500001  0.000000  1
  Mo  Mo6  1  0.500000  0.000000  0.500000  1
  Mo  Mo7  1  0.000000  0.500001  0.500000  1
  O  O8  1  0.699383  0.315104  0.054543  1
  O  O9  1  0.818866  0.796059  0.060495  1
  O  O10  1  0.122715  0.452190  0.246757  1
  O  O11  1  0.380844  0.953999  0.244530  1
  O  O12  1  0.687051  0.308290  0.434452  1
  O  O13  1  0.814186  0.807806  0.435116  1
  O  O14  1  0.185815  0.192194  0.564885  1
  O  O15  1  0.312950  0.691710  0.565549  1
  O  O16  1  0.619156  0.046001  0.755470  1
  O  O17  1  0.877286  0.547810  0.753243  1
  O  O18  1  0.181135  0.203941  0.939504  1
  O  O19  1  0.300618  0.684896  0.945456  1
