# generated using pymatgen
data_Ba2GaSbSeS4
_symmetry_space_group_name_H-M   'P 1'
_cell_length_a   8.97744500
_cell_length_b   9.31188700
_cell_length_c   12.38835400
_cell_angle_alpha   90.00000000
_cell_angle_beta   90.00000000
_cell_angle_gamma   90.00000000
_symmetry_Int_Tables_number   1
_chemical_formula_structural   Ba2GaSbSeS4
_chemical_formula_sum   'Ba8 Ga4 Sb4 Se4 S16'
_cell_volume   1035.62865190
_cell_formula_units_Z   4
loop_
 _symmetry_equiv_pos_site_id
 _symmetry_equiv_pos_as_xyz
  1  'x, y, z'
loop_
 _atom_site_type_symbol
 _atom_site_label
 _atom_site_symmetry_multiplicity
 _atom_site_fract_x
 _atom_site_fract_y
 _atom_site_fract_z
 _atom_site_occupancy
  Ba  Ba0  1  0.007137  0.122157  0.825470  1
  Ba  Ba1  1  0.492863  0.377843  0.325470  1
  Ba  Ba2  1  0.507137  0.877843  0.174530  1
  Ba  Ba3  1  0.992863  0.622157  0.674530  1
  Ba  Ba4  1  0.992863  0.877843  0.174530  1
  Ba  Ba5  1  0.507137  0.622157  0.674530  1
  Ba  Ba6  1  0.492863  0.122157  0.825470  1
  Ba  Ba7  1  0.007137  0.377843  0.325470  1
  Ga  Ga8  1  0.250000  0.326158  0.595426  1
  Ga  Ga9  1  0.250000  0.173842  0.095426  1
  Ga  Ga10  1  0.750000  0.673842  0.404574  1
  Ga  Ga11  1  0.750000  0.826158  0.904574  1
  Sb  Sb12  1  0.250000  0.981849  0.517971  1
  Sb  Sb13  1  0.250000  0.518151  0.017971  1
  Sb  Sb14  1  0.750000  0.018151  0.482029  1
  Sb  Sb15  1  0.750000  0.481849  0.982029  1
  Se  Se16  1  0.250000  0.880728  0.714868  1
  Se  Se17  1  0.250000  0.619272  0.214868  1
  Se  Se18  1  0.750000  0.119272  0.285132  1
  Se  Se19  1  0.750000  0.380728  0.785132  1
  S  S20  1  0.051714  0.171859  0.553885  1
  S  S21  1  0.448286  0.328141  0.053885  1
  S  S22  1  0.551714  0.828141  0.446115  1
  S  S23  1  0.948286  0.671859  0.946115  1
  S  S24  1  0.948286  0.828141  0.446115  1
  S  S25  1  0.551714  0.671859  0.946115  1
  S  S26  1  0.448286  0.171859  0.553885  1
  S  S27  1  0.051714  0.328141  0.053885  1
  S  S28  1  0.250000  0.380896  0.772866  1
  S  S29  1  0.250000  0.119104  0.272866  1
  S  S30  1  0.750000  0.619104  0.227134  1
  S  S31  1  0.750000  0.880896  0.727134  1
  S  S32  1  0.250000  0.975272  0.993667  1
  S  S33  1  0.250000  0.524728  0.493667  1
  S  S34  1  0.750000  0.024728  0.006333  1
  S  S35  1  0.750000  0.475272  0.506333  1
