# generated using pymatgen
data_Li2CdSbPt4
_symmetry_space_group_name_H-M   'P 1'
_cell_length_a   5.60903086
_cell_length_b   5.60903087
_cell_length_c   5.74919500
_cell_angle_alpha   59.16987515
_cell_angle_beta   59.16987512
_cell_angle_gamma   61.66024765
_symmetry_Int_Tables_number   1
_chemical_formula_structural   Li2CdSbPt4
_chemical_formula_sum   'Li2 Cd1 Sb1 Pt4'
_cell_volume   127.73530841
_cell_formula_units_Z   1
loop_
 _symmetry_equiv_pos_site_id
 _symmetry_equiv_pos_as_xyz
  1  'x, y, z'
loop_
 _atom_site_type_symbol
 _atom_site_label
 _atom_site_symmetry_multiplicity
 _atom_site_fract_x
 _atom_site_fract_y
 _atom_site_fract_z
 _atom_site_occupancy
  Li  Li0  1  0.500000  0.500000  0.000000  1
  Li  Li1  1  0.000000  0.000000  0.500000  1
  Cd  Cd2  1  0.500000  0.500000  0.500000  1
  Sb  Sb3  1  0.000000  0.000000  0.000000  1
  Pt  Pt4  1  0.000000  0.500000  0.500000  1
  Pt  Pt5  1  0.500000  0.000000  0.000000  1
  Pt  Pt6  1  0.000000  0.500000  0.000000  1
  Pt  Pt7  1  0.500000  0.000000  0.500000  1
