# generated using pymatgen
data_SmY7(Si3Pt)4
_symmetry_space_group_name_H-M   'P 1'
_cell_length_a   8.14388300
_cell_length_b   8.14388363
_cell_length_c   8.22594900
_cell_angle_alpha   90.00000000
_cell_angle_beta   90.00000000
_cell_angle_gamma   120.00000151
_symmetry_Int_Tables_number   1
_chemical_formula_structural   SmY7(Si3Pt)4
_chemical_formula_sum   'Sm1 Y7 Si12 Pt4'
_cell_volume   472.47596703
_cell_formula_units_Z   1
loop_
 _symmetry_equiv_pos_site_id
 _symmetry_equiv_pos_as_xyz
  1  'x, y, z'
loop_
 _atom_site_type_symbol
 _atom_site_label
 _atom_site_symmetry_multiplicity
 _atom_site_fract_x
 _atom_site_fract_y
 _atom_site_fract_z
 _atom_site_occupancy
  Sm  Sm0  1  0.000000  0.000000  0.250000  1
  Y  Y1  1  0.000000  0.000000  0.750000  1
  Y  Y2  1  0.001704  0.500851  0.250000  1
  Y  Y3  1  0.499149  0.500851  0.250000  1
  Y  Y4  1  0.500845  0.001693  0.750000  1
  Y  Y5  1  0.499149  0.998296  0.250000  1
  Y  Y6  1  0.500845  0.499155  0.750000  1
  Y  Y7  1  0.998307  0.499155  0.750000  1
  Si  Si8  1  0.165821  0.331641  0.998601  1
  Si  Si9  1  0.668359  0.834179  0.998601  1
  Si  Si10  1  0.165821  0.331641  0.501399  1
  Si  Si11  1  0.331659  0.165830  0.000325  1
  Si  Si12  1  0.165821  0.834179  0.998601  1
  Si  Si13  1  0.668359  0.834179  0.501399  1
  Si  Si14  1  0.834170  0.668341  0.000325  1
  Si  Si15  1  0.331659  0.165830  0.499675  1
  Si  Si16  1  0.165821  0.834179  0.501399  1
  Si  Si17  1  0.834170  0.668341  0.499675  1
  Si  Si18  1  0.834170  0.165830  0.000325  1
  Si  Si19  1  0.834170  0.165830  0.499675  1
  Pt  Pt20  1  0.333333  0.666667  0.998611  1
  Pt  Pt21  1  0.333333  0.666667  0.501389  1
  Pt  Pt22  1  0.666667  0.333333  0.001283  1
  Pt  Pt23  1  0.666667  0.333333  0.498717  1
