# generated using pymatgen
data_Hf18Re8NiRh
_symmetry_space_group_name_H-M   'P 1'
_cell_length_a   8.62005000
_cell_length_b   8.62004976
_cell_length_c   8.52288300
_cell_angle_alpha   90.00000000
_cell_angle_beta   90.00000000
_cell_angle_gamma   120.00000094
_symmetry_Int_Tables_number   1
_chemical_formula_structural   Hf18Re8NiRh
_chemical_formula_sum   'Hf18 Re8 Ni1 Rh1'
_cell_volume   548.44958443
_cell_formula_units_Z   1
loop_
 _symmetry_equiv_pos_site_id
 _symmetry_equiv_pos_as_xyz
  1  'x, y, z'
loop_
 _atom_site_type_symbol
 _atom_site_label
 _atom_site_symmetry_multiplicity
 _atom_site_fract_x
 _atom_site_fract_y
 _atom_site_fract_z
 _atom_site_occupancy
  Hf  Hf0  1  0.196001  0.803999  0.446344  1
  Hf  Hf1  1  0.196001  0.392001  0.446344  1
  Hf  Hf2  1  0.607999  0.803999  0.446344  1
  Hf  Hf3  1  0.802340  0.197660  0.556739  1
  Hf  Hf4  1  0.802340  0.604680  0.556739  1
  Hf  Hf5  1  0.395320  0.197660  0.556739  1
  Hf  Hf6  1  0.802340  0.197660  0.943261  1
  Hf  Hf7  1  0.802340  0.604680  0.943261  1
  Hf  Hf8  1  0.395320  0.197660  0.943261  1
  Hf  Hf9  1  0.196001  0.803999  0.053656  1
  Hf  Hf10  1  0.196001  0.392001  0.053656  1
  Hf  Hf11  1  0.607999  0.803999  0.053656  1
  Hf  Hf12  1  0.542484  0.457516  0.250000  1
  Hf  Hf13  1  0.542484  0.084967  0.250000  1
  Hf  Hf14  1  0.915033  0.457516  0.250000  1
  Hf  Hf15  1  0.458919  0.541081  0.750000  1
  Hf  Hf16  1  0.458919  0.917839  0.750000  1
  Hf  Hf17  1  0.082161  0.541081  0.750000  1
  Re  Re18  1  0.889591  0.110409  0.250000  1
  Re  Re19  1  0.889591  0.779180  0.250000  1
  Re  Re20  1  0.220820  0.110409  0.250000  1
  Re  Re21  1  0.110207  0.889793  0.750000  1
  Re  Re22  1  0.110207  0.220416  0.750000  1
  Re  Re23  1  0.779584  0.889793  0.750000  1
  Re  Re24  1  0.000000  0.000000  0.500045  1
  Re  Re25  1  0.000000  0.000000  0.999955  1
  Ni  Ni26  1  0.666667  0.333333  0.750000  1
  Rh  Rh27  1  0.333333  0.666667  0.250000  1
