# generated using pymatgen
data_Sc(S8F)3
_symmetry_space_group_name_H-M   'P 1'
_cell_length_a   14.54542529
_cell_length_b   14.54542583
_cell_length_c   14.54542347
_cell_angle_alpha   118.49428855
_cell_angle_beta   118.49428507
_cell_angle_gamma   118.49428961
_symmetry_Int_Tables_number   1
_chemical_formula_structural   Sc(S8F)3
_chemical_formula_sum   'Sc1 S24 F3'
_cell_volume   973.38995111
_cell_formula_units_Z   1
loop_
 _symmetry_equiv_pos_site_id
 _symmetry_equiv_pos_as_xyz
  1  'x, y, z'
loop_
 _atom_site_type_symbol
 _atom_site_label
 _atom_site_symmetry_multiplicity
 _atom_site_fract_x
 _atom_site_fract_y
 _atom_site_fract_z
 _atom_site_occupancy
  Sc  Sc0  1  0.857952  0.857952  0.857952  1
  S  S1  1  0.797197  0.522867  0.522867  1
  S  S2  1  0.522867  0.522867  0.797197  1
  S  S3  1  0.522867  0.797197  0.522867  1
  S  S4  1  0.251744  0.386240  0.637220  1
  S  S5  1  0.343487  0.948514  0.343487  1
  S  S6  1  0.343487  0.343487  0.948514  1
  S  S7  1  0.948514  0.343487  0.343487  1
  S  S8  1  0.125909  0.742909  0.259440  1
  S  S9  1  0.259440  0.125909  0.742909  1
  S  S10  1  0.742909  0.259440  0.125909  1
  S  S11  1  0.742909  0.125909  0.259440  1
  S  S12  1  0.259440  0.742909  0.125909  1
  S  S13  1  0.125909  0.259440  0.742909  1
  S  S14  1  0.342482  0.876521  0.530695  1
  S  S15  1  0.530695  0.342482  0.876521  1
  S  S16  1  0.876521  0.530695  0.342482  1
  S  S17  1  0.876521  0.342482  0.530695  1
  S  S18  1  0.530695  0.876521  0.342482  1
  S  S19  1  0.342482  0.530695  0.876521  1
  S  S20  1  0.251744  0.637220  0.386240  1
  S  S21  1  0.386240  0.251744  0.637220  1
  S  S22  1  0.637220  0.386240  0.251744  1
  S  S23  1  0.637220  0.251744  0.386240  1
  S  S24  1  0.386240  0.637220  0.251744  1
  F  F25  1  0.879056  0.001774  0.001774  1
  F  F26  1  0.001774  0.001774  0.879056  1
  F  F27  1  0.001774  0.879056  0.001774  1
