# generated using pymatgen
data_Y17Er3(Ir2Ru)4
_symmetry_space_group_name_H-M   'P 1'
_cell_length_a   10.87371800
_cell_length_b   10.87371800
_cell_length_c   6.45055400
_cell_angle_alpha   90.00000000
_cell_angle_beta   90.00000000
_cell_angle_gamma   90.00000000
_symmetry_Int_Tables_number   1
_chemical_formula_structural   Y17Er3(Ir2Ru)4
_chemical_formula_sum   'Y17 Er3 Ir8 Ru4'
_cell_volume   762.69894699
_cell_formula_units_Z   1
loop_
 _symmetry_equiv_pos_site_id
 _symmetry_equiv_pos_as_xyz
  1  'x, y, z'
loop_
 _atom_site_type_symbol
 _atom_site_label
 _atom_site_symmetry_multiplicity
 _atom_site_fract_x
 _atom_site_fract_y
 _atom_site_fract_z
 _atom_site_occupancy
  Y  Y0  1  0.292936  0.086676  0.377963  1
  Y  Y1  1  0.292974  0.913507  0.877986  1
  Y  Y2  1  0.707026  0.086493  0.877986  1
  Y  Y3  1  0.707064  0.913324  0.377963  1
  Y  Y4  1  0.586574  0.793141  0.878018  1
  Y  Y5  1  0.586835  0.206538  0.377921  1
  Y  Y6  1  0.413165  0.793462  0.377921  1
  Y  Y7  1  0.413426  0.206859  0.878018  1
  Y  Y8  1  0.206538  0.413165  0.622079  1
  Y  Y9  1  0.206859  0.586574  0.121982  1
  Y  Y10  1  0.793141  0.413426  0.121982  1
  Y  Y11  1  0.793462  0.586835  0.622079  1
  Y  Y12  1  0.913507  0.707026  0.122014  1
  Y  Y13  1  0.913324  0.292936  0.622037  1
  Y  Y14  1  0.086676  0.707064  0.622037  1
  Y  Y15  1  0.086493  0.292974  0.122014  1
  Y  Y16  1  0.500000  0.500000  0.500000  1
  Er  Er17  1  0.000000  0.000000  0.500000  1
  Er  Er18  1  0.000000  0.000000  0.000000  1
  Er  Er19  1  0.500000  0.500000  0.000000  1
  Ir  Ir20  1  0.849235  0.150777  0.249781  1
  Ir  Ir21  1  0.849223  0.849235  0.750219  1
  Ir  Ir22  1  0.150777  0.150765  0.750219  1
  Ir  Ir23  1  0.150765  0.849223  0.249781  1
  Ir  Ir24  1  0.651678  0.348210  0.751871  1
  Ir  Ir25  1  0.651790  0.651678  0.248129  1
  Ir  Ir26  1  0.348210  0.348322  0.248129  1
  Ir  Ir27  1  0.348322  0.651790  0.751871  1
  Ru  Ru28  1  0.500000  0.000000  0.124239  1
  Ru  Ru29  1  0.500000  0.000000  0.624210  1
  Ru  Ru30  1  0.000000  0.500000  0.875761  1
  Ru  Ru31  1  0.000000  0.500000  0.375790  1
