# generated using pymatgen
data_Zr6Ti4Al12Ir6Au
_symmetry_space_group_name_H-M   'P 1'
_cell_length_a   8.81278926
_cell_length_b   8.82174118
_cell_length_c   8.82174063
_cell_angle_alpha   59.92291977
_cell_angle_beta   60.03356467
_cell_angle_gamma   60.03356366
_symmetry_Int_Tables_number   1
_chemical_formula_structural   Zr6Ti4Al12Ir6Au
_chemical_formula_sum   'Zr6 Ti4 Al12 Ir6 Au1'
_cell_volume   484.92350899
_cell_formula_units_Z   1
loop_
 _symmetry_equiv_pos_site_id
 _symmetry_equiv_pos_as_xyz
  1  'x, y, z'
loop_
 _atom_site_type_symbol
 _atom_site_label
 _atom_site_symmetry_multiplicity
 _atom_site_fract_x
 _atom_site_fract_y
 _atom_site_fract_z
 _atom_site_occupancy
  Zr  Zr0  1  0.696363  0.692914  0.305669  1
  Zr  Zr1  1  0.305054  0.692914  0.305669  1
  Zr  Zr2  1  0.678724  0.321276  0.321276  1
  Zr  Zr3  1  0.305054  0.305669  0.692914  1
  Zr  Zr4  1  0.696363  0.305669  0.692914  1
  Zr  Zr5  1  0.319350  0.680650  0.680650  1
  Ti  Ti6  1  0.880473  0.878887  0.360167  1
  Ti  Ti7  1  0.880473  0.360167  0.878887  1
  Ti  Ti8  1  0.358592  0.874357  0.874357  1
  Ti  Ti9  1  0.892696  0.874357  0.874357  1
  Al  Al10  1  0.119391  0.122401  0.638816  1
  Al  Al11  1  0.119391  0.638816  0.122401  1
  Al  Al12  1  0.641874  0.125638  0.125638  1
  Al  Al13  1  0.106850  0.125638  0.125638  1
  Al  Al14  1  0.664297  0.659585  0.011820  1
  Al  Al15  1  0.664297  0.011820  0.659585  1
  Al  Al16  1  0.012848  0.661318  0.661318  1
  Al  Al17  1  0.664514  0.661318  0.661318  1
  Al  Al18  1  0.333905  0.342904  0.989286  1
  Al  Al19  1  0.333905  0.989286  0.342904  1
  Al  Al20  1  0.989938  0.337190  0.337190  1
  Al  Al21  1  0.335684  0.337190  0.337190  1
  Ir  Ir22  1  0.000788  0.999212  0.999212  1
  Ir  Ir23  1  0.998718  0.997160  0.502664  1
  Ir  Ir24  1  0.501458  0.997160  0.502664  1
  Ir  Ir25  1  0.998162  0.501838  0.501838  1
  Ir  Ir26  1  0.501458  0.502664  0.997160  1
  Ir  Ir27  1  0.998718  0.502664  0.997160  1
  Au  Au28  1  0.500660  0.999340  0.999340  1
