# generated using pymatgen
data_Tb7DyTi3Si16W9
_symmetry_space_group_name_H-M   'P 1'
_cell_length_a   6.91185575
_cell_length_b   6.91189409
_cell_length_c   12.84078614
_cell_angle_alpha   90.01629552
_cell_angle_beta   89.98883885
_cell_angle_gamma   89.89752431
_symmetry_Int_Tables_number   1
_chemical_formula_structural   Tb7DyTi3Si16W9
_chemical_formula_sum   'Tb7 Dy1 Ti3 Si16 W9'
_cell_volume   613.45489118
_cell_formula_units_Z   1
loop_
 _symmetry_equiv_pos_site_id
 _symmetry_equiv_pos_as_xyz
  1  'x, y, z'
loop_
 _atom_site_type_symbol
 _atom_site_label
 _atom_site_symmetry_multiplicity
 _atom_site_fract_x
 _atom_site_fract_y
 _atom_site_fract_z
 _atom_site_occupancy
  Tb  Tb0  1  0.997853  0.661002  0.031391  1
  Tb  Tb1  1  0.001096  0.339506  0.531194  1
  Tb  Tb2  1  0.660993  0.997842  0.968623  1
  Tb  Tb3  1  0.162251  0.503215  0.780799  1
  Tb  Tb4  1  0.837710  0.500338  0.282449  1
  Tb  Tb5  1  0.503177  0.162209  0.219234  1
  Tb  Tb6  1  0.500294  0.837721  0.717513  1
  Dy  Dy7  1  0.339735  0.000813  0.468815  1
  Ti  Ti8  1  0.829511  0.168411  0.748538  1
  Ti  Ti9  1  0.168440  0.829554  0.251511  1
  Ti  Ti10  1  0.331082  0.331095  0.000003  1
  Si  Si11  1  0.036918  0.711971  0.437799  1
  Si  Si12  1  0.959394  0.289753  0.936118  1
  Si  Si13  1  0.711511  0.036714  0.562128  1
  Si  Si14  1  0.209060  0.460494  0.186170  1
  Si  Si15  1  0.789983  0.540759  0.685843  1
  Si  Si16  1  0.460486  0.209058  0.813827  1
  Si  Si17  1  0.540575  0.790162  0.314278  1
  Si  Si18  1  0.289749  0.959388  0.063887  1
  Si  Si19  1  0.799843  0.871591  0.183517  1
  Si  Si20  1  0.302018  0.626165  0.566087  1
  Si  Si21  1  0.700844  0.371889  0.066170  1
  Si  Si22  1  0.625732  0.301830  0.433859  1
  Si  Si23  1  0.371885  0.700838  0.933826  1
  Si  Si24  1  0.127575  0.202416  0.315830  1
  Si  Si25  1  0.202672  0.127342  0.684207  1
  Si  Si26  1  0.871583  0.799836  0.816481  1
  W  W27  1  0.334431  0.506006  0.375159  1
  W  W28  1  0.841182  0.996807  0.373616  1
  W  W29  1  0.006479  0.160583  0.125602  1
  W  W30  1  0.996896  0.841224  0.626322  1
  W  W31  1  0.505863  0.334272  0.624771  1
  W  W32  1  0.160611  0.006445  0.874415  1
  W  W33  1  0.668209  0.668346  0.499983  1
  W  W34  1  0.494057  0.660328  0.124874  1
  W  W35  1  0.660304  0.494080  0.875163  1
