# generated using pymatgen
data_PaIn(I2Br)2
_symmetry_space_group_name_H-M   'P 1'
_cell_length_a   8.17455084
_cell_length_b   8.26878292
_cell_length_c   8.50863273
_cell_angle_alpha   90.21884246
_cell_angle_beta   118.58000130
_cell_angle_gamma   119.57389359
_symmetry_Int_Tables_number   1
_chemical_formula_structural   PaIn(I2Br)2
_chemical_formula_sum   'Pa1 In1 I4 Br2'
_cell_volume   417.01490531
_cell_formula_units_Z   1
loop_
 _symmetry_equiv_pos_site_id
 _symmetry_equiv_pos_as_xyz
  1  'x, y, z'
loop_
 _atom_site_type_symbol
 _atom_site_label
 _atom_site_symmetry_multiplicity
 _atom_site_fract_x
 _atom_site_fract_y
 _atom_site_fract_z
 _atom_site_occupancy
  Pa  Pa0  1  0.587862  0.295351  0.875626  1
  In  In1  1  0.246142  0.625215  0.866071  1
  I  I2  1  0.465859  0.080421  0.120930  1
  I  I3  1  0.124830  0.201066  0.632990  1
  I  I4  1  0.710426  0.511551  0.630418  1
  I  I5  1  0.439760  0.925368  0.638890  1
  Br  Br6  1  0.710016  0.625853  0.092837  1
  Br  Br7  1  0.014103  0.384676  0.090736  1
