# generated using pymatgen
data_Tb5Dy15(CoAu2)4
_symmetry_space_group_name_H-M   'P 1'
_cell_length_a   8.33894333
_cell_length_b   8.11952628
_cell_length_c   11.82596700
_cell_angle_alpha   90.04592398
_cell_angle_beta   89.85331368
_cell_angle_gamma   89.79971202
_symmetry_Int_Tables_number   1
_chemical_formula_structural   Tb5Dy15(CoAu2)4
_chemical_formula_sum   'Tb5 Dy15 Co4 Au8'
_cell_volume   800.70798102
_cell_formula_units_Z   1
loop_
 _symmetry_equiv_pos_site_id
 _symmetry_equiv_pos_as_xyz
  1  'x, y, z'
loop_
 _atom_site_type_symbol
 _atom_site_label
 _atom_site_symmetry_multiplicity
 _atom_site_fract_x
 _atom_site_fract_y
 _atom_site_fract_z
 _atom_site_occupancy
  Tb  Tb0  1  0.672823  0.541409  0.572498  1
  Tb  Tb1  1  0.172766  0.043209  0.926433  1
  Tb  Tb2  1  0.672472  0.956138  0.573230  1
  Tb  Tb3  1  0.826777  0.543219  0.073355  1
  Tb  Tb4  1  0.326788  0.457160  0.426260  1
  Dy  Dy5  1  0.150434  0.749846  0.222348  1
  Dy  Dy6  1  0.651517  0.250723  0.277470  1
  Dy  Dy7  1  0.849132  0.249493  0.777438  1
  Dy  Dy8  1  0.349572  0.749700  0.722337  1
  Dy  Dy9  1  0.441968  0.750817  0.014940  1
  Dy  Dy10  1  0.942344  0.248262  0.485543  1
  Dy  Dy11  1  0.558350  0.248454  0.985510  1
  Dy  Dy12  1  0.058636  0.752060  0.514985  1
  Dy  Dy13  1  0.595533  0.750361  0.301056  1
  Dy  Dy14  1  0.095971  0.249535  0.198753  1
  Dy  Dy15  1  0.404078  0.250596  0.698348  1
  Dy  Dy16  1  0.903654  0.750236  0.801396  1
  Dy  Dy17  1  0.828770  0.957891  0.073214  1
  Dy  Dy18  1  0.329117  0.042900  0.426680  1
  Dy  Dy19  1  0.171984  0.458800  0.927047  1
  Co  Co20  1  0.422236  0.749523  0.498040  1
  Co  Co21  1  0.923933  0.250848  0.001656  1
  Co  Co22  1  0.577848  0.248943  0.501449  1
  Co  Co23  1  0.076188  0.750881  0.998383  1
  Au  Au24  1  0.901801  0.966712  0.330436  1
  Au  Au25  1  0.404555  0.032718  0.170898  1
  Au  Au26  1  0.094468  0.468899  0.669268  1
  Au  Au27  1  0.595404  0.531079  0.830999  1
  Au  Au28  1  0.098673  0.033377  0.669467  1
  Au  Au29  1  0.595939  0.966870  0.830152  1
  Au  Au30  1  0.903467  0.532781  0.332105  1
  Au  Au31  1  0.402801  0.466557  0.168306  1
