# generated using pymatgen
data_Ac10Os2I15
_symmetry_space_group_name_H-M   'P 1'
_cell_length_a   10.59988926
_cell_length_b   11.59157594
_cell_length_c   12.33526656
_cell_angle_alpha   92.50687097
_cell_angle_beta   113.99390420
_cell_angle_gamma   110.53438713
_symmetry_Int_Tables_number   1
_chemical_formula_structural   Ac10Os2I15
_chemical_formula_sum   'Ac10 Os2 I15'
_cell_volume   1265.53896438
_cell_formula_units_Z   1
loop_
 _symmetry_equiv_pos_site_id
 _symmetry_equiv_pos_as_xyz
  1  'x, y, z'
loop_
 _atom_site_type_symbol
 _atom_site_label
 _atom_site_symmetry_multiplicity
 _atom_site_fract_x
 _atom_site_fract_y
 _atom_site_fract_z
 _atom_site_occupancy
  Ac  Ac0  1  0.223296  0.574352  0.047654  1
  Ac  Ac1  1  0.776704  0.425648  0.952346  1
  Ac  Ac2  1  0.296469  0.901614  0.272806  1
  Ac  Ac3  1  0.703531  0.098386  0.727194  1
  Ac  Ac4  1  0.089260  0.546100  0.329994  1
  Ac  Ac5  1  0.910740  0.453900  0.670006  1
  Ac  Ac6  1  0.831730  0.751451  0.179690  1
  Ac  Ac7  1  0.168270  0.248549  0.820310  1
  Ac  Ac8  1  0.974164  0.790490  0.902550  1
  Ac  Ac9  1  0.025836  0.209510  0.097450  1
  Os  Os10  1  0.032220  0.672591  0.119194  1
  Os  Os11  1  0.967780  0.327409  0.880806  1
  I  I12  1  0.344571  0.444809  0.305034  1
  I  I13  1  0.655429  0.555191  0.694966  1
  I  I14  1  0.215397  0.740317  0.815252  1
  I  I15  1  0.784603  0.259683  0.184748  1
  I  I16  1  0.143265  0.388142  0.582991  1
  I  I17  1  0.856735  0.611858  0.417009  1
  I  I18  1  0.391104  0.802084  0.533042  1
  I  I19  1  0.608896  0.197916  0.466958  1
  I  I20  1  0.262447  0.087973  0.054843  1
  I  I21  1  0.737553  0.912027  0.945157  1
  I  I22  1  0.565299  0.845129  0.227343  1
  I  I23  1  0.434701  0.154871  0.772657  1
  I  I24  1  0.093117  0.039635  0.335949  1
  I  I25  1  0.906883  0.960365  0.664051  1
  I  I26  1  0.500000  0.500000  0.000000  1
