# generated using pymatgen
data_YbDy7(Si4Mo3)4
_symmetry_space_group_name_H-M   'P 1'
_cell_length_a   6.77158219
_cell_length_b   6.95450730
_cell_length_c   12.93964028
_cell_angle_alpha   90.05009774
_cell_angle_beta   89.97184124
_cell_angle_gamma   90.05854232
_symmetry_Int_Tables_number   1
_chemical_formula_structural   YbDy7(Si4Mo3)4
_chemical_formula_sum   'Yb1 Dy7 Si16 Mo12'
_cell_volume   609.36608484
_cell_formula_units_Z   1
loop_
 _symmetry_equiv_pos_site_id
 _symmetry_equiv_pos_as_xyz
  1  'x, y, z'
loop_
 _atom_site_type_symbol
 _atom_site_label
 _atom_site_symmetry_multiplicity
 _atom_site_fract_x
 _atom_site_fract_y
 _atom_site_fract_z
 _atom_site_occupancy
  Yb  Yb0  1  0.997168  0.165323  0.091083  1
  Dy  Dy1  1  0.498434  0.331967  0.094618  1
  Dy  Dy2  1  0.997875  0.167870  0.405345  1
  Dy  Dy3  1  0.503393  0.667391  0.594125  1
  Dy  Dy4  1  0.002544  0.834469  0.907609  1
  Dy  Dy5  1  0.502525  0.667086  0.906464  1
  Dy  Dy6  1  0.002886  0.832812  0.594285  1
  Dy  Dy7  1  0.497266  0.332475  0.405149  1
  Si  Si8  1  0.660242  0.043272  0.546366  1
  Si  Si9  1  0.158487  0.456884  0.952927  1
  Si  Si10  1  0.341154  0.957845  0.047499  1
  Si  Si11  1  0.840237  0.543103  0.453453  1
  Si  Si12  1  0.339594  0.956842  0.453381  1
  Si  Si13  1  0.841533  0.540991  0.047724  1
  Si  Si14  1  0.658010  0.043447  0.953241  1
  Si  Si15  1  0.159991  0.456589  0.546401  1
  Si  Si16  1  0.534145  0.365389  0.750063  1
  Si  Si17  1  0.034516  0.135434  0.750726  1
  Si  Si18  1  0.465095  0.633841  0.250232  1
  Si  Si19  1  0.965483  0.866776  0.249716  1
  Si  Si20  1  0.804248  0.629867  0.750547  1
  Si  Si21  1  0.303136  0.870752  0.750250  1
  Si  Si22  1  0.194683  0.369904  0.248461  1
  Si  Si23  1  0.698531  0.128207  0.248584  1
  Mo  Mo24  1  0.829935  0.336151  0.625319  1
  Mo  Mo25  1  0.331082  0.163930  0.874461  1
  Mo  Mo26  1  0.169660  0.666232  0.126270  1
  Mo  Mo27  1  0.669163  0.835974  0.374193  1
  Mo  Mo28  1  0.169918  0.663407  0.375201  1
  Mo  Mo29  1  0.668901  0.833000  0.125245  1
  Mo  Mo30  1  0.828897  0.336990  0.873886  1
  Mo  Mo31  1  0.330411  0.164368  0.625529  1
  Mo  Mo32  1  0.666009  0.000060  0.749671  1
  Mo  Mo33  1  0.166116  0.500283  0.750078  1
  Mo  Mo34  1  0.334433  0.998902  0.250940  1
  Mo  Mo35  1  0.834301  0.502165  0.250958  1
