# generated using pymatgen
data_Tm4Lu4Ga3Ir
_symmetry_space_group_name_H-M   'P 1'
_cell_length_a   9.88031700
_cell_length_b   9.88031730
_cell_length_c   6.91746600
_cell_angle_alpha   90.00000000
_cell_angle_beta   90.00000000
_cell_angle_gamma   120.00000904
_symmetry_Int_Tables_number   1
_chemical_formula_structural   Tm4Lu4Ga3Ir
_chemical_formula_sum   'Tm8 Lu8 Ga6 Ir2'
_cell_volume   584.81620197
_cell_formula_units_Z   2
loop_
 _symmetry_equiv_pos_site_id
 _symmetry_equiv_pos_as_xyz
  1  'x, y, z'
loop_
 _atom_site_type_symbol
 _atom_site_label
 _atom_site_symmetry_multiplicity
 _atom_site_fract_x
 _atom_site_fract_y
 _atom_site_fract_z
 _atom_site_occupancy
  Tm  Tm0  1  0.466023  0.533977  0.294639  1
  Tm  Tm1  1  0.932046  0.466023  0.794639  1
  Tm  Tm2  1  0.533977  0.067954  0.794639  1
  Tm  Tm3  1  0.466023  0.932046  0.294639  1
  Tm  Tm4  1  0.067954  0.533977  0.294639  1
  Tm  Tm5  1  0.533977  0.466023  0.794639  1
  Tm  Tm6  1  0.000000  0.000000  0.266721  1
  Tm  Tm7  1  0.000000  0.000000  0.766721  1
  Lu  Lu8  1  0.171713  0.828287  0.989276  1
  Lu  Lu9  1  0.343426  0.171713  0.489276  1
  Lu  Lu10  1  0.828287  0.656574  0.489276  1
  Lu  Lu11  1  0.171713  0.343426  0.989276  1
  Lu  Lu12  1  0.656574  0.828287  0.989276  1
  Lu  Lu13  1  0.828287  0.171713  0.489276  1
  Lu  Lu14  1  0.333333  0.666667  0.663969  1
  Lu  Lu15  1  0.666667  0.333333  0.163969  1
  Ga  Ga16  1  0.163406  0.836594  0.541446  1
  Ga  Ga17  1  0.326814  0.163406  0.041446  1
  Ga  Ga18  1  0.836594  0.673186  0.041446  1
  Ga  Ga19  1  0.163406  0.326814  0.541446  1
  Ga  Ga20  1  0.673186  0.836594  0.541446  1
  Ga  Ga21  1  0.836594  0.163406  0.041446  1
  Ir  Ir22  1  0.333333  0.666667  0.055231  1
  Ir  Ir23  1  0.666667  0.333333  0.555231  1
