# generated using pymatgen
data_CaY4Tm(Si3Ru)8
_symmetry_space_group_name_H-M   'P 1'
_cell_length_a   10.13338420
_cell_length_b   10.13212979
_cell_length_c   8.14101760
_cell_angle_alpha   89.91760853
_cell_angle_beta   90.09647140
_cell_angle_gamma   132.62720187
_symmetry_Int_Tables_number   1
_chemical_formula_structural   CaY4Tm(Si3Ru)8
_chemical_formula_sum   'Ca1 Y4 Tm1 Si24 Ru8'
_cell_volume   615.00508453
_cell_formula_units_Z   1
loop_
 _symmetry_equiv_pos_site_id
 _symmetry_equiv_pos_as_xyz
  1  'x, y, z'
loop_
 _atom_site_type_symbol
 _atom_site_label
 _atom_site_symmetry_multiplicity
 _atom_site_fract_x
 _atom_site_fract_y
 _atom_site_fract_z
 _atom_site_occupancy
  Ca  Ca0  1  0.001968  0.501962  0.249943  1
  Y  Y1  1  0.500367  0.500279  0.499428  1
  Y  Y2  1  0.498447  0.998400  0.750036  1
  Y  Y3  1  0.997102  0.497078  0.750063  1
  Y  Y4  1  0.502641  0.002698  0.249987  1
  Tm  Tm5  1  0.000272  0.000389  0.000582  1
  Si  Si6  1  0.293737  0.704526  0.000223  1
  Si  Si7  1  0.795337  0.206161  0.498773  1
  Si  Si8  1  0.706303  0.295235  0.001168  1
  Si  Si9  1  0.204378  0.793817  0.499794  1
  Si  Si10  1  0.832758  0.834213  0.332921  1
  Si  Si11  1  0.166673  0.168357  0.666998  1
  Si  Si12  1  0.668522  0.666932  0.833311  1
  Si  Si13  1  0.333995  0.332481  0.166734  1
  Si  Si14  1  0.620339  0.386290  0.227979  1
  Si  Si15  1  0.611217  0.377925  0.772472  1
  Si  Si16  1  0.111336  0.878314  0.728539  1
  Si  Si17  1  0.123444  0.890010  0.271691  1
  Si  Si18  1  0.378467  0.611700  0.771790  1
  Si  Si19  1  0.389669  0.623395  0.227963  1
  Si  Si20  1  0.886689  0.120496  0.271650  1
  Si  Si21  1  0.877940  0.110920  0.727871  1
  Si  Si22  1  0.844654  0.611772  0.002836  1
  Si  Si23  1  0.388130  0.155509  0.994707  1
  Si  Si24  1  0.888194  0.654778  0.506060  1
  Si  Si25  1  0.344050  0.111654  0.495172  1
  Si  Si26  1  0.154651  0.387887  0.993809  1
  Si  Si27  1  0.611946  0.844168  0.004856  1
  Si  Si28  1  0.111447  0.344514  0.497335  1
  Si  Si29  1  0.655645  0.888484  0.505275  1
  Ru  Ru30  1  0.169940  0.831916  0.999311  1
  Ru  Ru31  1  0.667459  0.329073  0.501716  1
  Ru  Ru32  1  0.829602  0.166996  0.998355  1
  Ru  Ru33  1  0.331511  0.670530  0.500691  1
  Ru  Ru34  1  0.627589  0.627472  0.126140  1
  Ru  Ru35  1  0.372718  0.373415  0.874057  1
  Ru  Ru36  1  0.874838  0.874057  0.627664  1
  Ru  Ru37  1  0.126025  0.126200  0.372103  1
