# generated using pymatgen
data_ErTc3Ni3P4
_symmetry_space_group_name_H-M   'P 1'
_cell_length_a   6.78846800
_cell_length_b   6.78846859
_cell_length_c   3.68245000
_cell_angle_alpha   90.00000000
_cell_angle_beta   90.00000000
_cell_angle_gamma   119.99998738
_symmetry_Int_Tables_number   1
_chemical_formula_structural   ErTc3Ni3P4
_chemical_formula_sum   'Er1 Tc3 Ni3 P4'
_cell_volume   146.96405747
_cell_formula_units_Z   1
loop_
 _symmetry_equiv_pos_site_id
 _symmetry_equiv_pos_as_xyz
  1  'x, y, z'
loop_
 _atom_site_type_symbol
 _atom_site_label
 _atom_site_symmetry_multiplicity
 _atom_site_fract_x
 _atom_site_fract_y
 _atom_site_fract_z
 _atom_site_occupancy
  Er  Er0  1  0.333333  0.666667  0.000000  1
  Tc  Tc1  1  0.269692  0.134846  0.000000  1
  Tc  Tc2  1  0.865154  0.730308  0.000000  1
  Tc  Tc3  1  0.865154  0.134846  0.000000  1
  Ni  Ni4  1  0.938152  0.469076  0.500000  1
  Ni  Ni5  1  0.530924  0.061848  0.500000  1
  Ni  Ni6  1  0.530924  0.469076  0.500000  1
  P  P7  1  0.666667  0.333333  0.000000  1
  P  P8  1  0.709872  0.854936  0.500000  1
  P  P9  1  0.145064  0.290128  0.500000  1
  P  P10  1  0.145064  0.854936  0.500000  1
