# generated using pymatgen
data_Tb3Dy5(TmGa5)4
_symmetry_space_group_name_H-M   'P 1'
_cell_length_a   6.08431804
_cell_length_b   9.60093202
_cell_length_c   11.50873405
_cell_angle_alpha   89.99998373
_cell_angle_beta   89.98963420
_cell_angle_gamma   89.99243774
_symmetry_Int_Tables_number   1
_chemical_formula_structural   Tb3Dy5(TmGa5)4
_chemical_formula_sum   'Tb3 Dy5 Tm4 Ga20'
_cell_volume   672.28410818
_cell_formula_units_Z   1
loop_
 _symmetry_equiv_pos_site_id
 _symmetry_equiv_pos_as_xyz
  1  'x, y, z'
loop_
 _atom_site_type_symbol
 _atom_site_label
 _atom_site_symmetry_multiplicity
 _atom_site_fract_x
 _atom_site_fract_y
 _atom_site_fract_z
 _atom_site_occupancy
  Tb  Tb0  1  0.891060  0.509714  0.351425  1
  Tb  Tb1  1  0.608942  0.990268  0.851555  1
  Tb  Tb2  1  0.108979  0.009699  0.648460  1
  Dy  Dy3  1  0.391063  0.490272  0.148523  1
  Dy  Dy4  1  0.108933  0.490300  0.648714  1
  Dy  Dy5  1  0.391079  0.009700  0.148725  1
  Dy  Dy6  1  0.891074  0.990317  0.351271  1
  Dy  Dy7  1  0.608866  0.509680  0.851426  1
  Tm  Tm8  1  0.848267  0.749953  0.074517  1
  Tm  Tm9  1  0.651602  0.750025  0.574451  1
  Tm  Tm10  1  0.151627  0.250031  0.925582  1
  Tm  Tm11  1  0.348433  0.250054  0.425461  1
  Ga  Ga12  1  0.875993  0.053012  0.089850  1
  Ga  Ga13  1  0.624020  0.447029  0.589854  1
  Ga  Ga14  1  0.124074  0.552942  0.910225  1
  Ga  Ga15  1  0.376018  0.947013  0.410163  1
  Ga  Ga16  1  0.123811  0.946889  0.910515  1
  Ga  Ga17  1  0.376212  0.553036  0.410294  1
  Ga  Ga18  1  0.875935  0.446972  0.089557  1
  Ga  Ga19  1  0.623796  0.053103  0.589489  1
  Ga  Ga20  1  0.171197  0.750156  0.251467  1
  Ga  Ga21  1  0.328967  0.749619  0.751640  1
  Ga  Ga22  1  0.828990  0.250358  0.748394  1
  Ga  Ga23  1  0.670887  0.249816  0.248304  1
  Ga  Ga24  1  0.373475  0.749885  0.004439  1
  Ga  Ga25  1  0.126551  0.749852  0.504181  1
  Ga  Ga26  1  0.626418  0.250220  0.995833  1
  Ga  Ga27  1  0.873446  0.249868  0.495788  1
  Ga  Ga28  1  0.601619  0.750271  0.299036  1
  Ga  Ga29  1  0.898365  0.749683  0.799080  1
  Ga  Ga30  1  0.398352  0.250313  0.700923  1
  Ga  Ga31  1  0.101950  0.249951  0.200859  1
