# generated using pymatgen
data_PrNd4P12Ru9Rh10
_symmetry_space_group_name_H-M   'P 1'
_cell_length_a   12.71846702
_cell_length_b   12.71721553
_cell_length_c   3.98828700
_cell_angle_alpha   90.00000000
_cell_angle_beta   90.00000000
_cell_angle_gamma   119.99675387
_symmetry_Int_Tables_number   1
_chemical_formula_structural   PrNd4P12Ru9Rh10
_chemical_formula_sum   'Pr1 Nd4 P12 Ru9 Rh10'
_cell_volume   558.67345853
_cell_formula_units_Z   1
loop_
 _symmetry_equiv_pos_site_id
 _symmetry_equiv_pos_as_xyz
  1  'x, y, z'
loop_
 _atom_site_type_symbol
 _atom_site_label
 _atom_site_symmetry_multiplicity
 _atom_site_fract_x
 _atom_site_fract_y
 _atom_site_fract_z
 _atom_site_occupancy
  Pr  Pr0  1  0.000000  0.186028  0.500000  1
  Nd  Nd1  1  0.813878  0.813856  0.500000  1
  Nd  Nd2  1  0.186122  0.999978  0.500000  1
  Nd  Nd3  1  0.666662  0.333339  0.000000  1
  Nd  Nd4  1  0.333338  0.666678  0.000000  1
  P  P5  1  0.000000  0.815330  0.000000  1
  P  P6  1  0.184963  0.184675  0.000000  1
  P  P7  1  0.815037  0.999712  0.000000  1
  P  P8  1  0.690291  0.171479  0.500000  1
  P  P9  1  0.828517  0.518831  0.500000  1
  P  P10  1  0.481221  0.309726  0.500000  1
  P  P11  1  0.171483  0.690314  0.500000  1
  P  P12  1  0.518779  0.828506  0.500000  1
  P  P13  1  0.309709  0.481187  0.500000  1
  P  P14  1  0.000000  0.372665  0.000000  1
  P  P15  1  0.627601  0.627602  0.000000  1
  P  P16  1  0.372399  0.000000  0.000000  1
  Ru  Ru17  1  0.000000  0.713058  0.500000  1
  Ru  Ru18  1  0.287203  0.287026  0.500000  1
  Ru  Ru19  1  0.712797  0.999823  0.500000  1
  Ru  Ru20  1  0.874750  0.362897  0.500000  1
  Ru  Ru21  1  0.637210  0.512007  0.500000  1
  Ru  Ru22  1  0.488019  0.125209  0.500000  1
  Ru  Ru23  1  0.362790  0.874797  0.500000  1
  Ru  Ru24  1  0.511981  0.637190  0.500000  1
  Ru  Ru25  1  0.125250  0.488147  0.500000  1
  Rh  Rh26  1  0.000000  0.551274  0.000000  1
  Rh  Rh27  1  0.448741  0.448746  0.000000  1
  Rh  Rh28  1  0.551259  0.000005  0.000000  1
  Rh  Rh29  1  0.805220  0.182339  0.000000  1
  Rh  Rh30  1  0.817627  0.623204  0.000000  1
  Rh  Rh31  1  0.376806  0.194411  0.000000  1
  Rh  Rh32  1  0.182373  0.805576  0.000000  1
  Rh  Rh33  1  0.623194  0.817604  0.000000  1
  Rh  Rh34  1  0.194780  0.377118  0.000000  1
  Rh  Rh35  1  0.000000  0.999663  0.000000  1
