# generated using pymatgen
data_Y21Ho3Rh14
_symmetry_space_group_name_H-M   'P 1'
_cell_length_a   11.35025164
_cell_length_b   8.41288731
_cell_length_c   11.29452400
_cell_angle_alpha   56.29987430
_cell_angle_beta   89.98070664
_cell_angle_gamma   89.98418729
_symmetry_Int_Tables_number   1
_chemical_formula_structural   Y21Ho3Rh14
_chemical_formula_sum   'Y21 Ho3 Rh14'
_cell_volume   897.25773325
_cell_formula_units_Z   1
loop_
 _symmetry_equiv_pos_site_id
 _symmetry_equiv_pos_as_xyz
  1  'x, y, z'
loop_
 _atom_site_type_symbol
 _atom_site_label
 _atom_site_symmetry_multiplicity
 _atom_site_fract_x
 _atom_site_fract_y
 _atom_site_fract_z
 _atom_site_occupancy
  Y  Y0  1  0.703034  0.239171  0.531767  1
  Y  Y1  1  0.203109  0.760860  0.968329  1
  Y  Y2  1  0.843558  0.506668  0.658500  1
  Y  Y3  1  0.343496  0.493176  0.841637  1
  Y  Y4  1  0.156536  0.493160  0.341761  1
  Y  Y5  1  0.655677  0.506984  0.158198  1
  Y  Y6  1  0.004869  0.850598  0.359949  1
  Y  Y7  1  0.504380  0.148636  0.140317  1
  Y  Y8  1  0.995555  0.148850  0.640377  1
  Y  Y9  1  0.495615  0.851275  0.859677  1
  Y  Y10  1  0.796585  0.239154  0.030760  1
  Y  Y11  1  0.297066  0.760908  0.468463  1
  Y  Y12  1  0.927018  0.777889  0.090130  1
  Y  Y13  1  0.427179  0.222694  0.409816  1
  Y  Y14  1  0.073028  0.223244  0.909611  1
  Y  Y15  1  0.573025  0.776853  0.590538  1
  Y  Y16  1  0.303552  0.243740  0.672665  1
  Y  Y17  1  0.803599  0.755869  0.827702  1
  Y  Y18  1  0.696557  0.756335  0.327333  1
  Y  Y19  1  0.196898  0.243682  0.172635  1
  Y  Y20  1  0.921901  0.277493  0.291867  1
  Ho  Ho21  1  0.422003  0.722825  0.207196  1
  Ho  Ho22  1  0.077781  0.723222  0.706571  1
  Ho  Ho23  1  0.577651  0.277263  0.792802  1
  Rh  Rh24  1  0.500019  0.499947  0.500062  1
  Rh  Rh25  1  0.000757  0.500935  0.998239  1
  Rh  Rh26  1  0.640789  0.916036  0.047786  1
  Rh  Rh27  1  0.142635  0.083778  0.452825  1
  Rh  Rh28  1  0.359112  0.084305  0.952111  1
  Rh  Rh29  1  0.857772  0.914051  0.548687  1
  Rh  Rh30  1  0.397268  0.488395  0.103775  1
  Rh  Rh31  1  0.897441  0.512973  0.396965  1
  Rh  Rh32  1  0.602679  0.511469  0.896399  1
  Rh  Rh33  1  0.102873  0.488241  0.603791  1
  Rh  Rh34  1  0.822083  0.109801  0.839925  1
  Rh  Rh35  1  0.322688  0.889743  0.660322  1
  Rh  Rh36  1  0.177959  0.890137  0.159817  1
  Rh  Rh37  1  0.676252  0.109641  0.340695  1
