# generated using pymatgen
data_CeGd5AuO12
_symmetry_space_group_name_H-M   'P 1'
_cell_length_a   6.57222485
_cell_length_b   6.60343538
_cell_length_c   6.60078332
_cell_angle_alpha   98.85186142
_cell_angle_beta   98.71658807
_cell_angle_gamma   98.94995785
_symmetry_Int_Tables_number   1
_chemical_formula_structural   CeGd5AuO12
_chemical_formula_sum   'Ce1 Gd5 Au1 O12'
_cell_volume   275.05450617
_cell_formula_units_Z   1
loop_
 _symmetry_equiv_pos_site_id
 _symmetry_equiv_pos_as_xyz
  1  'x, y, z'
loop_
 _atom_site_type_symbol
 _atom_site_label
 _atom_site_symmetry_multiplicity
 _atom_site_fract_x
 _atom_site_fract_y
 _atom_site_fract_z
 _atom_site_occupancy
  Ce  Ce0  1  0.857571  0.394835  0.692696  1
  Gd  Gd1  1  0.606594  0.303528  0.141922  1
  Gd  Gd2  1  0.303055  0.136966  0.608118  1
  Gd  Gd3  1  0.693869  0.856658  0.389217  1
  Gd  Gd4  1  0.392485  0.700377  0.860525  1
  Gd  Gd5  1  0.144295  0.610622  0.304296  1
  Au  Au6  1  0.999130  0.000669  0.000058  1
  O  O7  1  0.938496  0.046374  0.694316  1
  O  O8  1  0.954193  0.305372  0.059943  1
  O  O9  1  0.595890  0.179817  0.441138  1
  O  O10  1  0.822474  0.560676  0.414902  1
  O  O11  1  0.306492  0.061161  0.954753  1
  O  O12  1  0.570808  0.410189  0.817924  1
  O  O13  1  0.438349  0.588837  0.175174  1
  O  O14  1  0.693327  0.939213  0.045268  1
  O  O15  1  0.170282  0.434633  0.594978  1
  O  O16  1  0.407975  0.821026  0.561803  1
  O  O17  1  0.043477  0.694432  0.937849  1
  O  O18  1  0.061238  0.954613  0.305118  1
