# generated using pymatgen
data_Nd5Sn15Ir8
_symmetry_space_group_name_H-M   'P 1'
_cell_length_a   4.51259800
_cell_length_b   7.35255977
_cell_length_c   18.74459933
_cell_angle_alpha   89.92753458
_cell_angle_beta   90.00000000
_cell_angle_gamma   90.00000000
_symmetry_Int_Tables_number   1
_chemical_formula_structural   Nd5Sn15Ir8
_chemical_formula_sum   'Nd5 Sn15 Ir8'
_cell_volume   621.92930993
_cell_formula_units_Z   1
loop_
 _symmetry_equiv_pos_site_id
 _symmetry_equiv_pos_as_xyz
  1  'x, y, z'
loop_
 _atom_site_type_symbol
 _atom_site_label
 _atom_site_symmetry_multiplicity
 _atom_site_fract_x
 _atom_site_fract_y
 _atom_site_fract_z
 _atom_site_occupancy
  Nd  Nd0  1  0.500000  0.001868  0.856041  1
  Nd  Nd1  1  0.500000  0.499497  0.357530  1
  Nd  Nd2  1  0.000000  0.000028  0.143647  1
  Nd  Nd3  1  0.000000  0.501027  0.641994  1
  Nd  Nd4  1  0.500000  0.490997  0.930696  1
  Sn  Sn5  1  0.000000  0.718535  0.805801  1
  Sn  Sn6  1  0.000000  0.779382  0.306549  1
  Sn  Sn7  1  0.500000  0.276726  0.193834  1
  Sn  Sn8  1  0.500000  0.219084  0.692544  1
  Sn  Sn9  1  0.000000  0.854046  0.969196  1
  Sn  Sn10  1  0.000000  0.631098  0.467873  1
  Sn  Sn11  1  0.500000  0.133954  0.032811  1
  Sn  Sn12  1  0.500000  0.366912  0.531884  1
  Sn  Sn13  1  0.000000  0.304296  0.818665  1
  Sn  Sn14  1  0.000000  0.199400  0.317906  1
  Sn  Sn15  1  0.500000  0.697895  0.185829  1
  Sn  Sn16  1  0.500000  0.807633  0.678588  1
  Sn  Sn17  1  0.500000  0.020425  0.433495  1
  Sn  Sn18  1  0.000000  0.513753  0.067338  1
  Sn  Sn19  1  0.000000  0.979765  0.568052  1
  Ir  Ir20  1  0.000000  0.228941  0.964557  1
  Ir  Ir21  1  0.000000  0.248346  0.464360  1
  Ir  Ir22  1  0.500000  0.765604  0.044947  1
  Ir  Ir23  1  0.500000  0.750120  0.533785  1
  Ir  Ir24  1  0.000000  0.018802  0.716106  1
  Ir  Ir25  1  0.000000  0.483084  0.214678  1
  Ir  Ir26  1  0.500000  0.987085  0.288328  1
  Ir  Ir27  1  0.500000  0.521695  0.772967  1
