# generated using pymatgen
data_Tb9Lu(CoRu)2
_symmetry_space_group_name_H-M   'P 1'
_cell_length_a   6.34066593
_cell_length_b   7.11339305
_cell_length_c   8.59801187
_cell_angle_alpha   96.39127925
_cell_angle_beta   112.31504370
_cell_angle_gamma   89.78303076
_symmetry_Int_Tables_number   1
_chemical_formula_structural   Tb9Lu(CoRu)2
_chemical_formula_sum   'Tb9 Lu1 Co2 Ru2'
_cell_volume   356.21708906
_cell_formula_units_Z   1
loop_
 _symmetry_equiv_pos_site_id
 _symmetry_equiv_pos_as_xyz
  1  'x, y, z'
loop_
 _atom_site_type_symbol
 _atom_site_label
 _atom_site_symmetry_multiplicity
 _atom_site_fract_x
 _atom_site_fract_y
 _atom_site_fract_z
 _atom_site_occupancy
  Tb  Tb0  1  0.526074  0.087228  0.816323  1
  Tb  Tb1  1  0.474869  0.909900  0.183440  1
  Tb  Tb2  1  0.701682  0.419323  0.189642  1
  Tb  Tb3  1  0.301240  0.582775  0.811022  1
  Tb  Tb4  1  0.286644  0.319080  0.430344  1
  Tb  Tb5  1  0.712726  0.681005  0.570962  1
  Tb  Tb6  1  0.855044  0.186380  0.566078  1
  Tb  Tb7  1  0.143315  0.812037  0.432315  1
  Tb  Tb8  1  0.075405  0.259384  0.000302  1
  Lu  Lu9  1  0.926657  0.743396  0.000025  1
  Co  Co10  1  0.322967  0.577395  0.226073  1
  Co  Co11  1  0.675528  0.424847  0.774153  1
  Ru  Ru12  1  0.104066  0.926751  0.785186  1
  Ru  Ru13  1  0.893783  0.070499  0.214135  1
