# generated using pymatgen
data_Be7NbSiW3
_symmetry_space_group_name_H-M   'P 1'
_cell_length_a   4.52387200
_cell_length_b   4.52387243
_cell_length_c   7.50476200
_cell_angle_alpha   90.00000000
_cell_angle_beta   90.00000000
_cell_angle_gamma   120.00001145
_symmetry_Int_Tables_number   1
_chemical_formula_structural   Be7NbSiW3
_chemical_formula_sum   'Be7 Nb1 Si1 W3'
_cell_volume   133.01118541
_cell_formula_units_Z   1
loop_
 _symmetry_equiv_pos_site_id
 _symmetry_equiv_pos_as_xyz
  1  'x, y, z'
loop_
 _atom_site_type_symbol
 _atom_site_label
 _atom_site_symmetry_multiplicity
 _atom_site_fract_x
 _atom_site_fract_y
 _atom_site_fract_z
 _atom_site_occupancy
  Be  Be0  1  0.000000  0.000000  0.998604  1
  Be  Be1  1  0.828744  0.171256  0.239856  1
  Be  Be2  1  0.828744  0.657488  0.239856  1
  Be  Be3  1  0.342512  0.171256  0.239856  1
  Be  Be4  1  0.171261  0.828739  0.759535  1
  Be  Be5  1  0.171261  0.342521  0.759535  1
  Be  Be6  1  0.657479  0.828739  0.759535  1
  Nb  Nb7  1  0.333333  0.666667  0.437886  1
  Si  Si8  1  0.000000  0.000000  0.501255  1
  W  W9  1  0.666667  0.333333  0.566518  1
  W  W10  1  0.666667  0.333333  0.938479  1
  W  W11  1  0.333333  0.666667  0.059085  1
