# generated using pymatgen
data_Ta9Ga2Si4W
_symmetry_space_group_name_H-M   'P 1'
_cell_length_a   7.57730765
_cell_length_b   7.57730761
_cell_length_c   7.57730788
_cell_angle_alpha   128.49606669
_cell_angle_beta   128.49606878
_cell_angle_gamma   75.82278617
_symmetry_Int_Tables_number   1
_chemical_formula_structural   Ta9Ga2Si4W
_chemical_formula_sum   'Ta9 Ga2 Si4 W1'
_cell_volume   259.17476822
_cell_formula_units_Z   1
loop_
 _symmetry_equiv_pos_site_id
 _symmetry_equiv_pos_as_xyz
  1  'x, y, z'
loop_
 _atom_site_type_symbol
 _atom_site_label
 _atom_site_symmetry_multiplicity
 _atom_site_fract_x
 _atom_site_fract_y
 _atom_site_fract_z
 _atom_site_occupancy
  Ta  Ta0  1  0.014512  0.187764  0.499700  1
  Ta  Ta1  1  0.688063  0.514811  0.500300  1
  Ta  Ta2  1  0.514811  0.014512  0.826749  1
  Ta  Ta3  1  0.187764  0.688063  0.173251  1
  Ta  Ta4  1  0.985488  0.812236  0.500300  1
  Ta  Ta5  1  0.311937  0.485189  0.499700  1
  Ta  Ta6  1  0.485189  0.985488  0.173251  1
  Ta  Ta7  1  0.812236  0.311937  0.826749  1
  Ta  Ta8  1  0.500000  0.500000  0.000000  1
  Ga  Ga9  1  0.749729  0.749729  0.000000  1
  Ga  Ga10  1  0.250271  0.250271  0.000000  1
  Si  Si11  1  0.367303  0.129664  0.496967  1
  Si  Si12  1  0.632697  0.870336  0.503033  1
  Si  Si13  1  0.870336  0.367303  0.237639  1
  Si  Si14  1  0.129664  0.632697  0.762361  1
  W  W15  1  0.000000  0.000000  0.000000  1
