# generated using pymatgen
data_Sc2Ga10Ru3
_symmetry_space_group_name_H-M   'P 1'
_cell_length_a   8.87567800
_cell_length_b   8.87567800
_cell_length_c   6.18121700
_cell_angle_alpha   90.00000000
_cell_angle_beta   90.00000000
_cell_angle_gamma   90.00000000
_symmetry_Int_Tables_number   1
_chemical_formula_structural   Sc2Ga10Ru3
_chemical_formula_sum   'Sc4 Ga20 Ru6'
_cell_volume   486.94181096
_cell_formula_units_Z   2
loop_
 _symmetry_equiv_pos_site_id
 _symmetry_equiv_pos_as_xyz
  1  'x, y, z'
loop_
 _atom_site_type_symbol
 _atom_site_label
 _atom_site_symmetry_multiplicity
 _atom_site_fract_x
 _atom_site_fract_y
 _atom_site_fract_z
 _atom_site_occupancy
  Sc  Sc0  1  0.182860  0.682860  0.000000  1
  Sc  Sc1  1  0.817140  0.317140  0.000000  1
  Sc  Sc2  1  0.682860  0.817140  0.000000  1
  Sc  Sc3  1  0.317140  0.182860  0.000000  1
  Ga  Ga4  1  0.061932  0.207715  0.713660  1
  Ga  Ga5  1  0.938068  0.792285  0.713660  1
  Ga  Ga6  1  0.561932  0.292285  0.713660  1
  Ga  Ga7  1  0.438068  0.707715  0.713660  1
  Ga  Ga8  1  0.792285  0.061932  0.713660  1
  Ga  Ga9  1  0.207715  0.938068  0.713660  1
  Ga  Ga10  1  0.707715  0.561932  0.713660  1
  Ga  Ga11  1  0.292285  0.438068  0.713660  1
  Ga  Ga12  1  0.938068  0.792285  0.286340  1
  Ga  Ga13  1  0.061932  0.207715  0.286340  1
  Ga  Ga14  1  0.438068  0.707715  0.286340  1
  Ga  Ga15  1  0.561932  0.292285  0.286340  1
  Ga  Ga16  1  0.207715  0.938068  0.286340  1
  Ga  Ga17  1  0.792285  0.061932  0.286340  1
  Ga  Ga18  1  0.292285  0.438068  0.286340  1
  Ga  Ga19  1  0.707715  0.561932  0.286340  1
  Ga  Ga20  1  0.000000  0.500000  0.728086  1
  Ga  Ga21  1  0.500000  0.000000  0.728086  1
  Ga  Ga22  1  0.000000  0.500000  0.271914  1
  Ga  Ga23  1  0.500000  0.000000  0.271914  1
  Ru  Ru24  1  0.177507  0.677507  0.500000  1
  Ru  Ru25  1  0.822493  0.322493  0.500000  1
  Ru  Ru26  1  0.677507  0.822493  0.500000  1
  Ru  Ru27  1  0.322493  0.177507  0.500000  1
  Ru  Ru28  1  0.000000  0.000000  0.000000  1
  Ru  Ru29  1  0.500000  0.500000  0.000000  1
