# generated using pymatgen
data_Th4Sn2IrAu3
_symmetry_space_group_name_H-M   'P 1'
_cell_length_a   8.03873500
_cell_length_b   8.03873436
_cell_length_c   3.92840400
_cell_angle_alpha   90.00000000
_cell_angle_beta   90.00000000
_cell_angle_gamma   89.44630869
_symmetry_Int_Tables_number   1
_chemical_formula_structural   Th4Sn2IrAu3
_chemical_formula_sum   'Th4 Sn2 Ir1 Au3'
_cell_volume   253.84654399
_cell_formula_units_Z   1
loop_
 _symmetry_equiv_pos_site_id
 _symmetry_equiv_pos_as_xyz
  1  'x, y, z'
loop_
 _atom_site_type_symbol
 _atom_site_label
 _atom_site_symmetry_multiplicity
 _atom_site_fract_x
 _atom_site_fract_y
 _atom_site_fract_z
 _atom_site_occupancy
  Th  Th0  1  0.672179  0.172179  0.500000  1
  Th  Th1  1  0.312878  0.812878  0.500000  1
  Th  Th2  1  0.177574  0.344175  0.500000  1
  Th  Th3  1  0.844175  0.677574  0.500000  1
  Sn  Sn4  1  0.498544  0.503171  0.000000  1
  Sn  Sn5  1  0.003171  0.998544  0.000000  1
  Ir  Ir6  1  0.125692  0.625692  0.000000  1
  Au  Au7  1  0.871291  0.371291  0.000000  1
  Au  Au8  1  0.623721  0.870778  0.000000  1
  Au  Au9  1  0.370778  0.123721  0.000000  1
