# generated using pymatgen
data_Zr6Fe16Si6P
_symmetry_space_group_name_H-M   'P 1'
_cell_length_a   8.06767122
_cell_length_b   8.06767142
_cell_length_c   8.06767100
_cell_angle_alpha   59.99999762
_cell_angle_beta   59.99999680
_cell_angle_gamma   59.99999869
_symmetry_Int_Tables_number   1
_chemical_formula_structural   Zr6Fe16Si6P
_chemical_formula_sum   'Zr6 Fe16 Si6 P1'
_cell_volume   371.30393519
_cell_formula_units_Z   1
loop_
 _symmetry_equiv_pos_site_id
 _symmetry_equiv_pos_as_xyz
  1  'x, y, z'
loop_
 _atom_site_type_symbol
 _atom_site_label
 _atom_site_symmetry_multiplicity
 _atom_site_fract_x
 _atom_site_fract_y
 _atom_site_fract_z
 _atom_site_occupancy
  Zr  Zr0  1  0.795607  0.204407  0.795766  1
  Zr  Zr1  1  0.795481  0.795547  0.204538  1
  Zr  Zr2  1  0.204393  0.795593  0.204234  1
  Zr  Zr3  1  0.204519  0.204453  0.795462  1
  Zr  Zr4  1  0.204449  0.795641  0.795713  1
  Zr  Zr5  1  0.795551  0.204359  0.204287  1
  Fe  Fe6  1  0.858381  0.380615  0.380666  1
  Fe  Fe7  1  0.619429  0.619357  0.141853  1
  Fe  Fe8  1  0.380571  0.380643  0.858147  1
  Fe  Fe9  1  0.824065  0.527509  0.824221  1
  Fe  Fe10  1  0.824045  0.824156  0.824133  1
  Fe  Fe11  1  0.824092  0.824216  0.527521  1
  Fe  Fe12  1  0.380387  0.380573  0.380782  1
  Fe  Fe13  1  0.141619  0.619385  0.619334  1
  Fe  Fe14  1  0.619613  0.619427  0.619218  1
  Fe  Fe15  1  0.175955  0.175844  0.175867  1
  Fe  Fe16  1  0.175935  0.472491  0.175779  1
  Fe  Fe17  1  0.527435  0.824177  0.824185  1
  Fe  Fe18  1  0.619416  0.141776  0.619298  1
  Fe  Fe19  1  0.175908  0.175784  0.472479  1
  Fe  Fe20  1  0.380584  0.858224  0.380702  1
  Fe  Fe21  1  0.472565  0.175823  0.175815  1
  Si  Si22  1  0.500000  0.000000  0.000000  1
  Si  Si23  1  0.000000  0.500000  0.000000  1
  Si  Si24  1  0.500000  0.500000  0.000000  1
  Si  Si25  1  0.000000  0.500000  0.500000  1
  Si  Si26  1  0.000000  0.000000  0.500000  1
  Si  Si27  1  0.500000  0.000000  0.500000  1
  P  P28  1  0.500000  0.500000  0.500000  1
