# generated using pymatgen
data_AcNd(Co5P3)2
_symmetry_space_group_name_H-M   'P 1'
_cell_length_a   6.03483537
_cell_length_b   6.03483511
_cell_length_c   11.48112400
_cell_angle_alpha   90.00000000
_cell_angle_beta   90.00000000
_cell_angle_gamma   144.92801275
_symmetry_Int_Tables_number   1
_chemical_formula_structural   AcNd(Co5P3)2
_chemical_formula_sum   'Ac1 Nd1 Co10 P6'
_cell_volume   240.26182889
_cell_formula_units_Z   1
loop_
 _symmetry_equiv_pos_site_id
 _symmetry_equiv_pos_as_xyz
  1  'x, y, z'
loop_
 _atom_site_type_symbol
 _atom_site_label
 _atom_site_symmetry_multiplicity
 _atom_site_fract_x
 _atom_site_fract_y
 _atom_site_fract_z
 _atom_site_occupancy
  Ac  Ac0  1  0.663327  0.336673  0.750000  1
  Nd  Nd1  1  0.339473  0.660527  0.250000  1
  Co  Co2  1  0.053031  0.946969  0.143910  1
  Co  Co3  1  0.053031  0.946969  0.356090  1
  Co  Co4  1  0.698283  0.301717  0.429167  1
  Co  Co5  1  0.302125  0.697875  0.564843  1
  Co  Co6  1  0.302125  0.697875  0.935157  1
  Co  Co7  1  0.698283  0.301717  0.070833  1
  Co  Co8  1  0.499967  0.500033  0.497808  1
  Co  Co9  1  0.499967  0.500033  0.002192  1
  Co  Co10  1  0.944685  0.055315  0.640807  1
  Co  Co11  1  0.944685  0.055315  0.859193  1
  P  P12  1  0.609632  0.390368  0.250000  1
  P  P13  1  0.391848  0.608152  0.750000  1
  P  P14  1  0.117032  0.882968  0.533724  1
  P  P15  1  0.882736  0.117264  0.460712  1
  P  P16  1  0.882736  0.117264  0.039288  1
  P  P17  1  0.117032  0.882968  0.966276  1
