# generated using pymatgen
data_Li3Lu4Co17(As5P)2
_symmetry_space_group_name_H-M   'P 1'
_cell_length_a   3.75757200
_cell_length_b   10.58332530
_cell_length_c   12.15152224
_cell_angle_alpha   90.10132479
_cell_angle_beta   90.00000000
_cell_angle_gamma   90.00000000
_symmetry_Int_Tables_number   1
_chemical_formula_structural   Li3Lu4Co17(As5P)2
_chemical_formula_sum   'Li3 Lu4 Co17 As10 P2'
_cell_volume   483.23620297
_cell_formula_units_Z   1
loop_
 _symmetry_equiv_pos_site_id
 _symmetry_equiv_pos_as_xyz
  1  'x, y, z'
loop_
 _atom_site_type_symbol
 _atom_site_label
 _atom_site_symmetry_multiplicity
 _atom_site_fract_x
 _atom_site_fract_y
 _atom_site_fract_z
 _atom_site_occupancy
  Li  Li0  1  0.250000  0.699885  0.992020  1
  Li  Li1  1  0.250000  0.800233  0.491336  1
  Li  Li2  1  0.750000  0.293738  0.007967  1
  Lu  Lu3  1  0.250000  0.571082  0.697166  1
  Lu  Lu4  1  0.250000  0.928280  0.198914  1
  Lu  Lu5  1  0.750000  0.423032  0.300168  1
  Lu  Lu6  1  0.750000  0.076287  0.798598  1
  Co  Co7  1  0.750000  0.214980  0.510034  1
  Co  Co8  1  0.250000  0.404654  0.490334  1
  Co  Co9  1  0.250000  0.094340  0.991126  1
  Co  Co10  1  0.750000  0.582191  0.519809  1
  Co  Co11  1  0.750000  0.916850  0.020444  1
  Co  Co12  1  0.250000  0.210672  0.175419  1
  Co  Co13  1  0.250000  0.287041  0.669264  1
  Co  Co14  1  0.750000  0.787878  0.826352  1
  Co  Co15  1  0.750000  0.712120  0.326347  1
  Co  Co16  1  0.250000  0.883320  0.699412  1
  Co  Co17  1  0.250000  0.618360  0.199417  1
  Co  Co18  1  0.750000  0.116991  0.297152  1
  Co  Co19  1  0.750000  0.380413  0.792287  1
  Co  Co20  1  0.250000  0.466407  0.928534  1
  Co  Co21  1  0.250000  0.035332  0.430289  1
  Co  Co22  1  0.750000  0.531191  0.067440  1
  Co  Co23  1  0.750000  0.968114  0.567318  1
  As  As24  1  0.250000  0.417246  0.116280  1
  As  As25  1  0.250000  0.082947  0.613993  1
  As  As26  1  0.750000  0.580849  0.880724  1
  As  As27  1  0.750000  0.918033  0.381847  1
  As  As28  1  0.250000  0.264909  0.861512  1
  As  As29  1  0.250000  0.235083  0.367006  1
  As  As30  1  0.750000  0.734512  0.137097  1
  As  As31  1  0.750000  0.764964  0.636882  1
  As  As32  1  0.250000  0.599779  0.394957  1
  As  As33  1  0.250000  0.899905  0.895426  1
  P  P34  1  0.750000  0.395435  0.606204  1
  P  P35  1  0.750000  0.102947  0.110922  1
