# generated using pymatgen
data_Ho9Lu3Ni4SnRu
_symmetry_space_group_name_H-M   'P 1'
_cell_length_a   8.24480887
_cell_length_b   8.24561510
_cell_length_c   8.24561608
_cell_angle_alpha   111.50225691
_cell_angle_beta   110.22291754
_cell_angle_gamma   106.72932182
_symmetry_Int_Tables_number   1
_chemical_formula_structural   Ho9Lu3Ni4SnRu
_chemical_formula_sum   'Ho9 Lu3 Ni4 Sn1 Ru1'
_cell_volume   430.70990352
_cell_formula_units_Z   1
loop_
 _symmetry_equiv_pos_site_id
 _symmetry_equiv_pos_as_xyz
  1  'x, y, z'
loop_
 _atom_site_type_symbol
 _atom_site_label
 _atom_site_symmetry_multiplicity
 _atom_site_fract_x
 _atom_site_fract_y
 _atom_site_fract_z
 _atom_site_occupancy
  Ho  Ho0  1  0.974695  0.785546  0.189148  1
  Ho  Ho1  1  0.183108  0.290664  0.472946  1
  Ho  Ho2  1  0.816760  0.711113  0.529041  1
  Ho  Ho3  1  0.183108  0.710162  0.892445  1
  Ho  Ho4  1  0.816760  0.287719  0.105646  1
  Ho  Ho5  1  0.320017  0.624078  0.306306  1
  Ho  Ho6  1  0.679425  0.374606  0.692751  1
  Ho  Ho7  1  0.320017  0.013711  0.695939  1
  Ho  Ho8  1  0.679425  0.986674  0.304819  1
  Lu  Lu9  1  0.402213  0.213746  0.188467  1
  Lu  Lu10  1  0.593783  0.784339  0.809445  1
  Lu  Lu11  1  0.025781  0.216144  0.809639  1
  Ni  Ni12  1  0.364685  0.000840  0.363845  1
  Ni  Ni13  1  0.641394  0.000149  0.641245  1
  Ni  Ni14  1  0.123338  0.622949  0.500389  1
  Ni  Ni15  1  0.879847  0.377114  0.502733  1
  Sn  Sn16  1  0.497837  0.499423  0.998414  1
  Ru  Ru17  1  0.997806  0.001024  0.996782  1
