# generated using pymatgen
data_Yb2SmGa9CuPd
_symmetry_space_group_name_H-M   'P 1'
_cell_length_a   8.13222752
_cell_length_b   8.13222701
_cell_length_c   8.13222790
_cell_angle_alpha   148.83374564
_cell_angle_beta   109.35808718
_cell_angle_gamma   79.21405093
_symmetry_Int_Tables_number   1
_chemical_formula_structural   Yb2SmGa9CuPd
_chemical_formula_sum   'Yb2 Sm1 Ga9 Cu1 Pd1'
_cell_volume   257.41520152
_cell_formula_units_Z   1
loop_
 _symmetry_equiv_pos_site_id
 _symmetry_equiv_pos_as_xyz
  1  'x, y, z'
loop_
 _atom_site_type_symbol
 _atom_site_label
 _atom_site_symmetry_multiplicity
 _atom_site_fract_x
 _atom_site_fract_y
 _atom_site_fract_z
 _atom_site_occupancy
  Yb  Yb0  1  0.197968  0.198357  0.999611  1
  Yb  Yb1  1  0.801254  0.801643  0.999611  1
  Sm  Sm2  1  0.498500  0.500000  0.998500  1
  Ga  Ga3  1  0.077090  0.360145  0.716944  1
  Ga  Ga4  1  0.923353  0.639756  0.283598  1
  Ga  Ga5  1  0.643842  0.360244  0.283598  1
  Ga  Ga6  1  0.356798  0.639855  0.716944  1
  Ga  Ga7  1  0.794051  0.157061  0.636990  1
  Ga  Ga8  1  0.207447  0.841884  0.365564  1
  Ga  Ga9  1  0.523679  0.158116  0.365564  1
  Ga  Ga10  1  0.479931  0.842939  0.636990  1
  Ga  Ga11  1  0.997555  0.500000  0.497555  1
  Cu  Cu12  1  0.815225  0.000000  0.815225  1
  Pd  Pd13  1  0.183307  0.000000  0.183307  1
