# generated using pymatgen
data_Tb3CI5
_symmetry_space_group_name_H-M   'P 1'
_cell_length_a   7.70435206
_cell_length_b   9.50119428
_cell_length_c   9.60798567
_cell_angle_alpha   107.29252246
_cell_angle_beta   96.78104294
_cell_angle_gamma   104.56921380
_symmetry_Int_Tables_number   1
_chemical_formula_structural   Tb3CI5
_chemical_formula_sum   'Tb6 C2 I10'
_cell_volume   635.61684897
_cell_formula_units_Z   2
loop_
 _symmetry_equiv_pos_site_id
 _symmetry_equiv_pos_as_xyz
  1  'x, y, z'
loop_
 _atom_site_type_symbol
 _atom_site_label
 _atom_site_symmetry_multiplicity
 _atom_site_fract_x
 _atom_site_fract_y
 _atom_site_fract_z
 _atom_site_occupancy
  Tb  Tb0  1  0.625122  0.865313  0.820327  1
  Tb  Tb1  1  0.027455  0.740464  0.924696  1
  Tb  Tb2  1  0.103191  0.037748  0.780963  1
  Tb  Tb3  1  0.972545  0.259536  0.075304  1
  Tb  Tb4  1  0.896809  0.962252  0.219037  1
  Tb  Tb5  1  0.374878  0.134687  0.179673  1
  C  C6  1  0.091443  0.030622  0.041766  1
  C  C7  1  0.908557  0.969378  0.958234  1
  I  I8  1  0.187121  0.732932  0.646337  1
  I  I9  1  0.911815  0.634135  0.178187  1
  I  I10  1  0.088185  0.365865  0.821813  1
  I  I11  1  0.743729  0.914459  0.539810  1
  I  I12  1  0.256271  0.085541  0.460190  1
  I  I13  1  0.651555  0.541867  0.725816  1
  I  I14  1  0.456292  0.810805  0.092377  1
  I  I15  1  0.812879  0.267068  0.353663  1
  I  I16  1  0.348445  0.458133  0.274184  1
  I  I17  1  0.543708  0.189195  0.907623  1
