# generated using pymatgen
data_MgScFe10Co2P7
_symmetry_space_group_name_H-M   'P 1'
_cell_length_a   8.84370817
_cell_length_b   8.86976900
_cell_length_c   3.57418800
_cell_angle_alpha   90.00000000
_cell_angle_beta   90.00000000
_cell_angle_gamma   119.71051673
_symmetry_Int_Tables_number   1
_chemical_formula_structural   MgScFe10Co2P7
_chemical_formula_sum   'Mg1 Sc1 Fe10 Co2 P7'
_cell_volume   243.50854630
_cell_formula_units_Z   1
loop_
 _symmetry_equiv_pos_site_id
 _symmetry_equiv_pos_as_xyz
  1  'x, y, z'
loop_
 _atom_site_type_symbol
 _atom_site_label
 _atom_site_symmetry_multiplicity
 _atom_site_fract_x
 _atom_site_fract_y
 _atom_site_fract_z
 _atom_site_occupancy
  Mg  Mg0  1  0.334138  0.668133  0.500000  1
  Sc  Sc1  1  0.998542  0.998445  0.000000  1
  Fe  Fe2  1  0.052233  0.768776  0.500000  1
  Fe  Fe3  1  0.716077  0.946002  0.500000  1
  Fe  Fe4  1  0.888338  0.430981  0.500000  1
  Fe  Fe5  1  0.546917  0.120375  0.500000  1
  Fe  Fe6  1  0.569724  0.452968  0.500000  1
  Fe  Fe7  1  0.388188  0.214677  0.000000  1
  Fe  Fe8  1  0.786531  0.176289  0.000000  1
  Fe  Fe9  1  0.821383  0.606098  0.000000  1
  Fe  Fe10  1  0.608314  0.706272  0.000000  1
  Fe  Fe11  1  0.294201  0.903161  0.000000  1
  Co  Co12  1  0.101887  0.394825  0.000000  1
  Co  Co13  1  0.227962  0.281707  0.500000  1
  P  P14  1  0.260764  0.043070  0.500000  1
  P  P15  1  0.952148  0.212703  0.500000  1
  P  P16  1  0.783341  0.737758  0.500000  1
  P  P17  1  0.374631  0.454394  0.000000  1
  P  P18  1  0.549122  0.921379  0.000000  1
  P  P19  1  0.080410  0.630370  0.000000  1
  P  P20  1  0.665152  0.331616  0.000000  1
