# generated using pymatgen
data_Y4HoPa(Al3Os)8
_symmetry_space_group_name_H-M   'P 1'
_cell_length_a   8.80179700
_cell_length_b   8.84761279
_cell_length_c   9.57872400
_cell_angle_alpha   90.00000000
_cell_angle_beta   90.00000000
_cell_angle_gamma   119.83118979
_symmetry_Int_Tables_number   1
_chemical_formula_structural   Y4HoPa(Al3Os)8
_chemical_formula_sum   'Y4 Ho1 Pa1 Al24 Os8'
_cell_volume   647.10088019
_cell_formula_units_Z   1
loop_
 _symmetry_equiv_pos_site_id
 _symmetry_equiv_pos_as_xyz
  1  'x, y, z'
loop_
 _atom_site_type_symbol
 _atom_site_label
 _atom_site_symmetry_multiplicity
 _atom_site_fract_x
 _atom_site_fract_y
 _atom_site_fract_z
 _atom_site_occupancy
  Y  Y0  1  0.808193  0.616401  0.750000  1
  Y  Y1  1  0.611097  0.803755  0.250000  1
  Y  Y2  1  0.387208  0.191851  0.750000  1
  Y  Y3  1  0.804624  0.191811  0.750000  1
  Ho  Ho4  1  0.192643  0.802985  0.250000  1
  Pa  Pa5  1  0.196491  0.393317  0.250000  1
  Al  Al6  1  0.336213  0.672709  0.018554  1
  Al  Al7  1  0.667650  0.335324  0.980798  1
  Al  Al8  1  0.667650  0.335324  0.519202  1
  Al  Al9  1  0.336213  0.672709  0.481446  1
  Al  Al10  1  0.163275  0.326513  0.576873  1
  Al  Al11  1  0.836692  0.673051  0.424902  1
  Al  Al12  1  0.672117  0.835239  0.574643  1
  Al  Al13  1  0.836692  0.673051  0.075098  1
  Al  Al14  1  0.326494  0.162225  0.423595  1
  Al  Al15  1  0.163275  0.326513  0.923127  1
  Al  Al16  1  0.163133  0.835280  0.574350  1
  Al  Al17  1  0.326494  0.162225  0.076405  1
  Al  Al18  1  0.835817  0.162453  0.423751  1
  Al  Al19  1  0.672117  0.835239  0.925357  1
  Al  Al20  1  0.835817  0.162453  0.076249  1
  Al  Al21  1  0.163133  0.835280  0.925650  1
  Al  Al22  1  0.559748  0.120005  0.250000  1
  Al  Al23  1  0.437672  0.875377  0.750000  1
  Al  Al24  1  0.873074  0.437692  0.250000  1
  Al  Al25  1  0.120764  0.559862  0.750000  1
  Al  Al26  1  0.564481  0.437314  0.250000  1
  Al  Al27  1  0.439077  0.559857  0.750000  1
  Al  Al28  1  0.002140  0.002983  0.250000  1
  Al  Al29  1  0.000428  0.000843  0.750000  1
  Os  Os30  1  0.501203  0.002904  0.998528  1
  Os  Os31  1  0.003597  0.499506  0.005454  1
  Os  Os32  1  0.501203  0.002904  0.501472  1
  Os  Os33  1  0.495692  0.499102  0.005053  1
  Os  Os34  1  0.003597  0.499506  0.494546  1
  Os  Os35  1  0.495692  0.499102  0.494947  1
  Os  Os36  1  0.999294  0.998668  0.999210  1
  Os  Os37  1  0.999294  0.998668  0.500790  1
