# generated using pymatgen
data_Eu4Y2Al24CuOs7
_symmetry_space_group_name_H-M   'P 1'
_cell_length_a   8.84583349
_cell_length_b   8.84583472
_cell_length_c   9.57487362
_cell_angle_alpha   89.84565746
_cell_angle_beta   90.15435066
_cell_angle_gamma   120.01843069
_symmetry_Int_Tables_number   1
_chemical_formula_structural   Eu4Y2Al24CuOs7
_chemical_formula_sum   'Eu4 Y2 Al24 Cu1 Os7'
_cell_volume   648.72177428
_cell_formula_units_Z   1
loop_
 _symmetry_equiv_pos_site_id
 _symmetry_equiv_pos_as_xyz
  1  'x, y, z'
loop_
 _atom_site_type_symbol
 _atom_site_label
 _atom_site_symmetry_multiplicity
 _atom_site_fract_x
 _atom_site_fract_y
 _atom_site_fract_z
 _atom_site_occupancy
  Eu  Eu0  1  0.191704  0.384375  0.249977  1
  Eu  Eu1  1  0.808296  0.615625  0.750023  1
  Eu  Eu2  1  0.615625  0.808296  0.249977  1
  Eu  Eu3  1  0.384375  0.191704  0.750023  1
  Y  Y4  1  0.193145  0.806855  0.252981  1
  Y  Y5  1  0.806855  0.193145  0.747019  1
  Al  Al6  1  0.330709  0.669291  0.008634  1
  Al  Al7  1  0.669291  0.330709  0.991366  1
  Al  Al8  1  0.666677  0.333323  0.508614  1
  Al  Al9  1  0.333323  0.666677  0.491386  1
  Al  Al10  1  0.162342  0.324483  0.575463  1
  Al  Al11  1  0.837658  0.675517  0.424537  1
  Al  Al12  1  0.675517  0.837658  0.575463  1
  Al  Al13  1  0.845108  0.676876  0.079230  1
  Al  Al14  1  0.324483  0.162342  0.424537  1
  Al  Al15  1  0.154892  0.323124  0.920770  1
  Al  Al16  1  0.162619  0.837381  0.576512  1
  Al  Al17  1  0.323124  0.154892  0.079230  1
  Al  Al18  1  0.837381  0.162619  0.423488  1
  Al  Al19  1  0.676876  0.845108  0.920770  1
  Al  Al20  1  0.837401  0.162599  0.075430  1
  Al  Al21  1  0.162599  0.837401  0.924570  1
  Al  Al22  1  0.560714  0.121753  0.249332  1
  Al  Al23  1  0.439286  0.878247  0.750668  1
  Al  Al24  1  0.878247  0.439286  0.249332  1
  Al  Al25  1  0.121753  0.560714  0.750668  1
  Al  Al26  1  0.563098  0.436902  0.251092  1
  Al  Al27  1  0.436902  0.563098  0.748908  1
  Al  Al28  1  0.000252  0.999748  0.250334  1
  Al  Al29  1  0.999748  0.000252  0.749666  1
  Cu  Cu30  1  0.500000  0.500000  0.000000  1
  Os  Os31  1  0.500000  0.000000  0.000000  1
  Os  Os32  1  0.000000  0.500000  0.000000  1
  Os  Os33  1  0.500000  0.000000  0.500000  1
  Os  Os34  1  0.000000  0.500000  0.500000  1
  Os  Os35  1  0.500000  0.500000  0.500000  1
  Os  Os36  1  0.000000  0.000000  0.000000  1
  Os  Os37  1  0.000000  0.000000  0.500000  1
