# generated using pymatgen
data_TaNb5B4Os7Ru3
_symmetry_space_group_name_H-M   'P 1'
_cell_length_a   9.53907122
_cell_length_b   9.55767292
_cell_length_c   3.01684200
_cell_angle_alpha   90.00000000
_cell_angle_beta   90.00000000
_cell_angle_gamma   90.05659033
_symmetry_Int_Tables_number   1
_chemical_formula_structural   TaNb5B4Os7Ru3
_chemical_formula_sum   'Ta1 Nb5 B4 Os7 Ru3'
_cell_volume   275.04934126
_cell_formula_units_Z   1
loop_
 _symmetry_equiv_pos_site_id
 _symmetry_equiv_pos_as_xyz
  1  'x, y, z'
loop_
 _atom_site_type_symbol
 _atom_site_label
 _atom_site_symmetry_multiplicity
 _atom_site_fract_x
 _atom_site_fract_y
 _atom_site_fract_z
 _atom_site_occupancy
  Ta  Ta0  1  0.998043  0.999436  0.000000  1
  Nb  Nb1  1  0.823143  0.676414  0.000000  1
  Nb  Nb2  1  0.176614  0.323225  0.000000  1
  Nb  Nb3  1  0.323210  0.823445  0.000000  1
  Nb  Nb4  1  0.676112  0.177376  0.000000  1
  Nb  Nb5  1  0.500126  0.500196  0.000000  1
  B  B6  1  0.621118  0.879289  0.000000  1
  B  B7  1  0.379516  0.120264  0.000000  1
  B  B8  1  0.120773  0.621021  0.000000  1
  B  B9  1  0.879768  0.379251  0.000000  1
  Os  Os10  1  0.571918  0.720615  0.500000  1
  Os  Os11  1  0.428875  0.279651  0.500000  1
  Os  Os12  1  0.070686  0.780625  0.500000  1
  Os  Os13  1  0.929294  0.219428  0.500000  1
  Os  Os14  1  0.280172  0.571124  0.500000  1
  Os  Os15  1  0.720024  0.428761  0.500000  1
  Os  Os16  1  0.219056  0.070248  0.500000  1
  Ru  Ru17  1  0.780710  0.929315  0.500000  1
  Ru  Ru18  1  0.500886  0.999962  0.500000  1
  Ru  Ru19  1  0.999956  0.500355  0.500000  1
