# generated using pymatgen
data_Ac10C4I15
_symmetry_space_group_name_H-M   'P 1'
_cell_length_a   10.24208547
_cell_length_b   11.09748347
_cell_length_c   12.31568613
_cell_angle_alpha   93.90033266
_cell_angle_beta   114.50209187
_cell_angle_gamma   108.97115640
_symmetry_Int_Tables_number   1
_chemical_formula_structural   Ac10C4I15
_chemical_formula_sum   'Ac10 C4 I15'
_cell_volume   1170.62639216
_cell_formula_units_Z   1
loop_
 _symmetry_equiv_pos_site_id
 _symmetry_equiv_pos_as_xyz
  1  'x, y, z'
loop_
 _atom_site_type_symbol
 _atom_site_label
 _atom_site_symmetry_multiplicity
 _atom_site_fract_x
 _atom_site_fract_y
 _atom_site_fract_z
 _atom_site_occupancy
  Ac  Ac0  1  0.598464  0.539045  0.343427  1
  Ac  Ac1  1  0.341671  0.749264  0.166230  1
  Ac  Ac2  1  0.782381  0.888910  0.260852  1
  Ac  Ac3  1  0.529398  0.186067  0.105140  1
  Ac  Ac4  1  0.217619  0.111090  0.739148  1
  Ac  Ac5  1  0.401536  0.460955  0.656573  1
  Ac  Ac6  1  0.470602  0.813933  0.894860  1
  Ac  Ac7  1  0.708842  0.568517  0.045176  1
  Ac  Ac8  1  0.291158  0.431483  0.954824  1
  Ac  Ac9  1  0.658329  0.250736  0.833770  1
  C  C10  1  0.481083  0.299567  0.934950  1
  C  C11  1  0.518917  0.700433  0.065050  1
  C  C12  1  0.452412  0.359294  0.834085  1
  C  C13  1  0.547588  0.640706  0.165915  1
  I  I14  1  0.201652  0.905041  0.936361  1
  I  I15  1  0.102350  0.187395  0.464627  1
  I  I16  1  0.146970  0.554175  0.702842  1
  I  I17  1  0.403425  0.967554  0.642660  1
  I  I18  1  0.716990  0.734517  0.821981  1
  I  I19  1  0.283010  0.265483  0.178019  1
  I  I20  1  0.853030  0.445825  0.297158  1
  I  I21  1  0.897650  0.812605  0.535373  1
  I  I22  1  0.358320  0.630494  0.413299  1
  I  I23  1  0.057486  0.833575  0.220540  1
  I  I24  1  0.798348  0.094959  0.063639  1
  I  I25  1  0.641680  0.369506  0.586701  1
  I  I26  1  0.942514  0.166425  0.779460  1
  I  I27  1  0.596575  0.032446  0.357340  1
  I  I28  1  0.000000  0.500000  0.000000  1
