# generated using pymatgen
data_Ho3Er2Mn3(P3Ir4)4
_symmetry_space_group_name_H-M   'P 1'
_cell_length_a   12.56674000
_cell_length_b   12.56673906
_cell_length_c   3.94932000
_cell_angle_alpha   90.00000000
_cell_angle_beta   90.00000000
_cell_angle_gamma   120.00000247
_symmetry_Int_Tables_number   1
_chemical_formula_structural   Ho3Er2Mn3(P3Ir4)4
_chemical_formula_sum   'Ho3 Er2 Mn3 P12 Ir16'
_cell_volume   540.12984216
_cell_formula_units_Z   1
loop_
 _symmetry_equiv_pos_site_id
 _symmetry_equiv_pos_as_xyz
  1  'x, y, z'
loop_
 _atom_site_type_symbol
 _atom_site_label
 _atom_site_symmetry_multiplicity
 _atom_site_fract_x
 _atom_site_fract_y
 _atom_site_fract_z
 _atom_site_occupancy
  Ho  Ho0  1  0.819643  0.819643  0.500000  1
  Ho  Ho1  1  0.180357  0.000000  0.500000  1
  Ho  Ho2  1  0.000000  0.180357  0.500000  1
  Er  Er3  1  0.666667  0.333333  0.000000  1
  Er  Er4  1  0.333333  0.666667  0.000000  1
  Mn  Mn5  1  0.289927  0.289927  0.500000  1
  Mn  Mn6  1  0.710073  0.000000  0.500000  1
  Mn  Mn7  1  0.000000  0.710073  0.500000  1
  P  P8  1  0.688605  0.164784  0.500000  1
  P  P9  1  0.835216  0.523820  0.500000  1
  P  P10  1  0.476180  0.311395  0.500000  1
  P  P11  1  0.164784  0.688605  0.500000  1
  P  P12  1  0.523820  0.835216  0.500000  1
  P  P13  1  0.311395  0.476180  0.500000  1
  P  P14  1  0.640897  0.640897  0.000000  1
  P  P15  1  0.359103  0.000000  0.000000  1
  P  P16  1  0.000000  0.359103  0.000000  1
  P  P17  1  0.182516  0.182516  0.000000  1
  P  P18  1  0.817484  0.000000  0.000000  1
  P  P19  1  0.000000  0.817484  0.000000  1
  Ir  Ir20  1  0.804942  0.179476  0.000000  1
  Ir  Ir21  1  0.820524  0.625466  0.000000  1
  Ir  Ir22  1  0.374534  0.195058  0.000000  1
  Ir  Ir23  1  0.179476  0.804942  0.000000  1
  Ir  Ir24  1  0.625466  0.820524  0.000000  1
  Ir  Ir25  1  0.195058  0.374534  0.000000  1
  Ir  Ir26  1  0.454996  0.454996  0.000000  1
  Ir  Ir27  1  0.545004  0.000000  0.000000  1
  Ir  Ir28  1  0.000000  0.545004  0.000000  1
  Ir  Ir29  1  0.868256  0.361067  0.500000  1
  Ir  Ir30  1  0.638933  0.507189  0.500000  1
  Ir  Ir31  1  0.492811  0.131744  0.500000  1
  Ir  Ir32  1  0.361067  0.868256  0.500000  1
  Ir  Ir33  1  0.507189  0.638933  0.500000  1
  Ir  Ir34  1  0.131744  0.492811  0.500000  1
  Ir  Ir35  1  0.000000  0.000000  0.000000  1
