# generated using pymatgen
data_Ho3ErZnGa17(Ir2Pd)2
_symmetry_space_group_name_H-M   'P 1'
_cell_length_a   7.61124300
_cell_length_b   7.61137985
_cell_length_c   9.47731600
_cell_angle_alpha   89.99890096
_cell_angle_beta   89.99880308
_cell_angle_gamma   119.80533861
_symmetry_Int_Tables_number   1
_chemical_formula_structural   Ho3ErZnGa17(Ir2Pd)2
_chemical_formula_sum   'Ho3 Er1 Zn1 Ga17 Ir4 Pd2'
_cell_volume   476.41291248
_cell_formula_units_Z   1
loop_
 _symmetry_equiv_pos_site_id
 _symmetry_equiv_pos_as_xyz
  1  'x, y, z'
loop_
 _atom_site_type_symbol
 _atom_site_label
 _atom_site_symmetry_multiplicity
 _atom_site_fract_x
 _atom_site_fract_y
 _atom_site_fract_z
 _atom_site_occupancy
  Ho  Ho0  1  0.995931  0.668525  0.749985  1
  Ho  Ho1  1  0.003860  0.329709  0.250010  1
  Ho  Ho2  1  0.668509  0.995915  0.749993  1
  Er  Er3  1  0.329892  0.003928  0.250057  1
  Zn  Zn4  1  0.129685  0.129553  0.750016  1
  Ga  Ga5  1  0.868799  0.868786  0.249982  1
  Ga  Ga6  1  0.001032  0.334241  0.583013  1
  Ga  Ga7  1  0.001807  0.662628  0.418499  1
  Ga  Ga8  1  0.001896  0.662736  0.081476  1
  Ga  Ga9  1  0.334324  0.001007  0.917217  1
  Ga  Ga10  1  0.001014  0.334265  0.917012  1
  Ga  Ga11  1  0.662033  0.001642  0.081494  1
  Ga  Ga12  1  0.662070  0.001629  0.418499  1
  Ga  Ga13  1  0.334413  0.000998  0.582799  1
  Ga  Ga14  1  0.335327  0.335166  0.066831  1
  Ga  Ga15  1  0.666209  0.666252  0.931753  1
  Ga  Ga16  1  0.666233  0.666275  0.568230  1
  Ga  Ga17  1  0.335377  0.335224  0.433129  1
  Ga  Ga18  1  0.337502  0.542065  0.749994  1
  Ga  Ga19  1  0.662583  0.452783  0.249990  1
  Ga  Ga20  1  0.542047  0.337501  0.749980  1
  Ga  Ga21  1  0.452958  0.662808  0.249961  1
  Ir  Ir22  1  0.673843  0.329501  0.500172  1
  Ir  Ir23  1  0.329541  0.673750  0.500171  1
  Ir  Ir24  1  0.329555  0.673757  0.999850  1
  Ir  Ir25  1  0.673838  0.329519  0.999855  1
  Pd  Pd26  1  0.999817  0.999901  0.496717  1
  Pd  Pd27  1  0.999908  0.999936  0.003315  1
