# generated using pymatgen
data_DyCoB6Mo
_symmetry_space_group_name_H-M   'P 1'
_cell_length_a   3.29667100
_cell_length_b   8.89023200
_cell_length_c   11.25879500
_cell_angle_alpha   90.00000000
_cell_angle_beta   90.00000000
_cell_angle_gamma   90.00000000
_symmetry_Int_Tables_number   1
_chemical_formula_structural   DyCoB6Mo
_chemical_formula_sum   'Dy4 Co4 B24 Mo4'
_cell_volume   329.97467805
_cell_formula_units_Z   4
loop_
 _symmetry_equiv_pos_site_id
 _symmetry_equiv_pos_as_xyz
  1  'x, y, z'
loop_
 _atom_site_type_symbol
 _atom_site_label
 _atom_site_symmetry_multiplicity
 _atom_site_fract_x
 _atom_site_fract_y
 _atom_site_fract_z
 _atom_site_occupancy
  Dy  Dy0  1  0.000000  0.820144  0.086561  1
  Dy  Dy1  1  0.000000  0.179856  0.913439  1
  Dy  Dy2  1  0.000000  0.320144  0.413439  1
  Dy  Dy3  1  0.000000  0.679856  0.586561  1
  Co  Co4  1  0.000000  0.141871  0.182195  1
  Co  Co5  1  0.000000  0.858129  0.817805  1
  Co  Co6  1  0.000000  0.641871  0.317805  1
  Co  Co7  1  0.000000  0.358129  0.682195  1
  B  B8  1  0.500000  0.055228  0.067205  1
  B  B9  1  0.500000  0.944772  0.932795  1
  B  B10  1  0.500000  0.555228  0.432795  1
  B  B11  1  0.500000  0.444772  0.567205  1
  B  B12  1  0.500000  0.252990  0.081981  1
  B  B13  1  0.500000  0.747010  0.918019  1
  B  B14  1  0.500000  0.752990  0.418019  1
  B  B15  1  0.500000  0.247010  0.581981  1
  B  B16  1  0.500000  0.297051  0.235179  1
  B  B17  1  0.500000  0.702949  0.764821  1
  B  B18  1  0.500000  0.797051  0.264821  1
  B  B19  1  0.500000  0.202949  0.735179  1
  B  B20  1  0.500000  0.129623  0.318344  1
  B  B21  1  0.500000  0.870377  0.681656  1
  B  B22  1  0.500000  0.629623  0.181656  1
  B  B23  1  0.500000  0.370377  0.818344  1
  B  B24  1  0.500000  0.482467  0.285459  1
  B  B25  1  0.500000  0.517533  0.714541  1
  B  B26  1  0.500000  0.982467  0.214541  1
  B  B27  1  0.500000  0.017533  0.785459  1
  B  B28  1  0.500000  0.099233  0.473889  1
  B  B29  1  0.500000  0.900767  0.526111  1
  B  B30  1  0.500000  0.599233  0.026111  1
  B  B31  1  0.500000  0.400767  0.973889  1
  Mo  Mo32  1  0.000000  0.444978  0.126994  1
  Mo  Mo33  1  0.000000  0.555022  0.873006  1
  Mo  Mo34  1  0.000000  0.944978  0.373006  1
  Mo  Mo35  1  0.000000  0.055022  0.626994  1
