# generated using pymatgen
data_Y2Er2ReB12Ir
_symmetry_space_group_name_H-M   'P 1'
_cell_length_a   3.65875000
_cell_length_b   9.13702204
_cell_length_c   11.53646920
_cell_angle_alpha   90.29619021
_cell_angle_beta   90.00000000
_cell_angle_gamma   90.00000000
_symmetry_Int_Tables_number   1
_chemical_formula_structural   Y2Er2ReB12Ir
_chemical_formula_sum   'Y4 Er4 Re2 B24 Ir2'
_cell_volume   385.65992786
_cell_formula_units_Z   2
loop_
 _symmetry_equiv_pos_site_id
 _symmetry_equiv_pos_as_xyz
  1  'x, y, z'
loop_
 _atom_site_type_symbol
 _atom_site_label
 _atom_site_symmetry_multiplicity
 _atom_site_fract_x
 _atom_site_fract_y
 _atom_site_fract_z
 _atom_site_occupancy
  Y  Y0  1  0.000000  0.316770  0.409846  1
  Y  Y1  1  0.000000  0.683230  0.590154  1
  Y  Y2  1  0.000000  0.826238  0.082375  1
  Y  Y3  1  0.000000  0.173762  0.917625  1
  Er  Er4  1  0.000000  0.945937  0.372356  1
  Er  Er5  1  0.000000  0.054063  0.627644  1
  Er  Er6  1  0.000000  0.441728  0.125816  1
  Er  Er7  1  0.000000  0.558272  0.874184  1
  Re  Re8  1  0.000000  0.138386  0.180201  1
  Re  Re9  1  0.000000  0.861614  0.819799  1
  B  B10  1  0.500000  0.554271  0.433735  1
  B  B11  1  0.500000  0.445729  0.566265  1
  B  B12  1  0.500000  0.053437  0.067640  1
  B  B13  1  0.500000  0.946563  0.932360  1
  B  B14  1  0.500000  0.749649  0.420927  1
  B  B15  1  0.500000  0.250351  0.579073  1
  B  B16  1  0.500000  0.248194  0.081103  1
  B  B17  1  0.500000  0.751806  0.918897  1
  B  B18  1  0.500000  0.790836  0.266370  1
  B  B19  1  0.500000  0.209164  0.733630  1
  B  B20  1  0.500000  0.292185  0.234044  1
  B  B21  1  0.500000  0.707815  0.765956  1
  B  B22  1  0.500000  0.631180  0.184166  1
  B  B23  1  0.500000  0.368820  0.815834  1
  B  B24  1  0.500000  0.131029  0.314657  1
  B  B25  1  0.500000  0.868971  0.685343  1
  B  B26  1  0.500000  0.982762  0.213551  1
  B  B27  1  0.500000  0.017238  0.786449  1
  B  B28  1  0.500000  0.482463  0.286960  1
  B  B29  1  0.500000  0.517537  0.713040  1
  B  B30  1  0.500000  0.605801  0.029718  1
  B  B31  1  0.500000  0.394199  0.970282  1
  B  B32  1  0.500000  0.106536  0.471091  1
  B  B33  1  0.500000  0.893464  0.528909  1
  Ir  Ir34  1  0.000000  0.636722  0.322032  1
  Ir  Ir35  1  0.000000  0.363278  0.677968  1
