# generated using pymatgen
data_Nd4MnAl18Pd5
_symmetry_space_group_name_H-M   'P 1'
_cell_length_a   7.68140023
_cell_length_b   7.68139971
_cell_length_c   9.63248712
_cell_angle_alpha   90.01735723
_cell_angle_beta   90.01734924
_cell_angle_gamma   119.57962451
_symmetry_Int_Tables_number   1
_chemical_formula_structural   Nd4MnAl18Pd5
_chemical_formula_sum   'Nd4 Mn1 Al18 Pd5'
_cell_volume   494.28094720
_cell_formula_units_Z   1
loop_
 _symmetry_equiv_pos_site_id
 _symmetry_equiv_pos_as_xyz
  1  'x, y, z'
loop_
 _atom_site_type_symbol
 _atom_site_label
 _atom_site_symmetry_multiplicity
 _atom_site_fract_x
 _atom_site_fract_y
 _atom_site_fract_z
 _atom_site_occupancy
  Nd  Nd0  1  0.994801  0.668798  0.249236  1
  Nd  Nd1  1  0.005199  0.331202  0.750764  1
  Nd  Nd2  1  0.668798  0.994801  0.249236  1
  Nd  Nd3  1  0.331202  0.005199  0.750764  1
  Mn  Mn4  1  0.000000  0.000000  0.000000  1
  Al  Al5  1  0.126453  0.126453  0.241417  1
  Al  Al6  1  0.873547  0.873547  0.758583  1
  Al  Al7  1  0.000647  0.323669  0.070434  1
  Al  Al8  1  0.999353  0.676331  0.929566  1
  Al  Al9  1  0.995982  0.665024  0.576531  1
  Al  Al10  1  0.334976  0.004018  0.423469  1
  Al  Al11  1  0.004018  0.334976  0.423469  1
  Al  Al12  1  0.665024  0.995982  0.576531  1
  Al  Al13  1  0.676331  0.999353  0.929566  1
  Al  Al14  1  0.323669  0.000647  0.070434  1
  Al  Al15  1  0.335736  0.335736  0.554474  1
  Al  Al16  1  0.664264  0.664264  0.445526  1
  Al  Al17  1  0.675023  0.675023  0.047415  1
  Al  Al18  1  0.324977  0.324977  0.952585  1
  Al  Al19  1  0.340309  0.543676  0.248589  1
  Al  Al20  1  0.659691  0.456324  0.751411  1
  Al  Al21  1  0.543676  0.340309  0.248589  1
  Al  Al22  1  0.456324  0.659691  0.751411  1
  Pd  Pd23  1  0.671233  0.328767  0.000000  1
  Pd  Pd24  1  0.328767  0.671233  0.000000  1
  Pd  Pd25  1  0.328444  0.671556  0.500000  1
  Pd  Pd26  1  0.671556  0.328444  0.500000  1
  Pd  Pd27  1  0.000000  0.000000  0.500000  1
