# generated using pymatgen
data_U4Re6Si6Ni
_symmetry_space_group_name_H-M   'P 1'
_cell_length_a   7.11520346
_cell_length_b   7.11520243
_cell_length_c   7.11520242
_cell_angle_alpha   108.90478145
_cell_angle_beta   108.90477952
_cell_angle_gamma   110.61014493
_symmetry_Int_Tables_number   1
_chemical_formula_structural   U4Re6Si6Ni
_chemical_formula_sum   'U4 Re6 Si6 Ni1'
_cell_volume   277.21128622
_cell_formula_units_Z   1
loop_
 _symmetry_equiv_pos_site_id
 _symmetry_equiv_pos_as_xyz
  1  'x, y, z'
loop_
 _atom_site_type_symbol
 _atom_site_label
 _atom_site_symmetry_multiplicity
 _atom_site_fract_x
 _atom_site_fract_y
 _atom_site_fract_z
 _atom_site_occupancy
  U  U0  1  0.493682  0.506318  0.500000  1
  U  U1  1  0.006318  0.993682  0.500000  1
  U  U2  1  0.493682  0.993682  0.987364  1
  U  U3  1  0.006318  0.506318  0.012636  1
  Re  Re4  1  0.503631  0.252059  0.748428  1
  Re  Re5  1  0.503631  0.755203  0.251572  1
  Re  Re6  1  0.244797  0.496369  0.748428  1
  Re  Re7  1  0.747941  0.496369  0.251572  1
  Re  Re8  1  0.250000  0.750000  0.500000  1
  Re  Re9  1  0.000000  0.000000  0.000000  1
  Si  Si10  1  0.310837  0.310837  0.000000  1
  Si  Si11  1  0.990535  0.302738  0.312203  1
  Si  Si12  1  0.990535  0.678332  0.687797  1
  Si  Si13  1  0.697262  0.009465  0.687797  1
  Si  Si14  1  0.321668  0.009465  0.312203  1
  Si  Si15  1  0.689163  0.689163  0.000000  1
  Ni  Ni16  1  0.750000  0.250000  0.500000  1
