# generated using pymatgen
data_Dy4Fe(NiO4)3
_symmetry_space_group_name_H-M   'P 1'
_cell_length_a   5.23253702
_cell_length_b   5.67472546
_cell_length_c   7.53886080
_cell_angle_alpha   89.58303406
_cell_angle_beta   90.10409859
_cell_angle_gamma   89.90765961
_symmetry_Int_Tables_number   1
_chemical_formula_structural   Dy4Fe(NiO4)3
_chemical_formula_sum   'Dy4 Fe1 Ni3 O12'
_cell_volume   223.84639172
_cell_formula_units_Z   1
loop_
 _symmetry_equiv_pos_site_id
 _symmetry_equiv_pos_as_xyz
  1  'x, y, z'
loop_
 _atom_site_type_symbol
 _atom_site_label
 _atom_site_symmetry_multiplicity
 _atom_site_fract_x
 _atom_site_fract_y
 _atom_site_fract_z
 _atom_site_occupancy
  Dy  Dy0  1  0.021636  0.917648  0.755802  1
  Dy  Dy1  1  0.520989  0.576201  0.244410  1
  Dy  Dy2  1  0.479011  0.423799  0.755590  1
  Dy  Dy3  1  0.978364  0.082352  0.244198  1
  Fe  Fe4  1  0.500000  0.000000  0.500000  1
  Ni  Ni5  1  0.000000  0.500000  0.500000  1
  Ni  Ni6  1  0.000000  0.500000  0.000000  1
  Ni  Ni7  1  0.500000  0.000000  0.000000  1
  O  O8  1  0.689834  0.302705  0.443075  1
  O  O9  1  0.201084  0.183961  0.554095  1
  O  O10  1  0.801191  0.814268  0.053182  1
  O  O11  1  0.306541  0.690663  0.948169  1
  O  O12  1  0.310166  0.697295  0.556925  1
  O  O13  1  0.798916  0.816039  0.445905  1
  O  O14  1  0.198809  0.185732  0.946818  1
  O  O15  1  0.693459  0.309337  0.051831  1
  O  O16  1  0.106879  0.468854  0.248402  1
  O  O17  1  0.609389  0.033692  0.749587  1
  O  O18  1  0.390611  0.966308  0.250413  1
  O  O19  1  0.893121  0.531146  0.751598  1
