# generated using pymatgen
data_Er6BiAuO14
_symmetry_space_group_name_H-M   'P 1'
_cell_length_a   6.44343061
_cell_length_b   6.48543442
_cell_length_c   7.53520128
_cell_angle_alpha   106.58269438
_cell_angle_beta   90.04459750
_cell_angle_gamma   98.46657746
_symmetry_Int_Tables_number   1
_chemical_formula_structural   Er6BiAuO14
_chemical_formula_sum   'Er6 Bi1 Au1 O14'
_cell_volume   298.19466271
_cell_formula_units_Z   1
loop_
 _symmetry_equiv_pos_site_id
 _symmetry_equiv_pos_as_xyz
  1  'x, y, z'
loop_
 _atom_site_type_symbol
 _atom_site_label
 _atom_site_symmetry_multiplicity
 _atom_site_fract_x
 _atom_site_fract_y
 _atom_site_fract_z
 _atom_site_occupancy
  Er  Er0  1  0.733596  0.460732  0.115452  1
  Er  Er1  1  0.733313  0.475423  0.615214  1
  Er  Er2  1  0.538744  0.995445  0.752045  1
  Er  Er3  1  0.461256  0.004555  0.247955  1
  Er  Er4  1  0.266687  0.524577  0.384786  1
  Er  Er5  1  0.266404  0.539268  0.884548  1
  Bi  Bi6  1  0.000000  0.000000  0.500000  1
  Au  Au7  1  0.000000  0.000000  0.000000  1
  O  O8  1  0.697408  0.074434  0.492473  1
  O  O9  1  0.934910  0.668792  0.961762  1
  O  O10  1  0.704417  0.075172  0.047595  1
  O  O11  1  0.928266  0.648294  0.386295  1
  O  O12  1  0.878526  0.898574  0.735909  1
  O  O13  1  0.554796  0.350644  0.833341  1
  O  O14  1  0.544841  0.359793  0.342894  1
  O  O15  1  0.455159  0.640207  0.657106  1
  O  O16  1  0.445204  0.649356  0.166659  1
  O  O17  1  0.121474  0.101426  0.264091  1
  O  O18  1  0.071734  0.351706  0.613705  1
  O  O19  1  0.295583  0.924828  0.952405  1
  O  O20  1  0.065090  0.331208  0.038238  1
  O  O21  1  0.302592  0.925566  0.507527  1
