# generated using pymatgen
data_SrYZr2(Ga3Ir)6
_symmetry_space_group_name_H-M   'P 1'
_cell_length_a   7.57304132
_cell_length_b   7.56035526
_cell_length_c   9.47113900
_cell_angle_alpha   90.00000000
_cell_angle_beta   90.00000000
_cell_angle_gamma   119.91316095
_symmetry_Int_Tables_number   1
_chemical_formula_structural   SrYZr2(Ga3Ir)6
_chemical_formula_sum   'Sr1 Y1 Zr2 Ga18 Ir6'
_cell_volume   470.02908830
_cell_formula_units_Z   1
loop_
 _symmetry_equiv_pos_site_id
 _symmetry_equiv_pos_as_xyz
  1  'x, y, z'
loop_
 _atom_site_type_symbol
 _atom_site_label
 _atom_site_symmetry_multiplicity
 _atom_site_fract_x
 _atom_site_fract_y
 _atom_site_fract_z
 _atom_site_occupancy
  Sr  Sr0  1  0.669304  0.995791  0.250000  1
  Y  Y1  1  0.330722  0.003852  0.750000  1
  Zr  Zr2  1  0.996801  0.668348  0.250000  1
  Zr  Zr3  1  0.001981  0.329840  0.750000  1
  Ga  Ga4  1  0.129699  0.124924  0.250000  1
  Ga  Ga5  1  0.872953  0.874193  0.750000  1
  Ga  Ga6  1  0.000665  0.338364  0.077863  1
  Ga  Ga7  1  0.001268  0.663294  0.918624  1
  Ga  Ga8  1  0.001268  0.663294  0.581376  1
  Ga  Ga9  1  0.330109  0.996831  0.420372  1
  Ga  Ga10  1  0.000665  0.338364  0.422137  1
  Ga  Ga11  1  0.668008  0.002973  0.584051  1
  Ga  Ga12  1  0.668008  0.002973  0.915949  1
  Ga  Ga13  1  0.330109  0.996831  0.079628  1
  Ga  Ga14  1  0.329871  0.332671  0.568946  1
  Ga  Ga15  1  0.670250  0.666436  0.435818  1
  Ga  Ga16  1  0.670250  0.666436  0.064182  1
  Ga  Ga17  1  0.329871  0.332671  0.931054  1
  Ga  Ga18  1  0.333700  0.543083  0.250000  1
  Ga  Ga19  1  0.662496  0.453795  0.750000  1
  Ga  Ga20  1  0.552916  0.345470  0.250000  1
  Ga  Ga21  1  0.447685  0.658095  0.750000  1
  Ir  Ir22  1  0.672509  0.329942  0.997251  1
  Ir  Ir23  1  0.326356  0.669759  0.998661  1
  Ir  Ir24  1  0.326356  0.669759  0.501339  1
  Ir  Ir25  1  0.672509  0.329942  0.502749  1
  Ir  Ir26  1  0.001836  0.001034  0.997723  1
  Ir  Ir27  1  0.001836  0.001034  0.502277  1
