# generated using pymatgen
data_Sb13Ru3Br
_symmetry_space_group_name_H-M   'P 1'
_cell_length_a   8.33993227
_cell_length_b   8.33993125
_cell_length_c   8.33993118
_cell_angle_alpha   109.77435016
_cell_angle_beta   109.77436184
_cell_angle_gamma   109.77435537
_symmetry_Int_Tables_number   1
_chemical_formula_structural   Sb13Ru3Br
_chemical_formula_sum   'Sb13 Ru3 Br1'
_cell_volume   441.46254881
_cell_formula_units_Z   1
loop_
 _symmetry_equiv_pos_site_id
 _symmetry_equiv_pos_as_xyz
  1  'x, y, z'
loop_
 _atom_site_type_symbol
 _atom_site_label
 _atom_site_symmetry_multiplicity
 _atom_site_fract_x
 _atom_site_fract_y
 _atom_site_fract_z
 _atom_site_occupancy
  Sb  Sb0  1  0.500000  0.500000  0.500000  1
  Sb  Sb1  1  0.149306  0.828336  0.676868  1
  Sb  Sb2  1  0.126137  0.513844  0.338761  1
  Sb  Sb3  1  0.486156  0.661239  0.873863  1
  Sb  Sb4  1  0.323132  0.850694  0.171664  1
  Sb  Sb5  1  0.828336  0.676868  0.149306  1
  Sb  Sb6  1  0.661239  0.873863  0.486156  1
  Sb  Sb7  1  0.171664  0.323132  0.850694  1
  Sb  Sb8  1  0.676868  0.149306  0.828336  1
  Sb  Sb9  1  0.338761  0.126137  0.513844  1
  Sb  Sb10  1  0.513844  0.338761  0.126137  1
  Sb  Sb11  1  0.873863  0.486156  0.661239  1
  Sb  Sb12  1  0.850694  0.171664  0.323132  1
  Ru  Ru13  1  0.000000  0.000000  0.500000  1
  Ru  Ru14  1  0.500000  0.000000  0.000000  1
  Ru  Ru15  1  0.000000  0.500000  0.000000  1
  Br  Br16  1  0.000000  0.000000  0.000000  1
