# generated using pymatgen
data_Tb19ErSi15Rh
_symmetry_space_group_name_H-M   'P 1'
_cell_length_a   7.57419777
_cell_length_b   7.70812927
_cell_length_c   14.70582600
_cell_angle_alpha   89.69056336
_cell_angle_beta   89.56353346
_cell_angle_gamma   89.95783938
_symmetry_Int_Tables_number   1
_chemical_formula_structural   Tb19ErSi15Rh
_chemical_formula_sum   'Tb19 Er1 Si15 Rh1'
_cell_volume   858.53106353
_cell_formula_units_Z   1
loop_
 _symmetry_equiv_pos_site_id
 _symmetry_equiv_pos_as_xyz
  1  'x, y, z'
loop_
 _atom_site_type_symbol
 _atom_site_label
 _atom_site_symmetry_multiplicity
 _atom_site_fract_x
 _atom_site_fract_y
 _atom_site_fract_z
 _atom_site_occupancy
  Tb  Tb0  1  0.811530  0.333929  0.616365  1
  Tb  Tb1  1  0.458481  0.685963  0.898048  1
  Tb  Tb2  1  0.957274  0.815232  0.897553  1
  Tb  Tb3  1  0.185900  0.680732  0.121123  1
  Tb  Tb4  1  0.690925  0.819827  0.121501  1
  Tb  Tb5  1  0.307610  0.177435  0.877098  1
  Tb  Tb6  1  0.185639  0.675684  0.379516  1
  Tb  Tb7  1  0.042215  0.187516  0.102985  1
  Tb  Tb8  1  0.312951  0.179574  0.622750  1
  Tb  Tb9  1  0.858255  0.490231  0.259186  1
  Tb  Tb10  1  0.363657  0.006590  0.252607  1
  Tb  Tb11  1  0.538088  0.317751  0.398593  1
  Tb  Tb12  1  0.811339  0.319670  0.877808  1
  Tb  Tb13  1  0.964771  0.815511  0.599040  1
  Tb  Tb14  1  0.461261  0.685395  0.602452  1
  Tb  Tb15  1  0.039988  0.185818  0.400103  1
  Tb  Tb16  1  0.691823  0.813433  0.383550  1
  Tb  Tb17  1  0.638261  0.994923  0.748401  1
  Tb  Tb18  1  0.543316  0.313894  0.102216  1
  Er  Er19  1  0.137225  0.509560  0.747611  1
  Si  Si20  1  0.481870  0.606751  0.246041  1
  Si  Si21  1  0.247384  0.374278  0.247363  1
  Si  Si22  1  0.512600  0.397025  0.751418  1
  Si  Si23  1  0.635068  0.026012  0.957079  1
  Si  Si24  1  0.011205  0.106945  0.748742  1
  Si  Si25  1  0.754308  0.626592  0.751022  1
  Si  Si26  1  0.744953  0.122132  0.249082  1
  Si  Si27  1  0.360884  0.970213  0.460325  1
  Si  Si28  1  0.986616  0.896372  0.248241  1
  Si  Si29  1  0.361520  0.973951  0.042218  1
  Si  Si30  1  0.638873  0.024944  0.543951  1
  Si  Si31  1  0.137808  0.474290  0.956782  1
  Si  Si32  1  0.148429  0.475286  0.543522  1
  Si  Si33  1  0.862381  0.526355  0.040416  1
  Si  Si34  1  0.252014  0.872870  0.750729  1
  Rh  Rh35  1  0.863575  0.517319  0.454564  1
