# generated using pymatgen
data_Ho8Al2OsPd
_symmetry_space_group_name_H-M   'P 1'
_cell_length_a   9.52512104
_cell_length_b   9.52512154
_cell_length_c   9.59467500
_cell_angle_alpha   59.75814934
_cell_angle_beta   59.75814759
_cell_angle_gamma   59.45703474
_symmetry_Int_Tables_number   1
_chemical_formula_structural   Ho8Al2OsPd
_chemical_formula_sum   'Ho16 Al4 Os2 Pd2'
_cell_volume   610.74251113
_cell_formula_units_Z   2
loop_
 _symmetry_equiv_pos_site_id
 _symmetry_equiv_pos_as_xyz
  1  'x, y, z'
loop_
 _atom_site_type_symbol
 _atom_site_label
 _atom_site_symmetry_multiplicity
 _atom_site_fract_x
 _atom_site_fract_y
 _atom_site_fract_z
 _atom_site_occupancy
  Ho  Ho0  1  0.353838  0.353838  0.357562  1
  Ho  Ho1  1  0.353838  0.353838  0.934763  1
  Ho  Ho2  1  0.350018  0.943391  0.353296  1
  Ho  Ho3  1  0.943391  0.350018  0.353296  1
  Ho  Ho4  1  0.812053  0.190544  0.195199  1
  Ho  Ho5  1  0.190544  0.812053  0.802204  1
  Ho  Ho6  1  0.190544  0.812053  0.195199  1
  Ho  Ho7  1  0.812053  0.190544  0.802204  1
  Ho  Ho8  1  0.192172  0.192172  0.807828  1
  Ho  Ho9  1  0.804974  0.804974  0.195026  1
  Ho  Ho10  1  0.936830  0.556232  0.567180  1
  Ho  Ho11  1  0.556232  0.936830  0.939758  1
  Ho  Ho12  1  0.556232  0.936830  0.567180  1
  Ho  Ho13  1  0.936830  0.556232  0.939758  1
  Ho  Ho14  1  0.563851  0.563851  0.936149  1
  Ho  Ho15  1  0.938799  0.938799  0.561201  1
  Al  Al16  1  0.577867  0.577867  0.577842  1
  Al  Al17  1  0.577867  0.577867  0.266423  1
  Al  Al18  1  0.578377  0.265592  0.578015  1
  Al  Al19  1  0.265592  0.578377  0.578015  1
  Os  Os20  1  0.145410  0.145410  0.138235  1
  Os  Os21  1  0.145410  0.145410  0.570943  1
  Pd  Pd22  1  0.146592  0.570687  0.141360  1
  Pd  Pd23  1  0.570687  0.146592  0.141360  1
