# generated using pymatgen
data_Fe2SnI8
_symmetry_space_group_name_H-M   'P 1'
_cell_length_a   8.14688600
_cell_length_b   8.46427101
_cell_length_c   15.42577902
_cell_angle_alpha   87.79665493
_cell_angle_beta   90.00000000
_cell_angle_gamma   90.00000000
_symmetry_Int_Tables_number   1
_chemical_formula_structural   Fe2SnI8
_chemical_formula_sum   'Fe4 Sn2 I16'
_cell_volume   1062.93596297
_cell_formula_units_Z   2
loop_
 _symmetry_equiv_pos_site_id
 _symmetry_equiv_pos_as_xyz
  1  'x, y, z'
loop_
 _atom_site_type_symbol
 _atom_site_label
 _atom_site_symmetry_multiplicity
 _atom_site_fract_x
 _atom_site_fract_y
 _atom_site_fract_z
 _atom_site_occupancy
  Fe  Fe0  1  0.935704  0.216999  0.580409  1
  Fe  Fe1  1  0.064296  0.216999  0.080409  1
  Fe  Fe2  1  0.572270  0.640709  0.780152  1
  Fe  Fe3  1  0.427730  0.640709  0.280152  1
  Sn  Sn4  1  0.757011  0.069423  0.808643  1
  Sn  Sn5  1  0.242989  0.069423  0.308643  1
  I  I6  1  0.427475  0.612507  0.639429  1
  I  I7  1  0.572525  0.612507  0.139429  1
  I  I8  1  0.874447  0.735902  0.756604  1
  I  I9  1  0.125553  0.735902  0.256604  1
  I  I10  1  0.935950  0.475119  0.497143  1
  I  I11  1  0.064050  0.475119  0.997143  1
  I  I12  1  0.921244  0.994662  0.999531  1
  I  I13  1  0.078756  0.994662  0.499531  1
  I  I14  1  0.636836  0.130026  0.618090  1
  I  I15  1  0.363164  0.130026  0.118090  1
  I  I16  1  0.566900  0.385498  0.875973  1
  I  I17  1  0.433100  0.385498  0.375973  1
  I  I18  1  0.440671  0.867679  0.865028  1
  I  I19  1  0.559329  0.867679  0.365028  1
  I  I20  1  0.926694  0.238876  0.231199  1
  I  I21  1  0.073306  0.238876  0.731199  1
