# generated using pymatgen
data_Tb4Lu(SiB4)2
_symmetry_space_group_name_H-M   'P 1'
_cell_length_a   7.22919800
_cell_length_b   7.22919800
_cell_length_c   8.07468400
_cell_angle_alpha   90.00000000
_cell_angle_beta   90.00000000
_cell_angle_gamma   90.00000000
_symmetry_Int_Tables_number   1
_chemical_formula_structural   Tb4Lu(SiB4)2
_chemical_formula_sum   'Tb8 Lu2 Si4 B16'
_cell_volume   421.99351299
_cell_formula_units_Z   2
loop_
 _symmetry_equiv_pos_site_id
 _symmetry_equiv_pos_as_xyz
  1  'x, y, z'
loop_
 _atom_site_type_symbol
 _atom_site_label
 _atom_site_symmetry_multiplicity
 _atom_site_fract_x
 _atom_site_fract_y
 _atom_site_fract_z
 _atom_site_occupancy
  Tb  Tb0  1  0.680374  0.180374  0.225703  1
  Tb  Tb1  1  0.319626  0.819626  0.774297  1
  Tb  Tb2  1  0.319626  0.819626  0.225703  1
  Tb  Tb3  1  0.819626  0.680374  0.225703  1
  Tb  Tb4  1  0.819626  0.680374  0.774297  1
  Tb  Tb5  1  0.680374  0.180374  0.774297  1
  Tb  Tb6  1  0.180374  0.319626  0.774297  1
  Tb  Tb7  1  0.180374  0.319626  0.225703  1
  Lu  Lu8  1  0.000000  0.000000  0.500000  1
  Lu  Lu9  1  0.500000  0.500000  0.500000  1
  Si  Si10  1  0.115609  0.615609  0.500000  1
  Si  Si11  1  0.884391  0.384391  0.500000  1
  Si  Si12  1  0.384391  0.115609  0.500000  1
  Si  Si13  1  0.615609  0.884391  0.500000  1
  B  B14  1  0.172555  0.039261  0.000000  1
  B  B15  1  0.827445  0.960739  0.000000  1
  B  B16  1  0.960739  0.172555  0.000000  1
  B  B17  1  0.327445  0.539261  0.000000  1
  B  B18  1  0.039261  0.827445  0.000000  1
  B  B19  1  0.672555  0.460739  0.000000  1
  B  B20  1  0.539261  0.672555  0.000000  1
  B  B21  1  0.460739  0.327445  0.000000  1
  B  B22  1  0.089711  0.589711  0.000000  1
  B  B23  1  0.910289  0.410289  0.000000  1
  B  B24  1  0.410289  0.089711  0.000000  1
  B  B25  1  0.589711  0.910289  0.000000  1
  B  B26  1  0.000000  0.000000  0.162815  1
  B  B27  1  0.000000  0.000000  0.837185  1
  B  B28  1  0.500000  0.500000  0.837185  1
  B  B29  1  0.500000  0.500000  0.162815  1
