# generated using pymatgen
data_La8YHoTl6
_symmetry_space_group_name_H-M   'P 1'
_cell_length_a   6.37578042
_cell_length_b   9.52669574
_cell_length_c   9.52669500
_cell_angle_alpha   83.57080820
_cell_angle_beta   70.45014501
_cell_angle_gamma   70.45014161
_symmetry_Int_Tables_number   1
_chemical_formula_structural   La8YHoTl6
_chemical_formula_sum   'La8 Y1 Ho1 Tl6'
_cell_volume   513.85784777
_cell_formula_units_Z   1
loop_
 _symmetry_equiv_pos_site_id
 _symmetry_equiv_pos_as_xyz
  1  'x, y, z'
loop_
 _atom_site_type_symbol
 _atom_site_label
 _atom_site_symmetry_multiplicity
 _atom_site_fract_x
 _atom_site_fract_y
 _atom_site_fract_z
 _atom_site_occupancy
  La  La0  1  0.723159  0.864686  0.688918  1
  La  La1  1  0.276765  0.135314  0.311082  1
  La  La2  1  0.776841  0.311082  0.135314  1
  La  La3  1  0.223235  0.688918  0.864686  1
  La  La4  1  0.587922  0.688918  0.135314  1
  La  La5  1  0.412155  0.311082  0.864686  1
  La  La6  1  0.087845  0.135314  0.688918  1
  La  La7  1  0.912078  0.864686  0.311082  1
  Y  Y8  1  0.750000  0.500000  0.500000  1
  Ho  Ho9  1  0.250000  0.500000  0.500000  1
  Tl  Tl10  1  0.156112  0.500000  0.188340  1
  Tl  Tl11  1  0.844450  0.500000  0.811660  1
  Tl  Tl12  1  0.343888  0.811660  0.500000  1
  Tl  Tl13  1  0.655550  0.188340  0.500000  1
  Tl  Tl14  1  0.250000  0.000000  0.000000  1
  Tl  Tl15  1  0.750000  0.000000  0.000000  1
