# generated using pymatgen
data_Hf6AlGa5(Ir2Pd)2
_symmetry_space_group_name_H-M   'P 1'
_cell_length_a   7.24081667
_cell_length_b   7.24081572
_cell_length_c   6.85978552
_cell_angle_alpha   89.96134340
_cell_angle_beta   90.03865540
_cell_angle_gamma   120.13809076
_symmetry_Int_Tables_number   1
_chemical_formula_structural   Hf6AlGa5(Ir2Pd)2
_chemical_formula_sum   'Hf6 Al1 Ga5 Ir4 Pd2'
_cell_volume   311.03558728
_cell_formula_units_Z   1
loop_
 _symmetry_equiv_pos_site_id
 _symmetry_equiv_pos_as_xyz
  1  'x, y, z'
loop_
 _atom_site_type_symbol
 _atom_site_label
 _atom_site_symmetry_multiplicity
 _atom_site_fract_x
 _atom_site_fract_y
 _atom_site_fract_z
 _atom_site_occupancy
  Hf  Hf0  1  0.603394  0.592992  0.249548  1
  Hf  Hf1  1  0.010309  0.409085  0.750715  1
  Hf  Hf2  1  0.409085  0.010309  0.249285  1
  Hf  Hf3  1  0.989589  0.398406  0.249579  1
  Hf  Hf4  1  0.398406  0.989589  0.750421  1
  Hf  Hf5  1  0.592992  0.603394  0.750452  1
  Al  Al6  1  0.265164  0.265164  0.500000  1
  Ga  Ga7  1  0.731846  0.001296  0.499944  1
  Ga  Ga8  1  0.001296  0.731846  0.500056  1
  Ga  Ga9  1  0.731478  0.000583  0.999960  1
  Ga  Ga10  1  0.269499  0.269499  0.000000  1
  Ga  Ga11  1  0.000583  0.731478  0.000040  1
  Ir  Ir12  1  0.332717  0.661256  0.486367  1
  Ir  Ir13  1  0.332968  0.666433  0.013925  1
  Ir  Ir14  1  0.661256  0.332717  0.513633  1
  Ir  Ir15  1  0.666433  0.332968  0.986075  1
  Pd  Pd16  1  0.001436  0.001549  0.750256  1
  Pd  Pd17  1  0.001549  0.001436  0.249744  1
