# generated using pymatgen
data_Ho3Er9(RuRh)2
_symmetry_space_group_name_H-M   'P 1'
_cell_length_a   6.25779108
_cell_length_b   7.19224901
_cell_length_c   9.21015500
_cell_angle_alpha   90.00000000
_cell_angle_beta   90.00000000
_cell_angle_gamma   89.99307073
_symmetry_Int_Tables_number   1
_chemical_formula_structural   Ho3Er9(RuRh)2
_chemical_formula_sum   'Ho3 Er9 Ru2 Rh2'
_cell_volume   414.52689256
_cell_formula_units_Z   1
loop_
 _symmetry_equiv_pos_site_id
 _symmetry_equiv_pos_as_xyz
  1  'x, y, z'
loop_
 _atom_site_type_symbol
 _atom_site_label
 _atom_site_symmetry_multiplicity
 _atom_site_fract_x
 _atom_site_fract_y
 _atom_site_fract_z
 _atom_site_occupancy
  Ho  Ho0  1  0.868077  0.962703  0.750000  1
  Ho  Ho1  1  0.368026  0.537318  0.250000  1
  Ho  Ho2  1  0.633871  0.465785  0.750000  1
  Er  Er3  1  0.672241  0.176183  0.064593  1
  Er  Er4  1  0.171793  0.323403  0.935666  1
  Er  Er5  1  0.827969  0.679331  0.437591  1
  Er  Er6  1  0.327610  0.821060  0.562040  1
  Er  Er7  1  0.327610  0.821060  0.937960  1
  Er  Er8  1  0.827969  0.679331  0.062409  1
  Er  Er9  1  0.171793  0.323403  0.564334  1
  Er  Er10  1  0.672241  0.176183  0.435407  1
  Er  Er11  1  0.134086  0.034476  0.250000  1
  Ru  Ru12  1  0.048243  0.615595  0.750000  1
  Ru  Ru13  1  0.547460  0.884696  0.250000  1
  Rh  Rh14  1  0.450164  0.115913  0.750000  1
  Rh  Rh15  1  0.950849  0.383564  0.250000  1
