# generated using pymatgen
data_SrLi4Sb4Pb3
_symmetry_space_group_name_H-M   'P 1'
_cell_length_a   4.81860500
_cell_length_b   7.78995854
_cell_length_c   8.52945975
_cell_angle_alpha   89.73290207
_cell_angle_beta   90.00000000
_cell_angle_gamma   90.00000000
_symmetry_Int_Tables_number   1
_chemical_formula_structural   SrLi4Sb4Pb3
_chemical_formula_sum   'Sr1 Li4 Sb4 Pb3'
_cell_volume   320.16457559
_cell_formula_units_Z   1
loop_
 _symmetry_equiv_pos_site_id
 _symmetry_equiv_pos_as_xyz
  1  'x, y, z'
loop_
 _atom_site_type_symbol
 _atom_site_label
 _atom_site_symmetry_multiplicity
 _atom_site_fract_x
 _atom_site_fract_y
 _atom_site_fract_z
 _atom_site_occupancy
  Sr  Sr0  1  0.250000  0.508787  0.796939  1
  Li  Li1  1  0.750000  0.860486  0.925839  1
  Li  Li2  1  0.250000  0.143105  0.081511  1
  Li  Li3  1  0.750000  0.341798  0.565370  1
  Li  Li4  1  0.250000  0.655591  0.416622  1
  Sb  Sb5  1  0.250000  0.766965  0.101195  1
  Sb  Sb6  1  0.750000  0.232978  0.906398  1
  Sb  Sb7  1  0.250000  0.265943  0.412310  1
  Sb  Sb8  1  0.750000  0.730066  0.595607  1
  Pb  Pb9  1  0.750000  0.990586  0.306711  1
  Pb  Pb10  1  0.250000  0.007584  0.700008  1
  Pb  Pb11  1  0.750000  0.496111  0.191491  1
