# generated using pymatgen
data_Mn3CoCl7O
_symmetry_space_group_name_H-M   'P 1'
_cell_length_a   7.64845611
_cell_length_b   7.64845568
_cell_length_c   7.57671500
_cell_angle_alpha   56.97336486
_cell_angle_beta   56.97336696
_cell_angle_gamma   57.01187262
_symmetry_Int_Tables_number   1
_chemical_formula_structural   Mn3CoCl7O
_chemical_formula_sum   'Mn3 Co1 Cl7 O1'
_cell_volume   291.62958472
_cell_formula_units_Z   1
loop_
 _symmetry_equiv_pos_site_id
 _symmetry_equiv_pos_as_xyz
  1  'x, y, z'
loop_
 _atom_site_type_symbol
 _atom_site_label
 _atom_site_symmetry_multiplicity
 _atom_site_fract_x
 _atom_site_fract_y
 _atom_site_fract_z
 _atom_site_occupancy
  Mn  Mn0  1  0.525093  0.983985  0.476297  1
  Mn  Mn1  1  0.983985  0.525093  0.476297  1
  Mn  Mn2  1  0.499254  0.499254  0.996189  1
  Co  Co3  1  0.978525  0.978525  0.022966  1
  Cl  Cl4  1  0.737869  0.737869  0.754876  1
  Cl  Cl5  1  0.240717  0.741038  0.238929  1
  Cl  Cl6  1  0.741038  0.240717  0.238929  1
  Cl  Cl7  1  0.257076  0.257076  0.251158  1
  Cl  Cl8  1  0.227718  0.227718  0.724347  1
  Cl  Cl9  1  0.761019  0.253604  0.759746  1
  Cl  Cl10  1  0.253604  0.761019  0.759746  1
  O  O11  1  0.794100  0.794100  0.300521  1
