# generated using pymatgen
data_Rb2Pt3O8
_symmetry_space_group_name_H-M   'P 1'
_cell_length_a   7.47829641
_cell_length_b   7.47831282
_cell_length_c   5.39180397
_cell_angle_alpha   106.64064011
_cell_angle_beta   106.64076065
_cell_angle_gamma   50.25984034
_symmetry_Int_Tables_number   1
_chemical_formula_structural   Rb2Pt3O8
_chemical_formula_sum   'Rb2 Pt3 O8'
_cell_volume   219.96234989
_cell_formula_units_Z   1
loop_
 _symmetry_equiv_pos_site_id
 _symmetry_equiv_pos_as_xyz
  1  'x, y, z'
loop_
 _atom_site_type_symbol
 _atom_site_label
 _atom_site_symmetry_multiplicity
 _atom_site_fract_x
 _atom_site_fract_y
 _atom_site_fract_z
 _atom_site_occupancy
  Rb  Rb0  1  0.726403  0.726384  0.179428  1
  Rb  Rb1  1  0.273616  0.273598  0.820571  1
  Pt  Pt2  1  0.999938  0.000062  0.000000  1
  Pt  Pt3  1  0.744681  0.255320  0.500000  1
  Pt  Pt4  1  0.255242  0.744757  0.500001  1
  O  O5  1  0.697949  0.140991  0.120066  1
  O  O6  1  0.140911  0.697899  0.119840  1
  O  O7  1  0.078429  0.078664  0.398070  1
  O  O8  1  0.584337  0.583953  0.450383  1
  O  O9  1  0.416047  0.415664  0.549619  1
  O  O10  1  0.921337  0.921570  0.601928  1
  O  O11  1  0.859011  0.302051  0.879935  1
  O  O12  1  0.302101  0.859089  0.880161  1
