# generated using pymatgen
data_NpV(PO5)2
_symmetry_space_group_name_H-M   'P 1'
_cell_length_a   5.75646694
_cell_length_b   5.24768733
_cell_length_c   7.54040600
_cell_angle_alpha   105.54306625
_cell_angle_beta   110.37187768
_cell_angle_gamma   97.08888412
_symmetry_Int_Tables_number   1
_chemical_formula_structural   NpV(PO5)2
_chemical_formula_sum   'Np1 V1 P2 O10'
_cell_volume   199.71668216
_cell_formula_units_Z   1
loop_
 _symmetry_equiv_pos_site_id
 _symmetry_equiv_pos_as_xyz
  1  'x, y, z'
loop_
 _atom_site_type_symbol
 _atom_site_label
 _atom_site_symmetry_multiplicity
 _atom_site_fract_x
 _atom_site_fract_y
 _atom_site_fract_z
 _atom_site_occupancy
  Np  Np0  1  0.000000  0.500000  0.000000  1
  V  V1  1  0.000000  0.500000  0.500000  1
  P  P2  1  0.324364  0.135809  0.743736  1
  P  P3  1  0.675636  0.864191  0.256264  1
  O  O4  1  0.183304  0.185733  0.887851  1
  O  O5  1  0.260361  0.822433  0.632099  1
  O  O6  1  0.935106  0.560365  0.754601  1
  O  O7  1  0.244881  0.284628  0.589995  1
  O  O8  1  0.755119  0.715372  0.410005  1
  O  O9  1  0.615210  0.227102  0.867043  1
  O  O10  1  0.384790  0.772898  0.132957  1
  O  O11  1  0.064894  0.439635  0.245399  1
  O  O12  1  0.739639  0.177567  0.367901  1
  O  O13  1  0.816696  0.814267  0.112149  1
