# generated using pymatgen
data_Yb5Dy3(AgPb)4
_symmetry_space_group_name_H-M   'P 1'
_cell_length_a   7.75728501
_cell_length_b   5.30145100
_cell_length_c   10.60298900
_cell_angle_alpha   90.00000000
_cell_angle_beta   89.99788759
_cell_angle_gamma   90.00000000
_symmetry_Int_Tables_number   1
_chemical_formula_structural   Yb5Dy3(AgPb)4
_chemical_formula_sum   'Yb5 Dy3 Ag4 Pb4'
_cell_volume   436.04650522
_cell_formula_units_Z   1
loop_
 _symmetry_equiv_pos_site_id
 _symmetry_equiv_pos_as_xyz
  1  'x, y, z'
loop_
 _atom_site_type_symbol
 _atom_site_label
 _atom_site_symmetry_multiplicity
 _atom_site_fract_x
 _atom_site_fract_y
 _atom_site_fract_z
 _atom_site_occupancy
  Yb  Yb0  1  0.000563  0.750000  0.128688  1
  Yb  Yb1  1  0.504066  0.750000  0.128818  1
  Yb  Yb2  1  0.003195  0.249999  0.372313  1
  Yb  Yb3  1  0.497479  0.249999  0.373910  1
  Yb  Yb4  1  0.495738  0.750000  0.621544  1
  Dy  Dy5  1  0.998797  0.750000  0.620706  1
  Dy  Dy6  1  0.503322  0.249999  0.875899  1
  Dy  Dy7  1  0.996518  0.249999  0.877310  1
  Ag  Ag8  1  0.750984  0.249999  0.124229  1
  Ag  Ag9  1  0.248436  0.750000  0.375350  1
  Ag  Ag10  1  0.752276  0.249999  0.624074  1
  Ag  Ag11  1  0.248822  0.750000  0.876276  1
  Pb  Pb12  1  0.251878  0.249999  0.119767  1
  Pb  Pb13  1  0.750815  0.750000  0.378157  1
  Pb  Pb14  1  0.246785  0.249999  0.630042  1
  Pb  Pb15  1  0.750326  0.750000  0.872921  1
