# generated using pymatgen
data_Dy5P12Ru12Rh7
_symmetry_space_group_name_H-M   'P 1'
_cell_length_a   12.56252461
_cell_length_b   12.54414006
_cell_length_c   3.94240300
_cell_angle_alpha   90.00000000
_cell_angle_beta   90.00000000
_cell_angle_gamma   119.59566940
_symmetry_Int_Tables_number   1
_chemical_formula_structural   Dy5P12Ru12Rh7
_chemical_formula_sum   'Dy5 P12 Ru12 Rh7'
_cell_volume   540.21238438
_cell_formula_units_Z   1
loop_
 _symmetry_equiv_pos_site_id
 _symmetry_equiv_pos_as_xyz
  1  'x, y, z'
loop_
 _atom_site_type_symbol
 _atom_site_label
 _atom_site_symmetry_multiplicity
 _atom_site_fract_x
 _atom_site_fract_y
 _atom_site_fract_z
 _atom_site_occupancy
  Dy  Dy0  1  0.664804  0.332147  0.000000  1
  Dy  Dy1  1  0.334597  0.667954  0.000000  1
  Dy  Dy2  1  0.813778  0.001427  0.500000  1
  Dy  Dy3  1  0.185774  0.187435  0.500000  1
  Dy  Dy4  1  0.999878  0.813250  0.500000  1
  P  P5  1  0.630948  0.002583  0.000000  1
  P  P6  1  0.371876  0.371812  0.000000  1
  P  P7  1  0.004895  0.632895  0.000000  1
  P  P8  1  0.683229  0.516695  0.500000  1
  P  P9  1  0.826874  0.304839  0.500000  1
  P  P10  1  0.314569  0.832686  0.500000  1
  P  P11  1  0.518861  0.685733  0.500000  1
  P  P12  1  0.181172  0.001493  0.000000  1
  P  P13  1  0.819234  0.818256  0.000000  1
  P  P14  1  0.998298  0.183616  0.000000  1
  P  P15  1  0.480524  0.166589  0.500000  1
  P  P16  1  0.168283  0.483581  0.500000  1
  Ru  Ru17  1  0.486536  0.358852  0.500000  1
  Ru  Ru18  1  0.636226  0.123120  0.500000  1
  Ru  Ru19  1  0.126637  0.642118  0.500000  1
  Ru  Ru20  1  0.360430  0.488126  0.500000  1
  Ru  Ru21  1  0.511780  0.870403  0.500000  1
  Ru  Ru22  1  0.718168  0.715972  0.500000  1
  Ru  Ru23  1  0.002618  0.286421  0.500000  1
  Ru  Ru24  1  0.446374  0.997012  0.000000  1
  Ru  Ru25  1  0.553375  0.551157  0.000000  1
  Ru  Ru26  1  0.002978  0.450484  0.000000  1
  Ru  Ru27  1  0.819261  0.197050  0.000000  1
  Ru  Ru28  1  0.282552  0.000419  0.500000  1
  Rh  Rh29  1  0.626456  0.807329  0.000000  1
  Rh  Rh30  1  0.183656  0.375724  0.000000  1
  Rh  Rh31  1  0.374058  0.181556  0.000000  1
  Rh  Rh32  1  0.193681  0.820406  0.000000  1
  Rh  Rh33  1  0.808680  0.623290  0.000000  1
  Rh  Rh34  1  0.869628  0.506401  0.500000  1
  Rh  Rh35  1  0.999313  0.001171  0.000000  1
