# generated using pymatgen
data_Ca4Sc4Re(B8Rh)3
_symmetry_space_group_name_H-M   'P 1'
_cell_length_a   3.54877600
_cell_length_b   9.02406843
_cell_length_c   11.42313329
_cell_angle_alpha   90.09960941
_cell_angle_beta   90.00000000
_cell_angle_gamma   90.00000000
_symmetry_Int_Tables_number   1
_chemical_formula_structural   Ca4Sc4Re(B8Rh)3
_chemical_formula_sum   'Ca4 Sc4 Re1 B24 Rh3'
_cell_volume   365.81840795
_cell_formula_units_Z   1
loop_
 _symmetry_equiv_pos_site_id
 _symmetry_equiv_pos_as_xyz
  1  'x, y, z'
loop_
 _atom_site_type_symbol
 _atom_site_label
 _atom_site_symmetry_multiplicity
 _atom_site_fract_x
 _atom_site_fract_y
 _atom_site_fract_z
 _atom_site_occupancy
  Ca  Ca0  1  0.000000  0.321881  0.416502  1
  Ca  Ca1  1  0.000000  0.679095  0.586366  1
  Ca  Ca2  1  0.000000  0.822406  0.083296  1
  Ca  Ca3  1  0.000000  0.177427  0.914450  1
  Sc  Sc4  1  0.000000  0.945236  0.371814  1
  Sc  Sc5  1  0.000000  0.052207  0.628794  1
  Sc  Sc6  1  0.000000  0.444231  0.128009  1
  Sc  Sc7  1  0.000000  0.557190  0.872376  1
  Re  Re8  1  0.000000  0.858459  0.817665  1
  B  B9  1  0.500000  0.556364  0.432518  1
  B  B10  1  0.500000  0.443941  0.567717  1
  B  B11  1  0.500000  0.055852  0.067572  1
  B  B12  1  0.500000  0.945281  0.932535  1
  B  B13  1  0.500000  0.753553  0.417751  1
  B  B14  1  0.500000  0.246550  0.582306  1
  B  B15  1  0.500000  0.252606  0.082355  1
  B  B16  1  0.500000  0.744905  0.917718  1
  B  B17  1  0.500000  0.794425  0.263829  1
  B  B18  1  0.500000  0.205333  0.734958  1
  B  B19  1  0.500000  0.294658  0.236307  1
  B  B20  1  0.500000  0.703235  0.764015  1
  B  B21  1  0.500000  0.630020  0.182031  1
  B  B22  1  0.500000  0.369685  0.817301  1
  B  B23  1  0.500000  0.130846  0.318225  1
  B  B24  1  0.500000  0.870040  0.682298  1
  B  B25  1  0.500000  0.984387  0.214088  1
  B  B26  1  0.500000  0.018261  0.785636  1
  B  B27  1  0.500000  0.484111  0.286067  1
  B  B28  1  0.500000  0.516028  0.713706  1
  B  B29  1  0.500000  0.595497  0.026160  1
  B  B30  1  0.500000  0.402830  0.974519  1
  B  B31  1  0.500000  0.096992  0.473805  1
  B  B32  1  0.500000  0.903832  0.524738  1
  Rh  Rh33  1  0.000000  0.641956  0.317236  1
  Rh  Rh34  1  0.000000  0.358012  0.682041  1
  Rh  Rh35  1  0.000000  0.142670  0.183297  1
