# generated using pymatgen
data_Zr16Fe3CuOs4
_symmetry_space_group_name_H-M   'P 1'
_cell_length_a   8.68982283
_cell_length_b   8.73085675
_cell_length_c   8.73085600
_cell_angle_alpha   60.00000284
_cell_angle_beta   59.84367483
_cell_angle_gamma   59.84367504
_symmetry_Int_Tables_number   1
_chemical_formula_structural   Zr16Fe3CuOs4
_chemical_formula_sum   'Zr16 Fe3 Cu1 Os4'
_cell_volume   467.28237019
_cell_formula_units_Z   1
loop_
 _symmetry_equiv_pos_site_id
 _symmetry_equiv_pos_as_xyz
  1  'x, y, z'
loop_
 _atom_site_type_symbol
 _atom_site_label
 _atom_site_symmetry_multiplicity
 _atom_site_fract_x
 _atom_site_fract_y
 _atom_site_fract_z
 _atom_site_occupancy
  Zr  Zr0  1  0.039545  0.653485  0.653485  1
  Zr  Zr1  1  0.651728  0.062246  0.643013  1
  Zr  Zr2  1  0.651728  0.643013  0.062246  1
  Zr  Zr3  1  0.651728  0.643013  0.643013  1
  Zr  Zr4  1  0.805491  0.800087  0.197211  1
  Zr  Zr5  1  0.199546  0.219442  0.790506  1
  Zr  Zr6  1  0.805491  0.197211  0.800087  1
  Zr  Zr7  1  0.199546  0.790506  0.219442  1
  Zr  Zr8  1  0.199546  0.790506  0.790506  1
  Zr  Zr9  1  0.805491  0.197211  0.197211  1
  Zr  Zr10  1  0.439013  0.434769  0.063109  1
  Zr  Zr11  1  0.065306  0.064880  0.434907  1
  Zr  Zr12  1  0.439013  0.063109  0.434769  1
  Zr  Zr13  1  0.065306  0.434907  0.064880  1
  Zr  Zr14  1  0.065306  0.434907  0.434907  1
  Zr  Zr15  1  0.439013  0.063109  0.063109  1
  Fe  Fe16  1  0.854399  0.419658  0.862971  1
  Fe  Fe17  1  0.854399  0.862971  0.419658  1
  Fe  Fe18  1  0.854399  0.862971  0.862971  1
  Cu  Cu19  1  0.416048  0.861317  0.861317  1
  Os  Os20  1  0.744880  0.418374  0.418374  1
  Os  Os21  1  0.417694  0.745033  0.418637  1
  Os  Os22  1  0.417694  0.418637  0.745033  1
  Os  Os23  1  0.417694  0.418637  0.418637  1
