# generated using pymatgen
data_TmPa3Zn4Ir3Rh
_symmetry_space_group_name_H-M   'P 1'
_cell_length_a   3.94076900
_cell_length_b   7.01645611
_cell_length_c   8.31714815
_cell_angle_alpha   90.01209602
_cell_angle_beta   90.00000000
_cell_angle_gamma   90.00000000
_symmetry_Int_Tables_number   1
_chemical_formula_structural   TmPa3Zn4Ir3Rh
_chemical_formula_sum   'Tm1 Pa3 Zn4 Ir3 Rh1'
_cell_volume   229.97107692
_cell_formula_units_Z   1
loop_
 _symmetry_equiv_pos_site_id
 _symmetry_equiv_pos_as_xyz
  1  'x, y, z'
loop_
 _atom_site_type_symbol
 _atom_site_label
 _atom_site_symmetry_multiplicity
 _atom_site_fract_x
 _atom_site_fract_y
 _atom_site_fract_z
 _atom_site_occupancy
  Tm  Tm0  1  0.250000  0.057842  0.311554  1
  Pa  Pa1  1  0.250000  0.556764  0.188722  1
  Pa  Pa2  1  0.750000  0.449656  0.814459  1
  Pa  Pa3  1  0.750000  0.948903  0.681436  1
  Zn  Zn4  1  0.250000  0.618054  0.556469  1
  Zn  Zn5  1  0.750000  0.363806  0.441686  1
  Zn  Zn6  1  0.750000  0.886310  0.060920  1
  Zn  Zn7  1  0.250000  0.120367  0.946466  1
  Ir  Ir8  1  0.250000  0.733076  0.866331  1
  Ir  Ir9  1  0.750000  0.283351  0.123660  1
  Ir  Ir10  1  0.250000  0.229983  0.640428  1
  Rh  Rh11  1  0.750000  0.751887  0.367870  1
