# generated using pymatgen
data_Tb9Dy(IrRu)3
_symmetry_space_group_name_H-M   'P 1'
_cell_length_a   10.88490181
_cell_length_b   10.88094600
_cell_length_c   6.42421101
_cell_angle_alpha   90.00000000
_cell_angle_beta   89.96450175
_cell_angle_gamma   90.00000000
_symmetry_Int_Tables_number   1
_chemical_formula_structural   Tb9Dy(IrRu)3
_chemical_formula_sum   'Tb18 Dy2 Ir6 Ru6'
_cell_volume   760.87074238
_cell_formula_units_Z   2
loop_
 _symmetry_equiv_pos_site_id
 _symmetry_equiv_pos_as_xyz
  1  'x, y, z'
loop_
 _atom_site_type_symbol
 _atom_site_label
 _atom_site_symmetry_multiplicity
 _atom_site_fract_x
 _atom_site_fract_y
 _atom_site_fract_z
 _atom_site_occupancy
  Tb  Tb0  1  0.292966  0.086722  0.379166  1
  Tb  Tb1  1  0.292966  0.913278  0.879166  1
  Tb  Tb2  1  0.707708  0.086825  0.878621  1
  Tb  Tb3  1  0.707708  0.913175  0.378621  1
  Tb  Tb4  1  0.587738  0.793326  0.879311  1
  Tb  Tb5  1  0.587738  0.206674  0.379311  1
  Tb  Tb6  1  0.413118  0.793502  0.378601  1
  Tb  Tb7  1  0.413118  0.206498  0.878601  1
  Tb  Tb8  1  0.206501  0.413125  0.620793  1
  Tb  Tb9  1  0.206501  0.586875  0.120793  1
  Tb  Tb10  1  0.793355  0.412329  0.121245  1
  Tb  Tb11  1  0.793355  0.587671  0.621245  1
  Tb  Tb12  1  0.913006  0.707266  0.120694  1
  Tb  Tb13  1  0.913006  0.292734  0.620694  1
  Tb  Tb14  1  0.086478  0.707573  0.621628  1
  Tb  Tb15  1  0.086478  0.292427  0.121628  1
  Tb  Tb16  1  0.998500  0.000617  0.499851  1
  Tb  Tb17  1  0.998500  0.999383  0.999851  1
  Dy  Dy18  1  0.500011  0.500304  0.000110  1
  Dy  Dy19  1  0.500011  0.499696  0.500110  1
  Ir  Ir20  1  0.153759  0.153512  0.750212  1
  Ir  Ir21  1  0.153759  0.846488  0.250212  1
  Ir  Ir22  1  0.652032  0.348283  0.749731  1
  Ir  Ir23  1  0.652032  0.651717  0.249731  1
  Ir  Ir24  1  0.347716  0.347316  0.250315  1
  Ir  Ir25  1  0.347716  0.652684  0.750315  1
  Ru  Ru26  1  0.847355  0.152739  0.249734  1
  Ru  Ru27  1  0.847355  0.847261  0.749734  1
  Ru  Ru28  1  0.500047  0.000128  0.123675  1
  Ru  Ru29  1  0.500047  0.999872  0.623675  1
  Ru  Ru30  1  0.999709  0.500330  0.876312  1
  Ru  Ru31  1  0.999709  0.499670  0.376312  1
