# generated using pymatgen
data_YGa3NiHg
_symmetry_space_group_name_H-M   'P 1'
_cell_length_a   8.10904646
_cell_length_b   8.10904685
_cell_length_c   6.62660900
_cell_angle_alpha   90.00000000
_cell_angle_beta   90.00000000
_cell_angle_gamma   149.96295073
_symmetry_Int_Tables_number   1
_chemical_formula_structural   YGa3NiHg
_chemical_formula_sum   'Y2 Ga6 Ni2 Hg2'
_cell_volume   218.11573395
_cell_formula_units_Z   2
loop_
 _symmetry_equiv_pos_site_id
 _symmetry_equiv_pos_as_xyz
  1  'x, y, z'
loop_
 _atom_site_type_symbol
 _atom_site_label
 _atom_site_symmetry_multiplicity
 _atom_site_fract_x
 _atom_site_fract_y
 _atom_site_fract_z
 _atom_site_occupancy
  Y  Y0  1  0.375189  0.624811  0.750000  1
  Y  Y1  1  0.624811  0.375189  0.250000  1
  Ga  Ga2  1  0.573644  0.426356  0.750000  1
  Ga  Ga3  1  0.426356  0.573644  0.250000  1
  Ga  Ga4  1  0.188265  0.811735  0.948494  1
  Ga  Ga5  1  0.811735  0.188265  0.051506  1
  Ga  Ga6  1  0.188265  0.811735  0.551506  1
  Ga  Ga7  1  0.811735  0.188265  0.448494  1
  Ni  Ni8  1  0.723518  0.276482  0.750000  1
  Ni  Ni9  1  0.276482  0.723518  0.250000  1
  Hg  Hg10  1  0.000000  0.000000  0.000000  1
  Hg  Hg11  1  0.000000  0.000000  0.500000  1
