# generated using pymatgen
data_La5Tb(BiO7)2
_symmetry_space_group_name_H-M   'P 1'
_cell_length_a   6.79605917
_cell_length_b   6.83116082
_cell_length_c   8.01849595
_cell_angle_alpha   106.93022515
_cell_angle_beta   89.89283305
_cell_angle_gamma   98.57740228
_symmetry_Int_Tables_number   1
_chemical_formula_structural   La5Tb(BiO7)2
_chemical_formula_sum   'La5 Tb1 Bi2 O14'
_cell_volume   351.80161088
_cell_formula_units_Z   1
loop_
 _symmetry_equiv_pos_site_id
 _symmetry_equiv_pos_as_xyz
  1  'x, y, z'
loop_
 _atom_site_type_symbol
 _atom_site_label
 _atom_site_symmetry_multiplicity
 _atom_site_fract_x
 _atom_site_fract_y
 _atom_site_fract_z
 _atom_site_occupancy
  La  La0  1  0.533281  0.996818  0.746388  1
  La  La1  1  0.265797  0.535844  0.884487  1
  La  La2  1  0.732214  0.468763  0.120472  1
  La  La3  1  0.741360  0.482895  0.616096  1
  La  La4  1  0.258901  0.514042  0.378908  1
  Tb  Tb5  1  0.461867  0.004186  0.253306  1
  Bi  Bi6  1  0.999780  0.000314  0.497434  1
  Bi  Bi7  1  0.998984  0.999913  0.003090  1
  O  O8  1  0.444203  0.655708  0.170330  1
  O  O9  1  0.559615  0.357665  0.834466  1
  O  O10  1  0.298020  0.932363  0.963690  1
  O  O11  1  0.703409  0.065724  0.054408  1
  O  O12  1  0.294362  0.929452  0.502858  1
  O  O13  1  0.706792  0.068445  0.477962  1
  O  O14  1  0.539885  0.353403  0.341648  1
  O  O15  1  0.452646  0.636818  0.653434  1
  O  O16  1  0.923200  0.673582  0.951677  1
  O  O17  1  0.076238  0.325739  0.047933  1
  O  O18  1  0.072646  0.333749  0.613941  1
  O  O19  1  0.923204  0.664622  0.387645  1
  O  O20  1  0.894751  0.920821  0.729448  1
  O  O21  1  0.118848  0.079133  0.270377  1
