# generated using pymatgen
data_Sm3Co2P6Ru7
_symmetry_space_group_name_H-M   'P 1'
_cell_length_a   3.95156900
_cell_length_b   11.00049400
_cell_length_c   12.62965200
_cell_angle_alpha   90.00000000
_cell_angle_beta   90.00000000
_cell_angle_gamma   90.00000000
_symmetry_Int_Tables_number   1
_chemical_formula_structural   Sm3Co2P6Ru7
_chemical_formula_sum   'Sm6 Co4 P12 Ru14'
_cell_volume   549.00100859
_cell_formula_units_Z   2
loop_
 _symmetry_equiv_pos_site_id
 _symmetry_equiv_pos_as_xyz
  1  'x, y, z'
loop_
 _atom_site_type_symbol
 _atom_site_label
 _atom_site_symmetry_multiplicity
 _atom_site_fract_x
 _atom_site_fract_y
 _atom_site_fract_z
 _atom_site_occupancy
  Sm  Sm0  1  0.000000  0.500000  0.528147  1
  Sm  Sm1  1  0.500000  0.000000  0.471853  1
  Sm  Sm2  1  0.500000  0.820732  0.204612  1
  Sm  Sm3  1  0.500000  0.179268  0.204612  1
  Sm  Sm4  1  0.000000  0.679268  0.795388  1
  Sm  Sm5  1  0.000000  0.320732  0.795388  1
  Co  Co6  1  0.500000  0.500000  0.698892  1
  Co  Co7  1  0.000000  0.000000  0.301108  1
  Co  Co8  1  0.000000  0.500000  0.987389  1
  Co  Co9  1  0.500000  0.000000  0.012611  1
  P  P10  1  0.500000  0.500000  0.880389  1
  P  P11  1  0.000000  0.000000  0.119611  1
  P  P12  1  0.500000  0.500000  0.338994  1
  P  P13  1  0.000000  0.000000  0.661006  1
  P  P14  1  0.500000  0.308542  0.616776  1
  P  P15  1  0.500000  0.691458  0.616776  1
  P  P16  1  0.000000  0.191458  0.383224  1
  P  P17  1  0.000000  0.808542  0.383224  1
  P  P18  1  0.500000  0.849986  0.897542  1
  P  P19  1  0.500000  0.150014  0.897542  1
  P  P20  1  0.000000  0.650014  0.102458  1
  P  P21  1  0.000000  0.349986  0.102458  1
  Ru  Ru22  1  0.500000  0.500000  0.154515  1
  Ru  Ru23  1  0.000000  0.000000  0.845485  1
  Ru  Ru24  1  0.500000  0.334522  0.990405  1
  Ru  Ru25  1  0.500000  0.665478  0.990405  1
  Ru  Ru26  1  0.000000  0.165478  0.009595  1
  Ru  Ru27  1  0.000000  0.834522  0.009595  1
  Ru  Ru28  1  0.500000  0.299103  0.428720  1
  Ru  Ru29  1  0.500000  0.700897  0.428720  1
  Ru  Ru30  1  0.000000  0.200897  0.571280  1
  Ru  Ru31  1  0.000000  0.799103  0.571280  1
  Ru  Ru32  1  0.500000  0.877429  0.714589  1
  Ru  Ru33  1  0.500000  0.122571  0.714589  1
  Ru  Ru34  1  0.000000  0.622571  0.285411  1
  Ru  Ru35  1  0.000000  0.377429  0.285411  1
