# generated using pymatgen
data_Ba4Os6O19
_symmetry_space_group_name_H-M   'P 1'
_cell_length_a   8.18370094
_cell_length_b   8.18370148
_cell_length_c   8.18370200
_cell_angle_alpha   109.47122439
_cell_angle_beta   109.47122573
_cell_angle_gamma   109.47121771
_symmetry_Int_Tables_number   1
_chemical_formula_structural   Ba4Os6O19
_chemical_formula_sum   'Ba4 Os6 O19'
_cell_volume   421.91737829
_cell_formula_units_Z   1
loop_
 _symmetry_equiv_pos_site_id
 _symmetry_equiv_pos_as_xyz
  1  'x, y, z'
loop_
 _atom_site_type_symbol
 _atom_site_label
 _atom_site_symmetry_multiplicity
 _atom_site_fract_x
 _atom_site_fract_y
 _atom_site_fract_z
 _atom_site_occupancy
  Ba  Ba0  1  0.000000  0.000000  0.311817  1
  Ba  Ba1  1  0.000000  0.311817  0.000000  1
  Ba  Ba2  1  0.688183  0.688183  0.688183  1
  Ba  Ba3  1  0.311817  0.000000  0.000000  1
  Os  Os4  1  0.361614  0.500000  0.861614  1
  Os  Os5  1  0.861614  0.361614  0.500000  1
  Os  Os6  1  0.500000  0.138386  0.638386  1
  Os  Os7  1  0.138386  0.638386  0.500000  1
  Os  Os8  1  0.500000  0.861614  0.361614  1
  Os  Os9  1  0.638386  0.500000  0.138386  1
  O  O10  1  0.339915  0.000000  0.339915  1
  O  O11  1  0.339915  0.339915  0.000000  1
  O  O12  1  0.000000  0.660085  0.660085  1
  O  O13  1  0.660085  0.660085  0.000000  1
  O  O14  1  0.000000  0.339915  0.339915  1
  O  O15  1  0.660085  0.000000  0.660085  1
  O  O16  1  0.000000  0.000000  0.000000  1
  O  O17  1  0.368512  0.301126  0.652680  1
  O  O18  1  0.067385  0.351553  0.698874  1
  O  O19  1  0.715832  0.347320  0.648447  1
  O  O20  1  0.347320  0.648447  0.715832  1
  O  O21  1  0.284168  0.932615  0.631488  1
  O  O22  1  0.652680  0.368512  0.301126  1
  O  O23  1  0.301126  0.652680  0.368512  1
  O  O24  1  0.698874  0.067385  0.351553  1
  O  O25  1  0.932615  0.631488  0.284168  1
  O  O26  1  0.648447  0.715832  0.347320  1
  O  O27  1  0.631488  0.284168  0.932615  1
  O  O28  1  0.351553  0.698874  0.067385  1
