# generated using pymatgen
data_Li3Ac4MgPb4
_symmetry_space_group_name_H-M   'P 1'
_cell_length_a   7.92169099
_cell_length_b   5.08541900
_cell_length_c   8.86814100
_cell_angle_alpha   90.00000000
_cell_angle_beta   89.67303356
_cell_angle_gamma   90.00000000
_symmetry_Int_Tables_number   1
_chemical_formula_structural   Li3Ac4MgPb4
_chemical_formula_sum   'Li3 Ac4 Mg1 Pb4'
_cell_volume   357.24828828
_cell_formula_units_Z   1
loop_
 _symmetry_equiv_pos_site_id
 _symmetry_equiv_pos_as_xyz
  1  'x, y, z'
loop_
 _atom_site_type_symbol
 _atom_site_label
 _atom_site_symmetry_multiplicity
 _atom_site_fract_x
 _atom_site_fract_y
 _atom_site_fract_z
 _atom_site_occupancy
  Li  Li0  1  0.816435  0.749999  0.077801  1
  Li  Li1  1  0.318917  0.749999  0.424165  1
  Li  Li2  1  0.683339  0.249999  0.578694  1
  Ac  Ac3  1  0.505418  0.249999  0.226458  1
  Ac  Ac4  1  0.997383  0.249999  0.279988  1
  Ac  Ac5  1  0.991777  0.749999  0.716389  1
  Ac  Ac6  1  0.499463  0.749999  0.775895  1
  Mg  Mg7  1  0.190370  0.249999  0.918956  1
  Pb  Pb8  1  0.231971  0.749999  0.094128  1
  Pb  Pb9  1  0.724916  0.749999  0.411472  1
  Pb  Pb10  1  0.270262  0.249999  0.583987  1
  Pb  Pb11  1  0.769746  0.249999  0.912066  1
