# generated using pymatgen
data_Ba6Lu3Mn(WO9)2
_symmetry_space_group_name_H-M   'P 1'
_cell_length_a   5.97589748
_cell_length_b   8.33769390
_cell_length_c   10.33649369
_cell_angle_alpha   66.21452352
_cell_angle_beta   73.19783705
_cell_angle_gamma   89.99999728
_symmetry_Int_Tables_number   1
_chemical_formula_structural   Ba6Lu3Mn(WO9)2
_chemical_formula_sum   'Ba6 Lu3 Mn1 W2 O18'
_cell_volume   447.14057370
_cell_formula_units_Z   1
loop_
 _symmetry_equiv_pos_site_id
 _symmetry_equiv_pos_as_xyz
  1  'x, y, z'
loop_
 _atom_site_type_symbol
 _atom_site_label
 _atom_site_symmetry_multiplicity
 _atom_site_fract_x
 _atom_site_fract_y
 _atom_site_fract_z
 _atom_site_occupancy
  Ba  Ba0  1  0.500000  0.271875  0.000000  1
  Ba  Ba1  1  0.841402  0.579219  0.317193  1
  Ba  Ba2  1  0.158598  0.896413  0.682807  1
  Ba  Ba3  1  0.500000  0.728125  0.000000  1
  Ba  Ba4  1  0.841402  0.103587  0.317193  1
  Ba  Ba5  1  0.158598  0.420781  0.682807  1
  Lu  Lu6  1  0.000000  0.000000  0.000000  1
  Lu  Lu7  1  0.332360  0.332360  0.335279  1
  Lu  Lu8  1  0.667640  0.667640  0.664721  1
  Mn  Mn9  1  0.000000  0.500000  0.000000  1
  W  W10  1  0.334018  0.834018  0.331964  1
  W  W11  1  0.665982  0.165982  0.668035  1
  O  O12  1  0.000000  0.261304  0.000000  1
  O  O13  1  0.331759  0.597879  0.336481  1
  O  O14  1  0.668241  0.934362  0.663519  1
  O  O15  1  0.161480  0.413837  0.172325  1
  O  O16  1  0.490923  0.757708  0.484581  1
  O  O17  1  0.822199  0.088261  0.823477  1
  O  O18  1  0.333803  0.586163  0.827675  1
  O  O19  1  0.645677  0.911739  0.176523  1
  O  O20  1  0.975505  0.242292  0.515419  1
  O  O21  1  0.000000  0.738696  0.000000  1
  O  O22  1  0.331759  0.065638  0.336481  1
  O  O23  1  0.668241  0.402121  0.663519  1
  O  O24  1  0.838520  0.586163  0.827675  1
  O  O25  1  0.177801  0.911739  0.176523  1
  O  O26  1  0.509077  0.242292  0.515419  1
  O  O27  1  0.666197  0.413837  0.172325  1
  O  O28  1  0.024495  0.757708  0.484581  1
  O  O29  1  0.354323  0.088261  0.823477  1
