# generated using pymatgen
data_Tm9ScCd3Ni
_symmetry_space_group_name_H-M   'P 1'
_cell_length_a   9.43946300
_cell_length_b   9.43946246
_cell_length_c   9.52362800
_cell_angle_alpha   90.00000000
_cell_angle_beta   90.00000000
_cell_angle_gamma   119.99999137
_symmetry_Int_Tables_number   1
_chemical_formula_structural   Tm9ScCd3Ni
_chemical_formula_sum   'Tm18 Sc2 Cd6 Ni2'
_cell_volume   734.89898041
_cell_formula_units_Z   2
loop_
 _symmetry_equiv_pos_site_id
 _symmetry_equiv_pos_as_xyz
  1  'x, y, z'
loop_
 _atom_site_type_symbol
 _atom_site_label
 _atom_site_symmetry_multiplicity
 _atom_site_fract_x
 _atom_site_fract_y
 _atom_site_fract_z
 _atom_site_occupancy
  Tm  Tm0  1  0.543047  0.456953  0.250000  1
  Tm  Tm1  1  0.543047  0.086093  0.250000  1
  Tm  Tm2  1  0.913907  0.456953  0.250000  1
  Tm  Tm3  1  0.456953  0.543047  0.750000  1
  Tm  Tm4  1  0.456953  0.913907  0.750000  1
  Tm  Tm5  1  0.086093  0.543047  0.750000  1
  Tm  Tm6  1  0.209972  0.790028  0.439076  1
  Tm  Tm7  1  0.209972  0.419944  0.439076  1
  Tm  Tm8  1  0.580056  0.790028  0.439076  1
  Tm  Tm9  1  0.790028  0.209972  0.560924  1
  Tm  Tm10  1  0.790028  0.580056  0.560924  1
  Tm  Tm11  1  0.419944  0.209972  0.560924  1
  Tm  Tm12  1  0.790028  0.209972  0.939076  1
  Tm  Tm13  1  0.790028  0.580056  0.939076  1
  Tm  Tm14  1  0.419944  0.209972  0.939076  1
  Tm  Tm15  1  0.209972  0.790028  0.060924  1
  Tm  Tm16  1  0.209972  0.419944  0.060924  1
  Tm  Tm17  1  0.580056  0.790028  0.060924  1
  Sc  Sc18  1  0.000000  0.000000  0.500000  1
  Sc  Sc19  1  0.000000  0.000000  0.000000  1
  Cd  Cd20  1  0.888013  0.111987  0.250000  1
  Cd  Cd21  1  0.888013  0.776026  0.250000  1
  Cd  Cd22  1  0.223974  0.111987  0.250000  1
  Cd  Cd23  1  0.111987  0.888013  0.750000  1
  Cd  Cd24  1  0.111987  0.223974  0.750000  1
  Cd  Cd25  1  0.776026  0.888013  0.750000  1
  Ni  Ni26  1  0.333333  0.666667  0.250000  1
  Ni  Ni27  1  0.666667  0.333333  0.750000  1
