# generated using pymatgen
data_Ti3MnRe2Ge2P
_symmetry_space_group_name_H-M   'P 1'
_cell_length_a   6.79384976
_cell_length_b   6.79384940
_cell_length_c   3.23361000
_cell_angle_alpha   90.00000000
_cell_angle_beta   90.00000000
_cell_angle_gamma   120.43964617
_symmetry_Int_Tables_number   1
_chemical_formula_structural   Ti3MnRe2Ge2P
_chemical_formula_sum   'Ti3 Mn1 Re2 Ge2 P1'
_cell_volume   128.67940098
_cell_formula_units_Z   1
loop_
 _symmetry_equiv_pos_site_id
 _symmetry_equiv_pos_as_xyz
  1  'x, y, z'
loop_
 _atom_site_type_symbol
 _atom_site_label
 _atom_site_symmetry_multiplicity
 _atom_site_fract_x
 _atom_site_fract_y
 _atom_site_fract_z
 _atom_site_occupancy
  Ti  Ti0  1  0.605094  0.006940  0.000000  1
  Ti  Ti1  1  0.006940  0.605094  0.000000  1
  Ti  Ti2  1  0.392890  0.392890  0.000000  1
  Mn  Mn3  1  0.752240  0.752240  0.500000  1
  Re  Re4  1  0.248705  0.999867  0.500000  1
  Re  Re5  1  0.999867  0.248705  0.500000  1
  Ge  Ge6  1  0.345415  0.670746  0.500000  1
  Ge  Ge7  1  0.670746  0.345415  0.500000  1
  P  P8  1  0.978105  0.978105  0.000000  1
