# generated using pymatgen
data_K6CdGe7Pt8
_symmetry_space_group_name_H-M   'P 1'
_cell_length_a   6.86995535
_cell_length_b   6.86995510
_cell_length_c   11.60583800
_cell_angle_alpha   89.63376082
_cell_angle_beta   89.63376084
_cell_angle_gamma   106.05056440
_symmetry_Int_Tables_number   1
_chemical_formula_structural   K6CdGe7Pt8
_chemical_formula_sum   'K6 Cd1 Ge7 Pt8'
_cell_volume   526.37025928
_cell_formula_units_Z   1
loop_
 _symmetry_equiv_pos_site_id
 _symmetry_equiv_pos_as_xyz
  1  'x, y, z'
loop_
 _atom_site_type_symbol
 _atom_site_label
 _atom_site_symmetry_multiplicity
 _atom_site_fract_x
 _atom_site_fract_y
 _atom_site_fract_z
 _atom_site_occupancy
  K  K0  1  0.195694  0.795975  0.497977  1
  K  K1  1  0.213769  0.802508  0.000714  1
  K  K2  1  0.795975  0.195694  0.497977  1
  K  K3  1  0.802508  0.213769  0.000714  1
  K  K4  1  0.026362  0.026362  0.247558  1
  K  K5  1  0.976996  0.976996  0.744133  1
  Cd  Cd6  1  0.659866  0.659866  0.912266  1
  Ge  Ge7  1  0.508543  0.886054  0.256140  1
  Ge  Ge8  1  0.114973  0.488055  0.753325  1
  Ge  Ge9  1  0.488055  0.114973  0.753325  1
  Ge  Ge10  1  0.886054  0.508543  0.256140  1
  Ge  Ge11  1  0.354054  0.354054  0.417711  1
  Ge  Ge12  1  0.651088  0.651088  0.585286  1
  Ge  Ge13  1  0.360882  0.360882  0.084799  1
  Pt  Pt14  1  0.540642  0.242867  0.252298  1
  Pt  Pt15  1  0.759318  0.441304  0.731290  1
  Pt  Pt16  1  0.441304  0.759318  0.731290  1
  Pt  Pt17  1  0.242867  0.540642  0.252298  1
  Pt  Pt18  1  0.319536  0.319536  0.878406  1
  Pt  Pt19  1  0.653951  0.653951  0.139408  1
  Pt  Pt20  1  0.345658  0.345658  0.627743  1
  Pt  Pt21  1  0.661906  0.661906  0.379203  1
