# generated using pymatgen
data_Ba2TmLu(Si4N7)2
_symmetry_space_group_name_H-M   'P 1'
_cell_length_a   6.06192500
_cell_length_b   6.06192471
_cell_length_c   9.87321200
_cell_angle_alpha   90.00000000
_cell_angle_beta   90.00000000
_cell_angle_gamma   119.99999612
_symmetry_Int_Tables_number   1
_chemical_formula_structural   Ba2TmLu(Si4N7)2
_chemical_formula_sum   'Ba2 Tm1 Lu1 Si8 N14'
_cell_volume   314.20291363
_cell_formula_units_Z   1
loop_
 _symmetry_equiv_pos_site_id
 _symmetry_equiv_pos_as_xyz
  1  'x, y, z'
loop_
 _atom_site_type_symbol
 _atom_site_label
 _atom_site_symmetry_multiplicity
 _atom_site_fract_x
 _atom_site_fract_y
 _atom_site_fract_z
 _atom_site_occupancy
  Ba  Ba0  1  0.666667  0.333333  0.576704  1
  Ba  Ba1  1  0.333333  0.666667  0.076213  1
  Tm  Tm2  1  0.333333  0.666667  0.450035  1
  Lu  Lu3  1  0.666667  0.333333  0.950219  1
  Si  Si4  1  0.174072  0.348144  0.760571  1
  Si  Si5  1  0.825769  0.174231  0.259762  1
  Si  Si6  1  0.348462  0.174231  0.259762  1
  Si  Si7  1  0.651856  0.825928  0.760571  1
  Si  Si8  1  0.174072  0.825928  0.760571  1
  Si  Si9  1  0.825769  0.651538  0.259762  1
  Si  Si10  1  0.000000  0.000000  0.027467  1
  Si  Si11  1  0.000000  0.000000  0.527823  1
  N  N12  1  0.000000  0.000000  0.836334  1
  N  N13  1  0.000000  0.000000  0.335909  1
  N  N14  1  0.845588  0.691176  0.085886  1
  N  N15  1  0.153985  0.846015  0.586840  1
  N  N16  1  0.692030  0.846015  0.586840  1
  N  N17  1  0.308824  0.154412  0.085886  1
  N  N18  1  0.845588  0.154412  0.085886  1
  N  N19  1  0.153985  0.307970  0.586840  1
  N  N20  1  0.489278  0.510722  0.814708  1
  N  N21  1  0.977520  0.488759  0.313879  1
  N  N22  1  0.511241  0.022480  0.313879  1
  N  N23  1  0.489278  0.978557  0.814708  1
  N  N24  1  0.511241  0.488759  0.313879  1
  N  N25  1  0.021443  0.510722  0.814708  1
