# generated using pymatgen
data_CaYV2O6
_symmetry_space_group_name_H-M   'P 1'
_cell_length_a   5.37372411
_cell_length_b   5.60519577
_cell_length_c   7.63095712
_cell_angle_alpha   89.81364489
_cell_angle_beta   89.31703832
_cell_angle_gamma   89.59135895
_symmetry_Int_Tables_number   1
_chemical_formula_structural   CaYV2O6
_chemical_formula_sum   'Ca2 Y2 V4 O12'
_cell_volume   229.82701974
_cell_formula_units_Z   2
loop_
 _symmetry_equiv_pos_site_id
 _symmetry_equiv_pos_as_xyz
  1  'x, y, z'
loop_
 _atom_site_type_symbol
 _atom_site_label
 _atom_site_symmetry_multiplicity
 _atom_site_fract_x
 _atom_site_fract_y
 _atom_site_fract_z
 _atom_site_occupancy
  Ca  Ca0  1  0.982881  0.057111  0.748619  1
  Ca  Ca1  1  0.017112  0.942890  0.251381  1
  Y  Y2  1  0.517282  0.561897  0.750879  1
  Y  Y3  1  0.482729  0.438099  0.249123  1
  V  V4  1  0.000006  0.499999  0.999999  1
  V  V5  1  0.999997  0.500001  0.499998  1
  V  V6  1  0.499992  0.999994  0.499995  1
  V  V7  1  0.499999  0.999999  0.999998  1
  O  O8  1  0.407047  0.966035  0.740928  1
  O  O9  1  0.897105  0.527871  0.240291  1
  O  O10  1  0.102899  0.472132  0.759708  1
  O  O11  1  0.592955  0.033967  0.259069  1
  O  O12  1  0.205253  0.209879  0.054744  1
  O  O13  1  0.208065  0.208313  0.448027  1
  O  O14  1  0.696671  0.308277  0.952062  1
  O  O15  1  0.791935  0.791690  0.551972  1
  O  O16  1  0.309782  0.699005  0.450496  1
  O  O17  1  0.794747  0.790120  0.945260  1
  O  O18  1  0.690216  0.300995  0.549503  1
  O  O19  1  0.303328  0.691726  0.047944  1
