# generated using pymatgen
data_Yb2Sc3Sn4
_symmetry_space_group_name_H-M   'P 1'
_cell_length_a   7.57358000
_cell_length_b   8.11370400
_cell_length_c   15.19164300
_cell_angle_alpha   90.00000000
_cell_angle_beta   90.00000000
_cell_angle_gamma   90.00000000
_symmetry_Int_Tables_number   1
_chemical_formula_structural   Yb2Sc3Sn4
_chemical_formula_sum   'Yb8 Sc12 Sn16'
_cell_volume   933.52321651
_cell_formula_units_Z   4
loop_
 _symmetry_equiv_pos_site_id
 _symmetry_equiv_pos_as_xyz
  1  'x, y, z'
loop_
 _atom_site_type_symbol
 _atom_site_label
 _atom_site_symmetry_multiplicity
 _atom_site_fract_x
 _atom_site_fract_y
 _atom_site_fract_z
 _atom_site_occupancy
  Yb  Yb0  1  0.498415  0.682501  0.591910  1
  Yb  Yb1  1  0.998415  0.817499  0.908090  1
  Yb  Yb2  1  0.501585  0.317499  0.091910  1
  Yb  Yb3  1  0.001585  0.182501  0.408090  1
  Yb  Yb4  1  0.501585  0.317499  0.408090  1
  Yb  Yb5  1  0.001585  0.182501  0.091910  1
  Yb  Yb6  1  0.498415  0.682501  0.908090  1
  Yb  Yb7  1  0.998415  0.817499  0.591910  1
  Sc  Sc8  1  0.672092  0.160435  0.624542  1
  Sc  Sc9  1  0.172092  0.339565  0.875458  1
  Sc  Sc10  1  0.327908  0.839565  0.124542  1
  Sc  Sc11  1  0.827908  0.660435  0.375458  1
  Sc  Sc12  1  0.327908  0.839565  0.375458  1
  Sc  Sc13  1  0.827908  0.660435  0.124542  1
  Sc  Sc14  1  0.672092  0.160435  0.875458  1
  Sc  Sc15  1  0.172092  0.339565  0.624542  1
  Sc  Sc16  1  0.837666  0.503664  0.750000  1
  Sc  Sc17  1  0.337666  0.996336  0.750000  1
  Sc  Sc18  1  0.162334  0.496336  0.250000  1
  Sc  Sc19  1  0.662334  0.003664  0.250000  1
  Sn  Sn20  1  0.673218  0.960319  0.456190  1
  Sn  Sn21  1  0.173218  0.539681  0.043810  1
  Sn  Sn22  1  0.326782  0.039681  0.956190  1
  Sn  Sn23  1  0.826782  0.460319  0.543810  1
  Sn  Sn24  1  0.326782  0.039681  0.543810  1
  Sn  Sn25  1  0.826782  0.460319  0.956190  1
  Sn  Sn26  1  0.673218  0.960319  0.043810  1
  Sn  Sn27  1  0.173218  0.539681  0.456190  1
  Sn  Sn28  1  0.475616  0.369340  0.750000  1
  Sn  Sn29  1  0.975616  0.130660  0.750000  1
  Sn  Sn30  1  0.524384  0.630660  0.250000  1
  Sn  Sn31  1  0.024384  0.869340  0.250000  1
  Sn  Sn32  1  0.703556  0.859106  0.750000  1
  Sn  Sn33  1  0.203556  0.640894  0.750000  1
  Sn  Sn34  1  0.296444  0.140894  0.250000  1
  Sn  Sn35  1  0.796444  0.359106  0.250000  1
