# generated using pymatgen
data_Ho7Lu(Sc3Ge4)4
_symmetry_space_group_name_H-M   'P 1'
_cell_length_a   7.22840912
_cell_length_b   7.46792526
_cell_length_c   14.08126363
_cell_angle_alpha   90.02429409
_cell_angle_beta   90.16320794
_cell_angle_gamma   89.85411247
_symmetry_Int_Tables_number   1
_chemical_formula_structural   Ho7Lu(Sc3Ge4)4
_chemical_formula_sum   'Ho7 Lu1 Sc12 Ge16'
_cell_volume   760.11816340
_cell_formula_units_Z   1
loop_
 _symmetry_equiv_pos_site_id
 _symmetry_equiv_pos_as_xyz
  1  'x, y, z'
loop_
 _atom_site_type_symbol
 _atom_site_label
 _atom_site_symmetry_multiplicity
 _atom_site_fract_x
 _atom_site_fract_y
 _atom_site_fract_z
 _atom_site_occupancy
  Ho  Ho0  1  0.000576  0.823754  0.904023  1
  Ho  Ho1  1  0.499221  0.677558  0.904092  1
  Ho  Ho2  1  0.999130  0.822982  0.596293  1
  Ho  Ho3  1  0.500269  0.322018  0.096369  1
  Ho  Ho4  1  0.001177  0.176533  0.403998  1
  Ho  Ho5  1  0.500627  0.323021  0.402789  1
  Ho  Ho6  1  0.499470  0.676539  0.596390  1
  Lu  Lu7  1  0.998967  0.177091  0.096777  1
  Sc  Sc8  1  0.173376  0.499766  0.750422  1
  Sc  Sc9  1  0.826856  0.499997  0.249476  1
  Sc  Sc10  1  0.326091  0.000464  0.249076  1
  Sc  Sc11  1  0.673648  0.000114  0.750527  1
  Sc  Sc12  1  0.339747  0.168848  0.624657  1
  Sc  Sc13  1  0.660696  0.830933  0.374925  1
  Sc  Sc14  1  0.160449  0.668448  0.374576  1
  Sc  Sc15  1  0.659605  0.832729  0.124078  1
  Sc  Sc16  1  0.839602  0.331348  0.624952  1
  Sc  Sc17  1  0.340684  0.167992  0.875955  1
  Sc  Sc18  1  0.840936  0.331081  0.875233  1
  Sc  Sc19  1  0.159363  0.668891  0.125186  1
  Ge  Ge20  1  0.038726  0.124726  0.749800  1
  Ge  Ge21  1  0.961306  0.876112  0.250267  1
  Ge  Ge22  1  0.462389  0.625580  0.249474  1
  Ge  Ge23  1  0.537897  0.374305  0.750328  1
  Ge  Ge24  1  0.305387  0.861209  0.749946  1
  Ge  Ge25  1  0.695757  0.138712  0.249667  1
  Ge  Ge26  1  0.193473  0.359791  0.249213  1
  Ge  Ge27  1  0.804928  0.639246  0.750055  1
  Ge  Ge28  1  0.177283  0.460009  0.541516  1
  Ge  Ge29  1  0.822793  0.539942  0.458325  1
  Ge  Ge30  1  0.323657  0.959330  0.458213  1
  Ge  Ge31  1  0.822578  0.539310  0.042017  1
  Ge  Ge32  1  0.677021  0.040579  0.541546  1
  Ge  Ge33  1  0.177558  0.459178  0.959005  1
  Ge  Ge34  1  0.681709  0.041480  0.958721  1
  Ge  Ge35  1  0.317050  0.960385  0.042114  1
