# generated using pymatgen
data_SrTbBi2(Rh2O7)2
_symmetry_space_group_name_H-M   'P 1'
_cell_length_a   7.31890080
_cell_length_b   7.31890107
_cell_length_c   7.27734495
_cell_angle_alpha   60.34240150
_cell_angle_beta   60.34239972
_cell_angle_gamma   60.55379950
_symmetry_Int_Tables_number   1
_chemical_formula_structural   SrTbBi2(Rh2O7)2
_chemical_formula_sum   'Sr1 Tb1 Bi2 Rh4 O14'
_cell_volume   278.21566813
_cell_formula_units_Z   1
loop_
 _symmetry_equiv_pos_site_id
 _symmetry_equiv_pos_as_xyz
  1  'x, y, z'
loop_
 _atom_site_type_symbol
 _atom_site_label
 _atom_site_symmetry_multiplicity
 _atom_site_fract_x
 _atom_site_fract_y
 _atom_site_fract_z
 _atom_site_occupancy
  Sr  Sr0  1  0.125000  0.125000  0.125000  1
  Tb  Tb1  1  0.125000  0.125000  0.625000  1
  Bi  Bi2  1  0.125000  0.625000  0.125000  1
  Bi  Bi3  1  0.625000  0.125000  0.125000  1
  Rh  Rh4  1  0.625000  0.625000  0.625000  1
  Rh  Rh5  1  0.625000  0.625000  0.125000  1
  Rh  Rh6  1  0.125000  0.625000  0.625000  1
  Rh  Rh7  1  0.625000  0.125000  0.625000  1
  O  O8  1  0.256158  0.256158  0.257480  1
  O  O9  1  0.296105  0.695935  0.295499  1
  O  O10  1  0.954742  0.954742  0.559152  1
  O  O11  1  0.538067  0.957201  0.543418  1
  O  O12  1  0.705327  0.705327  0.296030  1
  O  O13  1  0.957201  0.538067  0.543418  1
  O  O14  1  0.711933  0.292799  0.706582  1
  O  O15  1  0.295258  0.295258  0.690848  1
  O  O16  1  0.695935  0.296105  0.295499  1
  O  O17  1  0.292799  0.711933  0.706582  1
  O  O18  1  0.953895  0.554065  0.954501  1
  O  O19  1  0.544673  0.544673  0.953970  1
  O  O20  1  0.993842  0.993842  0.992520  1
  O  O21  1  0.554065  0.953895  0.954501  1
