# generated using pymatgen
data_VOs2Br9
_symmetry_space_group_name_H-M   'P 1'
_cell_length_a   8.72494861
_cell_length_b   10.62209700
_cell_length_c   9.51832246
_cell_angle_alpha   90.00000000
_cell_angle_beta   111.26062735
_cell_angle_gamma   90.00000000
_symmetry_Int_Tables_number   1
_chemical_formula_structural   VOs2Br9
_chemical_formula_sum   'V2 Os4 Br18'
_cell_volume   822.09460747
_cell_formula_units_Z   2
loop_
 _symmetry_equiv_pos_site_id
 _symmetry_equiv_pos_as_xyz
  1  'x, y, z'
loop_
 _atom_site_type_symbol
 _atom_site_label
 _atom_site_symmetry_multiplicity
 _atom_site_fract_x
 _atom_site_fract_y
 _atom_site_fract_z
 _atom_site_occupancy
  V  V0  1  0.830748  0.250000  0.147787  1
  V  V1  1  0.169251  0.750000  0.852213  1
  Os  Os2  1  0.835716  0.133421  0.371391  1
  Os  Os3  1  0.835716  0.366578  0.371391  1
  Os  Os4  1  0.164284  0.633421  0.628609  1
  Os  Os5  1  0.164284  0.866579  0.628609  1
  Br  Br6  1  0.427813  0.750000  0.041805  1
  Br  Br7  1  0.081349  0.250000  0.108042  1
  Br  Br8  1  0.830108  0.010725  0.143944  1
  Br  Br9  1  0.830108  0.489275  0.143944  1
  Br  Br10  1  0.544194  0.096399  0.301943  1
  Br  Br11  1  0.544194  0.403601  0.301943  1
  Br  Br12  1  0.153952  0.750000  0.392211  1
  Br  Br13  1  0.144081  0.092236  0.480760  1
  Br  Br14  1  0.144081  0.407763  0.480760  1
  Br  Br15  1  0.855918  0.592236  0.519239  1
  Br  Br16  1  0.855918  0.907764  0.519239  1
  Br  Br17  1  0.846048  0.250000  0.607789  1
  Br  Br18  1  0.455806  0.596398  0.698057  1
  Br  Br19  1  0.455806  0.903602  0.698057  1
  Br  Br20  1  0.169892  0.510725  0.856056  1
  Br  Br21  1  0.169892  0.989276  0.856056  1
  Br  Br22  1  0.918650  0.750000  0.891958  1
  Br  Br23  1  0.572187  0.250000  0.958195  1
