# generated using pymatgen
data_CaNd17(YIr6)2
_symmetry_space_group_name_H-M   'P 1'
_cell_length_a   11.24535600
_cell_length_b   11.24535600
_cell_length_c   6.55310400
_cell_angle_alpha   90.00000000
_cell_angle_beta   90.00000000
_cell_angle_gamma   90.00000000
_symmetry_Int_Tables_number   1
_chemical_formula_structural   CaNd17(YIr6)2
_chemical_formula_sum   'Ca1 Nd17 Y2 Ir12'
_cell_volume   828.69263249
_cell_formula_units_Z   1
loop_
 _symmetry_equiv_pos_site_id
 _symmetry_equiv_pos_as_xyz
  1  'x, y, z'
loop_
 _atom_site_type_symbol
 _atom_site_label
 _atom_site_symmetry_multiplicity
 _atom_site_fract_x
 _atom_site_fract_y
 _atom_site_fract_z
 _atom_site_occupancy
  Ca  Ca0  1  0.000000  0.000000  0.000000  1
  Nd  Nd1  1  0.088160  0.288792  0.114408  1
  Nd  Nd2  1  0.789353  0.411922  0.116037  1
  Nd  Nd3  1  0.210647  0.588078  0.116037  1
  Nd  Nd4  1  0.911840  0.711208  0.114408  1
  Nd  Nd5  1  0.411667  0.788636  0.385252  1
  Nd  Nd6  1  0.588333  0.211364  0.385252  1
  Nd  Nd7  1  0.291944  0.088347  0.384747  1
  Nd  Nd8  1  0.708056  0.911653  0.384747  1
  Nd  Nd9  1  0.411922  0.210647  0.883963  1
  Nd  Nd10  1  0.711208  0.088160  0.885592  1
  Nd  Nd11  1  0.288792  0.911840  0.885592  1
  Nd  Nd12  1  0.588078  0.789353  0.883963  1
  Nd  Nd13  1  0.088347  0.708056  0.615253  1
  Nd  Nd14  1  0.911653  0.291944  0.615253  1
  Nd  Nd15  1  0.211364  0.411667  0.614748  1
  Nd  Nd16  1  0.788636  0.588333  0.614748  1
  Nd  Nd17  1  0.000000  0.000000  0.500000  1
  Y  Y18  1  0.500000  0.500000  0.000000  1
  Y  Y19  1  0.500000  0.500000  0.500000  1
  Ir  Ir20  1  0.156889  0.844878  0.255697  1
  Ir  Ir21  1  0.350261  0.350977  0.248565  1
  Ir  Ir22  1  0.649739  0.649023  0.248565  1
  Ir  Ir23  1  0.843111  0.155122  0.255697  1
  Ir  Ir24  1  0.350977  0.649739  0.751435  1
  Ir  Ir25  1  0.155122  0.156889  0.744303  1
  Ir  Ir26  1  0.844878  0.843111  0.744303  1
  Ir  Ir27  1  0.649023  0.350261  0.751435  1
  Ir  Ir28  1  0.000000  0.500000  0.376795  1
  Ir  Ir29  1  0.500000  0.000000  0.120838  1
  Ir  Ir30  1  0.500000  0.000000  0.623205  1
  Ir  Ir31  1  0.000000  0.500000  0.879162  1
