# generated using pymatgen
data_Yb4As6Ir5Rh2
_symmetry_space_group_name_H-M   'P 1'
_cell_length_a   7.23190817
_cell_length_b   7.23190868
_cell_length_c   7.23223960
_cell_angle_alpha   109.21601891
_cell_angle_beta   109.21601746
_cell_angle_gamma   109.98100200
_symmetry_Int_Tables_number   1
_chemical_formula_structural   Yb4As6Ir5Rh2
_chemical_formula_sum   'Yb4 As6 Ir5 Rh2'
_cell_volume   291.16602499
_cell_formula_units_Z   1
loop_
 _symmetry_equiv_pos_site_id
 _symmetry_equiv_pos_as_xyz
  1  'x, y, z'
loop_
 _atom_site_type_symbol
 _atom_site_label
 _atom_site_symmetry_multiplicity
 _atom_site_fract_x
 _atom_site_fract_y
 _atom_site_fract_z
 _atom_site_occupancy
  Yb  Yb0  1  0.501033  0.498967  0.500000  1
  Yb  Yb1  1  0.997068  0.499088  0.000000  1
  Yb  Yb2  1  0.500912  0.002932  0.000000  1
  Yb  Yb3  1  0.001033  0.998967  0.500000  1
  As  As4  1  0.681218  0.999642  0.680861  1
  As  As5  1  0.680412  0.681317  0.000000  1
  As  As6  1  0.318683  0.319588  0.000000  1
  As  As7  1  0.000338  0.681110  0.681448  1
  As  As8  1  0.000358  0.318782  0.319139  1
  As  As9  1  0.318890  0.999662  0.318552  1
  Ir  Ir10  1  0.498901  0.749623  0.248524  1
  Ir  Ir11  1  0.751135  0.248865  0.500000  1
  Ir  Ir12  1  0.251135  0.748865  0.500000  1
  Ir  Ir13  1  0.250377  0.501099  0.751476  1
  Ir  Ir14  1  0.000095  0.999905  0.000000  1
  Rh  Rh15  1  0.498554  0.250140  0.748694  1
  Rh  Rh16  1  0.749860  0.501446  0.251306  1
