# generated using pymatgen
data_Dy20Tc3Bi8Pt
_symmetry_space_group_name_H-M   'P 1'
_cell_length_a   7.97745907
_cell_length_b   9.09175400
_cell_length_c   12.39455958
_cell_angle_alpha   90.00000000
_cell_angle_beta   90.09596710
_cell_angle_gamma   90.00000000
_symmetry_Int_Tables_number   1
_chemical_formula_structural   Dy20Tc3Bi8Pt
_chemical_formula_sum   'Dy20 Tc3 Bi8 Pt1'
_cell_volume   898.96493384
_cell_formula_units_Z   1
loop_
 _symmetry_equiv_pos_site_id
 _symmetry_equiv_pos_as_xyz
  1  'x, y, z'
loop_
 _atom_site_type_symbol
 _atom_site_label
 _atom_site_symmetry_multiplicity
 _atom_site_fract_x
 _atom_site_fract_y
 _atom_site_fract_z
 _atom_site_occupancy
  Dy  Dy0  1  0.834889  0.750000  0.785058  1
  Dy  Dy1  1  0.159665  0.250000  0.211538  1
  Dy  Dy2  1  0.341722  0.250000  0.709029  1
  Dy  Dy3  1  0.652980  0.750000  0.295535  1
  Dy  Dy4  1  0.377667  0.750000  0.691909  1
  Dy  Dy5  1  0.621450  0.250000  0.307353  1
  Dy  Dy6  1  0.877369  0.250000  0.805861  1
  Dy  Dy7  1  0.128442  0.750000  0.196298  1
  Dy  Dy8  1  0.947336  0.750000  0.503615  1
  Dy  Dy9  1  0.052748  0.250000  0.496046  1
  Dy  Dy10  1  0.448538  0.250000  0.996538  1
  Dy  Dy11  1  0.552877  0.750000  0.004225  1
  Dy  Dy12  1  0.675438  0.041589  0.564205  1
  Dy  Dy13  1  0.323471  0.959876  0.436064  1
  Dy  Dy14  1  0.177738  0.961827  0.933772  1
  Dy  Dy15  1  0.323471  0.540124  0.436064  1
  Dy  Dy16  1  0.823604  0.048229  0.065026  1
  Dy  Dy17  1  0.675438  0.458411  0.564205  1
  Dy  Dy18  1  0.823604  0.451771  0.065026  1
  Dy  Dy19  1  0.177738  0.538173  0.933772  1
  Tc  Tc20  1  0.580631  0.750000  0.514941  1
  Tc  Tc21  1  0.419644  0.250000  0.487767  1
  Tc  Tc22  1  0.079705  0.250000  0.988771  1
  Bi  Bi23  1  0.570373  0.493035  0.827853  1
  Bi  Bi24  1  0.429600  0.507412  0.171803  1
  Bi  Bi25  1  0.071470  0.507322  0.672373  1
  Bi  Bi26  1  0.429600  0.992588  0.171803  1
  Bi  Bi27  1  0.927823  0.493975  0.326977  1
  Bi  Bi28  1  0.570373  0.006965  0.827853  1
  Bi  Bi29  1  0.927823  0.006025  0.326977  1
  Bi  Bi30  1  0.071470  0.992678  0.672373  1
  Pt  Pt31  1  0.925308  0.750000  0.009372  1
