# generated using pymatgen
data_Nd10GaSn3Sb4
_symmetry_space_group_name_H-M   'P 1'
_cell_length_a   8.33684800
_cell_length_b   8.39864800
_cell_length_c   15.95794600
_cell_angle_alpha   90.00000000
_cell_angle_beta   90.00000000
_cell_angle_gamma   90.00000000
_symmetry_Int_Tables_number   1
_chemical_formula_structural   Nd10GaSn3Sb4
_chemical_formula_sum   'Nd20 Ga2 Sn6 Sb8'
_cell_volume   1117.34748094
_cell_formula_units_Z   2
loop_
 _symmetry_equiv_pos_site_id
 _symmetry_equiv_pos_as_xyz
  1  'x, y, z'
loop_
 _atom_site_type_symbol
 _atom_site_label
 _atom_site_symmetry_multiplicity
 _atom_site_fract_x
 _atom_site_fract_y
 _atom_site_fract_z
 _atom_site_occupancy
  Nd  Nd0  1  0.058823  0.176139  0.388723  1
  Nd  Nd1  1  0.404855  0.833832  0.115740  1
  Nd  Nd2  1  0.095145  0.333832  0.615740  1
  Nd  Nd3  1  0.441177  0.676139  0.888723  1
  Nd  Nd4  1  0.905022  0.661011  0.116648  1
  Nd  Nd5  1  0.095145  0.333832  0.884260  1
  Nd  Nd6  1  0.228709  0.496880  0.250000  1
  Nd  Nd7  1  0.735543  0.007930  0.250000  1
  Nd  Nd8  1  0.441177  0.676139  0.611277  1
  Nd  Nd9  1  0.271291  0.996880  0.750000  1
  Nd  Nd10  1  0.594978  0.161011  0.616648  1
  Nd  Nd11  1  0.764457  0.507930  0.750000  1
  Nd  Nd12  1  0.905022  0.661011  0.383352  1
  Nd  Nd13  1  0.058823  0.176139  0.111277  1
  Nd  Nd14  1  0.933420  0.829622  0.889629  1
  Nd  Nd15  1  0.594978  0.161011  0.883352  1
  Nd  Nd16  1  0.566580  0.329622  0.110371  1
  Nd  Nd17  1  0.404855  0.833832  0.384260  1
  Nd  Nd18  1  0.933420  0.829622  0.610371  1
  Nd  Nd19  1  0.566580  0.329622  0.389629  1
  Ga  Ga20  1  0.636621  0.868834  0.750000  1
  Ga  Ga21  1  0.863379  0.368834  0.250000  1
  Sn  Sn22  1  0.608629  0.621234  0.250000  1
  Sn  Sn23  1  0.396097  0.374120  0.750000  1
  Sn  Sn24  1  0.136363  0.633868  0.750000  1
  Sn  Sn25  1  0.891371  0.121234  0.750000  1
  Sn  Sn26  1  0.363637  0.133868  0.250000  1
  Sn  Sn27  1  0.103903  0.874120  0.250000  1
  Sb  Sb28  1  0.759778  0.487576  0.547670  1
  Sb  Sb29  1  0.740222  0.987576  0.452330  1
  Sb  Sb30  1  0.242635  0.510388  0.452970  1
  Sb  Sb31  1  0.257365  0.010388  0.952970  1
  Sb  Sb32  1  0.759778  0.487576  0.952330  1
  Sb  Sb33  1  0.242635  0.510388  0.047030  1
  Sb  Sb34  1  0.257365  0.010388  0.547030  1
  Sb  Sb35  1  0.740222  0.987576  0.047670  1
