# generated using pymatgen
data_Ba2TbUS6
_symmetry_space_group_name_H-M   'P 1'
_cell_length_a   7.34652542
_cell_length_b   7.34642488
_cell_length_c   7.52448600
_cell_angle_alpha   119.86560526
_cell_angle_beta   119.86515500
_cell_angle_gamma   60.02478794
_symmetry_Int_Tables_number   1
_chemical_formula_structural   Ba2TbUS6
_chemical_formula_sum   'Ba2 Tb1 U1 S6'
_cell_volume   287.79430338
_cell_formula_units_Z   1
loop_
 _symmetry_equiv_pos_site_id
 _symmetry_equiv_pos_as_xyz
  1  'x, y, z'
loop_
 _atom_site_type_symbol
 _atom_site_label
 _atom_site_symmetry_multiplicity
 _atom_site_fract_x
 _atom_site_fract_y
 _atom_site_fract_z
 _atom_site_occupancy
  Ba  Ba0  1  0.747611  0.747611  0.231774  1
  Ba  Ba1  1  0.252389  0.252389  0.768225  1
  Tb  Tb2  1  0.500000  0.500000  0.500000  1
  U  U3  1  0.000000  0.000000  0.000000  1
  S  S4  1  0.701400  0.195406  0.191998  1
  S  S5  1  0.195401  0.701399  0.192000  1
  S  S6  1  0.242711  0.242704  0.333592  1
  S  S7  1  0.757289  0.757296  0.666409  1
  S  S8  1  0.804598  0.298601  0.807999  1
  S  S9  1  0.298600  0.804593  0.808001  1
