# generated using pymatgen
data_LuHf5Sc2(V3Si4)4
_symmetry_space_group_name_H-M   'P 1'
_cell_length_a   6.62524039
_cell_length_b   6.62505885
_cell_length_c   12.27267363
_cell_angle_alpha   90.05402984
_cell_angle_beta   89.98326021
_cell_angle_gamma   89.91113831
_symmetry_Int_Tables_number   1
_chemical_formula_structural   LuHf5Sc2(V3Si4)4
_chemical_formula_sum   'Lu1 Hf5 Sc2 V12 Si16'
_cell_volume   538.67873663
_cell_formula_units_Z   1
loop_
 _symmetry_equiv_pos_site_id
 _symmetry_equiv_pos_as_xyz
  1  'x, y, z'
loop_
 _atom_site_type_symbol
 _atom_site_label
 _atom_site_symmetry_multiplicity
 _atom_site_fract_x
 _atom_site_fract_y
 _atom_site_fract_z
 _atom_site_occupancy
  Lu  Lu0  1  0.000920  0.335959  0.529267  1
  Hf  Hf1  1  0.003770  0.660781  0.029834  1
  Hf  Hf2  1  0.836898  0.503818  0.280186  1
  Hf  Hf3  1  0.162609  0.496263  0.780637  1
  Hf  Hf4  1  0.503988  0.836812  0.720583  1
  Hf  Hf5  1  0.496858  0.162861  0.218897  1
  Sc  Sc6  1  0.663038  0.001270  0.970923  1
  Sc  Sc7  1  0.338874  0.997506  0.470023  1
  V  V8  1  0.331271  0.334737  0.000044  1
  V  V9  1  0.167182  0.833039  0.248624  1
  V  V10  1  0.832732  0.165886  0.750713  1
  V  V11  1  0.666742  0.667531  0.499888  1
  V  V12  1  0.004327  0.159779  0.126170  1
  V  V13  1  0.341349  0.507400  0.374333  1
  V  V14  1  0.658682  0.495406  0.876609  1
  V  V15  1  0.504506  0.342022  0.625232  1
  V  V16  1  0.494927  0.658802  0.123618  1
  V  V17  1  0.994419  0.840234  0.628308  1
  V  V18  1  0.158732  0.003207  0.873977  1
  V  V19  1  0.838537  0.996021  0.371448  1
  Si  Si20  1  0.292609  0.961462  0.063504  1
  Si  Si21  1  0.538199  0.794215  0.314720  1
  Si  Si22  1  0.462427  0.206061  0.816204  1
  Si  Si23  1  0.791933  0.539010  0.686255  1
  Si  Si24  1  0.207584  0.461198  0.185356  1
  Si  Si25  1  0.705855  0.037247  0.563882  1
  Si  Si26  1  0.959231  0.289842  0.935545  1
  Si  Si27  1  0.039534  0.712962  0.435349  1
  Si  Si28  1  0.704084  0.371924  0.070844  1
  Si  Si29  1  0.128751  0.202656  0.318749  1
  Si  Si30  1  0.871616  0.794855  0.822122  1
  Si  Si31  1  0.207177  0.124550  0.681552  1
  Si  Si32  1  0.794861  0.872577  0.178703  1
  Si  Si33  1  0.298227  0.631050  0.570726  1
  Si  Si34  1  0.373349  0.705018  0.928578  1
  Si  Si35  1  0.624201  0.296040  0.428600  1
