# generated using pymatgen
data_Tb5Dy(Zn3C)2
_symmetry_space_group_name_H-M   'P 1'
_cell_length_a   9.21432450
_cell_length_b   9.21432442
_cell_length_c   9.21334787
_cell_angle_alpha   59.96275072
_cell_angle_beta   59.96274989
_cell_angle_gamma   59.99251437
_symmetry_Int_Tables_number   1
_chemical_formula_structural   Tb5Dy(Zn3C)2
_chemical_formula_sum   'Tb10 Dy2 Zn12 C4'
_cell_volume   552.78999735
_cell_formula_units_Z   2
loop_
 _symmetry_equiv_pos_site_id
 _symmetry_equiv_pos_as_xyz
  1  'x, y, z'
loop_
 _atom_site_type_symbol
 _atom_site_label
 _atom_site_symmetry_multiplicity
 _atom_site_fract_x
 _atom_site_fract_y
 _atom_site_fract_z
 _atom_site_occupancy
  Tb  Tb0  1  0.447443  0.447443  0.052451  1
  Tb  Tb1  1  0.052624  0.447509  0.052520  1
  Tb  Tb2  1  0.447509  0.052624  0.052520  1
  Tb  Tb3  1  0.052557  0.052557  0.447605  1
  Tb  Tb4  1  0.447278  0.052589  0.447439  1
  Tb  Tb5  1  0.052589  0.447278  0.447439  1
  Tb  Tb6  1  0.802691  0.802691  0.197185  1
  Tb  Tb7  1  0.197431  0.802633  0.197303  1
  Tb  Tb8  1  0.802633  0.197431  0.197303  1
  Tb  Tb9  1  0.197309  0.197309  0.802689  1
  Dy  Dy10  1  0.802856  0.197076  0.802870  1
  Dy  Dy11  1  0.197076  0.802856  0.802870  1
  Zn  Zn12  1  0.826057  0.826057  0.521773  1
  Zn  Zn13  1  0.826097  0.521689  0.826041  1
  Zn  Zn14  1  0.521689  0.826097  0.826041  1
  Zn  Zn15  1  0.826158  0.826158  0.826081  1
  Zn  Zn16  1  0.423983  0.423983  0.728256  1
  Zn  Zn17  1  0.423850  0.728212  0.424051  1
  Zn  Zn18  1  0.728212  0.423850  0.424051  1
  Zn  Zn19  1  0.423956  0.423956  0.423918  1
  Zn  Zn20  1  0.625009  0.625009  0.124993  1
  Zn  Zn21  1  0.625060  0.125006  0.625079  1
  Zn  Zn22  1  0.125006  0.625060  0.625079  1
  Zn  Zn23  1  0.624926  0.624926  0.625130  1
  C  C24  1  0.124543  0.124543  0.625600  1
  C  C25  1  0.125144  0.625325  0.124372  1
  C  C26  1  0.625325  0.125144  0.124372  1
  C  C27  1  0.124988  0.124988  0.124971  1
