# generated using pymatgen
data_PrY3AgRh
_symmetry_space_group_name_H-M   'P 1'
_cell_length_a   9.67794592
_cell_length_b   9.68561514
_cell_length_c   9.68561403
_cell_angle_alpha   59.94762399
_cell_angle_beta   60.02618888
_cell_angle_gamma   60.02618566
_symmetry_Int_Tables_number   1
_chemical_formula_structural   PrY3AgRh
_chemical_formula_sum   'Pr4 Y12 Ag4 Rh4'
_cell_volume   641.98075789
_cell_formula_units_Z   4
loop_
 _symmetry_equiv_pos_site_id
 _symmetry_equiv_pos_as_xyz
  1  'x, y, z'
loop_
 _atom_site_type_symbol
 _atom_site_label
 _atom_site_symmetry_multiplicity
 _atom_site_fract_x
 _atom_site_fract_y
 _atom_site_fract_z
 _atom_site_occupancy
  Pr  Pr0  1  0.563779  0.936221  0.563779  1
  Pr  Pr1  1  0.936221  0.563779  0.936221  1
  Pr  Pr2  1  0.563779  0.563779  0.936221  1
  Pr  Pr3  1  0.936221  0.936221  0.563779  1
  Y  Y4  1  0.353554  0.351471  0.351471  1
  Y  Y5  1  0.351471  0.353554  0.943502  1
  Y  Y6  1  0.351471  0.943502  0.353554  1
  Y  Y7  1  0.943502  0.351471  0.351471  1
  Y  Y8  1  0.814566  0.185434  0.185434  1
  Y  Y9  1  0.185434  0.814567  0.814566  1
  Y  Y10  1  0.187221  0.812779  0.187220  1
  Y  Y11  1  0.812779  0.187221  0.812779  1
  Y  Y12  1  0.187221  0.187221  0.812779  1
  Y  Y13  1  0.812780  0.812780  0.187220  1
  Y  Y14  1  0.941628  0.558372  0.558372  1
  Y  Y15  1  0.558372  0.941628  0.941628  1
  Ag  Ag16  1  0.584039  0.578264  0.578264  1
  Ag  Ag17  1  0.578264  0.584039  0.259432  1
  Ag  Ag18  1  0.578264  0.259432  0.584039  1
  Ag  Ag19  1  0.259432  0.578264  0.578264  1
  Rh  Rh20  1  0.147022  0.141007  0.141007  1
  Rh  Rh21  1  0.141007  0.147022  0.570966  1
  Rh  Rh22  1  0.141007  0.570966  0.147022  1
  Rh  Rh23  1  0.570966  0.141007  0.141007  1
