# generated using pymatgen
data_Ta4Hg3PbO14
_symmetry_space_group_name_H-M   'P 1'
_cell_length_a   7.57655300
_cell_length_b   7.57655290
_cell_length_c   7.57655291
_cell_angle_alpha   59.20945298
_cell_angle_beta   59.20945348
_cell_angle_gamma   59.20945358
_symmetry_Int_Tables_number   1
_chemical_formula_structural   Ta4Hg3PbO14
_chemical_formula_sum   'Ta4 Hg3 Pb1 O14'
_cell_volume   301.99991582
_cell_formula_units_Z   1
loop_
 _symmetry_equiv_pos_site_id
 _symmetry_equiv_pos_as_xyz
  1  'x, y, z'
loop_
 _atom_site_type_symbol
 _atom_site_label
 _atom_site_symmetry_multiplicity
 _atom_site_fract_x
 _atom_site_fract_y
 _atom_site_fract_z
 _atom_site_occupancy
  Ta  Ta0  1  0.125000  0.625000  0.125000  1
  Ta  Ta1  1  0.125000  0.125000  0.625000  1
  Ta  Ta2  1  0.625000  0.125000  0.125000  1
  Ta  Ta3  1  0.125000  0.125000  0.125000  1
  Hg  Hg4  1  0.125000  0.625000  0.625000  1
  Hg  Hg5  1  0.625000  0.125000  0.625000  1
  Hg  Hg6  1  0.625000  0.625000  0.125000  1
  Pb  Pb7  1  0.625000  0.625000  0.625000  1
  O  O8  1  0.762020  0.762020  0.762020  1
  O  O9  1  0.193677  0.810827  0.810827  1
  O  O10  1  0.185699  0.812752  0.185699  1
  O  O11  1  0.810827  0.193677  0.810827  1
  O  O12  1  0.185699  0.185699  0.812752  1
  O  O13  1  0.810827  0.810827  0.193677  1
  O  O14  1  0.437248  0.064301  0.064301  1
  O  O15  1  0.812752  0.185699  0.185699  1
  O  O16  1  0.064301  0.437248  0.064301  1
  O  O17  1  0.064301  0.064301  0.437248  1
  O  O18  1  0.439173  0.439173  0.056323  1
  O  O19  1  0.439173  0.056323  0.439173  1
  O  O20  1  0.056323  0.439173  0.439173  1
  O  O21  1  0.487980  0.487980  0.487980  1
