# generated using pymatgen
data_LaNdNiB10
_symmetry_space_group_name_H-M   'P 1'
_cell_length_a   4.21181200
_cell_length_b   5.66561171
_cell_length_c   11.27518078
_cell_angle_alpha   89.91337419
_cell_angle_beta   90.00000000
_cell_angle_gamma   90.00000000
_symmetry_Int_Tables_number   1
_chemical_formula_structural   LaNdNiB10
_chemical_formula_sum   'La2 Nd2 Ni2 B20'
_cell_volume   269.05359655
_cell_formula_units_Z   2
loop_
 _symmetry_equiv_pos_site_id
 _symmetry_equiv_pos_as_xyz
  1  'x, y, z'
loop_
 _atom_site_type_symbol
 _atom_site_label
 _atom_site_symmetry_multiplicity
 _atom_site_fract_x
 _atom_site_fract_y
 _atom_site_fract_z
 _atom_site_occupancy
  La  La0  1  0.500000  0.308182  0.862832  1
  La  La1  1  0.500000  0.691818  0.137168  1
  Nd  Nd2  1  0.500000  0.808521  0.635991  1
  Nd  Nd3  1  0.500000  0.191479  0.364009  1
  Ni  Ni4  1  0.000000  0.500000  0.500000  1
  Ni  Ni5  1  0.000000  0.000000  0.000000  1
  B  B6  1  0.000000  0.125599  0.541057  1
  B  B7  1  0.000000  0.874401  0.458943  1
  B  B8  1  0.000000  0.625825  0.957862  1
  B  B9  1  0.000000  0.374175  0.042138  1
  B  B10  1  0.000000  0.155207  0.696768  1
  B  B11  1  0.000000  0.844793  0.303232  1
  B  B12  1  0.299515  0.202479  0.114804  1
  B  B13  1  0.299515  0.797521  0.885196  1
  B  B14  1  0.700069  0.702895  0.386783  1
  B  B15  1  0.700069  0.297105  0.613217  1
  B  B16  1  0.700485  0.797521  0.885196  1
  B  B17  1  0.700485  0.202479  0.114804  1
  B  B18  1  0.299931  0.297105  0.613217  1
  B  B19  1  0.299931  0.702895  0.386783  1
  B  B20  1  0.000000  0.036567  0.188458  1
  B  B21  1  0.000000  0.963433  0.811542  1
  B  B22  1  0.000000  0.536609  0.312412  1
  B  B23  1  0.000000  0.463391  0.687588  1
  B  B24  1  0.000000  0.345392  0.198034  1
  B  B25  1  0.000000  0.654608  0.801966  1
