# generated using pymatgen
data_Y13Er3(InRu)4
_symmetry_space_group_name_H-M   'P 1'
_cell_length_a   9.69578986
_cell_length_b   9.73068447
_cell_length_c   9.66827255
_cell_angle_alpha   59.68242153
_cell_angle_beta   59.50818130
_cell_angle_gamma   59.53032111
_symmetry_Int_Tables_number   1
_chemical_formula_structural   Y13Er3(InRu)4
_chemical_formula_sum   'Y13 Er3 In4 Ru4'
_cell_volume   638.74609517
_cell_formula_units_Z   1
loop_
 _symmetry_equiv_pos_site_id
 _symmetry_equiv_pos_as_xyz
  1  'x, y, z'
loop_
 _atom_site_type_symbol
 _atom_site_label
 _atom_site_symmetry_multiplicity
 _atom_site_fract_x
 _atom_site_fract_y
 _atom_site_fract_z
 _atom_site_occupancy
  Y  Y0  1  0.303461  0.693897  0.305330  1
  Y  Y1  1  0.937805  0.558809  0.558090  1
  Y  Y2  1  0.308061  0.311490  0.687889  1
  Y  Y3  1  0.101474  0.103444  0.098390  1
  Y  Y4  1  0.556744  0.557171  0.939286  1
  Y  Y5  1  0.097683  0.099422  0.707901  1
  Y  Y6  1  0.689306  0.308466  0.688995  1
  Y  Y7  1  0.690623  0.689609  0.306956  1
  Y  Y8  1  0.691305  0.307594  0.306734  1
  Y  Y9  1  0.303704  0.692605  0.693372  1
  Y  Y10  1  0.558069  0.938691  0.558418  1
  Y  Y11  1  0.709485  0.095718  0.097629  1
  Y  Y12  1  0.559473  0.941679  0.939466  1
  Er  Er13  1  0.094762  0.707118  0.098633  1
  Er  Er14  1  0.941209  0.942057  0.558576  1
  Er  Er15  1  0.941378  0.559110  0.940516  1
  In  In16  1  0.332180  0.330653  0.333750  1
  In  In17  1  0.002631  0.333685  0.332843  1
  In  In18  1  0.334500  0.001452  0.332052  1
  In  In19  1  0.332815  0.331737  0.003303  1
  Ru  Ru20  1  0.894162  0.883239  0.887990  1
  Ru  Ru21  1  0.899082  0.891521  0.329952  1
  Ru  Ru22  1  0.328481  0.886531  0.898889  1
  Ru  Ru23  1  0.891608  0.334302  0.895040  1
