# generated using pymatgen
data_Tb4MnAl18Ni5
_symmetry_space_group_name_H-M   'P 1'
_cell_length_a   7.42038454
_cell_length_b   7.42038432
_cell_length_c   9.31985917
_cell_angle_alpha   89.84935651
_cell_angle_beta   89.84935523
_cell_angle_gamma   119.15640430
_symmetry_Int_Tables_number   1
_chemical_formula_structural   Tb4MnAl18Ni5
_chemical_formula_sum   'Tb4 Mn1 Al18 Ni5'
_cell_volume   448.14267350
_cell_formula_units_Z   1
loop_
 _symmetry_equiv_pos_site_id
 _symmetry_equiv_pos_as_xyz
  1  'x, y, z'
loop_
 _atom_site_type_symbol
 _atom_site_label
 _atom_site_symmetry_multiplicity
 _atom_site_fract_x
 _atom_site_fract_y
 _atom_site_fract_z
 _atom_site_occupancy
  Tb  Tb0  1  0.994158  0.672267  0.249039  1
  Tb  Tb1  1  0.005842  0.327733  0.750961  1
  Tb  Tb2  1  0.672267  0.994158  0.249039  1
  Tb  Tb3  1  0.327733  0.005842  0.750961  1
  Mn  Mn4  1  0.000000  0.000000  0.000000  1
  Al  Al5  1  0.125849  0.125849  0.246876  1
  Al  Al6  1  0.874151  0.874151  0.753124  1
  Al  Al7  1  0.997787  0.331007  0.070376  1
  Al  Al8  1  0.002213  0.668993  0.929624  1
  Al  Al9  1  0.000828  0.663940  0.573397  1
  Al  Al10  1  0.336060  0.999172  0.426603  1
  Al  Al11  1  0.999172  0.336060  0.426603  1
  Al  Al12  1  0.663940  0.000828  0.573397  1
  Al  Al13  1  0.668993  0.002213  0.929624  1
  Al  Al14  1  0.331007  0.997787  0.070376  1
  Al  Al15  1  0.333132  0.333132  0.548436  1
  Al  Al16  1  0.666868  0.666868  0.451564  1
  Al  Al17  1  0.669685  0.669685  0.045355  1
  Al  Al18  1  0.330315  0.330315  0.954645  1
  Al  Al19  1  0.340281  0.552260  0.249384  1
  Al  Al20  1  0.659719  0.447740  0.750616  1
  Al  Al21  1  0.552260  0.340281  0.249384  1
  Al  Al22  1  0.447740  0.659719  0.750616  1
  Ni  Ni23  1  0.670734  0.329266  0.000000  1
  Ni  Ni24  1  0.329266  0.670734  0.000000  1
  Ni  Ni25  1  0.329087  0.670913  0.500000  1
  Ni  Ni26  1  0.670913  0.329087  0.500000  1
  Ni  Ni27  1  0.000000  0.000000  0.500000  1
