# generated using pymatgen
data_MnNb20AlPt8
_symmetry_space_group_name_H-M   'P 1'
_cell_length_a   9.96662059
_cell_length_b   9.96662059
_cell_length_c   5.21106500
_cell_angle_alpha   90.00000000
_cell_angle_beta   90.00000000
_cell_angle_gamma   90.27445790
_symmetry_Int_Tables_number   1
_chemical_formula_structural   MnNb20AlPt8
_chemical_formula_sum   'Mn1 Nb20 Al1 Pt8'
_cell_volume   517.62752146
_cell_formula_units_Z   1
loop_
 _symmetry_equiv_pos_site_id
 _symmetry_equiv_pos_as_xyz
  1  'x, y, z'
loop_
 _atom_site_type_symbol
 _atom_site_label
 _atom_site_symmetry_multiplicity
 _atom_site_fract_x
 _atom_site_fract_y
 _atom_site_fract_z
 _atom_site_occupancy
  Mn  Mn0  1  0.000000  0.000000  0.000000  1
  Nb  Nb1  1  0.398378  0.398378  0.000000  1
  Nb  Nb2  1  0.897270  0.102730  0.500000  1
  Nb  Nb3  1  0.102730  0.897270  0.500000  1
  Nb  Nb4  1  0.601622  0.601622  0.000000  1
  Nb  Nb5  1  0.126807  0.461850  0.000000  1
  Nb  Nb6  1  0.963100  0.373426  0.500000  1
  Nb  Nb7  1  0.036900  0.626574  0.500000  1
  Nb  Nb8  1  0.873193  0.538150  0.000000  1
  Nb  Nb9  1  0.373426  0.963100  0.500000  1
  Nb  Nb10  1  0.626574  0.036900  0.500000  1
  Nb  Nb11  1  0.461850  0.126807  0.000000  1
  Nb  Nb12  1  0.538150  0.873193  0.000000  1
  Nb  Nb13  1  0.180123  0.180123  0.253386  1
  Nb  Nb14  1  0.683071  0.316929  0.753692  1
  Nb  Nb15  1  0.316929  0.683071  0.753692  1
  Nb  Nb16  1  0.819877  0.819877  0.253386  1
  Nb  Nb17  1  0.316929  0.683071  0.246308  1
  Nb  Nb18  1  0.683071  0.316929  0.246308  1
  Nb  Nb19  1  0.180123  0.180123  0.746614  1
  Nb  Nb20  1  0.819877  0.819877  0.746614  1
  Al  Al21  1  0.500000  0.500000  0.500000  1
  Pt  Pt22  1  0.257525  0.935894  0.000000  1
  Pt  Pt23  1  0.436527  0.238801  0.500000  1
  Pt  Pt24  1  0.563473  0.761199  0.500000  1
  Pt  Pt25  1  0.742475  0.064106  0.000000  1
  Pt  Pt26  1  0.238801  0.436527  0.500000  1
  Pt  Pt27  1  0.761199  0.563473  0.500000  1
  Pt  Pt28  1  0.935894  0.257525  0.000000  1
  Pt  Pt29  1  0.064106  0.742475  0.000000  1
