# generated using pymatgen
data_Re3Tc3Rh2
_symmetry_space_group_name_H-M   'P 1'
_cell_length_a   5.55063800
_cell_length_b   5.55063755
_cell_length_c   4.38575100
_cell_angle_alpha   90.00000000
_cell_angle_beta   90.00000000
_cell_angle_gamma   120.00000266
_symmetry_Int_Tables_number   1
_chemical_formula_structural   Re3Tc3Rh2
_chemical_formula_sum   'Re3 Tc3 Rh2'
_cell_volume   117.02007317
_cell_formula_units_Z   1
loop_
 _symmetry_equiv_pos_site_id
 _symmetry_equiv_pos_as_xyz
  1  'x, y, z'
loop_
 _atom_site_type_symbol
 _atom_site_label
 _atom_site_symmetry_multiplicity
 _atom_site_fract_x
 _atom_site_fract_y
 _atom_site_fract_z
 _atom_site_occupancy
  Re  Re0  1  0.161035  0.322071  0.250000  1
  Re  Re1  1  0.677929  0.838965  0.250000  1
  Re  Re2  1  0.161035  0.838965  0.250000  1
  Tc  Tc3  1  0.839481  0.678963  0.750000  1
  Tc  Tc4  1  0.321037  0.160519  0.750000  1
  Tc  Tc5  1  0.839481  0.160519  0.750000  1
  Rh  Rh6  1  0.333333  0.666667  0.750000  1
  Rh  Rh7  1  0.666667  0.333333  0.250000  1
