# generated using pymatgen
data_Nd5Tm3(Sc3Sn4)4
_symmetry_space_group_name_H-M   'P 1'
_cell_length_a   7.75693798
_cell_length_b   7.99842920
_cell_length_c   14.93374408
_cell_angle_alpha   89.98904487
_cell_angle_beta   89.79905949
_cell_angle_gamma   90.08408759
_symmetry_Int_Tables_number   1
_chemical_formula_structural   Nd5Tm3(Sc3Sn4)4
_chemical_formula_sum   'Nd5 Tm3 Sc12 Sn16'
_cell_volume   926.53233781
_cell_formula_units_Z   1
loop_
 _symmetry_equiv_pos_site_id
 _symmetry_equiv_pos_as_xyz
  1  'x, y, z'
loop_
 _atom_site_type_symbol
 _atom_site_label
 _atom_site_symmetry_multiplicity
 _atom_site_fract_x
 _atom_site_fract_y
 _atom_site_fract_z
 _atom_site_occupancy
  Nd  Nd0  1  0.994929  0.174834  0.095426  1
  Nd  Nd1  1  0.005773  0.825196  0.903870  1
  Nd  Nd2  1  0.504638  0.674353  0.906429  1
  Nd  Nd3  1  0.005147  0.824142  0.592016  1
  Nd  Nd4  1  0.495285  0.324747  0.095450  1
  Tm  Tm5  1  0.993101  0.178813  0.405679  1
  Tm  Tm6  1  0.491380  0.322291  0.405678  1
  Tm  Tm7  1  0.507740  0.676865  0.593287  1
  Sc  Sc8  1  0.166605  0.495483  0.748833  1
  Sc  Sc9  1  0.833709  0.504123  0.251434  1
  Sc  Sc10  1  0.334066  0.995647  0.251469  1
  Sc  Sc11  1  0.666137  0.005283  0.748893  1
  Sc  Sc12  1  0.338251  0.162114  0.626831  1
  Sc  Sc13  1  0.662270  0.838522  0.373073  1
  Sc  Sc14  1  0.163039  0.659923  0.373313  1
  Sc  Sc15  1  0.663399  0.839460  0.129003  1
  Sc  Sc16  1  0.838105  0.338891  0.626138  1
  Sc  Sc17  1  0.337194  0.160656  0.871587  1
  Sc  Sc18  1  0.836485  0.338787  0.871953  1
  Sc  Sc19  1  0.163323  0.660961  0.128981  1
  Sn  Sn20  1  0.028771  0.127853  0.749151  1
  Sn  Sn21  1  0.971908  0.874399  0.251471  1
  Sn  Sn22  1  0.471810  0.625324  0.251038  1
  Sn  Sn23  1  0.528459  0.374496  0.748901  1
  Sn  Sn24  1  0.311379  0.851278  0.747206  1
  Sn  Sn25  1  0.691553  0.149112  0.254039  1
  Sn  Sn26  1  0.191568  0.350751  0.253913  1
  Sn  Sn27  1  0.805381  0.646220  0.748129  1
  Sn  Sn28  1  0.185308  0.455561  0.541804  1
  Sn  Sn29  1  0.814648  0.539449  0.456628  1
  Sn  Sn30  1  0.320497  0.959794  0.456009  1
  Sn  Sn31  1  0.824223  0.544507  0.043410  1
  Sn  Sn32  1  0.677815  0.044503  0.541700  1
  Sn  Sn33  1  0.175615  0.455795  0.956933  1
  Sn  Sn34  1  0.676763  0.043932  0.956962  1
  Sn  Sn35  1  0.323722  0.955935  0.043364  1
