# generated using pymatgen
data_LiMg3Co6(B2Ru)4
_symmetry_space_group_name_H-M   'P 1'
_cell_length_a   2.90081600
_cell_length_b   8.12353470
_cell_length_c   9.34607932
_cell_angle_alpha   89.75469575
_cell_angle_beta   90.00000000
_cell_angle_gamma   90.00000000
_symmetry_Int_Tables_number   1
_chemical_formula_structural   LiMg3Co6(B2Ru)4
_chemical_formula_sum   'Li1 Mg3 Co6 B8 Ru4'
_cell_volume   220.23721373
_cell_formula_units_Z   1
loop_
 _symmetry_equiv_pos_site_id
 _symmetry_equiv_pos_as_xyz
  1  'x, y, z'
loop_
 _atom_site_type_symbol
 _atom_site_label
 _atom_site_symmetry_multiplicity
 _atom_site_fract_x
 _atom_site_fract_y
 _atom_site_fract_z
 _atom_site_occupancy
  Li  Li0  1  0.500000  0.660893  0.818071  1
  Mg  Mg1  1  0.500000  0.339276  0.179638  1
  Mg  Mg2  1  0.500000  0.161225  0.683098  1
  Mg  Mg3  1  0.500000  0.838211  0.318711  1
  Co  Co4  1  0.000000  0.411816  0.744209  1
  Co  Co5  1  0.000000  0.591627  0.255605  1
  Co  Co6  1  0.000000  0.902282  0.757771  1
  Co  Co7  1  0.000000  0.091774  0.243767  1
  Co  Co8  1  0.000000  0.998955  0.501081  1
  Co  Co9  1  0.000000  0.503580  0.997009  1
  B  B10  1  0.500000  0.863131  0.605874  1
  B  B11  1  0.500000  0.134413  0.397993  1
  B  B12  1  0.500000  0.369226  0.896547  1
  B  B13  1  0.500000  0.634318  0.099657  1
  B  B14  1  0.500000  0.959656  0.902303  1
  B  B15  1  0.500000  0.035996  0.096649  1
  B  B16  1  0.500000  0.465854  0.599233  1
  B  B17  1  0.500000  0.537666  0.403018  1
  Ru  Ru18  1  0.000000  0.663319  0.546573  1
  Ru  Ru19  1  0.000000  0.336121  0.453778  1
  Ru  Ru20  1  0.000000  0.164151  0.952489  1
  Ru  Ru21  1  0.000000  0.836510  0.046924  1
