# generated using pymatgen
data_Eu5Ho15Pb16
_symmetry_space_group_name_H-M   'P 1'
_cell_length_a   8.22419666
_cell_length_b   8.30910935
_cell_length_c   15.66840300
_cell_angle_alpha   90.00824017
_cell_angle_beta   89.75423382
_cell_angle_gamma   89.71996763
_symmetry_Int_Tables_number   1
_chemical_formula_structural   Eu5Ho15Pb16
_chemical_formula_sum   'Eu5 Ho15 Pb16'
_cell_volume   1070.68940800
_cell_formula_units_Z   1
loop_
 _symmetry_equiv_pos_site_id
 _symmetry_equiv_pos_as_xyz
  1  'x, y, z'
loop_
 _atom_site_type_symbol
 _atom_site_label
 _atom_site_symmetry_multiplicity
 _atom_site_fract_x
 _atom_site_fract_y
 _atom_site_fract_z
 _atom_site_occupancy
  Eu  Eu0  1  0.016924  0.179066  0.407469  1
  Eu  Eu1  1  0.519248  0.324216  0.407197  1
  Eu  Eu2  1  0.020569  0.178288  0.092957  1
  Eu  Eu3  1  0.478475  0.677931  0.905887  1
  Eu  Eu4  1  0.981523  0.822993  0.593662  1
  Ho  Ho5  1  0.645582  0.157877  0.625177  1
  Ho  Ho6  1  0.139635  0.348318  0.879689  1
  Ho  Ho7  1  0.361846  0.846745  0.120280  1
  Ho  Ho8  1  0.859538  0.653330  0.379486  1
  Ho  Ho9  1  0.359434  0.842004  0.374546  1
  Ho  Ho10  1  0.864134  0.655047  0.119539  1
  Ho  Ho11  1  0.635404  0.155043  0.876087  1
  Ho  Ho12  1  0.139560  0.344283  0.622355  1
  Ho  Ho13  1  0.476983  0.677433  0.598550  1
  Ho  Ho14  1  0.977199  0.819536  0.902872  1
  Ho  Ho15  1  0.521562  0.319949  0.093902  1
  Ho  Ho16  1  0.802502  0.499316  0.752195  1
  Ho  Ho17  1  0.305288  0.001522  0.749980  1
  Ho  Ho18  1  0.197217  0.501230  0.250306  1
  Ho  Ho19  1  0.697836  0.997653  0.247725  1
  Pb  Pb20  1  0.689246  0.953294  0.457674  1
  Pb  Pb21  1  0.205482  0.540579  0.046058  1
  Pb  Pb22  1  0.295951  0.040270  0.953875  1
  Pb  Pb23  1  0.796282  0.464108  0.548238  1
  Pb  Pb24  1  0.311959  0.035516  0.545064  1
  Pb  Pb25  1  0.795406  0.455105  0.957055  1
  Pb  Pb26  1  0.704169  0.958674  0.041194  1
  Pb  Pb27  1  0.202267  0.548592  0.459160  1
  Pb  Pb28  1  0.441937  0.373205  0.748779  1
  Pb  Pb29  1  0.947663  0.128066  0.752360  1
  Pb  Pb30  1  0.557597  0.626553  0.245552  1
  Pb  Pb31  1  0.054603  0.870480  0.250680  1
  Pb  Pb32  1  0.668737  0.848293  0.748777  1
  Pb  Pb33  1  0.166175  0.651500  0.750750  1
  Pb  Pb34  1  0.336281  0.150394  0.246492  1
  Pb  Pb35  1  0.825787  0.353590  0.248429  1
