# generated using pymatgen
data_Nd6Al24Os4Pt3Rh
_symmetry_space_group_name_H-M   'P 1'
_cell_length_a   8.95577194
_cell_length_b   8.89569534
_cell_length_c   9.66209104
_cell_angle_alpha   90.01006744
_cell_angle_beta   89.99679174
_cell_angle_gamma   119.86891439
_symmetry_Int_Tables_number   1
_chemical_formula_structural   Nd6Al24Os4Pt3Rh
_chemical_formula_sum   'Nd6 Al24 Os4 Pt3 Rh1'
_cell_volume   667.50853597
_cell_formula_units_Z   1
loop_
 _symmetry_equiv_pos_site_id
 _symmetry_equiv_pos_as_xyz
  1  'x, y, z'
loop_
 _atom_site_type_symbol
 _atom_site_label
 _atom_site_symmetry_multiplicity
 _atom_site_fract_x
 _atom_site_fract_y
 _atom_site_fract_z
 _atom_site_occupancy
  Nd  Nd0  1  0.187055  0.381776  0.249325  1
  Nd  Nd1  1  0.812945  0.618224  0.750675  1
  Nd  Nd2  1  0.620969  0.810305  0.249004  1
  Nd  Nd3  1  0.379031  0.189695  0.750996  1
  Nd  Nd4  1  0.186881  0.805729  0.250622  1
  Nd  Nd5  1  0.813119  0.194271  0.749378  1
  Al  Al6  1  0.328864  0.664407  0.026429  1
  Al  Al7  1  0.671136  0.335593  0.973571  1
  Al  Al8  1  0.668915  0.337456  0.526188  1
  Al  Al9  1  0.331085  0.662544  0.473812  1
  Al  Al10  1  0.162303  0.328066  0.574111  1
  Al  Al11  1  0.837697  0.671934  0.425889  1
  Al  Al12  1  0.674376  0.833254  0.572859  1
  Al  Al13  1  0.841364  0.672881  0.075401  1
  Al  Al14  1  0.325624  0.166746  0.427141  1
  Al  Al15  1  0.158636  0.327119  0.924599  1
  Al  Al16  1  0.159445  0.832053  0.575192  1
  Al  Al17  1  0.324634  0.162556  0.074797  1
  Al  Al18  1  0.840555  0.167947  0.424808  1
  Al  Al19  1  0.675366  0.837444  0.925203  1
  Al  Al20  1  0.840941  0.167697  0.075881  1
  Al  Al21  1  0.159059  0.832303  0.924119  1
  Al  Al22  1  0.564451  0.128611  0.250091  1
  Al  Al23  1  0.435549  0.871389  0.749909  1
  Al  Al24  1  0.872730  0.437094  0.249849  1
  Al  Al25  1  0.127270  0.562906  0.750151  1
  Al  Al26  1  0.563408  0.437147  0.253014  1
  Al  Al27  1  0.436592  0.562853  0.746986  1
  Al  Al28  1  0.995982  0.997594  0.250099  1
  Al  Al29  1  0.004018  0.002406  0.749901  1
  Os  Os30  1  0.000000  0.500000  0.000000  1
  Os  Os31  1  0.000000  0.500000  0.500000  1
  Os  Os32  1  0.000000  0.000000  0.000000  1
  Os  Os33  1  0.000000  0.000000  0.500000  1
  Pt  Pt34  1  0.500000  0.000000  0.000000  1
  Pt  Pt35  1  0.500000  0.000000  0.500000  1
  Pt  Pt36  1  0.500000  0.500000  0.000000  1
  Rh  Rh37  1  0.500000  0.500000  0.500000  1
