# generated using pymatgen
data_Dy2Y4Co16NiP12Ru
_symmetry_space_group_name_H-M   'P 1'
_cell_length_a   3.71353900
_cell_length_b   10.51646900
_cell_length_c   12.23760200
_cell_angle_alpha   90.00269955
_cell_angle_beta   90.00000000
_cell_angle_gamma   90.00000000
_symmetry_Int_Tables_number   1
_chemical_formula_structural   Dy2Y4Co16NiP12Ru
_chemical_formula_sum   'Dy2 Y4 Co16 Ni1 P12 Ru1'
_cell_volume   477.91895943
_cell_formula_units_Z   1
loop_
 _symmetry_equiv_pos_site_id
 _symmetry_equiv_pos_as_xyz
  1  'x, y, z'
loop_
 _atom_site_type_symbol
 _atom_site_label
 _atom_site_symmetry_multiplicity
 _atom_site_fract_x
 _atom_site_fract_y
 _atom_site_fract_z
 _atom_site_occupancy
  Dy  Dy0  1  0.500000  0.817186  0.206819  1
  Dy  Dy1  1  0.000000  0.684893  0.794556  1
  Y  Y2  1  0.000000  0.500017  0.523330  1
  Y  Y3  1  0.500000  0.999956  0.478427  1
  Y  Y4  1  0.500000  0.182840  0.206805  1
  Y  Y5  1  0.000000  0.315112  0.794588  1
  Co  Co6  1  0.000000  0.999994  0.840078  1
  Co  Co7  1  0.000000  0.999952  0.295695  1
  Co  Co8  1  0.000000  0.500010  0.987299  1
  Co  Co9  1  0.500000  0.999990  0.014587  1
  Co  Co10  1  0.500000  0.331965  0.991011  1
  Co  Co11  1  0.500000  0.668035  0.991002  1
  Co  Co12  1  0.000000  0.166320  0.005452  1
  Co  Co13  1  0.000000  0.833673  0.005449  1
  Co  Co14  1  0.500000  0.297923  0.430260  1
  Co  Co15  1  0.500000  0.702100  0.430265  1
  Co  Co16  1  0.000000  0.202478  0.568516  1
  Co  Co17  1  0.000000  0.797515  0.568526  1
  Co  Co18  1  0.500000  0.879223  0.709623  1
  Co  Co19  1  0.500000  0.120730  0.709628  1
  Co  Co20  1  0.000000  0.620410  0.291538  1
  Co  Co21  1  0.000000  0.379613  0.291550  1
  Ni  Ni22  1  0.500000  0.500052  0.703646  1
  P  P23  1  0.500000  0.500031  0.883098  1
  P  P24  1  0.000000  0.999967  0.117178  1
  P  P25  1  0.500000  0.499990  0.349455  1
  P  P26  1  0.000000  0.999995  0.656194  1
  P  P27  1  0.500000  0.309547  0.615677  1
  P  P28  1  0.500000  0.690471  0.615703  1
  P  P29  1  0.000000  0.188473  0.384155  1
  P  P30  1  0.000000  0.811535  0.384145  1
  P  P31  1  0.500000  0.849789  0.892619  1
  P  P32  1  0.500000  0.150176  0.892635  1
  P  P33  1  0.000000  0.655084  0.105588  1
  P  P34  1  0.000000  0.344951  0.105576  1
  Ru  Ru35  1  0.500000  0.500005  0.159326  1
