# generated using pymatgen
data_Zr4NbGe3C
_symmetry_space_group_name_H-M   'P 1'
_cell_length_a   8.00985300
_cell_length_b   8.00985260
_cell_length_c   5.63617500
_cell_angle_alpha   90.00000000
_cell_angle_beta   90.00000000
_cell_angle_gamma   119.99999754
_symmetry_Int_Tables_number   1
_chemical_formula_structural   Zr4NbGe3C
_chemical_formula_sum   'Zr8 Nb2 Ge6 C2'
_cell_volume   313.15848357
_cell_formula_units_Z   2
loop_
 _symmetry_equiv_pos_site_id
 _symmetry_equiv_pos_as_xyz
  1  'x, y, z'
loop_
 _atom_site_type_symbol
 _atom_site_label
 _atom_site_symmetry_multiplicity
 _atom_site_fract_x
 _atom_site_fract_y
 _atom_site_fract_z
 _atom_site_occupancy
  Zr  Zr0  1  0.666667  0.333333  0.000000  1
  Zr  Zr1  1  0.333333  0.666667  0.000000  1
  Zr  Zr2  1  0.232638  0.000000  0.750011  1
  Zr  Zr3  1  0.767362  0.000000  0.249989  1
  Zr  Zr4  1  0.000000  0.232638  0.750011  1
  Zr  Zr5  1  0.000000  0.767362  0.249989  1
  Zr  Zr6  1  0.767362  0.767362  0.750011  1
  Zr  Zr7  1  0.232638  0.232638  0.249989  1
  Nb  Nb8  1  0.333333  0.666667  0.500000  1
  Nb  Nb9  1  0.666667  0.333333  0.500000  1
  Ge  Ge10  1  0.594282  0.000000  0.739365  1
  Ge  Ge11  1  0.405718  0.000000  0.260635  1
  Ge  Ge12  1  0.000000  0.594282  0.739365  1
  Ge  Ge13  1  0.000000  0.405718  0.260635  1
  Ge  Ge14  1  0.405718  0.405718  0.739365  1
  Ge  Ge15  1  0.594282  0.594282  0.260635  1
  C  C16  1  0.000000  0.000000  0.500000  1
  C  C17  1  0.000000  0.000000  0.000000  1
