# generated using pymatgen
data_Li8Nd8In3Sb5
_symmetry_space_group_name_H-M   'P 1'
_cell_length_a   9.53886367
_cell_length_b   9.54009670
_cell_length_c   7.52942400
_cell_angle_alpha   90.00000601
_cell_angle_beta   89.90299397
_cell_angle_gamma   120.00427763
_symmetry_Int_Tables_number   1
_chemical_formula_structural   Li8Nd8In3Sb5
_chemical_formula_sum   'Li8 Nd8 In3 Sb5'
_cell_volume   593.36544718
_cell_formula_units_Z   1
loop_
 _symmetry_equiv_pos_site_id
 _symmetry_equiv_pos_as_xyz
  1  'x, y, z'
loop_
 _atom_site_type_symbol
 _atom_site_label
 _atom_site_symmetry_multiplicity
 _atom_site_fract_x
 _atom_site_fract_y
 _atom_site_fract_z
 _atom_site_occupancy
  Li  Li0  1  0.166197  0.333898  0.281115  1
  Li  Li1  1  0.166197  0.832300  0.281115  1
  Li  Li2  1  0.667606  0.833803  0.282443  1
  Li  Li3  1  0.833648  0.667148  0.781629  1
  Li  Li4  1  0.833648  0.166500  0.781629  1
  Li  Li5  1  0.332892  0.166446  0.781688  1
  Li  Li6  1  0.332439  0.666220  0.677194  1
  Li  Li7  1  0.667677  0.333838  0.177723  1
  Nd  Nd8  1  0.510384  0.022887  0.493821  1
  Nd  Nd9  1  0.510384  0.487499  0.493821  1
  Nd  Nd10  1  0.977675  0.488838  0.495365  1
  Nd  Nd11  1  0.487418  0.978910  0.997429  1
  Nd  Nd12  1  0.487418  0.508507  0.997429  1
  Nd  Nd13  1  0.021943  0.510971  0.994547  1
  Nd  Nd14  1  0.002784  0.001392  0.496999  1
  Nd  Nd15  1  0.002142  0.001072  0.002675  1
  In  In16  1  0.332684  0.166342  0.229458  1
  In  In17  1  0.332956  0.666479  0.264472  1
  In  In18  1  0.667142  0.333570  0.765155  1
  Sb  Sb19  1  0.166095  0.332050  0.733396  1
  Sb  Sb20  1  0.166095  0.834047  0.733396  1
  Sb  Sb21  1  0.667748  0.833874  0.732411  1
  Sb  Sb22  1  0.833414  0.666578  0.233533  1
  Sb  Sb23  1  0.833414  0.166836  0.233533  1
