# generated using pymatgen
data_YbPa(MnAl5)4
_symmetry_space_group_name_H-M   'P 1'
_cell_length_a   6.80529190
_cell_length_b   6.80529085
_cell_length_c   9.04992000
_cell_angle_alpha   90.00000000
_cell_angle_beta   90.00000000
_cell_angle_gamma   97.56190514
_symmetry_Int_Tables_number   1
_chemical_formula_structural   YbPa(MnAl5)4
_chemical_formula_sum   'Yb1 Pa1 Mn4 Al20'
_cell_volume   415.47483276
_cell_formula_units_Z   1
loop_
 _symmetry_equiv_pos_site_id
 _symmetry_equiv_pos_as_xyz
  1  'x, y, z'
loop_
 _atom_site_type_symbol
 _atom_site_label
 _atom_site_symmetry_multiplicity
 _atom_site_fract_x
 _atom_site_fract_y
 _atom_site_fract_z
 _atom_site_occupancy
  Yb  Yb0  1  0.123348  0.876652  0.750000  1
  Pa  Pa1  1  0.872635  0.127365  0.250000  1
  Mn  Mn2  1  0.999295  0.493321  0.496999  1
  Mn  Mn3  1  0.999295  0.493321  0.003001  1
  Mn  Mn4  1  0.506679  0.000705  0.496999  1
  Mn  Mn5  1  0.506679  0.000705  0.003001  1
  Al  Al6  1  0.229456  0.226944  0.500120  1
  Al  Al7  1  0.773056  0.770544  0.999880  1
  Al  Al8  1  0.773056  0.770544  0.500120  1
  Al  Al9  1  0.229456  0.226944  0.999880  1
  Al  Al10  1  0.373861  0.626139  0.541441  1
  Al  Al11  1  0.624638  0.375362  0.051045  1
  Al  Al12  1  0.590994  0.869708  0.750000  1
  Al  Al13  1  0.408868  0.131138  0.250000  1
  Al  Al14  1  0.868862  0.591132  0.250000  1
  Al  Al15  1  0.130292  0.409006  0.750000  1
  Al  Al16  1  0.473687  0.218329  0.750000  1
  Al  Al17  1  0.524983  0.781281  0.250000  1
  Al  Al18  1  0.218719  0.475017  0.250000  1
  Al  Al19  1  0.781671  0.526313  0.750000  1
  Al  Al20  1  0.156128  0.843872  0.402762  1
  Al  Al21  1  0.839857  0.160143  0.902509  1
  Al  Al22  1  0.839857  0.160143  0.597491  1
  Al  Al23  1  0.156128  0.843872  0.097238  1
  Al  Al24  1  0.373861  0.626139  0.958559  1
  Al  Al25  1  0.624638  0.375362  0.448955  1
