# generated using pymatgen
data_Tb6Dy9Pa(CdCo)4
_symmetry_space_group_name_H-M   'P 1'
_cell_length_a   9.45200961
_cell_length_b   9.56054421
_cell_length_c   9.46931396
_cell_angle_alpha   60.28208667
_cell_angle_beta   59.96618011
_cell_angle_gamma   60.51982026
_symmetry_Int_Tables_number   1
_chemical_formula_structural   Tb6Dy9Pa(CdCo)4
_chemical_formula_sum   'Tb6 Dy9 Pa1 Cd4 Co4'
_cell_volume   608.55478671
_cell_formula_units_Z   1
loop_
 _symmetry_equiv_pos_site_id
 _symmetry_equiv_pos_as_xyz
  1  'x, y, z'
loop_
 _atom_site_type_symbol
 _atom_site_label
 _atom_site_symmetry_multiplicity
 _atom_site_fract_x
 _atom_site_fract_y
 _atom_site_fract_z
 _atom_site_occupancy
  Tb  Tb0  1  0.686647  0.314584  0.687414  1
  Tb  Tb1  1  0.686818  0.314604  0.311259  1
  Tb  Tb2  1  0.939260  0.561352  0.560829  1
  Tb  Tb3  1  0.544504  0.148265  0.153344  1
  Tb  Tb4  1  0.153779  0.148857  0.543275  1
  Tb  Tb5  1  0.937663  0.934254  0.564201  1
  Dy  Dy6  1  0.311048  0.692166  0.309210  1
  Dy  Dy7  1  0.563242  0.934915  0.937801  1
  Dy  Dy8  1  0.563205  0.935134  0.564066  1
  Dy  Dy9  1  0.687216  0.692487  0.310013  1
  Dy  Dy10  1  0.559264  0.561799  0.939674  1
  Dy  Dy11  1  0.939522  0.560936  0.939358  1
  Dy  Dy12  1  0.311055  0.691807  0.687778  1
  Dy  Dy13  1  0.153763  0.149301  0.153757  1
  Dy  Dy14  1  0.311003  0.312827  0.688321  1
  Pa  Pa15  1  0.163995  0.505878  0.165012  1
  Cd  Cd16  1  0.919896  0.241886  0.919452  1
  Cd  Cd17  1  0.921284  0.915663  0.921135  1
  Cd  Cd18  1  0.921317  0.916301  0.241520  1
  Cd  Cd19  1  0.243648  0.915664  0.920532  1
  Co  Co20  1  0.343039  0.376156  0.936881  1
  Co  Co21  1  0.358159  0.922750  0.359154  1
  Co  Co22  1  0.936985  0.376187  0.342775  1
  Co  Co23  1  0.343690  0.376228  0.343243  1
