# generated using pymatgen
data_Tm2CdNiAu
_symmetry_space_group_name_H-M   'P 1'
_cell_length_a   7.60719600
_cell_length_b   7.60719551
_cell_length_c   3.64296100
_cell_angle_alpha   90.00000000
_cell_angle_beta   90.00000000
_cell_angle_gamma   92.00715000
_symmetry_Int_Tables_number   1
_chemical_formula_structural   Tm2CdNiAu
_chemical_formula_sum   'Tm4 Cd2 Ni2 Au2'
_cell_volume   210.68672333
_cell_formula_units_Z   2
loop_
 _symmetry_equiv_pos_site_id
 _symmetry_equiv_pos_as_xyz
  1  'x, y, z'
loop_
 _atom_site_type_symbol
 _atom_site_label
 _atom_site_symmetry_multiplicity
 _atom_site_fract_x
 _atom_site_fract_y
 _atom_site_fract_z
 _atom_site_occupancy
  Tm  Tm0  1  0.685953  0.185953  0.500000  1
  Tm  Tm1  1  0.314047  0.814047  0.500000  1
  Tm  Tm2  1  0.156031  0.343969  0.500000  1
  Tm  Tm3  1  0.843969  0.656031  0.500000  1
  Cd  Cd4  1  0.000000  0.000000  0.000000  1
  Cd  Cd5  1  0.500000  0.500000  0.000000  1
  Ni  Ni6  1  0.121052  0.621052  0.000000  1
  Ni  Ni7  1  0.878948  0.378948  0.000000  1
  Au  Au8  1  0.631476  0.868524  0.000000  1
  Au  Au9  1  0.368524  0.131476  0.000000  1
