# generated using pymatgen
data_Sm7Sc(Si4Mo3)4
_symmetry_space_group_name_H-M   'P 1'
_cell_length_a   6.83666379
_cell_length_b   6.99529015
_cell_length_c   12.99980971
_cell_angle_alpha   89.84141473
_cell_angle_beta   90.06185080
_cell_angle_gamma   90.12087888
_symmetry_Int_Tables_number   1
_chemical_formula_structural   Sm7Sc(Si4Mo3)4
_chemical_formula_sum   'Sm7 Sc1 Si16 Mo12'
_cell_volume   621.70458489
_cell_formula_units_Z   1
loop_
 _symmetry_equiv_pos_site_id
 _symmetry_equiv_pos_as_xyz
  1  'x, y, z'
loop_
 _atom_site_type_symbol
 _atom_site_label
 _atom_site_symmetry_multiplicity
 _atom_site_fract_x
 _atom_site_fract_y
 _atom_site_fract_z
 _atom_site_occupancy
  Sm  Sm0  1  0.996479  0.164560  0.094318  1
  Sm  Sm1  1  0.003067  0.834907  0.903779  1
  Sm  Sm2  1  0.502390  0.664315  0.906163  1
  Sm  Sm3  1  0.003821  0.834285  0.593893  1
  Sm  Sm4  1  0.497221  0.334639  0.094347  1
  Sm  Sm5  1  0.997977  0.166058  0.407639  1
  Sm  Sm6  1  0.498230  0.334673  0.408288  1
  Sc  Sc7  1  0.505445  0.669350  0.597576  1
  Si  Si8  1  0.035685  0.140638  0.748759  1
  Si  Si9  1  0.962971  0.860535  0.250855  1
  Si  Si10  1  0.463145  0.637669  0.250449  1
  Si  Si11  1  0.535195  0.366908  0.746159  1
  Si  Si12  1  0.309758  0.871757  0.746961  1
  Si  Si13  1  0.694037  0.122111  0.251463  1
  Si  Si14  1  0.194991  0.375196  0.250808  1
  Si  Si15  1  0.799568  0.626199  0.747178  1
  Si  Si16  1  0.166599  0.460793  0.548930  1
  Si  Si17  1  0.841197  0.545123  0.454518  1
  Si  Si18  1  0.344520  0.950792  0.454650  1
  Si  Si19  1  0.844098  0.545198  0.048615  1
  Si  Si20  1  0.654512  0.037320  0.549060  1
  Si  Si21  1  0.154215  0.454478  0.950041  1
  Si  Si22  1  0.655643  0.044884  0.950654  1
  Si  Si23  1  0.343299  0.955651  0.048358  1
  Mo  Mo24  1  0.167049  0.501131  0.747461  1
  Mo  Mo25  1  0.834385  0.502168  0.251591  1
  Mo  Mo26  1  0.333925  0.996537  0.251032  1
  Mo  Mo27  1  0.665133  0.001342  0.748217  1
  Mo  Mo28  1  0.332095  0.164707  0.625398  1
  Mo  Mo29  1  0.666438  0.831837  0.376296  1
  Mo  Mo30  1  0.169201  0.664172  0.374901  1
  Mo  Mo31  1  0.667212  0.834191  0.126485  1
  Mo  Mo32  1  0.830844  0.338848  0.624699  1
  Mo  Mo33  1  0.332751  0.166416  0.871814  1
  Mo  Mo34  1  0.828601  0.336541  0.872765  1
  Mo  Mo35  1  0.168302  0.664068  0.125883  1
