# generated using pymatgen
data_Ce2SiP(PtRh)2
_symmetry_space_group_name_H-M   'P 1'
_cell_length_a   9.48928657
_cell_length_b   9.48928612
_cell_length_c   4.05826200
_cell_angle_alpha   90.00000000
_cell_angle_beta   90.00000000
_cell_angle_gamma   155.88590071
_symmetry_Int_Tables_number   1
_chemical_formula_structural   Ce2SiP(PtRh)2
_chemical_formula_sum   'Ce2 Si1 P1 Pt2 Rh2'
_cell_volume   149.29930882
_cell_formula_units_Z   1
loop_
 _symmetry_equiv_pos_site_id
 _symmetry_equiv_pos_as_xyz
  1  'x, y, z'
loop_
 _atom_site_type_symbol
 _atom_site_label
 _atom_site_symmetry_multiplicity
 _atom_site_fract_x
 _atom_site_fract_y
 _atom_site_fract_z
 _atom_site_occupancy
  Ce  Ce0  1  0.103314  0.896686  0.750000  1
  Ce  Ce1  1  0.894692  0.105308  0.250000  1
  Si  Si2  1  0.679520  0.320480  0.250000  1
  P  P3  1  0.319706  0.680294  0.750000  1
  Pt  Pt4  1  0.550017  0.449983  0.250000  1
  Pt  Pt5  1  0.448752  0.551248  0.750000  1
  Rh  Rh6  1  0.251977  0.748023  0.250000  1
  Rh  Rh7  1  0.752022  0.247978  0.750000  1
