# generated using pymatgen
data_Eu5ThB5CN12
_symmetry_space_group_name_H-M   'P 1'
_cell_length_a   7.36113507
_cell_length_b   7.36113388
_cell_length_c   7.38176961
_cell_angle_alpha   110.42160873
_cell_angle_beta   110.42160874
_cell_angle_gamma   110.02539706
_symmetry_Int_Tables_number   1
_chemical_formula_structural   Eu5ThB5CN12
_chemical_formula_sum   'Eu5 Th1 B5 C1 N12'
_cell_volume   298.21626328
_cell_formula_units_Z   1
loop_
 _symmetry_equiv_pos_site_id
 _symmetry_equiv_pos_as_xyz
  1  'x, y, z'
loop_
 _atom_site_type_symbol
 _atom_site_label
 _atom_site_symmetry_multiplicity
 _atom_site_fract_x
 _atom_site_fract_y
 _atom_site_fract_z
 _atom_site_occupancy
  Eu  Eu0  1  0.761158  0.306325  0.217555  1
  Eu  Eu1  1  0.193675  0.738842  0.282445  1
  Eu  Eu2  1  0.249034  0.704390  0.804188  1
  Eu  Eu3  1  0.795610  0.250966  0.695812  1
  Eu  Eu4  1  0.697564  0.802436  0.250000  1
  Th  Th5  1  0.300846  0.199154  0.750000  1
  B  B6  1  0.744762  0.629188  0.864246  1
  B  B7  1  0.870812  0.755238  0.635754  1
  B  B8  1  0.246745  0.363286  0.125620  1
  B  B9  1  0.136714  0.253255  0.374380  1
  B  B10  1  0.373958  0.126042  0.250000  1
  C  C11  1  0.629339  0.870661  0.750000  1
  N  N12  1  0.871747  0.628253  0.750000  1
  N  N13  1  0.736909  0.867598  0.629891  1
  N  N14  1  0.632402  0.763091  0.870109  1
  N  N15  1  0.265596  0.136587  0.384606  1
  N  N16  1  0.363413  0.234404  0.115394  1
  N  N17  1  0.128942  0.371058  0.250000  1
  N  N18  1  0.515283  0.984717  0.750000  1
  N  N19  1  0.723493  0.498510  0.975457  1
  N  N20  1  0.001490  0.776507  0.524543  1
  N  N21  1  0.246600  0.480956  0.999741  1
  N  N22  1  0.019044  0.253400  0.500259  1
  N  N23  1  0.494865  0.005135  0.250000  1
