# generated using pymatgen
data_Zr3ZnP
_symmetry_space_group_name_H-M   'P 1'
_cell_length_a   7.18221100
_cell_length_b   7.22114100
_cell_length_c   3.62210500
_cell_angle_alpha   90.00000000
_cell_angle_beta   90.00000000
_cell_angle_gamma   90.00000000
_symmetry_Int_Tables_number   1
_chemical_formula_structural   Zr3ZnP
_chemical_formula_sum   'Zr6 Zn2 P2'
_cell_volume   187.85597834
_cell_formula_units_Z   2
loop_
 _symmetry_equiv_pos_site_id
 _symmetry_equiv_pos_as_xyz
  1  'x, y, z'
loop_
 _atom_site_type_symbol
 _atom_site_label
 _atom_site_symmetry_multiplicity
 _atom_site_fract_x
 _atom_site_fract_y
 _atom_site_fract_z
 _atom_site_occupancy
  Zr  Zr0  1  0.001001  0.007810  0.000000  1
  Zr  Zr1  1  0.501001  0.492190  0.000000  1
  Zr  Zr2  1  0.672643  0.186057  0.500000  1
  Zr  Zr3  1  0.172643  0.313943  0.500000  1
  Zr  Zr4  1  0.821066  0.659233  0.500000  1
  Zr  Zr5  1  0.321066  0.840767  0.500000  1
  Zn  Zn6  1  0.627293  0.875865  0.000000  1
  Zn  Zn7  1  0.127293  0.624135  0.000000  1
  P  P8  1  0.877997  0.377143  0.000000  1
  P  P9  1  0.377997  0.122857  0.000000  1
