# generated using pymatgen
data_Sm3Sn6Ru
_symmetry_space_group_name_H-M   'P 1'
_cell_length_a   8.68668782
_cell_length_b   8.68668722
_cell_length_c   13.30088600
_cell_angle_alpha   90.00000000
_cell_angle_beta   90.00000000
_cell_angle_gamma   148.67044937
_symmetry_Int_Tables_number   1
_chemical_formula_structural   Sm3Sn6Ru
_chemical_formula_sum   'Sm6 Sn12 Ru2'
_cell_volume   521.86561549
_cell_formula_units_Z   2
loop_
 _symmetry_equiv_pos_site_id
 _symmetry_equiv_pos_as_xyz
  1  'x, y, z'
loop_
 _atom_site_type_symbol
 _atom_site_label
 _atom_site_symmetry_multiplicity
 _atom_site_fract_x
 _atom_site_fract_y
 _atom_site_fract_z
 _atom_site_occupancy
  Sm  Sm0  1  0.601851  0.398149  0.250000  1
  Sm  Sm1  1  0.398149  0.601851  0.750000  1
  Sm  Sm2  1  0.399046  0.600954  0.404177  1
  Sm  Sm3  1  0.600954  0.399046  0.595823  1
  Sm  Sm4  1  0.399046  0.600954  0.095823  1
  Sm  Sm5  1  0.600954  0.399046  0.904177  1
  Sn  Sn6  1  0.927232  0.072768  0.925162  1
  Sn  Sn7  1  0.072768  0.927232  0.074838  1
  Sn  Sn8  1  0.927232  0.072768  0.574838  1
  Sn  Sn9  1  0.072768  0.927232  0.425162  1
  Sn  Sn10  1  0.959733  0.040267  0.250000  1
  Sn  Sn11  1  0.040267  0.959733  0.750000  1
  Sn  Sn12  1  0.744728  0.255273  0.433241  1
  Sn  Sn13  1  0.255273  0.744727  0.566759  1
  Sn  Sn14  1  0.744728  0.255273  0.066759  1
  Sn  Sn15  1  0.255273  0.744727  0.933241  1
  Sn  Sn16  1  0.233540  0.766460  0.250000  1
  Sn  Sn17  1  0.766460  0.233540  0.750000  1
  Ru  Ru18  1  0.802305  0.197695  0.250000  1
  Ru  Ru19  1  0.197695  0.802305  0.750000  1
