# generated using pymatgen
data_Li2ErLu2AgPb3
_symmetry_space_group_name_H-M   'P 1'
_cell_length_a   7.30769300
_cell_length_b   7.30326503
_cell_length_c   4.61820000
_cell_angle_alpha   90.00000000
_cell_angle_beta   90.00000000
_cell_angle_gamma   120.02006279
_symmetry_Int_Tables_number   1
_chemical_formula_structural   Li2ErLu2AgPb3
_chemical_formula_sum   'Li2 Er1 Lu2 Ag1 Pb3'
_cell_volume   213.40907778
_cell_formula_units_Z   1
loop_
 _symmetry_equiv_pos_site_id
 _symmetry_equiv_pos_as_xyz
  1  'x, y, z'
loop_
 _atom_site_type_symbol
 _atom_site_label
 _atom_site_symmetry_multiplicity
 _atom_site_fract_x
 _atom_site_fract_y
 _atom_site_fract_z
 _atom_site_occupancy
  Li  Li0  1  0.771994  0.768305  0.000000  1
  Li  Li1  1  0.003689  0.231695  0.000000  1
  Er  Er2  1  0.548404  0.000000  0.500000  1
  Lu  Lu3  1  0.434991  0.430820  0.500000  1
  Lu  Lu4  1  0.004170  0.569180  0.500000  1
  Ag  Ag5  1  0.236087  0.000000  0.000000  1
  Pb  Pb6  1  0.984039  0.000000  0.500000  1
  Pb  Pb7  1  0.336474  0.656322  0.000000  1
  Pb  Pb8  1  0.680153  0.343678  0.000000  1
