# generated using pymatgen
data_Lu3Zn3CuAu2
_symmetry_space_group_name_H-M   'P 1'
_cell_length_a   7.18582000
_cell_length_b   7.18581979
_cell_length_c   3.90574800
_cell_angle_alpha   90.00000000
_cell_angle_beta   90.00000000
_cell_angle_gamma   119.99999177
_symmetry_Int_Tables_number   1
_chemical_formula_structural   Lu3Zn3CuAu2
_chemical_formula_sum   'Lu3 Zn3 Cu1 Au2'
_cell_volume   174.65762183
_cell_formula_units_Z   1
loop_
 _symmetry_equiv_pos_site_id
 _symmetry_equiv_pos_as_xyz
  1  'x, y, z'
loop_
 _atom_site_type_symbol
 _atom_site_label
 _atom_site_symmetry_multiplicity
 _atom_site_fract_x
 _atom_site_fract_y
 _atom_site_fract_z
 _atom_site_occupancy
  Lu  Lu0  1  0.405414  0.405414  0.500000  1
  Lu  Lu1  1  0.594586  0.000000  0.500000  1
  Lu  Lu2  1  0.000000  0.594586  0.500000  1
  Zn  Zn3  1  0.768256  0.768256  0.000000  1
  Zn  Zn4  1  0.231744  0.000000  0.000000  1
  Zn  Zn5  1  0.000000  0.231744  0.000000  1
  Cu  Cu6  1  0.000000  0.000000  0.500000  1
  Au  Au7  1  0.666667  0.333333  0.000000  1
  Au  Au8  1  0.333333  0.666667  0.000000  1
