# generated using pymatgen
data_Ce6Al22CoSi2Os7
_symmetry_space_group_name_H-M   'P 1'
_cell_length_a   8.83383800
_cell_length_b   8.83383840
_cell_length_c   9.50111500
_cell_angle_alpha   90.00000000
_cell_angle_beta   90.00000000
_cell_angle_gamma   120.00000601
_symmetry_Int_Tables_number   1
_chemical_formula_structural   Ce6Al22CoSi2Os7
_chemical_formula_sum   'Ce6 Al22 Co1 Si2 Os7'
_cell_volume   642.10205655
_cell_formula_units_Z   1
loop_
 _symmetry_equiv_pos_site_id
 _symmetry_equiv_pos_as_xyz
  1  'x, y, z'
loop_
 _atom_site_type_symbol
 _atom_site_label
 _atom_site_symmetry_multiplicity
 _atom_site_fract_x
 _atom_site_fract_y
 _atom_site_fract_z
 _atom_site_occupancy
  Ce  Ce0  1  0.194660  0.389321  0.249222  1
  Ce  Ce1  1  0.805340  0.610679  0.750778  1
  Ce  Ce2  1  0.610679  0.805340  0.249222  1
  Ce  Ce3  1  0.389321  0.194660  0.750778  1
  Ce  Ce4  1  0.194660  0.805340  0.249222  1
  Ce  Ce5  1  0.805340  0.194660  0.750778  1
  Al  Al6  1  0.666667  0.333333  0.515631  1
  Al  Al7  1  0.333333  0.666667  0.484369  1
  Al  Al8  1  0.162172  0.324342  0.576582  1
  Al  Al9  1  0.837828  0.675658  0.423418  1
  Al  Al10  1  0.675658  0.837828  0.576582  1
  Al  Al11  1  0.838591  0.677182  0.077085  1
  Al  Al12  1  0.324342  0.162172  0.423418  1
  Al  Al13  1  0.161409  0.322818  0.922915  1
  Al  Al14  1  0.162172  0.837828  0.576582  1
  Al  Al15  1  0.322818  0.161409  0.077085  1
  Al  Al16  1  0.837828  0.162172  0.423418  1
  Al  Al17  1  0.677182  0.838591  0.922915  1
  Al  Al18  1  0.838591  0.161409  0.077085  1
  Al  Al19  1  0.161409  0.838591  0.922915  1
  Al  Al20  1  0.563314  0.126627  0.250016  1
  Al  Al21  1  0.436686  0.873373  0.749984  1
  Al  Al22  1  0.873373  0.436686  0.250016  1
  Al  Al23  1  0.126627  0.563314  0.749984  1
  Al  Al24  1  0.563314  0.436686  0.250016  1
  Al  Al25  1  0.436686  0.563314  0.749984  1
  Al  Al26  1  0.000000  0.000000  0.242455  1
  Al  Al27  1  0.000000  0.000000  0.757545  1
  Co  Co28  1  0.000000  0.000000  0.000000  1
  Si  Si29  1  0.333333  0.666667  0.034192  1
  Si  Si30  1  0.666667  0.333333  0.965808  1
  Os  Os31  1  0.500000  0.000000  0.000000  1
  Os  Os32  1  0.000000  0.500000  0.000000  1
  Os  Os33  1  0.500000  0.000000  0.500000  1
  Os  Os34  1  0.500000  0.500000  0.000000  1
  Os  Os35  1  0.000000  0.500000  0.500000  1
  Os  Os36  1  0.500000  0.500000  0.500000  1
  Os  Os37  1  0.000000  0.000000  0.500000  1
