# generated using pymatgen
data_KBiSbAu2
_symmetry_space_group_name_H-M   'P 1'
_cell_length_a   4.86962000
_cell_length_b   4.97342614
_cell_length_c   11.65397115
_cell_angle_alpha   88.51675357
_cell_angle_beta   90.00000000
_cell_angle_gamma   90.00000000
_symmetry_Int_Tables_number   1
_chemical_formula_structural   KBiSbAu2
_chemical_formula_sum   'K2 Bi2 Sb2 Au4'
_cell_volume   282.14940781
_cell_formula_units_Z   2
loop_
 _symmetry_equiv_pos_site_id
 _symmetry_equiv_pos_as_xyz
  1  'x, y, z'
loop_
 _atom_site_type_symbol
 _atom_site_label
 _atom_site_symmetry_multiplicity
 _atom_site_fract_x
 _atom_site_fract_y
 _atom_site_fract_z
 _atom_site_occupancy
  K  K0  1  0.250000  0.737778  0.763294  1
  K  K1  1  0.750000  0.262222  0.236706  1
  Bi  Bi2  1  0.750000  0.754222  0.507124  1
  Bi  Bi3  1  0.250000  0.245778  0.492876  1
  Sb  Sb4  1  0.250000  0.792737  0.118556  1
  Sb  Sb5  1  0.750000  0.207263  0.881444  1
  Au  Au6  1  0.750000  0.694620  0.003109  1
  Au  Au7  1  0.750000  0.247595  0.648992  1
  Au  Au8  1  0.250000  0.752405  0.351008  1
  Au  Au9  1  0.250000  0.305380  0.996891  1
