# generated using pymatgen
data_Dy5Lu5(Bi3C)2
_symmetry_space_group_name_H-M   'P 1'
_cell_length_a   9.11233057
_cell_length_b   9.10305622
_cell_length_c   6.40990600
_cell_angle_alpha   90.00000000
_cell_angle_beta   90.00000000
_cell_angle_gamma   119.96634104
_symmetry_Int_Tables_number   1
_chemical_formula_structural   Dy5Lu5(Bi3C)2
_chemical_formula_sum   'Dy5 Lu5 Bi6 C2'
_cell_volume   460.62359813
_cell_formula_units_Z   1
loop_
 _symmetry_equiv_pos_site_id
 _symmetry_equiv_pos_as_xyz
  1  'x, y, z'
loop_
 _atom_site_type_symbol
 _atom_site_label
 _atom_site_symmetry_multiplicity
 _atom_site_fract_x
 _atom_site_fract_y
 _atom_site_fract_z
 _atom_site_occupancy
  Dy  Dy0  1  0.666701  0.333636  0.000821  1
  Dy  Dy1  1  0.333299  0.666936  0.000821  1
  Dy  Dy2  1  0.333299  0.666936  0.499179  1
  Dy  Dy3  1  0.666701  0.333636  0.499179  1
  Dy  Dy4  1  0.000000  0.787950  0.250000  1
  Lu  Lu5  1  0.798287  0.799844  0.750000  1
  Lu  Lu6  1  0.201713  0.001557  0.750000  1
  Lu  Lu7  1  0.000000  0.203438  0.750000  1
  Lu  Lu8  1  0.201410  0.200788  0.250000  1
  Lu  Lu9  1  0.798590  0.999378  0.250000  1
  Bi  Bi10  1  0.398441  0.398312  0.750000  1
  Bi  Bi11  1  0.601559  0.999871  0.750000  1
  Bi  Bi12  1  0.000000  0.602940  0.750000  1
  Bi  Bi13  1  0.600236  0.602041  0.250000  1
  Bi  Bi14  1  0.399764  0.001806  0.250000  1
  Bi  Bi15  1  0.000000  0.396751  0.250000  1
  C  C16  1  0.000000  0.002089  0.998079  1
  C  C17  1  0.000000  0.002089  0.501921  1
