# generated using pymatgen
data_Tm4FeTc2Os5
_symmetry_space_group_name_H-M   'P 1'
_cell_length_a   5.32455098
_cell_length_b   5.18891341
_cell_length_c   8.81594600
_cell_angle_alpha   90.00000000
_cell_angle_beta   90.00000000
_cell_angle_gamma   119.92431393
_symmetry_Int_Tables_number   1
_chemical_formula_structural   Tm4FeTc2Os5
_chemical_formula_sum   'Tm4 Fe1 Tc2 Os5'
_cell_volume   211.10070405
_cell_formula_units_Z   1
loop_
 _symmetry_equiv_pos_site_id
 _symmetry_equiv_pos_as_xyz
  1  'x, y, z'
loop_
 _atom_site_type_symbol
 _atom_site_label
 _atom_site_symmetry_multiplicity
 _atom_site_fract_x
 _atom_site_fract_y
 _atom_site_fract_z
 _atom_site_occupancy
  Tm  Tm0  1  0.670812  0.337835  0.560780  1
  Tm  Tm1  1  0.331547  0.665104  0.433360  1
  Tm  Tm2  1  0.331547  0.665104  0.066640  1
  Tm  Tm3  1  0.670812  0.337835  0.939220  1
  Fe  Fe4  1  0.831194  0.663013  0.250000  1
  Tc  Tc5  1  0.169600  0.338298  0.750000  1
  Tc  Tc6  1  0.171128  0.829057  0.750000  1
  Os  Os7  1  0.001719  0.001379  0.496888  1
  Os  Os8  1  0.001719  0.001379  0.003112  1
  Os  Os9  1  0.654538  0.827067  0.750000  1
  Os  Os10  1  0.822471  0.167655  0.250000  1
  Os  Os11  1  0.342916  0.166273  0.250000  1
