# generated using pymatgen
data_Dy7Er3(GaSb2)2
_symmetry_space_group_name_H-M   'P 1'
_cell_length_a   8.83356165
_cell_length_b   8.81404031
_cell_length_c   6.40915900
_cell_angle_alpha   89.99859716
_cell_angle_beta   90.00069867
_cell_angle_gamma   119.92691525
_symmetry_Int_Tables_number   1
_chemical_formula_structural   Dy7Er3(GaSb2)2
_chemical_formula_sum   'Dy7 Er3 Ga2 Sb4'
_cell_volume   432.47590844
_cell_formula_units_Z   1
loop_
 _symmetry_equiv_pos_site_id
 _symmetry_equiv_pos_as_xyz
  1  'x, y, z'
loop_
 _atom_site_type_symbol
 _atom_site_label
 _atom_site_symmetry_multiplicity
 _atom_site_fract_x
 _atom_site_fract_y
 _atom_site_fract_z
 _atom_site_occupancy
  Dy  Dy0  1  0.011211  0.766914  0.750036  1
  Dy  Dy1  1  0.011211  0.244296  0.249964  1
  Dy  Dy2  1  0.752639  0.753393  0.249952  1
  Dy  Dy3  1  0.752639  0.999247  0.750048  1
  Dy  Dy4  1  0.244471  0.233163  0.750082  1
  Dy  Dy5  1  0.244471  0.011308  0.249918  1
  Dy  Dy6  1  0.336009  0.668005  0.500000  1
  Er  Er7  1  0.652967  0.326484  0.000000  1
  Er  Er8  1  0.652826  0.326413  0.500000  1
  Er  Er9  1  0.336045  0.668023  0.000000  1
  Ga  Ga10  1  0.394744  0.997736  0.750282  1
  Ga  Ga11  1  0.394744  0.397008  0.249718  1
  Sb  Sb12  1  0.998597  0.607111  0.249781  1
  Sb  Sb13  1  0.998597  0.391486  0.750219  1
  Sb  Sb14  1  0.609415  0.607400  0.750344  1
  Sb  Sb15  1  0.609415  0.002016  0.249656  1
