# generated using pymatgen
data_Hf3Bi4PtF28
_symmetry_space_group_name_H-M   'P 1'
_cell_length_a   5.76342293
_cell_length_b   9.29709859
_cell_length_c   12.39236555
_cell_angle_alpha   61.87885046
_cell_angle_beta   89.98493419
_cell_angle_gamma   89.89582338
_symmetry_Int_Tables_number   1
_chemical_formula_structural   Hf3Bi4PtF28
_chemical_formula_sum   'Hf3 Bi4 Pt1 F28'
_cell_volume   585.63461562
_cell_formula_units_Z   1
loop_
 _symmetry_equiv_pos_site_id
 _symmetry_equiv_pos_as_xyz
  1  'x, y, z'
loop_
 _atom_site_type_symbol
 _atom_site_label
 _atom_site_symmetry_multiplicity
 _atom_site_fract_x
 _atom_site_fract_y
 _atom_site_fract_z
 _atom_site_occupancy
  Hf  Hf0  1  0.755545  0.274645  0.957473  1
  Hf  Hf1  1  0.256087  0.723200  0.543916  1
  Hf  Hf2  1  0.244239  0.724419  0.043251  1
  Bi  Bi3  1  0.758678  0.818337  0.761517  1
  Bi  Bi4  1  0.258921  0.182350  0.735651  1
  Bi  Bi5  1  0.239527  0.181765  0.242132  1
  Bi  Bi6  1  0.742874  0.814034  0.263981  1
  Pt  Pt7  1  0.741054  0.272292  0.457361  1
  F  F8  1  0.452810  0.712079  0.918938  1
  F  F9  1  0.930774  0.292891  0.582164  1
  F  F10  1  0.543409  0.286754  0.080508  1
  F  F11  1  0.049662  0.713749  0.417968  1
  F  F12  1  0.451914  0.281964  0.540426  1
  F  F13  1  0.953973  0.722552  0.952135  1
  F  F14  1  0.546603  0.720036  0.454470  1
  F  F15  1  0.042888  0.276371  0.050479  1
  F  F16  1  0.770951  0.516572  0.861807  1
  F  F17  1  0.268115  0.481837  0.638855  1
  F  F18  1  0.227052  0.483712  0.138647  1
  F  F19  1  0.733930  0.511705  0.360435  1
  F  F20  1  0.760282  0.028403  0.058424  1
  F  F21  1  0.261581  0.969592  0.444937  1
  F  F22  1  0.239092  0.971212  0.940295  1
  F  F23  1  0.740807  0.030126  0.550281  1
  F  F24  1  0.979761  0.732461  0.639167  1
  F  F25  1  0.483198  0.265243  0.859493  1
  F  F26  1  0.025049  0.270976  0.368528  1
  F  F27  1  0.519239  0.734271  0.138274  1
  F  F28  1  0.047535  0.749806  0.168128  1
  F  F29  1  0.556516  0.259371  0.327003  1
  F  F30  1  0.958892  0.252459  0.832956  1
  F  F31  1  0.454248  0.745082  0.669785  1
  F  F32  1  0.410522  0.970845  0.231886  1
  F  F33  1  0.911991  0.028837  0.270527  1
  F  F34  1  0.590012  0.032551  0.769388  1
  F  F35  1  0.092267  0.967502  0.728816  1
