# generated using pymatgen
data_Nd2MnFeO6
_symmetry_space_group_name_H-M   'P 1'
_cell_length_a   5.48565000
_cell_length_b   5.81831987
_cell_length_c   7.75065965
_cell_angle_alpha   90.54575000
_cell_angle_beta   90.00025077
_cell_angle_gamma   89.99993790
_symmetry_Int_Tables_number   1
_chemical_formula_structural   Nd2MnFeO6
_chemical_formula_sum   'Nd4 Mn2 Fe2 O12'
_cell_volume   247.36864709
_cell_formula_units_Z   2
loop_
 _symmetry_equiv_pos_site_id
 _symmetry_equiv_pos_as_xyz
  1  'x, y, z'
loop_
 _atom_site_type_symbol
 _atom_site_label
 _atom_site_symmetry_multiplicity
 _atom_site_fract_x
 _atom_site_fract_y
 _atom_site_fract_z
 _atom_site_occupancy
  Nd  Nd0  1  0.515462  0.066973  0.251451  1
  Nd  Nd1  1  0.484598  0.932988  0.748541  1
  Nd  Nd2  1  0.015407  0.432987  0.748562  1
  Nd  Nd3  1  0.984555  0.566976  0.251469  1
  Mn  Mn4  1  0.499917  0.499955  0.500067  1
  Mn  Mn5  1  0.999906  0.000084  0.500000  1
  Fe  Fe6  1  0.000001  0.000007  0.999956  1
  Fe  Fe7  1  0.500040  0.500041  0.999986  1
  O  O8  1  0.798849  0.299602  0.049712  1
  O  O9  1  0.201163  0.700398  0.950365  1
  O  O10  1  0.298840  0.200403  0.950359  1
  O  O11  1  0.701166  0.799604  0.049716  1
  O  O12  1  0.211887  0.683568  0.548177  1
  O  O13  1  0.788144  0.316391  0.451777  1
  O  O14  1  0.711886  0.816431  0.451763  1
  O  O15  1  0.288144  0.183606  0.548160  1
  O  O16  1  0.405562  0.473467  0.250759  1
  O  O17  1  0.594408  0.526515  0.749236  1
  O  O18  1  0.905605  0.026530  0.749209  1
  O  O19  1  0.094462  0.973474  0.250732  1
