# generated using pymatgen
data_Nd2B4Ir3Rh2
_symmetry_space_group_name_H-M   'P 1'
_cell_length_a   7.59444573
_cell_length_b   6.32763312
_cell_length_c   5.73370202
_cell_angle_alpha   77.87703538
_cell_angle_beta   54.54895002
_cell_angle_gamma   47.57401620
_symmetry_Int_Tables_number   1
_chemical_formula_structural   Nd2B4Ir3Rh2
_chemical_formula_sum   'Nd2 B4 Ir3 Rh2'
_cell_volume   157.97006799
_cell_formula_units_Z   1
loop_
 _symmetry_equiv_pos_site_id
 _symmetry_equiv_pos_as_xyz
  1  'x, y, z'
loop_
 _atom_site_type_symbol
 _atom_site_label
 _atom_site_symmetry_multiplicity
 _atom_site_fract_x
 _atom_site_fract_y
 _atom_site_fract_z
 _atom_site_occupancy
  Nd  Nd0  1  0.857185  0.857187  0.142814  1
  Nd  Nd1  1  0.142812  0.142814  0.857187  1
  B  B2  1  0.475212  0.789568  0.210434  1
  B  B3  1  0.210432  0.524788  0.475213  1
  B  B4  1  0.789565  0.475214  0.524788  1
  B  B5  1  0.524786  0.210434  0.789567  1
  Ir  Ir6  1  0.250000  0.250000  0.250001  1
  Ir  Ir7  1  0.499999  0.500001  0.500000  1
  Ir  Ir8  1  0.750000  0.749999  0.749999  1
  Rh  Rh9  1  0.500000  0.500000  0.000000  1
  Rh  Rh10  1  0.000000  0.000000  0.500001  1
