# generated using pymatgen
data_EuFe2(CoSb6)2
_symmetry_space_group_name_H-M   'P 1'
_cell_length_a   7.95608491
_cell_length_b   7.95608422
_cell_length_c   7.93990938
_cell_angle_alpha   109.48634296
_cell_angle_beta   109.47049026
_cell_angle_gamma   109.53923952
_symmetry_Int_Tables_number   1
_chemical_formula_structural   EuFe2(CoSb6)2
_chemical_formula_sum   'Eu1 Fe2 Co2 Sb12'
_cell_volume   386.50028302
_cell_formula_units_Z   1
loop_
 _symmetry_equiv_pos_site_id
 _symmetry_equiv_pos_as_xyz
  1  'x, y, z'
loop_
 _atom_site_type_symbol
 _atom_site_label
 _atom_site_symmetry_multiplicity
 _atom_site_fract_x
 _atom_site_fract_y
 _atom_site_fract_z
 _atom_site_occupancy
  Eu  Eu0  1  0.000000  0.000000  0.000000  1
  Fe  Fe1  1  0.500000  0.500000  0.500000  1
  Fe  Fe2  1  0.000000  0.000000  0.500000  1
  Co  Co3  1  0.500000  0.000000  0.000000  1
  Co  Co4  1  0.000000  0.500000  0.000000  1
  Sb  Sb5  1  0.836889  0.666324  0.503213  1
  Sb  Sb6  1  0.163111  0.333676  0.496787  1
  Sb  Sb7  1  0.160766  0.663688  0.824453  1
  Sb  Sb8  1  0.839234  0.336312  0.175547  1
  Sb  Sb9  1  0.663923  0.502972  0.837282  1
  Sb  Sb10  1  0.336077  0.497028  0.162718  1
  Sb  Sb11  1  0.665690  0.826640  0.162718  1
  Sb  Sb12  1  0.334310  0.173360  0.837282  1
  Sb  Sb13  1  0.502952  0.836774  0.663486  1
  Sb  Sb14  1  0.497048  0.163226  0.336514  1
  Sb  Sb15  1  0.173288  0.839466  0.336514  1
  Sb  Sb16  1  0.826712  0.160534  0.663486  1
