# generated using pymatgen
data_YTh3(Pd2Pt)4
_symmetry_space_group_name_H-M   'P 1'
_cell_length_a   5.92863512
_cell_length_b   5.92484133
_cell_length_c   9.77119896
_cell_angle_alpha   90.07883979
_cell_angle_beta   89.92459705
_cell_angle_gamma   119.93087985
_symmetry_Int_Tables_number   1
_chemical_formula_structural   YTh3(Pd2Pt)4
_chemical_formula_sum   'Y1 Th3 Pd8 Pt4'
_cell_volume   297.44828862
_cell_formula_units_Z   1
loop_
 _symmetry_equiv_pos_site_id
 _symmetry_equiv_pos_as_xyz
  1  'x, y, z'
loop_
 _atom_site_type_symbol
 _atom_site_label
 _atom_site_symmetry_multiplicity
 _atom_site_fract_x
 _atom_site_fract_y
 _atom_site_fract_z
 _atom_site_occupancy
  Y  Y0  1  0.999617  0.999221  0.499324  1
  Th  Th1  1  0.999807  0.999532  0.000478  1
  Th  Th2  1  0.334223  0.668190  0.253937  1
  Th  Th3  1  0.665964  0.332488  0.745994  1
  Pd  Pd4  1  0.500244  0.499907  0.500303  1
  Pd  Pd5  1  0.999699  0.499986  0.500287  1
  Pd  Pd6  1  0.999712  0.499724  0.999681  1
  Pd  Pd7  1  0.349350  0.174805  0.250758  1
  Pd  Pd8  1  0.826130  0.174652  0.251066  1
  Pd  Pd9  1  0.174184  0.348847  0.749523  1
  Pd  Pd10  1  0.650564  0.824990  0.749304  1
  Pd  Pd11  1  0.173689  0.825177  0.748931  1
  Pt  Pt12  1  0.499949  0.999872  0.500840  1
  Pt  Pt13  1  0.500048  0.499660  0.999581  1
  Pt  Pt14  1  0.500023  0.999953  0.999311  1
  Pt  Pt15  1  0.826798  0.652996  0.250680  1
