# generated using pymatgen
data_Yb8IrPt3
_symmetry_space_group_name_H-M   'P 1'
_cell_length_a   4.41494400
_cell_length_b   7.42427853
_cell_length_c   8.94153226
_cell_angle_alpha   90.82293159
_cell_angle_beta   90.00000000
_cell_angle_gamma   90.00000000
_symmetry_Int_Tables_number   1
_chemical_formula_structural   Yb8IrPt3
_chemical_formula_sum   'Yb8 Ir1 Pt3'
_cell_volume   293.05329356
_cell_formula_units_Z   1
loop_
 _symmetry_equiv_pos_site_id
 _symmetry_equiv_pos_as_xyz
  1  'x, y, z'
loop_
 _atom_site_type_symbol
 _atom_site_label
 _atom_site_symmetry_multiplicity
 _atom_site_fract_x
 _atom_site_fract_y
 _atom_site_fract_z
 _atom_site_occupancy
  Yb  Yb0  1  0.250000  0.856056  0.929208  1
  Yb  Yb1  1  0.250000  0.354890  0.573924  1
  Yb  Yb2  1  0.750000  0.146812  0.064579  1
  Yb  Yb3  1  0.750000  0.643605  0.430535  1
  Yb  Yb4  1  0.250000  0.975303  0.330518  1
  Yb  Yb5  1  0.250000  0.472087  0.163634  1
  Yb  Yb6  1  0.750000  0.031862  0.674173  1
  Yb  Yb7  1  0.750000  0.517153  0.835253  1
  Ir  Ir8  1  0.250000  0.244658  0.879537  1
  Pt  Pt9  1  0.250000  0.750152  0.615782  1
  Pt  Pt10  1  0.750000  0.754379  0.121557  1
  Pt  Pt11  1  0.750000  0.253042  0.381300  1
