# generated using pymatgen
data_Tm4Cu9(AgTe4)3
_symmetry_space_group_name_H-M   'P 1'
_cell_length_a   7.03406600
_cell_length_b   7.71445683
_cell_length_c   13.30818700
_cell_angle_alpha   90.00000000
_cell_angle_beta   90.00000000
_cell_angle_gamma   90.10451373
_symmetry_Int_Tables_number   1
_chemical_formula_structural   Tm4Cu9(AgTe4)3
_chemical_formula_sum   'Tm4 Cu9 Ag3 Te12'
_cell_volume   722.15423833
_cell_formula_units_Z   1
loop_
 _symmetry_equiv_pos_site_id
 _symmetry_equiv_pos_as_xyz
  1  'x, y, z'
loop_
 _atom_site_type_symbol
 _atom_site_label
 _atom_site_symmetry_multiplicity
 _atom_site_fract_x
 _atom_site_fract_y
 _atom_site_fract_z
 _atom_site_occupancy
  Tm  Tm0  1  0.240446  0.749068  0.842058  1
  Tm  Tm1  1  0.741919  0.250680  0.339031  1
  Tm  Tm2  1  0.741919  0.250680  0.660969  1
  Tm  Tm3  1  0.240446  0.749068  0.157942  1
  Cu  Cu4  1  0.368256  0.120095  0.829656  1
  Cu  Cu5  1  0.616092  0.610255  0.000000  1
  Cu  Cu6  1  0.865503  0.882414  0.674781  1
  Cu  Cu7  1  0.622742  0.617397  0.678013  1
  Cu  Cu8  1  0.622742  0.617397  0.321987  1
  Cu  Cu9  1  0.865503  0.882414  0.325219  1
  Cu  Cu10  1  0.368256  0.120095  0.170344  1
  Cu  Cu11  1  0.127250  0.384005  0.829795  1
  Cu  Cu12  1  0.127250  0.384005  0.170205  1
  Ag  Ag13  1  0.871514  0.883510  0.000000  1
  Ag  Ag14  1  0.114742  0.392150  0.500000  1
  Ag  Ag15  1  0.374792  0.108871  0.500000  1
  Te  Te16  1  0.002847  0.569665  0.324787  1
  Te  Te17  1  0.508209  0.434745  0.164476  1
  Te  Te18  1  0.987211  0.071831  0.172725  1
  Te  Te19  1  0.002847  0.569665  0.675213  1
  Te  Te20  1  0.001476  0.538910  0.000000  1
  Te  Te21  1  0.508209  0.434745  0.835524  1
  Te  Te22  1  0.484881  0.930492  0.324005  1
  Te  Te23  1  0.484881  0.930492  0.675995  1
  Te  Te24  1  0.964931  0.043857  0.500000  1
  Te  Te25  1  0.471785  0.942043  0.000000  1
  Te  Te26  1  0.987211  0.071831  0.827275  1
  Te  Te27  1  0.522134  0.459620  0.500000  1
