# generated using pymatgen
data_La5Sm3(Si3Pt)4
_symmetry_space_group_name_H-M   'P 1'
_cell_length_a   8.27034947
_cell_length_b   8.27034052
_cell_length_c   8.67174400
_cell_angle_alpha   90.00000000
_cell_angle_beta   90.00000000
_cell_angle_gamma   120.06832552
_symmetry_Int_Tables_number   1
_chemical_formula_structural   La5Sm3(Si3Pt)4
_chemical_formula_sum   'La5 Sm3 Si12 Pt4'
_cell_volume   513.31613103
_cell_formula_units_Z   1
loop_
 _symmetry_equiv_pos_site_id
 _symmetry_equiv_pos_as_xyz
  1  'x, y, z'
loop_
 _atom_site_type_symbol
 _atom_site_label
 _atom_site_symmetry_multiplicity
 _atom_site_fract_x
 _atom_site_fract_y
 _atom_site_fract_z
 _atom_site_occupancy
  La  La0  1  0.500200  0.000449  0.250000  1
  La  La1  1  0.999557  0.499805  0.250000  1
  La  La2  1  0.499876  0.500129  0.750000  1
  La  La3  1  0.499951  0.999758  0.750000  1
  La  La4  1  0.000257  0.500046  0.750000  1
  Sm  Sm5  1  0.000049  0.999945  0.250000  1
  Sm  Sm6  1  0.999933  0.000068  0.750000  1
  Sm  Sm7  1  0.500179  0.499817  0.250000  1
  Si  Si8  1  0.164423  0.835576  0.499999  1
  Si  Si9  1  0.165428  0.329406  0.498150  1
  Si  Si10  1  0.670592  0.834570  0.498150  1
  Si  Si11  1  0.835575  0.164425  0.500026  1
  Si  Si12  1  0.834582  0.670602  0.497779  1
  Si  Si13  1  0.329396  0.165417  0.497778  1
  Si  Si14  1  0.835575  0.164425  0.999974  1
  Si  Si15  1  0.834582  0.670602  0.002221  1
  Si  Si16  1  0.329396  0.165417  0.002222  1
  Si  Si17  1  0.164423  0.835576  0.000001  1
  Si  Si18  1  0.165428  0.329406  0.001850  1
  Si  Si19  1  0.670592  0.834570  0.001850  1
  Pt  Pt20  1  0.333700  0.666300  0.495870  1
  Pt  Pt21  1  0.666303  0.333696  0.497478  1
  Pt  Pt22  1  0.666303  0.333696  0.002522  1
  Pt  Pt23  1  0.333700  0.666300  0.004130  1
