# generated using pymatgen
data_LiPaReB6
_symmetry_space_group_name_H-M   'P 1'
_cell_length_a   3.62148100
_cell_length_b   8.81723400
_cell_length_c   11.24153400
_cell_angle_alpha   90.00000000
_cell_angle_beta   90.00000000
_cell_angle_gamma   90.00000000
_symmetry_Int_Tables_number   1
_chemical_formula_structural   LiPaReB6
_chemical_formula_sum   'Li4 Pa4 Re4 B24'
_cell_volume   358.95842917
_cell_formula_units_Z   4
loop_
 _symmetry_equiv_pos_site_id
 _symmetry_equiv_pos_as_xyz
  1  'x, y, z'
loop_
 _atom_site_type_symbol
 _atom_site_label
 _atom_site_symmetry_multiplicity
 _atom_site_fract_x
 _atom_site_fract_y
 _atom_site_fract_z
 _atom_site_occupancy
  Li  Li0  1  0.000000  0.945281  0.374906  1
  Li  Li1  1  0.000000  0.054719  0.625094  1
  Li  Li2  1  0.000000  0.445281  0.125094  1
  Li  Li3  1  0.000000  0.554719  0.874906  1
  Pa  Pa4  1  0.000000  0.318208  0.413146  1
  Pa  Pa5  1  0.000000  0.681792  0.586854  1
  Pa  Pa6  1  0.000000  0.818208  0.086854  1
  Pa  Pa7  1  0.000000  0.181792  0.913146  1
  Re  Re8  1  0.000000  0.640554  0.318789  1
  Re  Re9  1  0.000000  0.359446  0.681211  1
  Re  Re10  1  0.000000  0.140554  0.181211  1
  Re  Re11  1  0.000000  0.859446  0.818789  1
  B  B12  1  0.500000  0.555139  0.433294  1
  B  B13  1  0.500000  0.444861  0.566706  1
  B  B14  1  0.500000  0.055139  0.066706  1
  B  B15  1  0.500000  0.944861  0.933294  1
  B  B16  1  0.500000  0.757458  0.417571  1
  B  B17  1  0.500000  0.242542  0.582429  1
  B  B18  1  0.500000  0.257458  0.082429  1
  B  B19  1  0.500000  0.742542  0.917571  1
  B  B20  1  0.500000  0.791923  0.263129  1
  B  B21  1  0.500000  0.208077  0.736871  1
  B  B22  1  0.500000  0.291923  0.236871  1
  B  B23  1  0.500000  0.708077  0.763129  1
  B  B24  1  0.500000  0.624317  0.181945  1
  B  B25  1  0.500000  0.375683  0.818055  1
  B  B26  1  0.500000  0.124317  0.318055  1
  B  B27  1  0.500000  0.875683  0.681945  1
  B  B28  1  0.500000  0.979377  0.212778  1
  B  B29  1  0.500000  0.020623  0.787222  1
  B  B30  1  0.500000  0.479377  0.287222  1
  B  B31  1  0.500000  0.520623  0.712778  1
  B  B32  1  0.500000  0.591216  0.025767  1
  B  B33  1  0.500000  0.408784  0.974233  1
  B  B34  1  0.500000  0.091216  0.474233  1
  B  B35  1  0.500000  0.908784  0.525767  1
