# generated using pymatgen
data_La4ZrV3F28
_symmetry_space_group_name_H-M   'P 1'
_cell_length_a   5.77023143
_cell_length_b   9.31956487
_cell_length_c   12.40388357
_cell_angle_alpha   62.66845389
_cell_angle_beta   90.10364766
_cell_angle_gamma   89.96121195
_symmetry_Int_Tables_number   1
_chemical_formula_structural   La4ZrV3F28
_chemical_formula_sum   'La4 Zr1 V3 F28'
_cell_volume   592.56561156
_cell_formula_units_Z   1
loop_
 _symmetry_equiv_pos_site_id
 _symmetry_equiv_pos_as_xyz
  1  'x, y, z'
loop_
 _atom_site_type_symbol
 _atom_site_label
 _atom_site_symmetry_multiplicity
 _atom_site_fract_x
 _atom_site_fract_y
 _atom_site_fract_z
 _atom_site_occupancy
  La  La0  1  0.758223  0.810848  0.260399  1
  La  La1  1  0.258476  0.195042  0.232394  1
  La  La2  1  0.242497  0.193151  0.731708  1
  La  La3  1  0.741153  0.807563  0.775038  1
  Zr  Zr4  1  0.246601  0.727917  0.542069  1
  V  V5  1  0.745143  0.274579  0.955865  1
  V  V6  1  0.755399  0.274470  0.455514  1
  V  V7  1  0.254275  0.725595  0.044431  1
  F  F8  1  0.953121  0.713190  0.454449  1
  F  F9  1  0.475054  0.284003  0.042454  1
  F  F10  1  0.026054  0.283556  0.542491  1
  F  F11  1  0.526168  0.713910  0.960200  1
  F  F12  1  0.060385  0.709704  0.926798  1
  F  F13  1  0.560224  0.289357  0.573558  1
  F  F14  1  0.940220  0.289353  0.073811  1
  F  F15  1  0.452002  0.706868  0.417451  1
  F  F16  1  0.736877  0.496689  0.867657  1
  F  F17  1  0.233785  0.482949  0.641189  1
  F  F18  1  0.263232  0.503783  0.132990  1
  F  F19  1  0.764426  0.496762  0.366597  1
  F  F20  1  0.740029  0.052707  0.043541  1
  F  F21  1  0.238173  0.971442  0.445980  1
  F  F22  1  0.259542  0.945621  0.956560  1
  F  F23  1  0.759597  0.053703  0.543545  1
  F  F24  1  0.043208  0.744440  0.671546  1
  F  F25  1  0.550490  0.255065  0.837555  1
  F  F26  1  0.948963  0.258016  0.335535  1
  F  F27  1  0.447968  0.743351  0.163022  1
  F  F28  1  0.009165  0.266570  0.867136  1
  F  F29  1  0.530502  0.731219  0.639584  1
  F  F30  1  0.988913  0.731480  0.132907  1
  F  F31  1  0.491052  0.270053  0.364628  1
  F  F32  1  0.089630  0.969320  0.231084  1
  F  F33  1  0.586570  0.028056  0.269418  1
  F  F34  1  0.911924  0.030955  0.770993  1
  F  F35  1  0.410959  0.968713  0.729901  1
