# generated using pymatgen
data_Y16MgCd(InPd2)2
_symmetry_space_group_name_H-M   'P 1'
_cell_length_a   9.76490555
_cell_length_b   9.78347716
_cell_length_c   9.79171800
_cell_angle_alpha   59.97213229
_cell_angle_beta   59.90912811
_cell_angle_gamma   59.97968302
_symmetry_Int_Tables_number   1
_chemical_formula_structural   Y16MgCd(InPd2)2
_chemical_formula_sum   'Y16 Mg1 Cd1 In2 Pd4'
_cell_volume   660.76647836
_cell_formula_units_Z   1
loop_
 _symmetry_equiv_pos_site_id
 _symmetry_equiv_pos_as_xyz
  1  'x, y, z'
loop_
 _atom_site_type_symbol
 _atom_site_label
 _atom_site_symmetry_multiplicity
 _atom_site_fract_x
 _atom_site_fract_y
 _atom_site_fract_z
 _atom_site_occupancy
  Y  Y0  1  0.351102  0.351842  0.350581  1
  Y  Y1  1  0.351102  0.351842  0.946475  1
  Y  Y2  1  0.355575  0.936798  0.353814  1
  Y  Y3  1  0.941415  0.355119  0.351733  1
  Y  Y4  1  0.809898  0.189838  0.190597  1
  Y  Y5  1  0.191969  0.808400  0.808715  1
  Y  Y6  1  0.191969  0.808400  0.190915  1
  Y  Y7  1  0.809898  0.189838  0.809667  1
  Y  Y8  1  0.189454  0.187625  0.811461  1
  Y  Y9  1  0.807530  0.807838  0.192316  1
  Y  Y10  1  0.937417  0.564964  0.565133  1
  Y  Y11  1  0.566062  0.934521  0.933749  1
  Y  Y12  1  0.566062  0.934521  0.565668  1
  Y  Y13  1  0.937417  0.564964  0.932485  1
  Y  Y14  1  0.566674  0.565854  0.933736  1
  Y  Y15  1  0.937581  0.935984  0.563217  1
  Mg  Mg16  1  0.573970  0.270652  0.577690  1
  Cd  Cd17  1  0.252432  0.579954  0.583808  1
  In  In18  1  0.582003  0.582356  0.585091  1
  In  In19  1  0.582003  0.582356  0.250550  1
  Pd  Pd20  1  0.143793  0.142413  0.146051  1
  Pd  Pd21  1  0.143793  0.142413  0.567741  1
  Pd  Pd22  1  0.141667  0.570866  0.143733  1
  Pd  Pd23  1  0.569211  0.140642  0.145073  1
