# generated using pymatgen
data_Th4Al24RuPt8
_symmetry_space_group_name_H-M   'P 1'
_cell_length_a   7.61577888
_cell_length_b   7.63962229
_cell_length_c   13.23921617
_cell_angle_alpha   84.55685875
_cell_angle_beta   78.99625197
_cell_angle_gamma   59.89110013
_symmetry_Int_Tables_number   1
_chemical_formula_structural   Th4Al24RuPt8
_chemical_formula_sum   'Th4 Al24 Ru1 Pt8'
_cell_volume   654.09723436
_cell_formula_units_Z   1
loop_
 _symmetry_equiv_pos_site_id
 _symmetry_equiv_pos_as_xyz
  1  'x, y, z'
loop_
 _atom_site_type_symbol
 _atom_site_label
 _atom_site_symmetry_multiplicity
 _atom_site_fract_x
 _atom_site_fract_y
 _atom_site_fract_z
 _atom_site_occupancy
  Th  Th0  1  0.394031  0.168471  0.807666  1
  Th  Th1  1  0.605969  0.831529  0.192334  1
  Th  Th2  1  0.733966  0.498466  0.807514  1
  Th  Th3  1  0.266034  0.501534  0.192486  1
  Al  Al4  1  0.691343  0.828848  0.947273  1
  Al  Al5  1  0.308657  0.171152  0.052727  1
  Al  Al6  1  0.146186  0.832996  0.560745  1
  Al  Al7  1  0.853814  0.167004  0.439255  1
  Al  Al8  1  0.482152  0.166294  0.557668  1
  Al  Al9  1  0.517848  0.833706  0.442332  1
  Al  Al10  1  0.211533  0.165220  0.333621  1
  Al  Al11  1  0.788467  0.834780  0.666379  1
  Al  Al12  1  0.434343  0.511297  0.666440  1
  Al  Al13  1  0.565657  0.488703  0.333560  1
  Al  Al14  1  0.111818  0.155979  0.663925  1
  Al  Al15  1  0.888182  0.844021  0.336075  1
  Al  Al16  1  0.343646  0.502724  0.947250  1
  Al  Al17  1  0.656354  0.497276  0.052750  1
  Al  Al18  1  0.013408  0.170135  0.959267  1
  Al  Al19  1  0.986592  0.829865  0.040733  1
  Al  Al20  1  0.186585  0.499661  0.442718  1
  Al  Al21  1  0.813415  0.500339  0.557282  1
  Al  Al22  1  0.739256  0.162395  0.182784  1
  Al  Al23  1  0.260744  0.837605  0.817216  1
  Al  Al24  1  0.060351  0.632839  0.818481  1
  Al  Al25  1  0.939649  0.367161  0.181519  1
  Al  Al26  1  0.860627  0.037923  0.816682  1
  Al  Al27  1  0.139373  0.962077  0.183318  1
  Ru  Ru28  1  0.000000  0.500000  0.000000  1
  Pt  Pt29  1  0.120260  0.491881  0.639001  1
  Pt  Pt30  1  0.879740  0.508119  0.360999  1
  Pt  Pt31  1  0.655994  0.172083  0.999808  1
  Pt  Pt32  1  0.344006  0.827917  0.000192  1
  Pt  Pt33  1  0.537085  0.166637  0.361599  1
  Pt  Pt34  1  0.462915  0.833363  0.638401  1
  Pt  Pt35  1  0.778825  0.175417  0.637319  1
  Pt  Pt36  1  0.221175  0.824583  0.362681  1
