# generated using pymatgen
data_Nb8VCoSe16
_symmetry_space_group_name_H-M   'P 1'
_cell_length_a   6.99844600
_cell_length_b   6.99844561
_cell_length_c   12.68217800
_cell_angle_alpha   90.00000000
_cell_angle_beta   90.00000000
_cell_angle_gamma   120.00001128
_symmetry_Int_Tables_number   1
_chemical_formula_structural   Nb8VCoSe16
_chemical_formula_sum   'Nb8 V1 Co1 Se16'
_cell_volume   537.93231550
_cell_formula_units_Z   1
loop_
 _symmetry_equiv_pos_site_id
 _symmetry_equiv_pos_as_xyz
  1  'x, y, z'
loop_
 _atom_site_type_symbol
 _atom_site_label
 _atom_site_symmetry_multiplicity
 _atom_site_fract_x
 _atom_site_fract_y
 _atom_site_fract_z
 _atom_site_occupancy
  Nb  Nb0  1  0.000000  0.000000  0.247123  1
  Nb  Nb1  1  0.000000  0.000000  0.752877  1
  Nb  Nb2  1  0.507792  0.015585  0.247475  1
  Nb  Nb3  1  0.984415  0.492208  0.247475  1
  Nb  Nb4  1  0.507792  0.492208  0.247475  1
  Nb  Nb5  1  0.492208  0.984415  0.752525  1
  Nb  Nb6  1  0.015585  0.507792  0.752525  1
  Nb  Nb7  1  0.492208  0.507792  0.752525  1
  V  V8  1  0.000000  0.000000  0.500000  1
  Co  Co9  1  0.000000  0.000000  0.000000  1
  Se  Se10  1  0.333333  0.666667  0.888352  1
  Se  Se11  1  0.666667  0.333333  0.111648  1
  Se  Se12  1  0.666667  0.333333  0.384848  1
  Se  Se13  1  0.333333  0.666667  0.615152  1
  Se  Se14  1  0.167467  0.832533  0.378509  1
  Se  Se15  1  0.167467  0.334935  0.378509  1
  Se  Se16  1  0.665065  0.832533  0.378509  1
  Se  Se17  1  0.832533  0.167467  0.621491  1
  Se  Se18  1  0.832533  0.665065  0.621491  1
  Se  Se19  1  0.334935  0.167467  0.621491  1
  Se  Se20  1  0.832376  0.167624  0.883113  1
  Se  Se21  1  0.832376  0.664751  0.883113  1
  Se  Se22  1  0.335249  0.167624  0.883113  1
  Se  Se23  1  0.167624  0.832376  0.116887  1
  Se  Se24  1  0.167624  0.335249  0.116887  1
  Se  Se25  1  0.664751  0.832376  0.116887  1
