# generated using pymatgen
data_Ce2VPdF14
_symmetry_space_group_name_H-M   'P 1'
_cell_length_a   5.66584765
_cell_length_b   9.09897987
_cell_length_c   12.18390100
_cell_angle_alpha   62.75639960
_cell_angle_beta   90.32051677
_cell_angle_gamma   90.13151061
_symmetry_Int_Tables_number   1
_chemical_formula_structural   Ce2VPdF14
_chemical_formula_sum   'Ce4 V2 Pd2 F28'
_cell_volume   558.43452219
_cell_formula_units_Z   2
loop_
 _symmetry_equiv_pos_site_id
 _symmetry_equiv_pos_as_xyz
  1  'x, y, z'
loop_
 _atom_site_type_symbol
 _atom_site_label
 _atom_site_symmetry_multiplicity
 _atom_site_fract_x
 _atom_site_fract_y
 _atom_site_fract_z
 _atom_site_occupancy
  Ce  Ce0  1  0.250931  0.793752  0.274661  1
  Ce  Ce1  1  0.749069  0.206248  0.725339  1
  Ce  Ce2  1  0.756177  0.183491  0.242120  1
  Ce  Ce3  1  0.243823  0.816509  0.757880  1
  V  V4  1  0.752804  0.729617  0.039265  1
  V  V5  1  0.247196  0.270383  0.960735  1
  Pd  Pd6  1  0.256414  0.270805  0.456693  1
  Pd  Pd7  1  0.743586  0.729195  0.543307  1
  F  F8  1  0.947569  0.708398  0.404451  1
  F  F9  1  0.052431  0.291602  0.595549  1
  F  F10  1  0.458723  0.286665  0.075496  1
  F  F11  1  0.541277  0.713335  0.924504  1
  F  F12  1  0.492853  0.742071  0.133575  1
  F  F13  1  0.507147  0.257929  0.866425  1
  F  F14  1  0.962602  0.281598  0.345251  1
  F  F15  1  0.037398  0.718402  0.654749  1
  F  F16  1  0.961536  0.751682  0.156957  1
  F  F17  1  0.038464  0.248318  0.843043  1
  F  F18  1  0.452830  0.255742  0.313771  1
  F  F19  1  0.547170  0.744258  0.686229  1
  F  F20  1  0.763423  0.505001  0.128541  1
  F  F21  1  0.236577  0.494999  0.871459  1
  F  F22  1  0.281112  0.527733  0.348107  1
  F  F23  1  0.718888  0.472267  0.651893  1
  F  F24  1  0.976807  0.279239  0.053688  1
  F  F25  1  0.023193  0.720761  0.946312  1
  F  F26  1  0.429952  0.727030  0.449979  1
  F  F27  1  0.570048  0.272970  0.550021  1
  F  F28  1  0.743138  0.986894  0.437483  1
  F  F29  1  0.256862  0.013106  0.562517  1
  F  F30  1  0.241364  0.045120  0.049365  1
  F  F31  1  0.758636  0.954880  0.950635  1
  F  F32  1  0.579509  0.969798  0.230765  1
  F  F33  1  0.420491  0.030202  0.769235  1
  F  F34  1  0.086718  0.023518  0.268002  1
  F  F35  1  0.913282  0.976482  0.731998  1
