# generated using pymatgen
data_Dy10CoAg3
_symmetry_space_group_name_H-M   'P 1'
_cell_length_a   9.44832300
_cell_length_b   9.44832434
_cell_length_c   9.59708700
_cell_angle_alpha   90.00000000
_cell_angle_beta   90.00000000
_cell_angle_gamma   119.99999881
_symmetry_Int_Tables_number   1
_chemical_formula_structural   Dy10CoAg3
_chemical_formula_sum   'Dy20 Co2 Ag6'
_cell_volume   741.95846420
_cell_formula_units_Z   2
loop_
 _symmetry_equiv_pos_site_id
 _symmetry_equiv_pos_as_xyz
  1  'x, y, z'
loop_
 _atom_site_type_symbol
 _atom_site_label
 _atom_site_symmetry_multiplicity
 _atom_site_fract_x
 _atom_site_fract_y
 _atom_site_fract_z
 _atom_site_occupancy
  Dy  Dy0  1  0.000000  0.000000  0.500000  1
  Dy  Dy1  1  0.000000  0.000000  0.000000  1
  Dy  Dy2  1  0.543345  0.456655  0.250000  1
  Dy  Dy3  1  0.543345  0.086689  0.250000  1
  Dy  Dy4  1  0.913311  0.456655  0.250000  1
  Dy  Dy5  1  0.456655  0.543345  0.750000  1
  Dy  Dy6  1  0.456655  0.913311  0.750000  1
  Dy  Dy7  1  0.086689  0.543345  0.750000  1
  Dy  Dy8  1  0.210974  0.789026  0.437664  1
  Dy  Dy9  1  0.210974  0.421950  0.437664  1
  Dy  Dy10  1  0.578050  0.789026  0.437664  1
  Dy  Dy11  1  0.789026  0.210974  0.562336  1
  Dy  Dy12  1  0.789026  0.578050  0.562336  1
  Dy  Dy13  1  0.421950  0.210974  0.562336  1
  Dy  Dy14  1  0.789026  0.210974  0.937664  1
  Dy  Dy15  1  0.789026  0.578050  0.937664  1
  Dy  Dy16  1  0.421950  0.210974  0.937664  1
  Dy  Dy17  1  0.210974  0.789026  0.062336  1
  Dy  Dy18  1  0.210974  0.421950  0.062336  1
  Dy  Dy19  1  0.578050  0.789026  0.062336  1
  Co  Co20  1  0.333333  0.666667  0.250000  1
  Co  Co21  1  0.666667  0.333333  0.750000  1
  Ag  Ag22  1  0.884292  0.115708  0.250000  1
  Ag  Ag23  1  0.884292  0.768585  0.250000  1
  Ag  Ag24  1  0.231415  0.115708  0.250000  1
  Ag  Ag25  1  0.115708  0.884292  0.750000  1
  Ag  Ag26  1  0.115708  0.231415  0.750000  1
  Ag  Ag27  1  0.768585  0.884292  0.750000  1
