# generated using pymatgen
data_Zr6Zn17Pt6S
_symmetry_space_group_name_H-M   'P 1'
_cell_length_a   8.82248104
_cell_length_b   8.82248113
_cell_length_c   8.82248200
_cell_angle_alpha   60.00000424
_cell_angle_beta   60.00000388
_cell_angle_gamma   60.00000295
_symmetry_Int_Tables_number   1
_chemical_formula_structural   Zr6Zn17Pt6S
_chemical_formula_sum   'Zr6 Zn17 Pt6 S1'
_cell_volume   485.57608714
_cell_formula_units_Z   1
loop_
 _symmetry_equiv_pos_site_id
 _symmetry_equiv_pos_as_xyz
  1  'x, y, z'
loop_
 _atom_site_type_symbol
 _atom_site_label
 _atom_site_symmetry_multiplicity
 _atom_site_fract_x
 _atom_site_fract_y
 _atom_site_fract_z
 _atom_site_occupancy
  Zr  Zr0  1  0.706312  0.293688  0.293688  1
  Zr  Zr1  1  0.293688  0.706312  0.706312  1
  Zr  Zr2  1  0.293688  0.706312  0.293688  1
  Zr  Zr3  1  0.706312  0.293688  0.706312  1
  Zr  Zr4  1  0.293688  0.293688  0.706312  1
  Zr  Zr5  1  0.706312  0.706312  0.293688  1
  Zn  Zn6  1  0.121946  0.121946  0.121946  1
  Zn  Zn7  1  0.878054  0.878054  0.878054  1
  Zn  Zn8  1  0.121946  0.121946  0.634162  1
  Zn  Zn9  1  0.121946  0.634162  0.121946  1
  Zn  Zn10  1  0.878054  0.878054  0.365838  1
  Zn  Zn11  1  0.878054  0.365838  0.878054  1
  Zn  Zn12  1  0.634162  0.121946  0.121946  1
  Zn  Zn13  1  0.365838  0.878054  0.878054  1
  Zn  Zn14  1  0.336304  0.336304  0.336304  1
  Zn  Zn15  1  0.663696  0.663696  0.663696  1
  Zn  Zn16  1  0.336304  0.336304  0.991089  1
  Zn  Zn17  1  0.336304  0.991089  0.336304  1
  Zn  Zn18  1  0.663696  0.663696  0.008911  1
  Zn  Zn19  1  0.663696  0.008911  0.663696  1
  Zn  Zn20  1  0.991089  0.336304  0.336304  1
  Zn  Zn21  1  0.008911  0.663696  0.663696  1
  Zn  Zn22  1  0.000000  0.000000  0.000000  1
  Pt  Pt23  1  0.500000  0.000000  0.000000  1
  Pt  Pt24  1  0.000000  0.500000  0.500000  1
  Pt  Pt25  1  0.000000  0.500000  0.000000  1
  Pt  Pt26  1  0.500000  0.000000  0.500000  1
  Pt  Pt27  1  0.000000  0.000000  0.500000  1
  Pt  Pt28  1  0.500000  0.500000  0.000000  1
  S  S29  1  0.500000  0.500000  0.500000  1
