# generated using pymatgen
data_La6OsPtBr6
_symmetry_space_group_name_H-M   'P 1'
_cell_length_a   10.72481607
_cell_length_b   10.72583325
_cell_length_c   10.64209000
_cell_angle_alpha   109.44185294
_cell_angle_beta   109.43807050
_cell_angle_gamma   109.84826199
_symmetry_Int_Tables_number   1
_chemical_formula_structural   La6OsPtBr6
_chemical_formula_sum   'La12 Os2 Pt2 Br12'
_cell_volume   938.69200472
_cell_formula_units_Z   2
loop_
 _symmetry_equiv_pos_site_id
 _symmetry_equiv_pos_as_xyz
  1  'x, y, z'
loop_
 _atom_site_type_symbol
 _atom_site_label
 _atom_site_symmetry_multiplicity
 _atom_site_fract_x
 _atom_site_fract_y
 _atom_site_fract_z
 _atom_site_occupancy
  La  La0  1  0.469914  0.490266  0.231634  1
  La  La1  1  0.758628  0.238285  0.268382  1
  La  La2  1  0.758633  0.020423  0.488718  1
  La  La3  1  0.230085  0.468295  0.488718  1
  La  La4  1  0.261720  0.741368  0.231635  1
  La  La5  1  0.031694  0.269915  0.011281  1
  La  La6  1  0.009754  0.030097  0.268382  1
  La  La7  1  0.479588  0.741368  0.011281  1
  La  La8  1  0.485696  0.235697  0.471393  1
  La  La9  1  0.015650  0.484325  0.749989  1
  La  La10  1  0.264303  0.014303  0.028606  1
  La  La11  1  0.234340  0.265663  0.749990  1
  Os  Os12  1  0.999265  0.249265  0.498529  1
  Os  Os13  1  0.250741  0.500741  0.001482  1
  Pt  Pt14  1  0.250703  0.249292  0.249998  1
  Pt  Pt15  1  0.499297  0.000706  0.249999  1
  Br  Br16  1  0.250355  0.755414  0.746121  1
  Br  Br17  1  0.509305  0.504242  0.753880  1
  Br  Br18  1  0.993135  0.746832  0.996532  1
  Br  Br19  1  0.744576  0.249639  0.753881  1
  Br  Br20  1  0.995765  0.990706  0.746120  1
  Br  Br21  1  0.250301  0.996604  0.503465  1
  Br  Br22  1  0.753163  0.506862  0.503465  1
  Br  Br23  1  0.503396  0.249698  0.996531  1
  Br  Br24  1  0.754692  0.745313  0.250001  1
  Br  Br25  1  0.746149  0.996148  0.992296  1
  Br  Br26  1  0.995309  0.504688  0.250003  1
  Br  Br27  1  0.503844  0.753844  0.507689  1
