# generated using pymatgen
data_Hf7Ni16MoP12
_symmetry_space_group_name_H-M   'P 1'
_cell_length_a   12.12678579
_cell_length_b   12.12678612
_cell_length_c   3.64678200
_cell_angle_alpha   90.00000000
_cell_angle_beta   90.00000000
_cell_angle_gamma   119.84997399
_symmetry_Int_Tables_number   1
_chemical_formula_structural   Hf7Ni16MoP12
_chemical_formula_sum   'Hf7 Ni16 Mo1 P12'
_cell_volume   465.14293084
_cell_formula_units_Z   1
loop_
 _symmetry_equiv_pos_site_id
 _symmetry_equiv_pos_as_xyz
  1  'x, y, z'
loop_
 _atom_site_type_symbol
 _atom_site_label
 _atom_site_symmetry_multiplicity
 _atom_site_fract_x
 _atom_site_fract_y
 _atom_site_fract_z
 _atom_site_occupancy
  Hf  Hf0  1  0.821343  0.821343  0.500000  1
  Hf  Hf1  1  0.998371  0.175027  0.500000  1
  Hf  Hf2  1  0.555405  0.000833  0.000000  1
  Hf  Hf3  1  0.334705  0.666463  0.000000  1
  Hf  Hf4  1  0.666463  0.334705  0.000000  1
  Hf  Hf5  1  0.000833  0.555405  0.000000  1
  Hf  Hf6  1  0.175027  0.998371  0.500000  1
  Ni  Ni7  1  0.630099  0.816610  0.000000  1
  Ni  Ni8  1  0.371958  0.193815  0.000000  1
  Ni  Ni9  1  0.000457  0.725115  0.500000  1
  Ni  Ni10  1  0.277868  0.277868  0.500000  1
  Ni  Ni11  1  0.874497  0.354383  0.500000  1
  Ni  Ni12  1  0.725115  0.000457  0.500000  1
  Ni  Ni13  1  0.816610  0.630099  0.000000  1
  Ni  Ni14  1  0.180782  0.811849  0.000000  1
  Ni  Ni15  1  0.354383  0.874497  0.500000  1
  Ni  Ni16  1  0.130388  0.479806  0.500000  1
  Ni  Ni17  1  0.643620  0.516369  0.500000  1
  Ni  Ni18  1  0.999953  0.999953  0.000000  1
  Ni  Ni19  1  0.516369  0.643620  0.500000  1
  Ni  Ni20  1  0.479806  0.130388  0.500000  1
  Ni  Ni21  1  0.193815  0.371958  0.000000  1
  Ni  Ni22  1  0.811849  0.180782  0.000000  1
  Mo  Mo23  1  0.446999  0.446999  0.000000  1
  P  P24  1  0.002482  0.349460  0.000000  1
  P  P25  1  0.827194  0.514519  0.500000  1
  P  P26  1  0.686353  0.173918  0.500000  1
  P  P27  1  0.175476  0.175476  0.000000  1
  P  P28  1  0.641953  0.641953  0.000000  1
  P  P29  1  0.823057  0.998034  0.000000  1
  P  P30  1  0.514519  0.827194  0.500000  1
  P  P31  1  0.173918  0.686353  0.500000  1
  P  P32  1  0.349460  0.002482  0.000000  1
  P  P33  1  0.483302  0.317536  0.500000  1
  P  P34  1  0.998034  0.823057  0.000000  1
  P  P35  1  0.317536  0.483302  0.500000  1
