# generated using pymatgen
data_Ho4B16Mo3W
_symmetry_space_group_name_H-M   'P 1'
_cell_length_a   3.61425900
_cell_length_b   6.01812503
_cell_length_c   11.63355606
_cell_angle_alpha   90.01130915
_cell_angle_beta   90.00000000
_cell_angle_gamma   90.00000000
_symmetry_Int_Tables_number   1
_chemical_formula_structural   Ho4B16Mo3W
_chemical_formula_sum   'Ho4 B16 Mo3 W1'
_cell_volume   253.04220054
_cell_formula_units_Z   1
loop_
 _symmetry_equiv_pos_site_id
 _symmetry_equiv_pos_as_xyz
  1  'x, y, z'
loop_
 _atom_site_type_symbol
 _atom_site_label
 _atom_site_symmetry_multiplicity
 _atom_site_fract_x
 _atom_site_fract_y
 _atom_site_fract_z
 _atom_site_occupancy
  Ho  Ho0  1  0.000000  0.626979  0.350387  1
  Ho  Ho1  1  0.000000  0.373048  0.649867  1
  Ho  Ho2  1  0.000000  0.127075  0.149700  1
  Ho  Ho3  1  0.000000  0.873255  0.850119  1
  B  B4  1  0.500000  0.787362  0.186696  1
  B  B5  1  0.500000  0.213159  0.813639  1
  B  B6  1  0.500000  0.286850  0.313617  1
  B  B7  1  0.500000  0.713112  0.686456  1
  B  B8  1  0.500000  0.867222  0.031855  1
  B  B9  1  0.500000  0.133304  0.967875  1
  B  B10  1  0.500000  0.367097  0.468014  1
  B  B11  1  0.500000  0.632951  0.532006  1
  B  B12  1  0.500000  0.885566  0.452456  1
  B  B13  1  0.500000  0.114348  0.547605  1
  B  B14  1  0.500000  0.385447  0.047358  1
  B  B15  1  0.500000  0.614051  0.952301  1
  B  B16  1  0.500000  0.976098  0.306383  1
  B  B17  1  0.500000  0.024039  0.693669  1
  B  B18  1  0.500000  0.475683  0.193663  1
  B  B19  1  0.500000  0.523787  0.806448  1
  Mo  Mo20  1  0.000000  0.369453  0.915781  1
  Mo  Mo21  1  0.000000  0.129920  0.416092  1
  Mo  Mo22  1  0.000000  0.869966  0.583835  1
  W  W23  1  0.000000  0.630229  0.084179  1
