# generated using pymatgen
data_AcFeH6
_symmetry_space_group_name_H-M   'P 1'
_cell_length_a   4.69571665
_cell_length_b   4.69571801
_cell_length_c   4.69743670
_cell_angle_alpha   60.84418046
_cell_angle_beta   60.84418069
_cell_angle_gamma   60.84465358
_symmetry_Int_Tables_number   1
_chemical_formula_structural   AcFeH6
_chemical_formula_sum   'Ac1 Fe1 H6'
_cell_volume   74.63464028
_cell_formula_units_Z   1
loop_
 _symmetry_equiv_pos_site_id
 _symmetry_equiv_pos_as_xyz
  1  'x, y, z'
loop_
 _atom_site_type_symbol
 _atom_site_label
 _atom_site_symmetry_multiplicity
 _atom_site_fract_x
 _atom_site_fract_y
 _atom_site_fract_z
 _atom_site_occupancy
  Ac  Ac0  1  0.500000  0.500000  0.500000  1
  Fe  Fe1  1  0.000000  0.000000  0.000000  1
  H  H2  1  0.597721  0.097019  0.096845  1
  H  H3  1  0.097019  0.597721  0.096845  1
  H  H4  1  0.903284  0.903284  0.401566  1
  H  H5  1  0.096716  0.096716  0.598433  1
  H  H6  1  0.902981  0.402278  0.903155  1
  H  H7  1  0.402278  0.902981  0.903155  1
