# generated using pymatgen
data_Er4ZnIn3
_symmetry_space_group_name_H-M   'P 1'
_cell_length_a   3.58855500
_cell_length_b   3.58855500
_cell_length_c   15.50647400
_cell_angle_alpha   90.00000000
_cell_angle_beta   90.00000000
_cell_angle_gamma   90.00000000
_symmetry_Int_Tables_number   1
_chemical_formula_structural   Er4ZnIn3
_chemical_formula_sum   'Er4 Zn1 In3'
_cell_volume   199.68813872
_cell_formula_units_Z   1
loop_
 _symmetry_equiv_pos_site_id
 _symmetry_equiv_pos_as_xyz
  1  'x, y, z'
loop_
 _atom_site_type_symbol
 _atom_site_label
 _atom_site_symmetry_multiplicity
 _atom_site_fract_x
 _atom_site_fract_y
 _atom_site_fract_z
 _atom_site_occupancy
  Er  Er0  1  0.500000  0.500000  0.111465  1
  Er  Er1  1  0.500000  0.500000  0.370729  1
  Er  Er2  1  0.500000  0.500000  0.629271  1
  Er  Er3  1  0.500000  0.500000  0.888535  1
  Zn  Zn4  1  0.000000  0.000000  0.000000  1
  In  In5  1  0.000000  0.000000  0.240561  1
  In  In6  1  0.000000  0.000000  0.500000  1
  In  In7  1  0.000000  0.000000  0.759439  1
