# generated using pymatgen
data_CaYb4Sn3F
_symmetry_space_group_name_H-M   'P 1'
_cell_length_a   9.36156295
_cell_length_b   9.36156256
_cell_length_c   9.35895766
_cell_angle_alpha   128.28195287
_cell_angle_beta   128.28195018
_cell_angle_gamma   76.14053422
_symmetry_Int_Tables_number   1
_chemical_formula_structural   CaYb4Sn3F
_chemical_formula_sum   'Ca2 Yb8 Sn6 F2'
_cell_volume   491.34655039
_cell_formula_units_Z   2
loop_
 _symmetry_equiv_pos_site_id
 _symmetry_equiv_pos_as_xyz
  1  'x, y, z'
loop_
 _atom_site_type_symbol
 _atom_site_label
 _atom_site_symmetry_multiplicity
 _atom_site_fract_x
 _atom_site_fract_y
 _atom_site_fract_z
 _atom_site_occupancy
  Ca  Ca0  1  0.500000  0.500000  0.000000  1
  Ca  Ca1  1  0.000000  0.000000  0.000000  1
  Yb  Yb2  1  0.504462  0.004462  0.816249  1
  Yb  Yb3  1  0.188367  0.688367  0.183865  1
  Yb  Yb4  1  0.004427  0.188343  0.499975  1
  Yb  Yb5  1  0.688343  0.504427  0.499975  1
  Yb  Yb6  1  0.495538  0.995538  0.183751  1
  Yb  Yb7  1  0.811633  0.311633  0.816135  1
  Yb  Yb8  1  0.995573  0.811657  0.500025  1
  Yb  Yb9  1  0.311657  0.495573  0.500025  1
  Sn  Sn10  1  0.250040  0.249960  0.000000  1
  Sn  Sn11  1  0.749960  0.750040  0.000000  1
  Sn  Sn12  1  0.871431  0.371431  0.242819  1
  Sn  Sn13  1  0.128569  0.628569  0.757181  1
  Sn  Sn14  1  0.371403  0.128597  0.500000  1
  Sn  Sn15  1  0.628597  0.871403  0.500000  1
  F  F16  1  0.249993  0.749993  0.500007  1
  F  F17  1  0.750007  0.250007  0.499993  1
