# generated using pymatgen
data_Th2Np6CrSe17
_symmetry_space_group_name_H-M   'P 1'
_cell_length_a   8.25283071
_cell_length_b   8.25282913
_cell_length_c   10.99147255
_cell_angle_alpha   80.52769111
_cell_angle_beta   80.52769689
_cell_angle_gamma   65.23898890
_symmetry_Int_Tables_number   1
_chemical_formula_structural   Th2Np6CrSe17
_chemical_formula_sum   'Th2 Np6 Cr1 Se17'
_cell_volume   666.69168177
_cell_formula_units_Z   1
loop_
 _symmetry_equiv_pos_site_id
 _symmetry_equiv_pos_as_xyz
  1  'x, y, z'
loop_
 _atom_site_type_symbol
 _atom_site_label
 _atom_site_symmetry_multiplicity
 _atom_site_fract_x
 _atom_site_fract_y
 _atom_site_fract_z
 _atom_site_occupancy
  Th  Th0  1  0.680513  0.680513  0.979554  1
  Th  Th1  1  0.319487  0.319487  0.020446  1
  Np  Np2  1  0.818055  0.300158  0.301689  1
  Np  Np3  1  0.699842  0.181945  0.698311  1
  Np  Np4  1  0.181945  0.699842  0.698311  1
  Np  Np5  1  0.300158  0.818055  0.301689  1
  Np  Np6  1  0.204108  0.204108  0.544554  1
  Np  Np7  1  0.795892  0.795892  0.455446  1
  Cr  Cr8  1  0.000000  0.000000  0.000000  1
  Se  Se9  1  0.824126  0.431685  0.534195  1
  Se  Se10  1  0.568315  0.175874  0.465805  1
  Se  Se11  1  0.175874  0.568315  0.465805  1
  Se  Se12  1  0.431685  0.824126  0.534195  1
  Se  Se13  1  0.945483  0.317116  0.030056  1
  Se  Se14  1  0.682883  0.054517  0.969944  1
  Se  Se15  1  0.054517  0.682883  0.969944  1
  Se  Se16  1  0.317117  0.945483  0.030056  1
  Se  Se17  1  0.209718  0.209718  0.282361  1
  Se  Se18  1  0.790282  0.790282  0.717639  1
  Se  Se19  1  0.055676  0.055676  0.771740  1
  Se  Se20  1  0.944324  0.944324  0.228260  1
  Se  Se21  1  0.301471  0.301471  0.752608  1
  Se  Se22  1  0.698529  0.698529  0.247392  1
  Se  Se23  1  0.520207  0.520207  0.826948  1
  Se  Se24  1  0.479793  0.479793  0.173052  1
  Se  Se25  1  0.000000  0.000000  0.500000  1
