# generated using pymatgen
data_La5Bi2Pt
_symmetry_space_group_name_H-M   'P 1'
_cell_length_a   8.52755600
_cell_length_b   9.44793600
_cell_length_c   13.09432300
_cell_angle_alpha   90.00000000
_cell_angle_beta   90.00000000
_cell_angle_gamma   90.00000000
_symmetry_Int_Tables_number   1
_chemical_formula_structural   La5Bi2Pt
_chemical_formula_sum   'La20 Bi8 Pt4'
_cell_volume   1054.98084013
_cell_formula_units_Z   4
loop_
 _symmetry_equiv_pos_site_id
 _symmetry_equiv_pos_as_xyz
  1  'x, y, z'
loop_
 _atom_site_type_symbol
 _atom_site_label
 _atom_site_symmetry_multiplicity
 _atom_site_fract_x
 _atom_site_fract_y
 _atom_site_fract_z
 _atom_site_occupancy
  La  La0  1  0.659243  0.750000  0.707957  1
  La  La1  1  0.340757  0.250000  0.292043  1
  La  La2  1  0.159243  0.250000  0.792043  1
  La  La3  1  0.840757  0.750000  0.207957  1
  La  La4  1  0.135709  0.750000  0.800105  1
  La  La5  1  0.864291  0.250000  0.199895  1
  La  La6  1  0.635709  0.250000  0.699895  1
  La  La7  1  0.364291  0.750000  0.300105  1
  La  La8  1  0.548367  0.750000  0.999712  1
  La  La9  1  0.451633  0.250000  0.000288  1
  La  La10  1  0.048367  0.250000  0.500288  1
  La  La11  1  0.951633  0.750000  0.499712  1
  La  La12  1  0.814836  0.456751  0.936121  1
  La  La13  1  0.185164  0.543249  0.063879  1
  La  La14  1  0.314836  0.543249  0.563879  1
  La  La15  1  0.185164  0.956751  0.063879  1
  La  La16  1  0.685164  0.456751  0.436121  1
  La  La17  1  0.814836  0.043249  0.936121  1
  La  La18  1  0.685164  0.043249  0.436121  1
  La  La19  1  0.314836  0.956751  0.563879  1
  Bi  Bi20  1  0.931983  0.007040  0.674432  1
  Bi  Bi21  1  0.068017  0.992960  0.325568  1
  Bi  Bi22  1  0.431983  0.992960  0.825568  1
  Bi  Bi23  1  0.068017  0.507040  0.325568  1
  Bi  Bi24  1  0.568017  0.007040  0.174432  1
  Bi  Bi25  1  0.931983  0.492960  0.674432  1
  Bi  Bi26  1  0.568017  0.492960  0.174432  1
  Bi  Bi27  1  0.431983  0.507040  0.825568  1
  Pt  Pt28  1  0.923026  0.750000  0.987550  1
  Pt  Pt29  1  0.076974  0.250000  0.012450  1
  Pt  Pt30  1  0.423026  0.250000  0.512450  1
  Pt  Pt31  1  0.576974  0.750000  0.487550  1
