# generated using pymatgen
data_Na2P7Ru11Pt
_symmetry_space_group_name_H-M   'P 1'
_cell_length_a   9.32871304
_cell_length_b   9.46464908
_cell_length_c   3.94305200
_cell_angle_alpha   90.00000000
_cell_angle_beta   90.00000000
_cell_angle_gamma   119.15487499
_symmetry_Int_Tables_number   1
_chemical_formula_structural   Na2P7Ru11Pt
_chemical_formula_sum   'Na2 P7 Ru11 Pt1'
_cell_volume   304.03614423
_cell_formula_units_Z   1
loop_
 _symmetry_equiv_pos_site_id
 _symmetry_equiv_pos_as_xyz
  1  'x, y, z'
loop_
 _atom_site_type_symbol
 _atom_site_label
 _atom_site_symmetry_multiplicity
 _atom_site_fract_x
 _atom_site_fract_y
 _atom_site_fract_z
 _atom_site_occupancy
  Na  Na0  1  0.669740  0.335700  0.500000  1
  Na  Na1  1  0.329810  0.660340  0.000000  1
  P  P2  1  0.600052  0.703135  0.500000  1
  P  P3  1  0.996123  0.000340  0.000000  1
  P  P4  1  0.273479  0.878887  0.500000  1
  P  P5  1  0.114216  0.397922  0.500000  1
  P  P6  1  0.890330  0.583704  0.000000  1
  P  P7  1  0.426155  0.309196  0.000000  1
  P  P8  1  0.704077  0.126089  0.000000  1
  Ru  Ru9  1  0.391579  0.432533  0.500000  1
  Ru  Ru10  1  0.912145  0.123552  0.500000  1
  Ru  Ru11  1  0.209202  0.085390  0.500000  1
  Ru  Ru12  1  0.880530  0.801927  0.500000  1
  Ru  Ru13  1  0.724238  0.892455  0.000000  1
  Ru  Ru14  1  0.112972  0.843016  0.000000  1
  Ru  Ru15  1  0.160122  0.266920  0.000000  1
  Ru  Ru16  1  0.431539  0.067049  0.000000  1
  Ru  Ru17  1  0.942273  0.366695  0.000000  1
  Ru  Ru18  1  0.641725  0.579602  0.000000  1
  Ru  Ru19  1  0.043628  0.607711  0.500000  1
  Pt  Pt20  1  0.546065  0.937837  0.500000  1
