# generated using pymatgen
data_DyY6(HoSi2)3
_symmetry_space_group_name_H-M   'P 1'
_cell_length_a   8.45208100
_cell_length_b   8.45208087
_cell_length_c   6.36326500
_cell_angle_alpha   90.00000000
_cell_angle_beta   90.00000000
_cell_angle_gamma   119.99999659
_symmetry_Int_Tables_number   1
_chemical_formula_structural   DyY6(HoSi2)3
_chemical_formula_sum   'Dy1 Y6 Ho3 Si6'
_cell_volume   393.67510388
_cell_formula_units_Z   1
loop_
 _symmetry_equiv_pos_site_id
 _symmetry_equiv_pos_as_xyz
  1  'x, y, z'
loop_
 _atom_site_type_symbol
 _atom_site_label
 _atom_site_symmetry_multiplicity
 _atom_site_fract_x
 _atom_site_fract_y
 _atom_site_fract_z
 _atom_site_occupancy
  Dy  Dy0  1  0.333333  0.666667  0.500000  1
  Y  Y1  1  0.999892  0.756432  0.750119  1
  Y  Y2  1  0.999892  0.243459  0.249881  1
  Y  Y3  1  0.756541  0.756432  0.249881  1
  Y  Y4  1  0.756541  0.000108  0.750119  1
  Y  Y5  1  0.243568  0.243459  0.750119  1
  Y  Y6  1  0.243568  0.000108  0.249881  1
  Ho  Ho7  1  0.666667  0.333333  0.000000  1
  Ho  Ho8  1  0.666667  0.333333  0.500000  1
  Ho  Ho9  1  0.333333  0.666667  0.000000  1
  Si  Si10  1  0.394856  0.000362  0.750307  1
  Si  Si11  1  0.394856  0.394494  0.249693  1
  Si  Si12  1  0.999638  0.605144  0.249693  1
  Si  Si13  1  0.999638  0.394494  0.750307  1
  Si  Si14  1  0.605506  0.605144  0.750307  1
  Si  Si15  1  0.605506  0.000362  0.249693  1
