# generated using pymatgen
data_SrDyF5
_symmetry_space_group_name_H-M   'P 1'
_cell_length_a   8.20054430
_cell_length_b   8.20054379
_cell_length_c   5.78732199
_cell_angle_alpha   89.05794687
_cell_angle_beta   89.05794329
_cell_angle_gamma   149.39600777
_symmetry_Int_Tables_number   1
_chemical_formula_structural   SrDyF5
_chemical_formula_sum   'Sr2 Dy2 F10'
_cell_volume   197.75288352
_cell_formula_units_Z   2
loop_
 _symmetry_equiv_pos_site_id
 _symmetry_equiv_pos_as_xyz
  1  'x, y, z'
loop_
 _atom_site_type_symbol
 _atom_site_label
 _atom_site_symmetry_multiplicity
 _atom_site_fract_x
 _atom_site_fract_y
 _atom_site_fract_z
 _atom_site_occupancy
  Sr  Sr0  1  0.322780  0.677220  0.750000  1
  Sr  Sr1  1  0.677220  0.322780  0.250000  1
  Dy  Dy2  1  0.075276  0.924724  0.750000  1
  Dy  Dy3  1  0.924724  0.075276  0.250000  1
  F  F4  1  0.728821  0.806222  0.602424  1
  F  F5  1  0.806222  0.728821  0.102424  1
  F  F6  1  0.802572  0.180532  0.002822  1
  F  F7  1  0.622035  0.377965  0.750000  1
  F  F8  1  0.819468  0.197428  0.497178  1
  F  F9  1  0.180532  0.802572  0.502822  1
  F  F10  1  0.377965  0.622035  0.250000  1
  F  F11  1  0.197428  0.819468  0.997178  1
  F  F12  1  0.193778  0.271179  0.897576  1
  F  F13  1  0.271179  0.193778  0.397576  1
