# generated using pymatgen
data_Hf5ZnSb2
_symmetry_space_group_name_H-M   'P 1'
_cell_length_a   5.55065957
_cell_length_b   8.23609851
_cell_length_c   8.23609927
_cell_angle_alpha   83.48002083
_cell_angle_beta   70.30753780
_cell_angle_gamma   70.30753086
_symmetry_Int_Tables_number   1
_chemical_formula_structural   Hf5ZnSb2
_chemical_formula_sum   'Hf10 Zn2 Sb4'
_cell_volume   333.76597293
_cell_formula_units_Z   2
loop_
 _symmetry_equiv_pos_site_id
 _symmetry_equiv_pos_as_xyz
  1  'x, y, z'
loop_
 _atom_site_type_symbol
 _atom_site_label
 _atom_site_symmetry_multiplicity
 _atom_site_fract_x
 _atom_site_fract_y
 _atom_site_fract_z
 _atom_site_occupancy
  Hf  Hf0  1  0.074891  0.139545  0.710674  1
  Hf  Hf1  1  0.925109  0.860455  0.289326  1
  Hf  Hf2  1  0.785565  0.289326  0.139545  1
  Hf  Hf3  1  0.425109  0.289326  0.860455  1
  Hf  Hf4  1  0.214435  0.710674  0.860455  1
  Hf  Hf5  1  0.574891  0.710674  0.139545  1
  Hf  Hf6  1  0.714435  0.860455  0.710674  1
  Hf  Hf7  1  0.285565  0.139545  0.289326  1
  Hf  Hf8  1  0.250000  0.500000  0.500000  1
  Hf  Hf9  1  0.750000  0.500000  0.500000  1
  Zn  Zn10  1  0.250000  0.000000  0.000000  1
  Zn  Zn11  1  0.750000  0.000000  0.000000  1
  Sb  Sb12  1  0.164630  0.500000  0.170740  1
  Sb  Sb13  1  0.835370  0.500000  0.829260  1
  Sb  Sb14  1  0.335370  0.829260  0.500000  1
  Sb  Sb15  1  0.664630  0.170740  0.500000  1
