# generated using pymatgen
data_Ta6Be14CuSiNi7
_symmetry_space_group_name_H-M   'P 1'
_cell_length_a   7.58385604
_cell_length_b   7.59377471
_cell_length_c   7.58470011
_cell_angle_alpha   60.03405661
_cell_angle_beta   59.98393399
_cell_angle_gamma   60.03025130
_symmetry_Int_Tables_number   1
_chemical_formula_structural   Ta6Be14CuSiNi7
_chemical_formula_sum   'Ta6 Be14 Cu1 Si1 Ni7'
_cell_volume   308.97923425
_cell_formula_units_Z   1
loop_
 _symmetry_equiv_pos_site_id
 _symmetry_equiv_pos_as_xyz
  1  'x, y, z'
loop_
 _atom_site_type_symbol
 _atom_site_label
 _atom_site_symmetry_multiplicity
 _atom_site_fract_x
 _atom_site_fract_y
 _atom_site_fract_z
 _atom_site_occupancy
  Ta  Ta0  1  0.202132  0.203544  0.797214  1
  Ta  Ta1  1  0.199760  0.795314  0.804958  1
  Ta  Ta2  1  0.797237  0.203528  0.202176  1
  Ta  Ta3  1  0.199857  0.795340  0.199946  1
  Ta  Ta4  1  0.797161  0.203514  0.797090  1
  Ta  Ta5  1  0.805013  0.795285  0.199793  1
  Be  Be6  1  0.501046  0.500143  0.999402  1
  Be  Be7  1  0.999403  0.500145  0.501042  1
  Be  Be8  1  0.500836  0.000867  0.997469  1
  Be  Be9  1  0.997470  0.000859  0.500836  1
  Be  Be10  1  0.999411  0.500132  0.999415  1
  Be  Be11  1  0.500841  0.000866  0.500832  1
  Be  Be12  1  0.826427  0.520628  0.826450  1
  Be  Be13  1  0.172083  0.176576  0.479271  1
  Be  Be14  1  0.479307  0.176579  0.172064  1
  Be  Be15  1  0.172097  0.176566  0.172100  1
  Be  Be16  1  0.521944  0.825755  0.826144  1
  Be  Be17  1  0.826106  0.825790  0.826106  1
  Be  Be18  1  0.826125  0.825770  0.521968  1
  Be  Be19  1  0.174862  0.475507  0.174837  1
  Cu  Cu20  1  0.375414  0.873740  0.375424  1
  Si  Si21  1  0.501863  0.494385  0.501870  1
  Ni  Ni22  1  0.624434  0.126731  0.624415  1
  Ni  Ni23  1  0.375915  0.376353  0.871782  1
  Ni  Ni24  1  0.871746  0.376365  0.375935  1
  Ni  Ni25  1  0.375926  0.376331  0.375933  1
  Ni  Ni26  1  0.129633  0.624452  0.622964  1
  Ni  Ni27  1  0.622971  0.624476  0.622971  1
  Ni  Ni28  1  0.622982  0.624457  0.129596  1
