# generated using pymatgen
data_Tm2LuGa5Rh
_symmetry_space_group_name_H-M   'P 1'
_cell_length_a   6.86777569
_cell_length_b   6.87312538
_cell_length_c   4.23582200
_cell_angle_alpha   90.00000000
_cell_angle_beta   90.00000000
_cell_angle_gamma   120.02577359
_symmetry_Int_Tables_number   1
_chemical_formula_structural   Tm2LuGa5Rh
_chemical_formula_sum   'Tm2 Lu1 Ga5 Rh1'
_cell_volume   173.11147308
_cell_formula_units_Z   1
loop_
 _symmetry_equiv_pos_site_id
 _symmetry_equiv_pos_as_xyz
  1  'x, y, z'
loop_
 _atom_site_type_symbol
 _atom_site_label
 _atom_site_symmetry_multiplicity
 _atom_site_fract_x
 _atom_site_fract_y
 _atom_site_fract_z
 _atom_site_occupancy
  Tm  Tm0  1  0.589300  0.000266  0.500000  1
  Tm  Tm1  1  0.410700  0.410966  0.500000  1
  Lu  Lu2  1  0.000000  0.589988  0.500000  1
  Ga  Ga3  1  0.238953  0.999801  0.000000  1
  Ga  Ga4  1  0.000000  0.239260  0.000000  1
  Ga  Ga5  1  0.667324  0.333775  0.000000  1
  Ga  Ga6  1  0.332676  0.666452  0.000000  1
  Ga  Ga7  1  0.761047  0.760848  0.000000  1
  Rh  Rh8  1  0.000000  0.998643  0.500000  1
