# generated using pymatgen
data_DyTmLu6(WO6)4
_symmetry_space_group_name_H-M   'P 1'
_cell_length_a   5.31774200
_cell_length_b   7.60400016
_cell_length_c   11.31993701
_cell_angle_alpha   75.18534281
_cell_angle_beta   90.00000000
_cell_angle_gamma   90.00000000
_symmetry_Int_Tables_number   1
_chemical_formula_structural   DyTmLu6(WO6)4
_chemical_formula_sum   'Dy1 Tm1 Lu6 W4 O24'
_cell_volume   442.51823298
_cell_formula_units_Z   1
loop_
 _symmetry_equiv_pos_site_id
 _symmetry_equiv_pos_as_xyz
  1  'x, y, z'
loop_
 _atom_site_type_symbol
 _atom_site_label
 _atom_site_symmetry_multiplicity
 _atom_site_fract_x
 _atom_site_fract_y
 _atom_site_fract_z
 _atom_site_occupancy
  Dy  Dy0  1  0.314650  0.500000  0.750000  1
  Tm  Tm1  1  0.685251  0.500000  0.250000  1
  Lu  Lu2  1  0.258722  0.000000  0.750000  1
  Lu  Lu3  1  0.183101  0.794844  0.079070  1
  Lu  Lu4  1  0.183101  0.205156  0.420930  1
  Lu  Lu5  1  0.740961  0.000000  0.250000  1
  Lu  Lu6  1  0.816615  0.204483  0.921409  1
  Lu  Lu7  1  0.816615  0.795517  0.578591  1
  W  W8  1  0.743715  0.724640  0.885796  1
  W  W9  1  0.256361  0.724242  0.384931  1
  W  W10  1  0.743715  0.275360  0.614204  1
  W  W11  1  0.256361  0.275758  0.115069  1
  O  O12  1  0.540791  0.153082  0.069173  1
  O  O13  1  0.042182  0.057078  0.105008  1
  O  O14  1  0.019716  0.714268  0.769577  1
  O  O15  1  0.458515  0.153196  0.569017  1
  O  O16  1  0.361098  0.487258  0.385041  1
  O  O17  1  0.958087  0.057378  0.604304  1
  O  O18  1  0.540784  0.795463  0.724755  1
  O  O19  1  0.459999  0.794471  0.224609  1
  O  O20  1  0.146985  0.635005  0.549420  1
  O  O21  1  0.042182  0.942922  0.394992  1
  O  O22  1  0.458515  0.846804  0.930983  1
  O  O23  1  0.459999  0.205529  0.275391  1
  O  O24  1  0.851773  0.365130  0.449162  1
  O  O25  1  0.642399  0.487055  0.886286  1
  O  O26  1  0.361098  0.512742  0.114959  1
  O  O27  1  0.958087  0.942622  0.895696  1
  O  O28  1  0.540791  0.846918  0.430827  1
  O  O29  1  0.978088  0.288080  0.230207  1
  O  O30  1  0.540784  0.204537  0.775245  1
  O  O31  1  0.851773  0.634870  0.050838  1
  O  O32  1  0.019716  0.285732  0.730423  1
  O  O33  1  0.146985  0.364995  0.950580  1
  O  O34  1  0.978088  0.711920  0.269793  1
  O  O35  1  0.642399  0.512945  0.613714  1
