# generated using pymatgen
data_Er3FeS7
_symmetry_space_group_name_H-M   'P 1'
_cell_length_a   7.96450612
_cell_length_b   16.72972512
_cell_length_c   15.99186234
_cell_angle_alpha   74.98038350
_cell_angle_beta   77.83432313
_cell_angle_gamma   61.07061611
_symmetry_Int_Tables_number   1
_chemical_formula_structural   Er3FeS7
_chemical_formula_sum   'Er3 Fe1 S7'
_cell_volume   1792.00600967
_cell_formula_units_Z   1
loop_
 _symmetry_equiv_pos_site_id
 _symmetry_equiv_pos_as_xyz
  1  'x, y, z'
loop_
 _atom_site_type_symbol
 _atom_site_label
 _atom_site_symmetry_multiplicity
 _atom_site_fract_x
 _atom_site_fract_y
 _atom_site_fract_z
 _atom_site_occupancy
  Er  Er0  1  0.876495  0.085910  0.745397  1
  Er  Er1  1  0.926836  0.816681  0.655803  1
  Er  Er2  1  0.600034  0.727336  0.749060  1
  Fe  Fe3  1  0.284967  0.636033  0.175722  1
  S  S4  1  0.766151  0.569002  0.804443  1
  S  S5  1  0.924018  0.144145  0.596097  1
  S  S6  1  0.974601  0.145897  0.125012  1
  S  S7  1  0.052146  0.671799  0.258386  1
  S  S8  1  0.150275  0.936403  0.742211  1
  S  S9  1  0.834706  0.754502  0.935485  1
  S  S10  1  0.798885  0.788828  0.808057  1
