# generated using pymatgen
data_Tb4Al2(TcOs)3
_symmetry_space_group_name_H-M   'P 1'
_cell_length_a   5.36935884
_cell_length_b   5.40367969
_cell_length_c   8.80181600
_cell_angle_alpha   90.00000000
_cell_angle_beta   90.00000000
_cell_angle_gamma   119.51962602
_symmetry_Int_Tables_number   1
_chemical_formula_structural   Tb4Al2(TcOs)3
_chemical_formula_sum   'Tb4 Al2 Tc3 Os3'
_cell_volume   222.22703385
_cell_formula_units_Z   1
loop_
 _symmetry_equiv_pos_site_id
 _symmetry_equiv_pos_as_xyz
  1  'x, y, z'
loop_
 _atom_site_type_symbol
 _atom_site_label
 _atom_site_symmetry_multiplicity
 _atom_site_fract_x
 _atom_site_fract_y
 _atom_site_fract_z
 _atom_site_occupancy
  Tb  Tb0  1  0.333070  0.670654  0.437803  1
  Tb  Tb1  1  0.670735  0.333756  0.560417  1
  Tb  Tb2  1  0.670735  0.333756  0.939583  1
  Tb  Tb3  1  0.333070  0.670654  0.062197  1
  Al  Al4  1  0.334616  0.170339  0.250000  1
  Al  Al5  1  0.173787  0.339486  0.750000  1
  Tc  Tc6  1  0.982944  0.984387  0.500072  1
  Tc  Tc7  1  0.982944  0.984387  0.999928  1
  Tc  Tc8  1  0.669823  0.837765  0.750000  1
  Os  Os9  1  0.832135  0.178001  0.250000  1
  Os  Os10  1  0.832520  0.661131  0.250000  1
  Os  Os11  1  0.183621  0.835682  0.750000  1
