# generated using pymatgen
data_Dy3Y(CuPt)2
_symmetry_space_group_name_H-M   'P 1'
_cell_length_a   4.44515300
_cell_length_b   5.51022838
_cell_length_c   7.13559619
_cell_angle_alpha   90.10020477
_cell_angle_beta   90.00000000
_cell_angle_gamma   90.00000000
_symmetry_Int_Tables_number   1
_chemical_formula_structural   Dy3Y(CuPt)2
_chemical_formula_sum   'Dy3 Y1 Cu2 Pt2'
_cell_volume   174.77765700
_cell_formula_units_Z   1
loop_
 _symmetry_equiv_pos_site_id
 _symmetry_equiv_pos_as_xyz
  1  'x, y, z'
loop_
 _atom_site_type_symbol
 _atom_site_label
 _atom_site_symmetry_multiplicity
 _atom_site_fract_x
 _atom_site_fract_y
 _atom_site_fract_z
 _atom_site_occupancy
  Dy  Dy0  1  0.000000  0.114906  0.684351  1
  Dy  Dy1  1  0.500000  0.394594  0.315688  1
  Dy  Dy2  1  0.500000  0.605369  0.815661  1
  Y  Y3  1  0.000000  0.885269  0.184274  1
  Cu  Cu4  1  0.500000  0.892555  0.464661  1
  Cu  Cu5  1  0.500000  0.107976  0.963178  1
  Pt  Pt6  1  0.000000  0.613976  0.536770  1
  Pt  Pt7  1  0.000000  0.385357  0.035418  1
