# generated using pymatgen
data_Tb3YZn4Si3Ge
_symmetry_space_group_name_H-M   'P 1'
_cell_length_a   4.19223700
_cell_length_b   4.19223697
_cell_length_c   15.69991500
_cell_angle_alpha   90.00000000
_cell_angle_beta   90.00000000
_cell_angle_gamma   119.99999231
_symmetry_Int_Tables_number   1
_chemical_formula_structural   Tb3YZn4Si3Ge
_chemical_formula_sum   'Tb3 Y1 Zn4 Si3 Ge1'
_cell_volume   238.95692293
_cell_formula_units_Z   1
loop_
 _symmetry_equiv_pos_site_id
 _symmetry_equiv_pos_as_xyz
  1  'x, y, z'
loop_
 _atom_site_type_symbol
 _atom_site_label
 _atom_site_symmetry_multiplicity
 _atom_site_fract_x
 _atom_site_fract_y
 _atom_site_fract_z
 _atom_site_occupancy
  Tb  Tb0  1  0.000000  0.000000  0.752199  1
  Tb  Tb1  1  0.000000  0.000000  0.249324  1
  Tb  Tb2  1  0.000000  0.000000  0.498133  1
  Y  Y3  1  0.000000  0.000000  0.000417  1
  Zn  Zn4  1  0.666667  0.333333  0.861463  1
  Zn  Zn5  1  0.666667  0.333333  0.644388  1
  Zn  Zn6  1  0.333333  0.666667  0.139559  1
  Zn  Zn7  1  0.333333  0.666667  0.359387  1
  Si  Si8  1  0.666667  0.333333  0.117825  1
  Si  Si9  1  0.666667  0.333333  0.380923  1
  Si  Si10  1  0.333333  0.666667  0.882142  1
  Ge  Ge11  1  0.333333  0.666667  0.614239  1
