# generated using pymatgen
data_Tb4B16Ru15Rh
_symmetry_space_group_name_H-M   'P 1'
_cell_length_a   9.22376017
_cell_length_b   7.48486151
_cell_length_c   7.49773554
_cell_angle_alpha   89.92335548
_cell_angle_beta   113.92567106
_cell_angle_gamma   114.03207499
_symmetry_Int_Tables_number   1
_chemical_formula_structural   Tb4B16Ru15Rh
_chemical_formula_sum   'Tb4 B16 Ru15 Rh1'
_cell_volume   423.73792470
_cell_formula_units_Z   1
loop_
 _symmetry_equiv_pos_site_id
 _symmetry_equiv_pos_as_xyz
  1  'x, y, z'
loop_
 _atom_site_type_symbol
 _atom_site_label
 _atom_site_symmetry_multiplicity
 _atom_site_fract_x
 _atom_site_fract_y
 _atom_site_fract_z
 _atom_site_occupancy
  Tb  Tb0  1  0.750184  0.872902  0.124866  1
  Tb  Tb1  1  0.250657  0.625043  0.374608  1
  Tb  Tb2  1  0.749285  0.375092  0.626186  1
  Tb  Tb3  1  0.248179  0.124425  0.873669  1
  B  B4  1  0.912511  0.283055  0.068771  1
  B  B5  1  0.413805  0.567372  0.125291  1
  B  B6  1  0.088000  0.211143  0.152207  1
  B  B7  1  0.586147  0.153103  0.210403  1
  B  B8  1  0.412516  0.064629  0.288565  1
  B  B9  1  0.913200  0.624453  0.354192  1
  B  B10  1  0.586368  0.653157  0.375134  1
  B  B11  1  0.086570  0.875223  0.434544  1
  B  B12  1  0.913679  0.125349  0.565497  1
  B  B13  1  0.413339  0.348290  0.622799  1
  B  B14  1  0.087191  0.375436  0.653252  1
  B  B15  1  0.586947  0.935298  0.710793  1
  B  B16  1  0.414218  0.848680  0.788945  1
  B  B17  1  0.914007  0.791009  0.846982  1
  B  B18  1  0.581664  0.430415  0.874343  1
  B  B19  1  0.088019  0.713231  0.932665  1
  Ru  Ru20  1  0.373788  0.835248  0.051711  1
  Ru  Ru21  1  0.126071  0.946918  0.164829  1
  Ru  Ru22  1  0.627744  0.461427  0.178375  1
  Ru  Ru23  1  0.373928  0.334089  0.319969  1
  Ru  Ru24  1  0.873063  0.321900  0.335031  1
  Ru  Ru25  1  0.627105  0.962078  0.447910  1
  Ru  Ru26  1  0.126517  0.178778  0.459969  1
  Ru  Ru27  1  0.872869  0.821275  0.539269  1
  Ru  Ru28  1  0.373313  0.038462  0.552053  1
  Ru  Ru29  1  0.127145  0.678849  0.665737  1
  Ru  Ru30  1  0.624864  0.665596  0.676795  1
  Ru  Ru31  1  0.373762  0.539334  0.822062  1
  Ru  Ru32  1  0.872630  0.052411  0.834375  1
  Ru  Ru33  1  0.627914  0.166574  0.949428  1
  Ru  Ru34  1  0.127398  0.447784  0.961598  1
  Rh  Rh35  1  0.875403  0.551973  0.037171  1
