# generated using pymatgen
data_Hf9NbCoMo3
_symmetry_space_group_name_H-M   'P 1'
_cell_length_a   8.48561400
_cell_length_b   8.72975259
_cell_length_c   8.72975200
_cell_angle_alpha   120.00628063
_cell_angle_beta   90.00000000
_cell_angle_gamma   90.00000000
_symmetry_Int_Tables_number   1
_chemical_formula_structural   Hf9NbCoMo3
_chemical_formula_sum   'Hf18 Nb2 Co2 Mo6'
_cell_volume   560.00287526
_cell_formula_units_Z   2
loop_
 _symmetry_equiv_pos_site_id
 _symmetry_equiv_pos_as_xyz
  1  'x, y, z'
loop_
 _atom_site_type_symbol
 _atom_site_label
 _atom_site_symmetry_multiplicity
 _atom_site_fract_x
 _atom_site_fract_y
 _atom_site_fract_z
 _atom_site_occupancy
  Hf  Hf0  1  0.558785  0.797331  0.594693  1
  Hf  Hf1  1  0.558849  0.797359  0.202641  1
  Hf  Hf2  1  0.558785  0.405307  0.202669  1
  Hf  Hf3  1  0.441215  0.202669  0.405307  1
  Hf  Hf4  1  0.441151  0.202641  0.797359  1
  Hf  Hf5  1  0.441215  0.594693  0.797331  1
  Hf  Hf6  1  0.058785  0.202669  0.405307  1
  Hf  Hf7  1  0.058849  0.202641  0.797359  1
  Hf  Hf8  1  0.058785  0.594693  0.797331  1
  Hf  Hf9  1  0.941215  0.797331  0.594693  1
  Hf  Hf10  1  0.941151  0.797359  0.202641  1
  Hf  Hf11  1  0.941215  0.405307  0.202669  1
  Hf  Hf12  1  0.750000  0.457694  0.915284  1
  Hf  Hf13  1  0.750000  0.457641  0.542359  1
  Hf  Hf14  1  0.750000  0.084716  0.542306  1
  Hf  Hf15  1  0.250000  0.542306  0.084716  1
  Hf  Hf16  1  0.250000  0.542359  0.457641  1
  Hf  Hf17  1  0.250000  0.915284  0.457694  1
  Nb  Nb18  1  0.500000  0.000000  0.000000  1
  Nb  Nb19  1  0.000000  0.000000  0.000000  1
  Co  Co20  1  0.750000  0.666672  0.333328  1
  Co  Co21  1  0.250000  0.333328  0.666672  1
  Mo  Mo22  1  0.750000  0.114814  0.229619  1
  Mo  Mo23  1  0.750000  0.114809  0.885191  1
  Mo  Mo24  1  0.750000  0.770381  0.885186  1
  Mo  Mo25  1  0.250000  0.885186  0.770381  1
  Mo  Mo26  1  0.250000  0.885191  0.114809  1
  Mo  Mo27  1  0.250000  0.229619  0.114814  1
