# generated using pymatgen
data_Ce4ZnSn2Rh3
_symmetry_space_group_name_H-M   'P 1'
_cell_length_a   7.70115068
_cell_length_b   7.70115068
_cell_length_c   3.80732600
_cell_angle_alpha   90.00000000
_cell_angle_beta   90.00000000
_cell_angle_gamma   89.28821681
_symmetry_Int_Tables_number   1
_chemical_formula_structural   Ce4ZnSn2Rh3
_chemical_formula_sum   'Ce4 Zn1 Sn2 Rh3'
_cell_volume   225.78640733
_cell_formula_units_Z   1
loop_
 _symmetry_equiv_pos_site_id
 _symmetry_equiv_pos_as_xyz
  1  'x, y, z'
loop_
 _atom_site_type_symbol
 _atom_site_label
 _atom_site_symmetry_multiplicity
 _atom_site_fract_x
 _atom_site_fract_y
 _atom_site_fract_z
 _atom_site_occupancy
  Ce  Ce0  1  0.677781  0.177781  0.500000  1
  Ce  Ce1  1  0.342435  0.842435  0.500000  1
  Ce  Ce2  1  0.167651  0.309681  0.500000  1
  Ce  Ce3  1  0.809681  0.667651  0.500000  1
  Zn  Zn4  1  0.124474  0.624474  0.000000  1
  Sn  Sn5  1  0.998130  0.994130  0.000000  1
  Sn  Sn6  1  0.494130  0.498130  0.000000  1
  Rh  Rh7  1  0.882196  0.382196  0.000000  1
  Rh  Rh8  1  0.637394  0.866128  0.000000  1
  Rh  Rh9  1  0.366128  0.137394  0.000000  1
