# generated using pymatgen
data_Y2Al8Co3Si
_symmetry_space_group_name_H-M   'P 1'
_cell_length_a   7.35336447
_cell_length_b   7.35336460
_cell_length_c   9.17854200
_cell_angle_alpha   90.00000000
_cell_angle_beta   90.00000000
_cell_angle_gamma   119.23677242
_symmetry_Int_Tables_number   1
_chemical_formula_structural   Y2Al8Co3Si
_chemical_formula_sum   'Y4 Al16 Co6 Si2'
_cell_volume   433.07735392
_cell_formula_units_Z   2
loop_
 _symmetry_equiv_pos_site_id
 _symmetry_equiv_pos_as_xyz
  1  'x, y, z'
loop_
 _atom_site_type_symbol
 _atom_site_label
 _atom_site_symmetry_multiplicity
 _atom_site_fract_x
 _atom_site_fract_y
 _atom_site_fract_z
 _atom_site_occupancy
  Y  Y0  1  0.993412  0.676822  0.250000  1
  Y  Y1  1  0.006588  0.323178  0.750000  1
  Y  Y2  1  0.676822  0.993412  0.250000  1
  Y  Y3  1  0.323178  0.006588  0.750000  1
  Al  Al4  1  0.334637  0.334637  0.546193  1
  Al  Al5  1  0.665363  0.665363  0.046193  1
  Al  Al6  1  0.334637  0.334637  0.953807  1
  Al  Al7  1  0.665363  0.665363  0.453807  1
  Al  Al8  1  0.336169  0.554633  0.250000  1
  Al  Al9  1  0.663831  0.445367  0.750000  1
  Al  Al10  1  0.554633  0.336169  0.250000  1
  Al  Al11  1  0.445367  0.663831  0.750000  1
  Al  Al12  1  0.999104  0.336546  0.073294  1
  Al  Al13  1  0.000896  0.663454  0.573294  1
  Al  Al14  1  0.336546  0.999104  0.426706  1
  Al  Al15  1  0.663454  0.000896  0.926706  1
  Al  Al16  1  0.000896  0.663454  0.926706  1
  Al  Al17  1  0.999104  0.336546  0.426706  1
  Al  Al18  1  0.663454  0.000896  0.573294  1
  Al  Al19  1  0.336546  0.999104  0.073294  1
  Co  Co20  1  0.000000  0.000000  0.000000  1
  Co  Co21  1  0.000000  0.000000  0.500000  1
  Co  Co22  1  0.670956  0.329044  0.000000  1
  Co  Co23  1  0.329044  0.670956  0.500000  1
  Co  Co24  1  0.329044  0.670956  0.000000  1
  Co  Co25  1  0.670956  0.329044  0.500000  1
  Si  Si26  1  0.123767  0.123767  0.250000  1
  Si  Si27  1  0.876233  0.876233  0.750000  1
