# generated using pymatgen
data_Dy2ZnCuRu
_symmetry_space_group_name_H-M   'P 1'
_cell_length_a   5.46309138
_cell_length_b   5.46309120
_cell_length_c   5.46309133
_cell_angle_alpha   134.58756562
_cell_angle_beta   118.43131004
_cell_angle_gamma   79.74068551
_symmetry_Int_Tables_number   1
_chemical_formula_structural   Dy2ZnCuRu
_chemical_formula_sum   'Dy2 Zn1 Cu1 Ru1'
_cell_volume   98.89025861
_cell_formula_units_Z   1
loop_
 _symmetry_equiv_pos_site_id
 _symmetry_equiv_pos_as_xyz
  1  'x, y, z'
loop_
 _atom_site_type_symbol
 _atom_site_label
 _atom_site_symmetry_multiplicity
 _atom_site_fract_x
 _atom_site_fract_y
 _atom_site_fract_z
 _atom_site_occupancy
  Dy  Dy0  1  0.689521  0.200292  0.489228  1
  Dy  Dy1  1  0.288936  0.799709  0.489229  1
  Zn  Zn2  1  0.001963  0.000000  0.001963  1
  Cu  Cu3  1  0.740599  0.499999  0.240599  1
  Ru  Ru4  1  0.278980  0.500001  0.778981  1
