# generated using pymatgen
data_Tb3Yb12Y5Ge16
_symmetry_space_group_name_H-M   'P 1'
_cell_length_a   7.45748800
_cell_length_b   7.90633500
_cell_length_c   15.23501100
_cell_angle_alpha   89.99952019
_cell_angle_beta   90.00259966
_cell_angle_gamma   89.99779982
_symmetry_Int_Tables_number   1
_chemical_formula_structural   Tb3Yb12Y5Ge16
_chemical_formula_sum   'Tb3 Yb12 Y5 Ge16'
_cell_volume   898.27755218
_cell_formula_units_Z   1
loop_
 _symmetry_equiv_pos_site_id
 _symmetry_equiv_pos_as_xyz
  1  'x, y, z'
loop_
 _atom_site_type_symbol
 _atom_site_label
 _atom_site_symmetry_multiplicity
 _atom_site_fract_x
 _atom_site_fract_y
 _atom_site_fract_z
 _atom_site_occupancy
  Tb  Tb0  1  0.317621  0.172599  0.121323  1
  Tb  Tb1  1  0.817623  0.327403  0.378679  1
  Tb  Tb2  1  0.182387  0.672600  0.878674  1
  Yb  Yb3  1  0.977992  0.812776  0.404509  1
  Yb  Yb4  1  0.477998  0.687230  0.095493  1
  Yb  Yb5  1  0.522020  0.312762  0.595491  1
  Yb  Yb6  1  0.021996  0.187228  0.904506  1
  Yb  Yb7  1  0.022033  0.187227  0.595490  1
  Yb  Yb8  1  0.522040  0.312777  0.904509  1
  Yb  Yb9  1  0.477963  0.687230  0.404514  1
  Yb  Yb10  1  0.977962  0.812775  0.095489  1
  Yb  Yb11  1  0.346333  0.019916  0.749992  1
  Yb  Yb12  1  0.846326  0.480093  0.750003  1
  Yb  Yb13  1  0.153671  0.519914  0.250006  1
  Yb  Yb14  1  0.653672  0.980083  0.249994  1
  Y  Y15  1  0.682399  0.827430  0.621314  1
  Y  Y16  1  0.317564  0.172541  0.378712  1
  Y  Y17  1  0.817561  0.327462  0.121294  1
  Y  Y18  1  0.182432  0.672557  0.621304  1
  Y  Y19  1  0.682429  0.827451  0.878689  1
  Ge  Ge20  1  0.846468  0.532863  0.540363  1
  Ge  Ge21  1  0.346495  0.967102  0.959643  1
  Ge  Ge22  1  0.653506  0.032880  0.459656  1
  Ge  Ge23  1  0.153500  0.467106  0.040359  1
  Ge  Ge24  1  0.153584  0.467156  0.459657  1
  Ge  Ge25  1  0.653592  0.032856  0.040344  1
  Ge  Ge26  1  0.346439  0.967135  0.540348  1
  Ge  Ge27  1  0.846409  0.532852  0.959655  1
  Ge  Ge28  1  0.978598  0.882179  0.750019  1
  Ge  Ge29  1  0.478616  0.617826  0.749982  1
  Ge  Ge30  1  0.521392  0.382187  0.249966  1
  Ge  Ge31  1  0.021393  0.117810  0.250034  1
  Ge  Ge32  1  0.236749  0.384824  0.749993  1
  Ge  Ge33  1  0.736731  0.115172  0.749993  1
  Ge  Ge34  1  0.263250  0.884823  0.250000  1
  Ge  Ge35  1  0.763252  0.615174  0.250001  1
