# generated using pymatgen
data_K2ZrPa(TlTe3)2
_symmetry_space_group_name_H-M   'P 1'
_cell_length_a   14.74753000
_cell_length_b   7.02805940
_cell_length_c   9.79476700
_cell_angle_alpha   71.20647127
_cell_angle_beta   90.00000000
_cell_angle_gamma   90.00000000
_symmetry_Int_Tables_number   1
_chemical_formula_structural   K2ZrPa(TlTe3)2
_chemical_formula_sum   'K4 Zr2 Pa2 Tl4 Te12'
_cell_volume   961.06910488
_cell_formula_units_Z   2
loop_
 _symmetry_equiv_pos_site_id
 _symmetry_equiv_pos_as_xyz
  1  'x, y, z'
loop_
 _atom_site_type_symbol
 _atom_site_label
 _atom_site_symmetry_multiplicity
 _atom_site_fract_x
 _atom_site_fract_y
 _atom_site_fract_z
 _atom_site_occupancy
  K  K0  1  0.954878  0.669864  0.660671  1
  K  K1  1  0.454878  0.830136  0.339329  1
  K  K2  1  0.045499  0.330216  0.339799  1
  K  K3  1  0.545499  0.169784  0.660201  1
  Zr  Zr4  1  0.249914  0.344812  0.706454  1
  Zr  Zr5  1  0.749914  0.155188  0.293546  1
  Pa  Pa6  1  0.750123  0.655621  0.292226  1
  Pa  Pa7  1  0.250123  0.844379  0.707774  1
  Tl  Tl8  1  0.861394  0.079657  0.925650  1
  Tl  Tl9  1  0.361394  0.420343  0.074350  1
  Tl  Tl10  1  0.138723  0.944169  0.075051  1
  Tl  Tl11  1  0.638723  0.555831  0.924949  1
  Te  Te12  1  0.915349  0.922362  0.272440  1
  Te  Te13  1  0.415349  0.577638  0.727560  1
  Te  Te14  1  0.084563  0.094829  0.728928  1
  Te  Te15  1  0.584563  0.405171  0.271072  1
  Te  Te16  1  0.822966  0.293104  0.522860  1
  Te  Te17  1  0.322966  0.206896  0.477140  1
  Te  Te18  1  0.176634  0.690408  0.477476  1
  Te  Te19  1  0.676634  0.809592  0.522524  1
  Te  Te20  1  0.841784  0.497893  0.065070  1
  Te  Te21  1  0.341784  0.002107  0.934930  1
  Te  Te22  1  0.158173  0.484799  0.934399  1
  Te  Te23  1  0.658173  0.015201  0.065601  1
