# generated using pymatgen
data_ErTm11Zn(InFe)2
_symmetry_space_group_name_H-M   'P 1'
_cell_length_a   8.29515307
_cell_length_b   8.29338162
_cell_length_c   8.29515173
_cell_angle_alpha   109.71447750
_cell_angle_beta   109.74221705
_cell_angle_gamma   108.96675047
_symmetry_Int_Tables_number   1
_chemical_formula_structural   ErTm11Zn(InFe)2
_chemical_formula_sum   'Er1 Tm11 Zn1 In2 Fe2'
_cell_volume   439.22483563
_cell_formula_units_Z   1
loop_
 _symmetry_equiv_pos_site_id
 _symmetry_equiv_pos_as_xyz
  1  'x, y, z'
loop_
 _atom_site_type_symbol
 _atom_site_label
 _atom_site_symmetry_multiplicity
 _atom_site_fract_x
 _atom_site_fract_y
 _atom_site_fract_z
 _atom_site_occupancy
  Er  Er0  1  0.796913  0.553559  0.756646  1
  Tm  Tm1  1  0.305421  0.305587  0.611325  1
  Tm  Tm2  1  0.694224  0.694304  0.388425  1
  Tm  Tm3  1  0.305880  0.694304  0.000080  1
  Tm  Tm4  1  0.694261  0.305587  0.000166  1
  Tm  Tm5  1  0.446007  0.202941  0.242890  1
  Tm  Tm6  1  0.553659  0.797053  0.756835  1
  Tm  Tm7  1  0.960051  0.202941  0.756934  1
  Tm  Tm8  1  0.203166  0.960001  0.756835  1
  Tm  Tm9  1  0.040218  0.797053  0.243394  1
  Tm  Tm10  1  0.796993  0.040144  0.243151  1
  Tm  Tm11  1  0.203126  0.446284  0.243158  1
  Zn  Zn12  1  0.000116  0.000340  0.000224  1
  In  In13  1  0.500021  0.000026  0.500005  1
  In  In14  1  0.000144  0.499967  0.499824  1
  Fe  Fe15  1  0.386556  0.386516  0.999960  1
  Fe  Fe16  1  0.613245  0.613392  0.000147  1
