# generated using pymatgen
data_TbNd4(IrO6)2
_symmetry_space_group_name_H-M   'P 1'
_cell_length_a   7.06092131
_cell_length_b   7.06092045
_cell_length_c   7.47602142
_cell_angle_alpha   74.47619103
_cell_angle_beta   74.47618957
_cell_angle_gamma   51.74492771
_symmetry_Int_Tables_number   1
_chemical_formula_structural   TbNd4(IrO6)2
_chemical_formula_sum   'Tb1 Nd4 Ir2 O12'
_cell_volume   279.44178649
_cell_formula_units_Z   1
loop_
 _symmetry_equiv_pos_site_id
 _symmetry_equiv_pos_as_xyz
  1  'x, y, z'
loop_
 _atom_site_type_symbol
 _atom_site_label
 _atom_site_symmetry_multiplicity
 _atom_site_fract_x
 _atom_site_fract_y
 _atom_site_fract_z
 _atom_site_occupancy
  Tb  Tb0  1  0.302634  0.302634  0.358209  1
  Nd  Nd1  1  0.698026  0.698026  0.638460  1
  Nd  Nd2  1  0.695066  0.695066  0.165535  1
  Nd  Nd3  1  0.304904  0.304904  0.833405  1
  Nd  Nd4  1  0.001110  0.001110  0.498758  1
  Ir  Ir5  1  0.751926  0.246635  0.002111  1
  Ir  Ir6  1  0.246635  0.751926  0.002111  1
  O  O7  1  0.100426  0.594977  0.567829  1
  O  O8  1  0.000039  0.000039  0.168857  1
  O  O9  1  0.398016  0.911973  0.423628  1
  O  O10  1  0.498605  0.498605  0.180556  1
  O  O11  1  0.105434  0.566378  0.088126  1
  O  O12  1  0.911973  0.398016  0.423628  1
  O  O13  1  0.998262  0.998262  0.832452  1
  O  O14  1  0.594977  0.100425  0.567829  1
  O  O15  1  0.498860  0.498860  0.825985  1
  O  O16  1  0.566378  0.105434  0.088126  1
  O  O17  1  0.429608  0.897121  0.917197  1
  O  O18  1  0.897121  0.429608  0.917197  1
