# generated using pymatgen
data_Er8Ta7Si16Mo5
_symmetry_space_group_name_H-M   'P 1'
_cell_length_a   6.76605577
_cell_length_b   6.97859639
_cell_length_c   13.12683100
_cell_angle_alpha   89.94186345
_cell_angle_beta   89.93195016
_cell_angle_gamma   89.94011956
_symmetry_Int_Tables_number   1
_chemical_formula_structural   Er8Ta7Si16Mo5
_chemical_formula_sum   'Er8 Ta7 Si16 Mo5'
_cell_volume   619.81599942
_cell_formula_units_Z   1
loop_
 _symmetry_equiv_pos_site_id
 _symmetry_equiv_pos_as_xyz
  1  'x, y, z'
loop_
 _atom_site_type_symbol
 _atom_site_label
 _atom_site_symmetry_multiplicity
 _atom_site_fract_x
 _atom_site_fract_y
 _atom_site_fract_z
 _atom_site_occupancy
  Er  Er0  1  0.002111  0.169405  0.095242  1
  Er  Er1  1  0.998079  0.829340  0.904418  1
  Er  Er2  1  0.497607  0.670294  0.905260  1
  Er  Er3  1  0.998783  0.828162  0.593476  1
  Er  Er4  1  0.503721  0.328593  0.095413  1
  Er  Er5  1  0.001585  0.171366  0.406428  1
  Er  Er6  1  0.501986  0.328764  0.405666  1
  Er  Er7  1  0.497823  0.672411  0.593566  1
  Ta  Ta8  1  0.160744  0.492013  0.748385  1
  Ta  Ta9  1  0.839315  0.507807  0.251093  1
  Ta  Ta10  1  0.338417  0.991220  0.251157  1
  Ta  Ta11  1  0.660513  0.007899  0.748969  1
  Ta  Ta12  1  0.334895  0.170368  0.873316  1
  Ta  Ta13  1  0.833080  0.326552  0.874149  1
  Ta  Ta14  1  0.164767  0.672957  0.126897  1
  Si  Si15  1  0.038348  0.124179  0.746108  1
  Si  Si16  1  0.959360  0.875376  0.253144  1
  Si  Si17  1  0.464175  0.624627  0.252105  1
  Si  Si18  1  0.537543  0.376642  0.745925  1
  Si  Si19  1  0.294699  0.869562  0.749204  1
  Si  Si20  1  0.703999  0.129054  0.250424  1
  Si  Si21  1  0.205763  0.370371  0.250423  1
  Si  Si22  1  0.793972  0.630032  0.749604  1
  Si  Si23  1  0.162858  0.459537  0.542521  1
  Si  Si24  1  0.837761  0.541271  0.456857  1
  Si  Si25  1  0.337603  0.959244  0.457402  1
  Si  Si26  1  0.835186  0.540373  0.043145  1
  Si  Si27  1  0.662470  0.041285  0.542661  1
  Si  Si28  1  0.162683  0.463061  0.958563  1
  Si  Si29  1  0.664514  0.035431  0.960511  1
  Si  Si30  1  0.339336  0.962610  0.042771  1
  Mo  Mo31  1  0.333597  0.166647  0.621639  1
  Mo  Mo32  1  0.665386  0.832415  0.376528  1
  Mo  Mo33  1  0.165368  0.669470  0.376828  1
  Mo  Mo34  1  0.666994  0.830123  0.128079  1
  Mo  Mo35  1  0.834960  0.331533  0.622122  1
