# generated using pymatgen
data_Tb8Ho12Ga9Si7
_symmetry_space_group_name_H-M   'P 1'
_cell_length_a   7.40994818
_cell_length_b   7.78127255
_cell_length_c   14.89754600
_cell_angle_alpha   90.02124310
_cell_angle_beta   89.98750464
_cell_angle_gamma   90.05045791
_symmetry_Int_Tables_number   1
_chemical_formula_structural   Tb8Ho12Ga9Si7
_chemical_formula_sum   'Tb8 Ho12 Ga9 Si7'
_cell_volume   858.97460540
_cell_formula_units_Z   1
loop_
 _symmetry_equiv_pos_site_id
 _symmetry_equiv_pos_as_xyz
  1  'x, y, z'
loop_
 _atom_site_type_symbol
 _atom_site_label
 _atom_site_symmetry_multiplicity
 _atom_site_fract_x
 _atom_site_fract_y
 _atom_site_fract_z
 _atom_site_occupancy
  Tb  Tb0  1  0.978765  0.822235  0.095601  1
  Tb  Tb1  1  0.479058  0.680106  0.405064  1
  Tb  Tb2  1  0.520569  0.321594  0.904122  1
  Tb  Tb3  1  0.020922  0.179729  0.595214  1
  Tb  Tb4  1  0.023455  0.175784  0.903710  1
  Tb  Tb5  1  0.523995  0.322527  0.595567  1
  Tb  Tb6  1  0.478307  0.678841  0.096079  1
  Tb  Tb7  1  0.975881  0.822973  0.404573  1
  Ho  Ho8  1  0.655529  0.988643  0.251015  1
  Ho  Ho9  1  0.155465  0.510622  0.249424  1
  Ho  Ho10  1  0.844145  0.488990  0.749360  1
  Ho  Ho11  1  0.344964  0.010700  0.751325  1
  Ho  Ho12  1  0.679753  0.823224  0.876822  1
  Ho  Ho13  1  0.180389  0.676993  0.622265  1
  Ho  Ho14  1  0.818644  0.324475  0.122495  1
  Ho  Ho15  1  0.319441  0.176391  0.377782  1
  Ho  Ho16  1  0.318594  0.175551  0.122243  1
  Ho  Ho17  1  0.817217  0.321927  0.378970  1
  Ho  Ho18  1  0.181684  0.677086  0.877967  1
  Ho  Ho19  1  0.682608  0.822424  0.621007  1
  Ga  Ga20  1  0.764821  0.623800  0.251045  1
  Ga  Ga21  1  0.264418  0.876219  0.250767  1
  Ga  Ga22  1  0.735392  0.123893  0.749325  1
  Ga  Ga23  1  0.235421  0.375748  0.749135  1
  Ga  Ga24  1  0.846247  0.531937  0.958512  1
  Ga  Ga25  1  0.347822  0.968083  0.540743  1
  Ga  Ga26  1  0.652205  0.031752  0.040188  1
  Ga  Ga27  1  0.151964  0.467944  0.459311  1
  Ga  Ga28  1  0.153435  0.467793  0.040377  1
  Si  Si29  1  0.023372  0.113639  0.250422  1
  Si  Si30  1  0.523898  0.387099  0.251758  1
  Si  Si31  1  0.475474  0.613086  0.749378  1
  Si  Si32  1  0.976351  0.887215  0.748806  1
  Si  Si33  1  0.650084  0.030610  0.459982  1
  Si  Si34  1  0.349850  0.969626  0.959317  1
  Si  Si35  1  0.849862  0.530741  0.540329  1
