# generated using pymatgen
data_CePr2SmSe6
_symmetry_space_group_name_H-M   'P 1'
_cell_length_a   4.19174100
_cell_length_b   11.15241444
_cell_length_c   11.46395300
_cell_angle_alpha   90.68346082
_cell_angle_beta   90.00000000
_cell_angle_gamma   90.00000000
_symmetry_Int_Tables_number   1
_chemical_formula_structural   CePr2SmSe6
_chemical_formula_sum   'Ce2 Pr4 Sm2 Se12'
_cell_volume   535.87912361
_cell_formula_units_Z   2
loop_
 _symmetry_equiv_pos_site_id
 _symmetry_equiv_pos_as_xyz
  1  'x, y, z'
loop_
 _atom_site_type_symbol
 _atom_site_label
 _atom_site_symmetry_multiplicity
 _atom_site_fract_x
 _atom_site_fract_y
 _atom_site_fract_z
 _atom_site_occupancy
  Ce  Ce0  1  0.250000  0.312279  0.508723  1
  Ce  Ce1  1  0.750000  0.687721  0.491277  1
  Pr  Pr2  1  0.250000  0.999151  0.695072  1
  Pr  Pr3  1  0.750000  0.000849  0.304928  1
  Pr  Pr4  1  0.750000  0.494696  0.807044  1
  Pr  Pr5  1  0.250000  0.505304  0.192956  1
  Sm  Sm6  1  0.750000  0.812617  0.988402  1
  Sm  Sm7  1  0.250000  0.187383  0.011598  1
  Se  Se8  1  0.750000  0.055034  0.883229  1
  Se  Se9  1  0.250000  0.944966  0.116771  1
  Se  Se10  1  0.250000  0.555965  0.619847  1
  Se  Se11  1  0.750000  0.444035  0.380153  1
  Se  Se12  1  0.250000  0.871570  0.454245  1
  Se  Se13  1  0.750000  0.128430  0.545755  1
  Se  Se14  1  0.750000  0.371593  0.045632  1
  Se  Se15  1  0.250000  0.628407  0.954368  1
  Se  Se16  1  0.250000  0.295818  0.770131  1
  Se  Se17  1  0.750000  0.704182  0.229869  1
  Se  Se18  1  0.750000  0.799251  0.729684  1
  Se  Se19  1  0.250000  0.200749  0.270316  1
