# generated using pymatgen
data_Ac8Be3Si12Ge
_symmetry_space_group_name_H-M   'P 1'
_cell_length_a   11.78119571
_cell_length_b   10.23692862
_cell_length_c   8.25062200
_cell_angle_alpha   78.38470023
_cell_angle_beta   58.31309672
_cell_angle_gamma   43.39731171
_symmetry_Int_Tables_number   1
_chemical_formula_structural   Ac8Be3Si12Ge
_chemical_formula_sum   'Ac8 Be3 Si12 Ge1'
_cell_volume   553.37699334
_cell_formula_units_Z   1
loop_
 _symmetry_equiv_pos_site_id
 _symmetry_equiv_pos_as_xyz
  1  'x, y, z'
loop_
 _atom_site_type_symbol
 _atom_site_label
 _atom_site_symmetry_multiplicity
 _atom_site_fract_x
 _atom_site_fract_y
 _atom_site_fract_z
 _atom_site_occupancy
  Ac  Ac0  1  0.377364  0.376979  0.623174  1
  Ac  Ac1  1  0.622667  0.623819  0.376880  1
  Ac  Ac2  1  0.873240  0.874972  0.626379  1
  Ac  Ac3  1  0.626685  0.624827  0.873260  1
  Ac  Ac4  1  0.873922  0.876242  0.124621  1
  Ac  Ac5  1  0.124788  0.124511  0.874810  1
  Ac  Ac6  1  0.375886  0.373563  0.124721  1
  Ac  Ac7  1  0.126169  0.124830  0.374838  1
  Be  Be8  1  0.833369  0.166198  0.833459  1
  Be  Be9  1  0.166319  0.833778  0.166575  1
  Be  Be10  1  0.416999  0.083403  0.416524  1
  Si  Si11  1  0.672735  0.326491  0.673903  1
  Si  Si12  1  0.327707  0.672714  0.326804  1
  Si  Si13  1  0.573710  0.926118  0.574610  1
  Si  Si14  1  0.909796  0.591421  0.912573  1
  Si  Si15  1  0.327141  0.671606  0.846061  1
  Si  Si16  1  0.153979  0.847263  0.673081  1
  Si  Si17  1  0.846251  0.154186  0.326563  1
  Si  Si18  1  0.672782  0.326835  0.154368  1
  Si  Si19  1  0.912207  0.591102  0.425570  1
  Si  Si20  1  0.100811  0.397416  0.575898  1
  Si  Si21  1  0.426540  0.071882  0.913567  1
  Si  Si22  1  0.575728  0.924785  0.099383  1
  Ge  Ge23  1  0.083201  0.415059  0.082375  1
