# generated using pymatgen
data_DyHo3(AlRu)4
_symmetry_space_group_name_H-M   'P 1'
_cell_length_a   4.07459200
_cell_length_b   6.99192241
_cell_length_c   15.93575167
_cell_angle_alpha   90.03233750
_cell_angle_beta   90.00000000
_cell_angle_gamma   90.00000000
_symmetry_Int_Tables_number   1
_chemical_formula_structural   DyHo3(AlRu)4
_chemical_formula_sum   'Dy2 Ho6 Al8 Ru8'
_cell_volume   453.99723983
_cell_formula_units_Z   2
loop_
 _symmetry_equiv_pos_site_id
 _symmetry_equiv_pos_as_xyz
  1  'x, y, z'
loop_
 _atom_site_type_symbol
 _atom_site_label
 _atom_site_symmetry_multiplicity
 _atom_site_fract_x
 _atom_site_fract_y
 _atom_site_fract_z
 _atom_site_occupancy
  Dy  Dy0  1  0.750000  0.963582  0.219298  1
  Dy  Dy1  1  0.250000  0.157399  0.563281  1
  Ho  Ho2  1  0.750000  0.839435  0.436738  1
  Ho  Ho3  1  0.750000  0.462622  0.280936  1
  Ho  Ho4  1  0.750000  0.343095  0.063088  1
  Ho  Ho5  1  0.250000  0.660123  0.936845  1
  Ho  Ho6  1  0.250000  0.037514  0.781215  1
  Ho  Ho7  1  0.250000  0.537174  0.719115  1
  Al  Al8  1  0.750000  0.499301  0.565448  1
  Al  Al9  1  0.750000  0.367361  0.849019  1
  Al  Al10  1  0.750000  0.002389  0.934527  1
  Al  Al11  1  0.750000  0.864625  0.651536  1
  Al  Al12  1  0.250000  0.497533  0.434420  1
  Al  Al13  1  0.250000  0.000909  0.065244  1
  Al  Al14  1  0.250000  0.634832  0.150988  1
  Al  Al15  1  0.250000  0.132853  0.348769  1
  Ru  Ru16  1  0.750000  0.747985  0.812507  1
  Ru  Ru17  1  0.250000  0.237974  0.936805  1
  Ru  Ru18  1  0.750000  0.261939  0.436311  1
  Ru  Ru19  1  0.250000  0.750569  0.312351  1
  Ru  Ru20  1  0.750000  0.765399  0.062807  1
  Ru  Ru21  1  0.750000  0.246787  0.688459  1
  Ru  Ru22  1  0.250000  0.254465  0.187288  1
  Ru  Ru23  1  0.250000  0.734135  0.563005  1
