# generated using pymatgen
data_SmHo3(Rh2O7)2
_symmetry_space_group_name_H-M   'P 1'
_cell_length_a   7.25691607
_cell_length_b   7.25691626
_cell_length_c   7.25691683
_cell_angle_alpha   59.74327083
_cell_angle_beta   59.74326529
_cell_angle_gamma   59.74327363
_symmetry_Int_Tables_number   1
_chemical_formula_structural   SmHo3(Rh2O7)2
_chemical_formula_sum   'Sm1 Ho3 Rh4 O14'
_cell_volume   268.65937257
_cell_formula_units_Z   1
loop_
 _symmetry_equiv_pos_site_id
 _symmetry_equiv_pos_as_xyz
  1  'x, y, z'
loop_
 _atom_site_type_symbol
 _atom_site_label
 _atom_site_symmetry_multiplicity
 _atom_site_fract_x
 _atom_site_fract_y
 _atom_site_fract_z
 _atom_site_occupancy
  Sm  Sm0  1  0.125000  0.125000  0.125000  1
  Ho  Ho1  1  0.125000  0.625000  0.125000  1
  Ho  Ho2  1  0.625000  0.125000  0.125000  1
  Ho  Ho3  1  0.125000  0.125000  0.625000  1
  Rh  Rh4  1  0.625000  0.625000  0.625000  1
  Rh  Rh5  1  0.625000  0.625000  0.125000  1
  Rh  Rh6  1  0.125000  0.625000  0.625000  1
  Rh  Rh7  1  0.625000  0.125000  0.625000  1
  O  O8  1  0.252577  0.252577  0.252577  1
  O  O9  1  0.288295  0.707341  0.288295  1
  O  O10  1  0.961705  0.961705  0.542659  1
  O  O11  1  0.537987  0.961756  0.537987  1
  O  O12  1  0.712013  0.712013  0.288244  1
  O  O13  1  0.961756  0.537987  0.537987  1
  O  O14  1  0.712013  0.288244  0.712013  1
  O  O15  1  0.288295  0.288295  0.707341  1
  O  O16  1  0.707341  0.288295  0.288295  1
  O  O17  1  0.288244  0.712013  0.712013  1
  O  O18  1  0.961705  0.542659  0.961705  1
  O  O19  1  0.537987  0.537987  0.961756  1
  O  O20  1  0.997423  0.997423  0.997423  1
  O  O21  1  0.542659  0.961705  0.961705  1
