# generated using pymatgen
data_CaYb3(ScIr)4
_symmetry_space_group_name_H-M   'P 1'
_cell_length_a   4.25437600
_cell_length_b   7.36448028
_cell_length_c   8.42682300
_cell_angle_alpha   88.96124085
_cell_angle_beta   90.00000000
_cell_angle_gamma   90.00000000
_symmetry_Int_Tables_number   1
_chemical_formula_structural   CaYb3(ScIr)4
_chemical_formula_sum   'Ca1 Yb3 Sc4 Ir4'
_cell_volume   263.97966152
_cell_formula_units_Z   1
loop_
 _symmetry_equiv_pos_site_id
 _symmetry_equiv_pos_as_xyz
  1  'x, y, z'
loop_
 _atom_site_type_symbol
 _atom_site_label
 _atom_site_symmetry_multiplicity
 _atom_site_fract_x
 _atom_site_fract_y
 _atom_site_fract_z
 _atom_site_occupancy
  Ca  Ca0  1  0.750000  0.526755  0.829090  1
  Yb  Yb1  1  0.250000  0.974815  0.328634  1
  Yb  Yb2  1  0.250000  0.475359  0.172148  1
  Yb  Yb3  1  0.750000  0.023623  0.671062  1
  Sc  Sc4  1  0.250000  0.356211  0.566274  1
  Sc  Sc5  1  0.250000  0.859647  0.934014  1
  Sc  Sc6  1  0.750000  0.641362  0.432536  1
  Sc  Sc7  1  0.750000  0.142854  0.067441  1
  Ir  Ir8  1  0.250000  0.215517  0.882397  1
  Ir  Ir9  1  0.250000  0.717619  0.615035  1
  Ir  Ir10  1  0.750000  0.784478  0.119748  1
  Ir  Ir11  1  0.750000  0.281763  0.381621  1
