# generated using pymatgen
data_Dy2Ho3Er3Pt4
_symmetry_space_group_name_H-M   'P 1'
_cell_length_a   4.75714400
_cell_length_b   7.13486583
_cell_length_c   8.75165500
_cell_angle_alpha   89.77951697
_cell_angle_beta   90.00000000
_cell_angle_gamma   90.00000000
_symmetry_Int_Tables_number   1
_chemical_formula_structural   Dy2Ho3Er3Pt4
_chemical_formula_sum   'Dy2 Ho3 Er3 Pt4'
_cell_volume   297.04283538
_cell_formula_units_Z   1
loop_
 _symmetry_equiv_pos_site_id
 _symmetry_equiv_pos_as_xyz
  1  'x, y, z'
loop_
 _atom_site_type_symbol
 _atom_site_label
 _atom_site_symmetry_multiplicity
 _atom_site_fract_x
 _atom_site_fract_y
 _atom_site_fract_z
 _atom_site_occupancy
  Dy  Dy0  1  0.250000  0.489787  0.168986  1
  Dy  Dy1  1  0.750000  0.509927  0.829923  1
  Ho  Ho2  1  0.750000  0.645327  0.420350  1
  Ho  Ho3  1  0.250000  0.990706  0.332073  1
  Ho  Ho4  1  0.750000  0.010180  0.668992  1
  Er  Er5  1  0.250000  0.856450  0.920570  1
  Er  Er6  1  0.250000  0.354895  0.579344  1
  Er  Er7  1  0.750000  0.143666  0.079908  1
  Pt  Pt8  1  0.250000  0.256964  0.907223  1
  Pt  Pt9  1  0.250000  0.757521  0.593530  1
  Pt  Pt10  1  0.750000  0.742685  0.091465  1
  Pt  Pt11  1  0.750000  0.241891  0.407638  1
