# generated using pymatgen
data_DyEr3(TmIn)6
_symmetry_space_group_name_H-M   'P 1'
_cell_length_a   9.06221115
_cell_length_b   9.06221021
_cell_length_c   9.06499820
_cell_angle_alpha   96.43557284
_cell_angle_beta   96.44777539
_cell_angle_gamma   140.85470498
_symmetry_Int_Tables_number   1
_chemical_formula_structural   DyEr3(TmIn)6
_chemical_formula_sum   'Dy1 Er3 Tm6 In6'
_cell_volume   442.82522807
_cell_formula_units_Z   1
loop_
 _symmetry_equiv_pos_site_id
 _symmetry_equiv_pos_as_xyz
  1  'x, y, z'
loop_
 _atom_site_type_symbol
 _atom_site_label
 _atom_site_symmetry_multiplicity
 _atom_site_fract_x
 _atom_site_fract_y
 _atom_site_fract_z
 _atom_site_occupancy
  Dy  Dy0  1  0.081876  0.781824  0.863700  1
  Er  Er1  1  0.717752  0.418914  0.136666  1
  Er  Er2  1  0.282676  0.581028  0.863704  1
  Er  Er3  1  0.581615  0.717696  0.299310  1
  Tm  Tm4  1  0.217406  0.081712  0.299117  1
  Tm  Tm5  1  0.918031  0.217666  0.135697  1
  Tm  Tm6  1  0.750007  0.249736  0.499725  1
  Tm  Tm7  1  0.249989  0.749718  0.499725  1
  Tm  Tm8  1  0.782336  0.918855  0.701192  1
  Tm  Tm9  1  0.417982  0.282635  0.700618  1
  In  In10  1  0.837808  0.661658  0.499467  1
  In  In11  1  0.338963  0.838368  0.177331  1
  In  In12  1  0.749899  0.750412  0.000239  1
  In  In13  1  0.661964  0.161530  0.823494  1
  In  In14  1  0.161869  0.337909  0.499779  1
  In  In15  1  0.249827  0.250340  0.000239  1
