# generated using pymatgen
data_DyHo11Ga2Ni3Os
_symmetry_space_group_name_H-M   'P 1'
_cell_length_a   8.29894259
_cell_length_b   8.29773780
_cell_length_c   8.29811301
_cell_angle_alpha   112.73024351
_cell_angle_beta   109.62375510
_cell_angle_gamma   106.11796632
_symmetry_Int_Tables_number   1
_chemical_formula_structural   DyHo11Ga2Ni3Os
_chemical_formula_sum   'Dy1 Ho11 Ga2 Ni3 Os1'
_cell_volume   438.47185568
_cell_formula_units_Z   1
loop_
 _symmetry_equiv_pos_site_id
 _symmetry_equiv_pos_as_xyz
  1  'x, y, z'
loop_
 _atom_site_type_symbol
 _atom_site_label
 _atom_site_symmetry_multiplicity
 _atom_site_fract_x
 _atom_site_fract_y
 _atom_site_fract_z
 _atom_site_occupancy
  Dy  Dy0  1  0.438916  0.246663  0.192231  1
  Ho  Ho1  1  0.570871  0.765436  0.805472  1
  Ho  Ho2  1  0.039963  0.234613  0.805390  1
  Ho  Ho3  1  0.946139  0.753650  0.192472  1
  Ho  Ho4  1  0.184623  0.276965  0.461779  1
  Ho  Ho5  1  0.825388  0.721664  0.546827  1
  Ho  Ho6  1  0.184647  0.722799  0.907643  1
  Ho  Ho7  1  0.825356  0.278554  0.103678  1
  Ho  Ho8  1  0.325356  0.637452  0.308128  1
  Ho  Ho9  1  0.670993  0.362849  0.688537  1
  Ho  Ho10  1  0.325382  0.017253  0.687929  1
  Ho  Ho11  1  0.670973  0.982459  0.308148  1
  Ga  Ga12  1  0.496533  0.500168  0.996380  1
  Ga  Ga13  1  0.008882  0.999713  0.009173  1
  Ni  Ni14  1  0.653359  0.000027  0.653334  1
  Ni  Ni15  1  0.117873  0.617708  0.500162  1
  Ni  Ni16  1  0.882633  0.382325  0.500282  1
  Os  Os17  1  0.332114  0.999704  0.332435  1
