# generated using pymatgen
data_Zr15Ti(Ir2O)4
_symmetry_space_group_name_H-M   'P 1'
_cell_length_a   8.83487631
_cell_length_b   8.83487676
_cell_length_c   8.83487600
_cell_angle_alpha   59.63773733
_cell_angle_beta   59.63774313
_cell_angle_gamma   59.63773785
_symmetry_Int_Tables_number   1
_chemical_formula_structural   Zr15Ti(Ir2O)4
_chemical_formula_sum   'Zr15 Ti1 Ir8 O4'
_cell_volume   483.61145970
_cell_formula_units_Z   1
loop_
 _symmetry_equiv_pos_site_id
 _symmetry_equiv_pos_as_xyz
  1  'x, y, z'
loop_
 _atom_site_type_symbol
 _atom_site_label
 _atom_site_symmetry_multiplicity
 _atom_site_fract_x
 _atom_site_fract_y
 _atom_site_fract_z
 _atom_site_occupancy
  Zr  Zr0  1  0.125000  0.625000  0.625000  1
  Zr  Zr1  1  0.625000  0.125000  0.625000  1
  Zr  Zr2  1  0.625000  0.625000  0.125000  1
  Zr  Zr3  1  0.811846  0.811846  0.189621  1
  Zr  Zr4  1  0.183743  0.183743  0.815954  1
  Zr  Zr5  1  0.811846  0.189621  0.811846  1
  Zr  Zr6  1  0.183743  0.815954  0.183743  1
  Zr  Zr7  1  0.189621  0.811846  0.811846  1
  Zr  Zr8  1  0.815954  0.183743  0.183743  1
  Zr  Zr9  1  0.438154  0.438154  0.060379  1
  Zr  Zr10  1  0.066257  0.066257  0.434046  1
  Zr  Zr11  1  0.438154  0.060379  0.438154  1
  Zr  Zr12  1  0.066257  0.434046  0.066257  1
  Zr  Zr13  1  0.060379  0.438154  0.438154  1
  Zr  Zr14  1  0.434046  0.066257  0.066257  1
  Ti  Ti15  1  0.625000  0.625000  0.625000  1
  Ir  Ir16  1  0.771040  0.416784  0.416784  1
  Ir  Ir17  1  0.416784  0.771040  0.416784  1
  Ir  Ir18  1  0.416784  0.416784  0.771040  1
  Ir  Ir19  1  0.403171  0.403171  0.403171  1
  Ir  Ir20  1  0.478960  0.833216  0.833216  1
  Ir  Ir21  1  0.833216  0.478960  0.833216  1
  Ir  Ir22  1  0.833216  0.833216  0.478960  1
  Ir  Ir23  1  0.846829  0.846829  0.846829  1
  O  O24  1  0.625000  0.125000  0.125000  1
  O  O25  1  0.125000  0.625000  0.125000  1
  O  O26  1  0.125000  0.125000  0.625000  1
  O  O27  1  0.125000  0.125000  0.125000  1
