# generated using pymatgen
data_Nb12Al5Ga3(CoC)4
_symmetry_space_group_name_H-M   'P 1'
_cell_length_a   8.24727928
_cell_length_b   8.24793970
_cell_length_c   8.24626804
_cell_angle_alpha   60.00896364
_cell_angle_beta   60.01522531
_cell_angle_gamma   60.00676976
_symmetry_Int_Tables_number   1
_chemical_formula_structural   Nb12Al5Ga3(CoC)4
_chemical_formula_sum   'Nb12 Al5 Ga3 Co4 C4'
_cell_volume   396.73472669
_cell_formula_units_Z   1
loop_
 _symmetry_equiv_pos_site_id
 _symmetry_equiv_pos_as_xyz
  1  'x, y, z'
loop_
 _atom_site_type_symbol
 _atom_site_label
 _atom_site_symmetry_multiplicity
 _atom_site_fract_x
 _atom_site_fract_y
 _atom_site_fract_z
 _atom_site_occupancy
  Nb  Nb0  1  0.690406  0.309749  0.690354  1
  Nb  Nb1  1  0.939325  0.561114  0.560202  1
  Nb  Nb2  1  0.559579  0.939904  0.940144  1
  Nb  Nb3  1  0.940577  0.559469  0.940561  1
  Nb  Nb4  1  0.560176  0.561135  0.939320  1
  Nb  Nb5  1  0.940150  0.939894  0.559606  1
  Nb  Nb6  1  0.689590  0.689844  0.310309  1
  Nb  Nb7  1  0.310297  0.689871  0.689571  1
  Nb  Nb8  1  0.688904  0.310596  0.310464  1
  Nb  Nb9  1  0.310452  0.310600  0.688883  1
  Nb  Nb10  1  0.560806  0.939057  0.560855  1
  Nb  Nb11  1  0.311357  0.688149  0.311373  1
  Al  Al12  1  0.331407  0.331991  0.331301  1
  Al  Al13  1  0.245249  0.918059  0.918276  1
  Al  Al14  1  0.917970  0.245581  0.918073  1
  Al  Al15  1  0.918217  0.918108  0.245214  1
  Al  Al16  1  0.331495  0.005030  0.331397  1
  Ga  Ga17  1  0.333565  0.332850  0.000633  1
  Ga  Ga18  1  0.000607  0.332880  0.333525  1
  Ga  Ga19  1  0.916993  0.917094  0.917063  1
  Co  Co20  1  0.124548  0.122984  0.124547  1
  Co  Co21  1  0.624243  0.125191  0.127579  1
  Co  Co22  1  0.126140  0.625846  0.126141  1
  Co  Co23  1  0.127591  0.125190  0.624245  1
  C  C24  1  0.624910  0.624380  0.624915  1
  C  C25  1  0.124210  0.625220  0.625873  1
  C  C26  1  0.625363  0.124993  0.625367  1
  C  C27  1  0.625871  0.625220  0.124210  1
