# generated using pymatgen
data_NaTh3(AsPt)4
_symmetry_space_group_name_H-M   'P 1'
_cell_length_a   4.32972100
_cell_length_b   4.32971992
_cell_length_c   16.59150900
_cell_angle_alpha   90.00000000
_cell_angle_beta   90.00000000
_cell_angle_gamma   119.99998531
_symmetry_Int_Tables_number   1
_chemical_formula_structural   NaTh3(AsPt)4
_chemical_formula_sum   'Na1 Th3 As4 Pt4'
_cell_volume   269.36198204
_cell_formula_units_Z   1
loop_
 _symmetry_equiv_pos_site_id
 _symmetry_equiv_pos_as_xyz
  1  'x, y, z'
loop_
 _atom_site_type_symbol
 _atom_site_label
 _atom_site_symmetry_multiplicity
 _atom_site_fract_x
 _atom_site_fract_y
 _atom_site_fract_z
 _atom_site_occupancy
  Na  Na0  1  0.000000  0.000000  0.500000  1
  Th  Th1  1  0.000000  0.000000  0.000000  1
  Th  Th2  1  0.000000  0.000000  0.252571  1
  Th  Th3  1  0.000000  0.000000  0.747429  1
  As  As4  1  0.333333  0.666667  0.866866  1
  As  As5  1  0.666667  0.333333  0.377399  1
  As  As6  1  0.666667  0.333333  0.133134  1
  As  As7  1  0.333333  0.666667  0.622601  1
  Pt  Pt8  1  0.333333  0.666667  0.350032  1
  Pt  Pt9  1  0.666667  0.333333  0.888903  1
  Pt  Pt10  1  0.666667  0.333333  0.649968  1
  Pt  Pt11  1  0.333333  0.666667  0.111097  1
