# generated using pymatgen
data_La2Nd3P12Ru19
_symmetry_space_group_name_H-M   'P 1'
_cell_length_a   12.68033200
_cell_length_b   12.65183606
_cell_length_c   4.03151700
_cell_angle_alpha   90.00000000
_cell_angle_beta   90.00000000
_cell_angle_gamma   120.07453405
_symmetry_Int_Tables_number   1
_chemical_formula_structural   La2Nd3P12Ru19
_chemical_formula_sum   'La2 Nd3 P12 Ru19'
_cell_volume   559.70171593
_cell_formula_units_Z   1
loop_
 _symmetry_equiv_pos_site_id
 _symmetry_equiv_pos_as_xyz
  1  'x, y, z'
loop_
 _atom_site_type_symbol
 _atom_site_label
 _atom_site_symmetry_multiplicity
 _atom_site_fract_x
 _atom_site_fract_y
 _atom_site_fract_z
 _atom_site_occupancy
  La  La0  1  0.000205  0.183543  0.500000  1
  La  La1  1  0.816661  0.816457  0.500000  1
  Nd  Nd2  1  0.184585  0.000000  0.500000  1
  Nd  Nd3  1  0.666443  0.333787  0.000000  1
  Nd  Nd4  1  0.332655  0.666213  0.000000  1
  P  P5  1  0.002018  0.812451  0.000000  1
  P  P6  1  0.189567  0.187549  0.000000  1
  P  P7  1  0.809971  0.000000  0.000000  1
  P  P8  1  0.695400  0.172584  0.500000  1
  P  P9  1  0.827930  0.524296  0.500000  1
  P  P10  1  0.476718  0.304363  0.500000  1
  P  P11  1  0.172355  0.695637  0.500000  1
  P  P12  1  0.522816  0.827416  0.500000  1
  P  P13  1  0.303634  0.475704  0.500000  1
  P  P14  1  0.000263  0.375839  0.000000  1
  P  P15  1  0.624424  0.624161  0.000000  1
  P  P16  1  0.374677  0.000000  0.000000  1
  Ru  Ru17  1  0.000863  0.555349  0.000000  1
  Ru  Ru18  1  0.445514  0.444651  0.000000  1
  Ru  Ru19  1  0.554070  0.000000  0.000000  1
  Ru  Ru20  1  0.001103  0.714512  0.500000  1
  Ru  Ru21  1  0.286591  0.285488  0.500000  1
  Ru  Ru22  1  0.712684  0.000000  0.500000  1
  Ru  Ru23  1  0.804925  0.185230  0.000000  1
  Ru  Ru24  1  0.816025  0.621143  0.000000  1
  Ru  Ru25  1  0.379146  0.193767  0.000000  1
  Ru  Ru26  1  0.185381  0.806233  0.000000  1
  Ru  Ru27  1  0.619696  0.814770  0.000000  1
  Ru  Ru28  1  0.194883  0.378857  0.000000  1
  Ru  Ru29  1  0.875554  0.368399  0.500000  1
  Ru  Ru30  1  0.632311  0.508208  0.500000  1
  Ru  Ru31  1  0.491952  0.124373  0.500000  1
  Ru  Ru32  1  0.367578  0.875627  0.500000  1
  Ru  Ru33  1  0.507154  0.631601  0.500000  1
  Ru  Ru34  1  0.124103  0.491792  0.500000  1
  Ru  Ru35  1  0.000143  0.000000  0.000000  1
