# generated using pymatgen
data_Gd2GeCO7
_symmetry_space_group_name_H-M   'P 1'
_cell_length_a   6.70475276
_cell_length_b   6.83966271
_cell_length_c   6.88541573
_cell_angle_alpha   96.55271241
_cell_angle_beta   116.26752122
_cell_angle_gamma   92.71832689
_symmetry_Int_Tables_number   1
_chemical_formula_structural   Gd2GeCO7
_chemical_formula_sum   'Gd4 Ge2 C2 O14'
_cell_volume   279.59320333
_cell_formula_units_Z   2
loop_
 _symmetry_equiv_pos_site_id
 _symmetry_equiv_pos_as_xyz
  1  'x, y, z'
loop_
 _atom_site_type_symbol
 _atom_site_label
 _atom_site_symmetry_multiplicity
 _atom_site_fract_x
 _atom_site_fract_y
 _atom_site_fract_z
 _atom_site_occupancy
  Gd  Gd0  1  0.257688  0.668098  0.184116  1
  Gd  Gd1  1  0.248916  0.911083  0.700663  1
  Gd  Gd2  1  0.742312  0.331902  0.815884  1
  Gd  Gd3  1  0.751084  0.088917  0.299337  1
  Ge  Ge4  1  0.261079  0.160044  0.243943  1
  Ge  Ge5  1  0.738921  0.839956  0.756057  1
  C  C6  1  0.806127  0.589955  0.267742  1
  C  C7  1  0.193873  0.410045  0.732258  1
  O  O8  1  0.104939  0.025728  0.344743  1
  O  O9  1  0.339179  0.287297  0.747317  1
  O  O10  1  0.263545  0.593751  0.830729  1
  O  O11  1  0.018095  0.646698  0.374648  1
  O  O12  1  0.464791  0.749420  0.553588  1
  O  O13  1  0.663943  0.025822  0.914386  1
  O  O14  1  0.981905  0.353302  0.625352  1
  O  O15  1  0.336057  0.974178  0.085614  1
  O  O16  1  0.122362  0.339334  0.086655  1
  O  O17  1  0.895061  0.974272  0.655257  1
  O  O18  1  0.736455  0.406249  0.169271  1
  O  O19  1  0.877638  0.660666  0.913345  1
  O  O20  1  0.660821  0.712703  0.252683  1
  O  O21  1  0.535209  0.250580  0.446412  1
