# generated using pymatgen
data_Ca3Si2(AsPd5)4
_symmetry_space_group_name_H-M   'P 1'
_cell_length_a   8.82342217
_cell_length_b   8.82342221
_cell_length_c   8.89635700
_cell_angle_alpha   59.72617895
_cell_angle_beta   59.72617879
_cell_angle_gamma   60.54763816
_symmetry_Int_Tables_number   1
_chemical_formula_structural   Ca3Si2(AsPd5)4
_chemical_formula_sum   'Ca3 Si2 As4 Pd20'
_cell_volume   489.67898049
_cell_formula_units_Z   1
loop_
 _symmetry_equiv_pos_site_id
 _symmetry_equiv_pos_as_xyz
  1  'x, y, z'
loop_
 _atom_site_type_symbol
 _atom_site_label
 _atom_site_symmetry_multiplicity
 _atom_site_fract_x
 _atom_site_fract_y
 _atom_site_fract_z
 _atom_site_occupancy
  Ca  Ca0  1  0.250000  0.250000  0.250000  1
  Ca  Ca1  1  0.750000  0.750000  0.750000  1
  Ca  Ca2  1  0.000000  0.000000  0.000000  1
  Si  Si3  1  0.265540  0.265540  0.734460  1
  Si  Si4  1  0.734460  0.734461  0.265540  1
  As  As5  1  0.735386  0.264613  0.264614  1
  As  As6  1  0.264613  0.735387  0.735386  1
  As  As7  1  0.264614  0.735386  0.264613  1
  As  As8  1  0.735386  0.264614  0.735386  1
  Pd  Pd9  1  0.382128  0.382128  0.390421  1
  Pd  Pd10  1  0.617872  0.617872  0.609579  1
  Pd  Pd11  1  0.382128  0.382128  0.845322  1
  Pd  Pd12  1  0.390421  0.845322  0.382128  1
  Pd  Pd13  1  0.617872  0.617872  0.154678  1
  Pd  Pd14  1  0.609579  0.154678  0.617872  1
  Pd  Pd15  1  0.845322  0.390421  0.382128  1
  Pd  Pd16  1  0.154678  0.609579  0.617872  1
  Pd  Pd17  1  0.347562  0.007059  0.992941  1
  Pd  Pd18  1  0.652438  0.992941  0.007059  1
  Pd  Pd19  1  0.007059  0.347562  0.652438  1
  Pd  Pd20  1  0.992941  0.652438  0.347562  1
  Pd  Pd21  1  0.007059  0.347562  0.992941  1
  Pd  Pd22  1  0.652438  0.992941  0.347562  1
  Pd  Pd23  1  0.992941  0.652438  0.007059  1
  Pd  Pd24  1  0.347562  0.007059  0.652438  1
  Pd  Pd25  1  0.000000  0.000000  0.348151  1
  Pd  Pd26  1  0.000000  0.000000  0.651849  1
  Pd  Pd27  1  0.651849  0.348151  0.000000  1
  Pd  Pd28  1  0.348151  0.651849  0.000000  1
