# generated using pymatgen
data_Y6Er4Sn5Bi
_symmetry_space_group_name_H-M   'P 1'
_cell_length_a   8.95998000
_cell_length_b   8.96571517
_cell_length_c   6.50255200
_cell_angle_alpha   90.00000000
_cell_angle_beta   90.00000000
_cell_angle_gamma   119.97884187
_symmetry_Int_Tables_number   1
_chemical_formula_structural   Y6Er4Sn5Bi
_chemical_formula_sum   'Y6 Er4 Sn5 Bi1'
_cell_volume   452.47959320
_cell_formula_units_Z   1
loop_
 _symmetry_equiv_pos_site_id
 _symmetry_equiv_pos_as_xyz
  1  'x, y, z'
loop_
 _atom_site_type_symbol
 _atom_site_label
 _atom_site_symmetry_multiplicity
 _atom_site_fract_x
 _atom_site_fract_y
 _atom_site_fract_z
 _atom_site_occupancy
  Y  Y0  1  0.994005  0.756653  0.750000  1
  Y  Y1  1  0.000543  0.239847  0.250000  1
  Y  Y2  1  0.760684  0.760148  0.250000  1
  Y  Y3  1  0.763614  0.999989  0.750000  1
  Y  Y4  1  0.237366  0.243347  0.750000  1
  Y  Y5  1  0.238665  0.000006  0.250000  1
  Er  Er6  1  0.332818  0.662227  0.498673  1
  Er  Er7  1  0.670584  0.337771  0.001328  1
  Er  Er8  1  0.670584  0.337771  0.498672  1
  Er  Er9  1  0.332818  0.662227  0.001327  1
  Sn  Sn10  1  0.396455  0.394425  0.250000  1
  Sn  Sn11  1  0.002030  0.605569  0.250000  1
  Sn  Sn12  1  0.999139  0.396893  0.750000  1
  Sn  Sn13  1  0.602234  0.603117  0.750000  1
  Sn  Sn14  1  0.604532  0.999996  0.250000  1
  Bi  Bi15  1  0.393924  0.000013  0.750000  1
