# generated using pymatgen
data_CaNd19Si15Tc
_symmetry_space_group_name_H-M   'P 1'
_cell_length_a   7.66545200
_cell_length_b   8.00500285
_cell_length_c   15.20869200
_cell_angle_alpha   90.00000000
_cell_angle_beta   90.00000000
_cell_angle_gamma   89.73775557
_symmetry_Int_Tables_number   1
_chemical_formula_structural   CaNd19Si15Tc
_chemical_formula_sum   'Ca1 Nd19 Si15 Tc1'
_cell_volume   933.22545246
_cell_formula_units_Z   1
loop_
 _symmetry_equiv_pos_site_id
 _symmetry_equiv_pos_as_xyz
  1  'x, y, z'
loop_
 _atom_site_type_symbol
 _atom_site_label
 _atom_site_symmetry_multiplicity
 _atom_site_fract_x
 _atom_site_fract_y
 _atom_site_fract_z
 _atom_site_occupancy
  Ca  Ca0  1  0.140836  0.516214  0.750000  1
  Nd  Nd1  1  0.814491  0.320853  0.621281  1
  Nd  Nd2  1  0.462647  0.688140  0.899982  1
  Nd  Nd3  1  0.962918  0.813203  0.900991  1
  Nd  Nd4  1  0.198341  0.677693  0.126982  1
  Nd  Nd5  1  0.681351  0.815786  0.123377  1
  Nd  Nd6  1  0.309562  0.181587  0.877375  1
  Nd  Nd7  1  0.198341  0.677693  0.373018  1
  Nd  Nd8  1  0.035659  0.186152  0.098941  1
  Nd  Nd9  1  0.309562  0.181587  0.622625  1
  Nd  Nd10  1  0.843486  0.485941  0.250000  1
  Nd  Nd11  1  0.365157  0.017982  0.250000  1
  Nd  Nd12  1  0.529107  0.321686  0.402222  1
  Nd  Nd13  1  0.814491  0.320853  0.878719  1
  Nd  Nd14  1  0.962918  0.813203  0.599009  1
  Nd  Nd15  1  0.462647  0.688140  0.600018  1
  Nd  Nd16  1  0.035659  0.186152  0.401059  1
  Nd  Nd17  1  0.681351  0.815786  0.376623  1
  Nd  Nd18  1  0.637103  0.990234  0.750000  1
  Nd  Nd19  1  0.529107  0.321686  0.097778  1
  Si  Si20  1  0.244161  0.370831  0.250000  1
  Si  Si21  1  0.868843  0.526582  0.459685  1
  Si  Si22  1  0.521329  0.402501  0.750000  1
  Si  Si23  1  0.635606  0.025063  0.958634  1
  Si  Si24  1  0.014617  0.092603  0.750000  1
  Si  Si25  1  0.750238  0.622485  0.750000  1
  Si  Si26  1  0.755440  0.119071  0.250000  1
  Si  Si27  1  0.360554  0.975895  0.460417  1
  Si  Si28  1  0.983254  0.901941  0.250000  1
  Si  Si29  1  0.360554  0.975895  0.039583  1
  Si  Si30  1  0.635606  0.025063  0.541366  1
  Si  Si31  1  0.143883  0.473538  0.963715  1
  Si  Si32  1  0.143883  0.473538  0.536285  1
  Si  Si33  1  0.868843  0.526582  0.040315  1
  Si  Si34  1  0.248181  0.880150  0.750000  1
  Tc  Tc35  1  0.490280  0.587687  0.250000  1
