# generated using pymatgen
data_LiTh4Al23Pt9
_symmetry_space_group_name_H-M   'P 1'
_cell_length_a   7.63087445
_cell_length_b   7.63968721
_cell_length_c   13.19059318
_cell_angle_alpha   84.48630984
_cell_angle_beta   79.00981256
_cell_angle_gamma   59.89825938
_symmetry_Int_Tables_number   1
_chemical_formula_structural   LiTh4Al23Pt9
_chemical_formula_sum   'Li1 Th4 Al23 Pt9'
_cell_volume   653.06987378
_cell_formula_units_Z   1
loop_
 _symmetry_equiv_pos_site_id
 _symmetry_equiv_pos_as_xyz
  1  'x, y, z'
loop_
 _atom_site_type_symbol
 _atom_site_label
 _atom_site_symmetry_multiplicity
 _atom_site_fract_x
 _atom_site_fract_y
 _atom_site_fract_z
 _atom_site_occupancy
  Li  Li0  1  0.687035  0.833715  0.947094  1
  Th  Th1  1  0.394976  0.168068  0.806850  1
  Th  Th2  1  0.605605  0.831985  0.191242  1
  Th  Th3  1  0.733864  0.498427  0.806862  1
  Th  Th4  1  0.266247  0.501490  0.192653  1
  Al  Al5  1  0.320434  0.159638  0.051629  1
  Al  Al6  1  0.145562  0.833100  0.561529  1
  Al  Al7  1  0.853795  0.166635  0.439342  1
  Al  Al8  1  0.483313  0.165200  0.557835  1
  Al  Al9  1  0.518878  0.833279  0.441974  1
  Al  Al10  1  0.212109  0.165103  0.334807  1
  Al  Al11  1  0.788980  0.834449  0.668243  1
  Al  Al12  1  0.435376  0.510834  0.666151  1
  Al  Al13  1  0.564542  0.490080  0.334659  1
  Al  Al14  1  0.112261  0.155293  0.664667  1
  Al  Al15  1  0.887935  0.844261  0.335908  1
  Al  Al16  1  0.348744  0.503752  0.945366  1
  Al  Al17  1  0.652204  0.503432  0.051797  1
  Al  Al18  1  0.015130  0.164425  0.957365  1
  Al  Al19  1  0.979706  0.834900  0.038491  1
  Al  Al20  1  0.185872  0.499950  0.442567  1
  Al  Al21  1  0.814455  0.501628  0.557851  1
  Al  Al22  1  0.737818  0.165588  0.182516  1
  Al  Al23  1  0.261539  0.836652  0.816967  1
  Al  Al24  1  0.055532  0.637481  0.817372  1
  Al  Al25  1  0.940670  0.363711  0.184113  1
  Al  Al26  1  0.856665  0.035009  0.818620  1
  Al  Al27  1  0.137913  0.962097  0.183801  1
  Pt  Pt28  1  0.123471  0.489587  0.638337  1
  Pt  Pt29  1  0.879427  0.508777  0.361309  1
  Pt  Pt30  1  0.655631  0.180331  0.000214  1
  Pt  Pt31  1  0.334819  0.827323  0.002305  1
  Pt  Pt32  1  0.536702  0.167079  0.361328  1
  Pt  Pt33  1  0.463603  0.833097  0.637846  1
  Pt  Pt34  1  0.780012  0.176909  0.637088  1
  Pt  Pt35  1  0.221142  0.824484  0.362982  1
  Pt  Pt36  1  0.008032  0.492231  0.000321  1
