# generated using pymatgen
data_Ho19MgRh12
_symmetry_space_group_name_H-M   'P 1'
_cell_length_a   10.83359600
_cell_length_b   10.83359600
_cell_length_c   6.28501400
_cell_angle_alpha   90.00000000
_cell_angle_beta   90.00000000
_cell_angle_gamma   90.00000000
_symmetry_Int_Tables_number   1
_chemical_formula_structural   Ho19MgRh12
_chemical_formula_sum   'Ho19 Mg1 Rh12'
_cell_volume   737.65199554
_cell_formula_units_Z   1
loop_
 _symmetry_equiv_pos_site_id
 _symmetry_equiv_pos_as_xyz
  1  'x, y, z'
loop_
 _atom_site_type_symbol
 _atom_site_label
 _atom_site_symmetry_multiplicity
 _atom_site_fract_x
 _atom_site_fract_y
 _atom_site_fract_z
 _atom_site_occupancy
  Ho  Ho0  1  0.283646  0.085480  0.378997  1
  Ho  Ho1  1  0.290580  0.911113  0.879492  1
  Ho  Ho2  1  0.709420  0.088887  0.879492  1
  Ho  Ho3  1  0.716354  0.914520  0.378997  1
  Ho  Ho4  1  0.589438  0.791635  0.880056  1
  Ho  Ho5  1  0.587928  0.208202  0.377565  1
  Ho  Ho6  1  0.412072  0.791798  0.377565  1
  Ho  Ho7  1  0.410562  0.208365  0.880056  1
  Ho  Ho8  1  0.208202  0.412072  0.622435  1
  Ho  Ho9  1  0.208365  0.589438  0.119944  1
  Ho  Ho10  1  0.791635  0.410562  0.119944  1
  Ho  Ho11  1  0.791798  0.587928  0.622435  1
  Ho  Ho12  1  0.911113  0.709420  0.120508  1
  Ho  Ho13  1  0.914520  0.283646  0.621003  1
  Ho  Ho14  1  0.085480  0.716354  0.621003  1
  Ho  Ho15  1  0.088887  0.290580  0.120508  1
  Ho  Ho16  1  0.000000  0.000000  0.000000  1
  Ho  Ho17  1  0.500000  0.500000  0.000000  1
  Ho  Ho18  1  0.500000  0.500000  0.500000  1
  Mg  Mg19  1  0.000000  0.000000  0.500000  1
  Rh  Rh20  1  0.846306  0.154689  0.246664  1
  Rh  Rh21  1  0.845311  0.846306  0.753336  1
  Rh  Rh22  1  0.154689  0.153694  0.753336  1
  Rh  Rh23  1  0.153694  0.845311  0.246664  1
  Rh  Rh24  1  0.654968  0.345565  0.748146  1
  Rh  Rh25  1  0.654435  0.654968  0.251854  1
  Rh  Rh26  1  0.345565  0.345032  0.251854  1
  Rh  Rh27  1  0.345032  0.654435  0.748146  1
  Rh  Rh28  1  0.500000  0.000000  0.124190  1
  Rh  Rh29  1  0.500000  0.000000  0.621185  1
  Rh  Rh30  1  0.000000  0.500000  0.875810  1
  Rh  Rh31  1  0.000000  0.500000  0.378815  1
