# generated using pymatgen
data_Mn5Zn(SiRu2)6
_symmetry_space_group_name_H-M   'P 1'
_cell_length_a   4.18267900
_cell_length_b   5.92055100
_cell_length_c   12.55500500
_cell_angle_alpha   90.00038522
_cell_angle_beta   90.00010499
_cell_angle_gamma   89.99983071
_symmetry_Int_Tables_number   1
_chemical_formula_structural   Mn5Zn(SiRu2)6
_chemical_formula_sum   'Mn5 Zn1 Si6 Ru12'
_cell_volume   310.90918505
_cell_formula_units_Z   1
loop_
 _symmetry_equiv_pos_site_id
 _symmetry_equiv_pos_as_xyz
  1  'x, y, z'
loop_
 _atom_site_type_symbol
 _atom_site_label
 _atom_site_symmetry_multiplicity
 _atom_site_fract_x
 _atom_site_fract_y
 _atom_site_fract_z
 _atom_site_occupancy
  Mn  Mn0  1  0.499654  0.499999  0.165478  1
  Mn  Mn1  1  0.999652  0.000000  0.333012  1
  Mn  Mn2  1  0.500001  0.500000  0.500000  1
  Mn  Mn3  1  0.000347  0.000000  0.666989  1
  Mn  Mn4  1  0.500345  0.500001  0.834522  1
  Zn  Zn5  1  0.000000  0.000000  0.000000  1
  Si  Si6  1  0.000000  0.500000  0.000000  1
  Si  Si7  1  0.499760  0.000000  0.166823  1
  Si  Si8  1  0.999731  0.500000  0.331560  1
  Si  Si9  1  0.500001  0.000000  0.500000  1
  Si  Si10  1  0.000269  0.500000  0.668440  1
  Si  Si11  1  0.500239  0.000000  0.833177  1
  Ru  Ru12  1  0.500001  0.255499  0.000000  1
  Ru  Ru13  1  0.500001  0.744500  0.000000  1
  Ru  Ru14  1  0.999675  0.252804  0.169364  1
  Ru  Ru15  1  0.999676  0.747197  0.169364  1
  Ru  Ru16  1  0.499707  0.249875  0.334049  1
  Ru  Ru17  1  0.499706  0.750124  0.334049  1
  Ru  Ru18  1  0.000000  0.249562  0.500000  1
  Ru  Ru19  1  0.000000  0.750438  0.500000  1
  Ru  Ru20  1  0.500294  0.249875  0.665951  1
  Ru  Ru21  1  0.500293  0.750124  0.665951  1
  Ru  Ru22  1  0.000323  0.252804  0.830636  1
  Ru  Ru23  1  0.000324  0.747197  0.830636  1
