# generated using pymatgen
data_Ac5La3(Nd3Si4)4
_symmetry_space_group_name_H-M   'P 1'
_cell_length_a   8.01377671
_cell_length_b   8.01828480
_cell_length_c   15.48098326
_cell_angle_alpha   89.94343214
_cell_angle_beta   90.15031589
_cell_angle_gamma   89.86190875
_symmetry_Int_Tables_number   1
_chemical_formula_structural   Ac5La3(Nd3Si4)4
_chemical_formula_sum   'Ac5 La3 Nd12 Si16'
_cell_volume   994.75077353
_cell_formula_units_Z   1
loop_
 _symmetry_equiv_pos_site_id
 _symmetry_equiv_pos_as_xyz
  1  'x, y, z'
loop_
 _atom_site_type_symbol
 _atom_site_label
 _atom_site_symmetry_multiplicity
 _atom_site_fract_x
 _atom_site_fract_y
 _atom_site_fract_z
 _atom_site_occupancy
  Ac  Ac0  1  0.982658  0.627304  0.050680  1
  Ac  Ac1  1  0.017538  0.372801  0.549678  1
  Ac  Ac2  1  0.627416  0.981765  0.950174  1
  Ac  Ac3  1  0.127614  0.517622  0.799783  1
  Ac  Ac4  1  0.872025  0.482402  0.299826  1
  La  La5  1  0.511714  0.121687  0.198131  1
  La  La6  1  0.487362  0.878976  0.696325  1
  La  La7  1  0.378857  0.013144  0.447012  1
  Nd  Nd8  1  0.372391  0.483456  0.373141  1
  Nd  Nd9  1  0.871903  0.018432  0.377428  1
  Nd  Nd10  1  0.983340  0.128344  0.123855  1
  Nd  Nd11  1  0.017307  0.872389  0.622410  1
  Nd  Nd12  1  0.627201  0.516342  0.872491  1
  Nd  Nd13  1  0.481813  0.372324  0.626987  1
  Nd  Nd14  1  0.516850  0.626886  0.128151  1
  Nd  Nd15  1  0.128065  0.981964  0.876994  1
  Nd  Nd16  1  0.688738  0.691818  0.500499  1
  Nd  Nd17  1  0.809459  0.189792  0.749624  1
  Nd  Nd18  1  0.191468  0.811188  0.250940  1
  Nd  Nd19  1  0.310233  0.309012  0.000546  1
  Si  Si20  1  0.083221  0.721448  0.439409  1
  Si  Si21  1  0.919120  0.282069  0.939566  1
  Si  Si22  1  0.710903  0.076381  0.561041  1
  Si  Si23  1  0.221590  0.416326  0.189845  1
  Si  Si24  1  0.778854  0.582058  0.688698  1
  Si  Si25  1  0.422240  0.212811  0.810359  1
  Si  Si26  1  0.576762  0.789712  0.311359  1
  Si  Si27  1  0.284505  0.921581  0.062202  1
  Si  Si28  1  0.829681  0.806749  0.793568  1
  Si  Si29  1  0.172951  0.191186  0.296290  1
  Si  Si30  1  0.799894  0.839570  0.204703  1
  Si  Si31  1  0.308754  0.672825  0.546015  1
  Si  Si32  1  0.693561  0.332102  0.047589  1
  Si  Si33  1  0.661176  0.301181  0.454782  1
  Si  Si34  1  0.334521  0.695139  0.955649  1
  Si  Si35  1  0.198317  0.161215  0.704248  1
