# generated using pymatgen
data_Cs8SrEuBr12
_symmetry_space_group_name_H-M   'P 1'
_cell_length_a   10.03666598
_cell_length_b   10.03666627
_cell_length_c   10.03666510
_cell_angle_alpha   89.18143382
_cell_angle_beta   89.18143097
_cell_angle_gamma   89.18143662
_symmetry_Int_Tables_number   1
_chemical_formula_structural   Cs8SrEuBr12
_chemical_formula_sum   'Cs8 Sr1 Eu1 Br12'
_cell_volume   1010.73349506
_cell_formula_units_Z   1
loop_
 _symmetry_equiv_pos_site_id
 _symmetry_equiv_pos_as_xyz
  1  'x, y, z'
loop_
 _atom_site_type_symbol
 _atom_site_label
 _atom_site_symmetry_multiplicity
 _atom_site_fract_x
 _atom_site_fract_y
 _atom_site_fract_z
 _atom_site_occupancy
  Cs  Cs0  1  0.250054  0.250054  0.250054  1
  Cs  Cs1  1  0.749946  0.749946  0.749946  1
  Cs  Cs2  1  0.249998  0.624340  0.875580  1
  Cs  Cs3  1  0.875580  0.249998  0.624340  1
  Cs  Cs4  1  0.624340  0.875580  0.249998  1
  Cs  Cs5  1  0.750002  0.375660  0.124420  1
  Cs  Cs6  1  0.124420  0.750002  0.375660  1
  Cs  Cs7  1  0.375660  0.124420  0.750002  1
  Sr  Sr8  1  0.000000  0.000000  0.000000  1
  Eu  Eu9  1  0.500000  0.500000  0.500000  1
  Br  Br10  1  0.560282  0.211194  0.427962  1
  Br  Br11  1  0.427962  0.560282  0.211194  1
  Br  Br12  1  0.211194  0.427962  0.560282  1
  Br  Br13  1  0.939367  0.072520  0.290594  1
  Br  Br14  1  0.290594  0.939367  0.072520  1
  Br  Br15  1  0.072520  0.290594  0.939367  1
  Br  Br16  1  0.439718  0.788806  0.572038  1
  Br  Br17  1  0.572038  0.439718  0.788806  1
  Br  Br18  1  0.788806  0.572038  0.439718  1
  Br  Br19  1  0.060633  0.927480  0.709406  1
  Br  Br20  1  0.927480  0.709406  0.060633  1
  Br  Br21  1  0.709406  0.060633  0.927480  1
