# generated using pymatgen
data_Tb2Th2Zn10SiGe
_symmetry_space_group_name_H-M   'P 1'
_cell_length_a   8.34017447
_cell_length_b   8.34017489
_cell_length_c   8.82680400
_cell_angle_alpha   90.00000000
_cell_angle_beta   90.00000000
_cell_angle_gamma   149.98948906
_symmetry_Int_Tables_number   1
_chemical_formula_structural   Tb2Th2Zn10SiGe
_chemical_formula_sum   'Tb2 Th2 Zn10 Si1 Ge1'
_cell_volume   307.08722288
_cell_formula_units_Z   1
loop_
 _symmetry_equiv_pos_site_id
 _symmetry_equiv_pos_as_xyz
  1  'x, y, z'
loop_
 _atom_site_type_symbol
 _atom_site_label
 _atom_site_symmetry_multiplicity
 _atom_site_fract_x
 _atom_site_fract_y
 _atom_site_fract_z
 _atom_site_occupancy
  Tb  Tb0  1  0.199078  0.800922  0.250000  1
  Tb  Tb1  1  0.800335  0.199665  0.750000  1
  Th  Th2  1  0.000232  0.999768  0.496504  1
  Th  Th3  1  0.000232  0.999768  0.003496  1
  Zn  Zn4  1  0.812089  0.187911  0.393074  1
  Zn  Zn5  1  0.187560  0.812440  0.606292  1
  Zn  Zn6  1  0.812089  0.187911  0.106926  1
  Zn  Zn7  1  0.187560  0.812440  0.893708  1
  Zn  Zn8  1  0.651343  0.348657  0.473466  1
  Zn  Zn9  1  0.346958  0.653042  0.523094  1
  Zn  Zn10  1  0.651343  0.348657  0.026534  1
  Zn  Zn11  1  0.346958  0.653042  0.976906  1
  Zn  Zn12  1  0.403319  0.596681  0.250000  1
  Zn  Zn13  1  0.600195  0.399805  0.750000  1
  Si  Si14  1  0.556428  0.443572  0.250000  1
  Ge  Ge15  1  0.444279  0.555721  0.750000  1
