# generated using pymatgen
data_Cs3MnIrBr9
_symmetry_space_group_name_H-M   'P 1'
_cell_length_a   7.77351200
_cell_length_b   7.77351161
_cell_length_c   19.58742900
_cell_angle_alpha   90.00000000
_cell_angle_beta   90.00000000
_cell_angle_gamma   119.99999313
_symmetry_Int_Tables_number   1
_chemical_formula_structural   Cs3MnIrBr9
_chemical_formula_sum   'Cs6 Mn2 Ir2 Br18'
_cell_volume   1025.04426953
_cell_formula_units_Z   2
loop_
 _symmetry_equiv_pos_site_id
 _symmetry_equiv_pos_as_xyz
  1  'x, y, z'
loop_
 _atom_site_type_symbol
 _atom_site_label
 _atom_site_symmetry_multiplicity
 _atom_site_fract_x
 _atom_site_fract_y
 _atom_site_fract_z
 _atom_site_occupancy
  Cs  Cs0  1  0.666667  0.333333  0.931592  1
  Cs  Cs1  1  0.333333  0.666667  0.431592  1
  Cs  Cs2  1  0.666667  0.333333  0.570565  1
  Cs  Cs3  1  0.333333  0.666667  0.070565  1
  Cs  Cs4  1  0.000000  0.000000  0.749512  1
  Cs  Cs5  1  0.000000  0.000000  0.249512  1
  Mn  Mn6  1  0.666667  0.333333  0.339827  1
  Mn  Mn7  1  0.333333  0.666667  0.839827  1
  Ir  Ir8  1  0.333333  0.666667  0.667875  1
  Ir  Ir9  1  0.666667  0.333333  0.167875  1
  Br  Br10  1  0.824628  0.649255  0.405893  1
  Br  Br11  1  0.175372  0.350745  0.905893  1
  Br  Br12  1  0.175372  0.824628  0.905893  1
  Br  Br13  1  0.181510  0.363021  0.594507  1
  Br  Br14  1  0.649255  0.824628  0.905893  1
  Br  Br15  1  0.350745  0.175372  0.405893  1
  Br  Br16  1  0.034147  0.517073  0.746477  1
  Br  Br17  1  0.824628  0.175372  0.405893  1
  Br  Br18  1  0.517073  0.034147  0.246477  1
  Br  Br19  1  0.482927  0.517073  0.746477  1
  Br  Br20  1  0.517073  0.482927  0.246477  1
  Br  Br21  1  0.965853  0.482927  0.246477  1
  Br  Br22  1  0.363021  0.181510  0.094507  1
  Br  Br23  1  0.482927  0.965853  0.746477  1
  Br  Br24  1  0.818490  0.636979  0.094507  1
  Br  Br25  1  0.181510  0.818490  0.594507  1
  Br  Br26  1  0.636979  0.818490  0.594507  1
  Br  Br27  1  0.818490  0.181510  0.094507  1
