# generated using pymatgen
data_SmDyY4PtI10
_symmetry_space_group_name_H-M   'P 1'
_cell_length_a   7.75883415
_cell_length_b   9.78346732
_cell_length_c   9.85291418
_cell_angle_alpha   107.21454364
_cell_angle_beta   96.79751511
_cell_angle_gamma   104.78679375
_symmetry_Int_Tables_number   1
_chemical_formula_structural   SmDyY4PtI10
_chemical_formula_sum   'Sm1 Dy1 Y4 Pt1 I10'
_cell_volume   675.35992934
_cell_formula_units_Z   1
loop_
 _symmetry_equiv_pos_site_id
 _symmetry_equiv_pos_as_xyz
  1  'x, y, z'
loop_
 _atom_site_type_symbol
 _atom_site_label
 _atom_site_symmetry_multiplicity
 _atom_site_fract_x
 _atom_site_fract_y
 _atom_site_fract_z
 _atom_site_occupancy
  Sm  Sm0  1  0.116758  0.041514  0.755294  1
  Dy  Dy1  1  0.884453  0.958858  0.239262  1
  Y  Y2  1  0.349699  0.125411  0.165606  1
  Y  Y3  1  0.650067  0.874157  0.834261  1
  Y  Y4  1  0.970595  0.287529  0.088097  1
  Y  Y5  1  0.029286  0.713050  0.914347  1
  Pt  Pt6  1  0.999627  0.000181  0.000367  1
  I  I7  1  0.354150  0.451856  0.271897  1
  I  I8  1  0.646432  0.548043  0.728170  1
  I  I9  1  0.914672  0.628470  0.179847  1
  I  I10  1  0.083813  0.376956  0.824580  1
  I  I11  1  0.454066  0.817852  0.092131  1
  I  I12  1  0.550406  0.184008  0.911217  1
  I  I13  1  0.259033  0.086839  0.457649  1
  I  I14  1  0.735715  0.910998  0.535566  1
  I  I15  1  0.778332  0.256967  0.346449  1
  I  I16  1  0.222897  0.737310  0.655260  1
