# generated using pymatgen
data_Pr2GaAu3
_symmetry_space_group_name_H-M   'P 1'
_cell_length_a   3.69359400
_cell_length_b   4.68270600
_cell_length_c   8.17704000
_cell_angle_alpha   90.00000000
_cell_angle_beta   90.00000000
_cell_angle_gamma   90.00000000
_symmetry_Int_Tables_number   1
_chemical_formula_structural   Pr2GaAu3
_chemical_formula_sum   'Pr2 Ga1 Au3'
_cell_volume   141.43020474
_cell_formula_units_Z   1
loop_
 _symmetry_equiv_pos_site_id
 _symmetry_equiv_pos_as_xyz
  1  'x, y, z'
loop_
 _atom_site_type_symbol
 _atom_site_label
 _atom_site_symmetry_multiplicity
 _atom_site_fract_x
 _atom_site_fract_y
 _atom_site_fract_z
 _atom_site_occupancy
  Pr  Pr0  1  0.000000  0.500000  0.995048  1
  Pr  Pr1  1  0.000000  0.000000  0.507489  1
  Ga  Ga2  1  0.500000  0.500000  0.327487  1
  Au  Au3  1  0.500000  0.000000  0.838265  1
  Au  Au4  1  0.500000  0.000000  0.181390  1
  Au  Au5  1  0.500000  0.500000  0.650322  1
