# generated using pymatgen
data_Er4NbRe5Si8
_symmetry_space_group_name_H-M   'P 1'
_cell_length_a   6.81020170
_cell_length_b   6.89064692
_cell_length_c   6.74764100
_cell_angle_alpha   69.87109355
_cell_angle_beta   90.65108849
_cell_angle_gamma   89.16564481
_symmetry_Int_Tables_number   1
_chemical_formula_structural   Er4NbRe5Si8
_chemical_formula_sum   'Er4 Nb1 Re5 Si8'
_cell_volume   297.22734369
_cell_formula_units_Z   1
loop_
 _symmetry_equiv_pos_site_id
 _symmetry_equiv_pos_as_xyz
  1  'x, y, z'
loop_
 _atom_site_type_symbol
 _atom_site_label
 _atom_site_symmetry_multiplicity
 _atom_site_fract_x
 _atom_site_fract_y
 _atom_site_fract_z
 _atom_site_occupancy
  Er  Er0  1  0.673044  0.443546  0.189763  1
  Er  Er1  1  0.168478  0.064660  0.811594  1
  Er  Er2  1  0.326956  0.556454  0.810237  1
  Er  Er3  1  0.831522  0.935340  0.188406  1
  Nb  Nb4  1  0.500000  0.000000  0.500000  1
  Re  Re5  1  0.000000  0.500000  0.500000  1
  Re  Re6  1  0.147767  0.232648  0.230567  1
  Re  Re7  1  0.644518  0.233697  0.733957  1
  Re  Re8  1  0.852233  0.767352  0.769433  1
  Re  Re9  1  0.355482  0.766303  0.266043  1
  Si  Si10  1  0.459532  0.142068  0.082393  1
  Si  Si11  1  0.934901  0.380257  0.890373  1
  Si  Si12  1  0.540468  0.857932  0.917607  1
  Si  Si13  1  0.065099  0.619743  0.109627  1
  Si  Si14  1  0.872684  0.131470  0.496920  1
  Si  Si15  1  0.349879  0.385169  0.468017  1
  Si  Si16  1  0.127316  0.868530  0.503080  1
  Si  Si17  1  0.650121  0.614831  0.531983  1
