# generated using pymatgen
data_Th2B10Rh
_symmetry_space_group_name_H-M   'P 1'
_cell_length_a   4.19861100
_cell_length_b   5.73522200
_cell_length_c   11.44588100
_cell_angle_alpha   90.00000000
_cell_angle_beta   90.00000000
_cell_angle_gamma   90.00000000
_symmetry_Int_Tables_number   1
_chemical_formula_structural   Th2B10Rh
_chemical_formula_sum   'Th4 B20 Rh2'
_cell_volume   275.61642734
_cell_formula_units_Z   2
loop_
 _symmetry_equiv_pos_site_id
 _symmetry_equiv_pos_as_xyz
  1  'x, y, z'
loop_
 _atom_site_type_symbol
 _atom_site_label
 _atom_site_symmetry_multiplicity
 _atom_site_fract_x
 _atom_site_fract_y
 _atom_site_fract_z
 _atom_site_occupancy
  Th  Th0  1  0.500000  0.297483  0.863752  1
  Th  Th1  1  0.500000  0.702517  0.136248  1
  Th  Th2  1  0.500000  0.797483  0.636248  1
  Th  Th3  1  0.500000  0.202517  0.363752  1
  B  B4  1  0.000000  0.117559  0.543355  1
  B  B5  1  0.000000  0.882441  0.456645  1
  B  B6  1  0.000000  0.617559  0.956645  1
  B  B7  1  0.000000  0.382441  0.043355  1
  B  B8  1  0.000000  0.136771  0.697813  1
  B  B9  1  0.000000  0.863229  0.302187  1
  B  B10  1  0.302253  0.217807  0.118969  1
  B  B11  1  0.302253  0.782193  0.881031  1
  B  B12  1  0.697747  0.717807  0.381031  1
  B  B13  1  0.697747  0.282193  0.618969  1
  B  B14  1  0.697747  0.782193  0.881031  1
  B  B15  1  0.697747  0.217807  0.118969  1
  B  B16  1  0.302253  0.282193  0.618969  1
  B  B17  1  0.302253  0.717807  0.381031  1
  B  B18  1  0.000000  0.054742  0.193016  1
  B  B19  1  0.000000  0.945258  0.806984  1
  B  B20  1  0.000000  0.554742  0.306984  1
  B  B21  1  0.000000  0.445258  0.693016  1
  B  B22  1  0.000000  0.363229  0.197813  1
  B  B23  1  0.000000  0.636771  0.802187  1
  Rh  Rh24  1  0.000000  0.500000  0.500000  1
  Rh  Rh25  1  0.000000  0.000000  0.000000  1
