# generated using pymatgen
data_Th3Co2Sn7
_symmetry_space_group_name_H-M   'P 1'
_cell_length_a   13.76307548
_cell_length_b   13.76307408
_cell_length_c   4.52226200
_cell_angle_alpha   90.00000000
_cell_angle_beta   90.00000000
_cell_angle_gamma   160.16103240
_symmetry_Int_Tables_number   1
_chemical_formula_structural   Th3Co2Sn7
_chemical_formula_sum   'Th3 Co2 Sn7'
_cell_volume   290.71672754
_cell_formula_units_Z   1
loop_
 _symmetry_equiv_pos_site_id
 _symmetry_equiv_pos_as_xyz
  1  'x, y, z'
loop_
 _atom_site_type_symbol
 _atom_site_label
 _atom_site_symmetry_multiplicity
 _atom_site_fract_x
 _atom_site_fract_y
 _atom_site_fract_z
 _atom_site_occupancy
  Th  Th0  1  0.500000  0.500000  0.500000  1
  Th  Th1  1  0.185099  0.814901  0.000000  1
  Th  Th2  1  0.814901  0.185099  0.000000  1
  Co  Co3  1  0.628280  0.371720  0.500000  1
  Co  Co4  1  0.371720  0.628280  0.500000  1
  Sn  Sn5  1  0.720060  0.279940  0.500000  1
  Sn  Sn6  1  0.279940  0.720060  0.500000  1
  Sn  Sn7  1  0.589035  0.410965  0.000000  1
  Sn  Sn8  1  0.000000  0.000000  0.000000  1
  Sn  Sn9  1  0.410965  0.589035  0.000000  1
  Sn  Sn10  1  0.909455  0.090545  0.500000  1
  Sn  Sn11  1  0.090545  0.909455  0.500000  1
