# generated using pymatgen
data_ZrSc5(SnRh)6
_symmetry_space_group_name_H-M   'P 1'
_cell_length_a   7.51494345
_cell_length_b   7.57227334
_cell_length_c   7.05603800
_cell_angle_alpha   90.00000000
_cell_angle_beta   90.00000000
_cell_angle_gamma   120.26846333
_symmetry_Int_Tables_number   1
_chemical_formula_structural   ZrSc5(SnRh)6
_chemical_formula_sum   'Zr1 Sc5 Sn6 Rh6'
_cell_volume   346.78660510
_cell_formula_units_Z   1
loop_
 _symmetry_equiv_pos_site_id
 _symmetry_equiv_pos_as_xyz
  1  'x, y, z'
loop_
 _atom_site_type_symbol
 _atom_site_label
 _atom_site_symmetry_multiplicity
 _atom_site_fract_x
 _atom_site_fract_y
 _atom_site_fract_z
 _atom_site_occupancy
  Zr  Zr0  1  0.005614  0.603034  0.750000  1
  Sc  Sc1  1  0.599771  0.994158  0.750000  1
  Sc  Sc2  1  0.395416  0.399606  0.750000  1
  Sc  Sc3  1  0.605265  0.005878  0.250000  1
  Sc  Sc4  1  0.399062  0.396397  0.250000  1
  Sc  Sc5  1  0.994681  0.598026  0.250000  1
  Sn  Sn6  1  0.276449  0.002338  0.001798  1
  Sn  Sn7  1  0.723786  0.725541  0.498375  1
  Sn  Sn8  1  0.999607  0.270039  0.500962  1
  Sn  Sn9  1  0.999607  0.270039  0.999038  1
  Sn  Sn10  1  0.723786  0.725541  0.001625  1
  Sn  Sn11  1  0.276449  0.002338  0.498202  1
  Rh  Rh12  1  0.671720  0.338669  0.987296  1
  Rh  Rh13  1  0.671720  0.338669  0.512704  1
  Rh  Rh14  1  0.328471  0.667092  0.007080  1
  Rh  Rh15  1  0.328471  0.667092  0.492920  1
  Rh  Rh16  1  0.000267  0.994860  0.750000  1
  Rh  Rh17  1  0.999860  0.000685  0.250000  1
