# generated using pymatgen
data_Hf6Ti4Al12Ru7
_symmetry_space_group_name_H-M   'P 1'
_cell_length_a   8.76837878
_cell_length_b   8.76837918
_cell_length_c   8.76838000
_cell_angle_alpha   60.00000446
_cell_angle_beta   60.00000295
_cell_angle_gamma   60.00000348
_symmetry_Int_Tables_number   1
_chemical_formula_structural   Hf6Ti4Al12Ru7
_chemical_formula_sum   'Hf6 Ti4 Al12 Ru7'
_cell_volume   476.69766594
_cell_formula_units_Z   1
loop_
 _symmetry_equiv_pos_site_id
 _symmetry_equiv_pos_as_xyz
  1  'x, y, z'
loop_
 _atom_site_type_symbol
 _atom_site_label
 _atom_site_symmetry_multiplicity
 _atom_site_fract_x
 _atom_site_fract_y
 _atom_site_fract_z
 _atom_site_occupancy
  Hf  Hf0  1  0.699856  0.699856  0.300144  1
  Hf  Hf1  1  0.300144  0.699856  0.300144  1
  Hf  Hf2  1  0.699856  0.300144  0.300144  1
  Hf  Hf3  1  0.300144  0.300144  0.699856  1
  Hf  Hf4  1  0.699856  0.300144  0.699856  1
  Hf  Hf5  1  0.300144  0.699856  0.699856  1
  Ti  Ti6  1  0.880063  0.880063  0.359810  1
  Ti  Ti7  1  0.880063  0.359810  0.880063  1
  Ti  Ti8  1  0.359810  0.880063  0.880063  1
  Ti  Ti9  1  0.880063  0.880063  0.880063  1
  Al  Al10  1  0.119149  0.119149  0.642552  1
  Al  Al11  1  0.119149  0.642552  0.119149  1
  Al  Al12  1  0.642552  0.119149  0.119149  1
  Al  Al13  1  0.119149  0.119149  0.119149  1
  Al  Al14  1  0.664275  0.664275  0.007177  1
  Al  Al15  1  0.664275  0.007177  0.664275  1
  Al  Al16  1  0.007177  0.664275  0.664275  1
  Al  Al17  1  0.664275  0.664275  0.664275  1
  Al  Al18  1  0.334386  0.334386  0.996840  1
  Al  Al19  1  0.334386  0.996840  0.334386  1
  Al  Al20  1  0.996840  0.334386  0.334386  1
  Al  Al21  1  0.334386  0.334386  0.334386  1
  Ru  Ru22  1  0.000000  0.000000  0.000000  1
  Ru  Ru23  1  0.998723  0.998723  0.501277  1
  Ru  Ru24  1  0.501277  0.998723  0.501277  1
  Ru  Ru25  1  0.998723  0.501277  0.501277  1
  Ru  Ru26  1  0.501277  0.501277  0.998723  1
  Ru  Ru27  1  0.998723  0.501277  0.998723  1
  Ru  Ru28  1  0.501277  0.998723  0.998723  1
