# generated using pymatgen
data_La8Cd2TcNi
_symmetry_space_group_name_H-M   'P 1'
_cell_length_a   10.06310054
_cell_length_b   10.06310051
_cell_length_c   10.19956100
_cell_angle_alpha   59.55039652
_cell_angle_beta   59.55039662
_cell_angle_gamma   59.10575681
_symmetry_Int_Tables_number   1
_chemical_formula_structural   La8Cd2TcNi
_chemical_formula_sum   'La16 Cd4 Tc2 Ni2'
_cell_volume   720.38341336
_cell_formula_units_Z   2
loop_
 _symmetry_equiv_pos_site_id
 _symmetry_equiv_pos_as_xyz
  1  'x, y, z'
loop_
 _atom_site_type_symbol
 _atom_site_label
 _atom_site_symmetry_multiplicity
 _atom_site_fract_x
 _atom_site_fract_y
 _atom_site_fract_z
 _atom_site_occupancy
  La  La0  1  0.596796  0.596796  0.594933  1
  La  La1  1  0.596796  0.596796  0.211476  1
  La  La2  1  0.597591  0.212598  0.594906  1
  La  La3  1  0.212598  0.597591  0.594906  1
  La  La4  1  0.062806  0.439385  0.438771  1
  La  La5  1  0.439385  0.062806  0.059039  1
  La  La6  1  0.439385  0.062806  0.438771  1
  La  La7  1  0.062806  0.439385  0.059039  1
  La  La8  1  0.439149  0.439149  0.060851  1
  La  La9  1  0.057563  0.057563  0.442437  1
  La  La10  1  0.189434  0.804695  0.813780  1
  La  La11  1  0.804695  0.189434  0.192091  1
  La  La12  1  0.804695  0.189434  0.813780  1
  La  La13  1  0.189434  0.804695  0.192091  1
  La  La14  1  0.812955  0.812955  0.187045  1
  La  La15  1  0.193264  0.193264  0.806736  1
  Cd  Cd16  1  0.828759  0.828759  0.829986  1
  Cd  Cd17  1  0.828759  0.828759  0.512498  1
  Cd  Cd18  1  0.828430  0.512552  0.829510  1
  Cd  Cd19  1  0.512552  0.828430  0.829510  1
  Tc  Tc20  1  0.389616  0.389616  0.382715  1
  Tc  Tc21  1  0.389616  0.389616  0.838054  1
  Ni  Ni22  1  0.393175  0.829747  0.388540  1
  Ni  Ni23  1  0.829747  0.393175  0.388540  1
