# generated using pymatgen
data_SmIn2Br5
_symmetry_space_group_name_H-M   'P 1'
_cell_length_a   8.60993900
_cell_length_b   9.15333100
_cell_length_c   13.48914800
_cell_angle_alpha   90.00000000
_cell_angle_beta   90.00000000
_cell_angle_gamma   90.00000000
_symmetry_Int_Tables_number   1
_chemical_formula_structural   SmIn2Br5
_chemical_formula_sum   'Sm4 In8 Br20'
_cell_volume   1063.07464900
_cell_formula_units_Z   4
loop_
 _symmetry_equiv_pos_site_id
 _symmetry_equiv_pos_as_xyz
  1  'x, y, z'
loop_
 _atom_site_type_symbol
 _atom_site_label
 _atom_site_symmetry_multiplicity
 _atom_site_fract_x
 _atom_site_fract_y
 _atom_site_fract_z
 _atom_site_occupancy
  Sm  Sm0  1  0.924848  0.750000  0.505456  1
  Sm  Sm1  1  0.575152  0.750000  0.005456  1
  Sm  Sm2  1  0.075152  0.250000  0.494544  1
  Sm  Sm3  1  0.424848  0.250000  0.994544  1
  In  In4  1  0.941774  0.007241  0.829371  1
  In  In5  1  0.058226  0.992759  0.170629  1
  In  In6  1  0.558226  0.492759  0.329371  1
  In  In7  1  0.058226  0.507241  0.170629  1
  In  In8  1  0.941774  0.492759  0.829371  1
  In  In9  1  0.441774  0.507241  0.670629  1
  In  In10  1  0.558226  0.007241  0.329371  1
  In  In11  1  0.441774  0.992759  0.670629  1
  Br  Br12  1  0.579775  0.750000  0.506459  1
  Br  Br13  1  0.168707  0.955058  0.429093  1
  Br  Br14  1  0.831293  0.044942  0.570907  1
  Br  Br15  1  0.331293  0.544942  0.929093  1
  Br  Br16  1  0.168707  0.544942  0.429093  1
  Br  Br17  1  0.345793  0.250000  0.203693  1
  Br  Br18  1  0.331293  0.955058  0.929093  1
  Br  Br19  1  0.831293  0.455058  0.570907  1
  Br  Br20  1  0.391360  0.750000  0.186668  1
  Br  Br21  1  0.668707  0.044942  0.070907  1
  Br  Br22  1  0.154207  0.250000  0.703693  1
  Br  Br23  1  0.608640  0.250000  0.813332  1
  Br  Br24  1  0.420225  0.250000  0.493541  1
  Br  Br25  1  0.108640  0.750000  0.686668  1
  Br  Br26  1  0.668707  0.455058  0.070907  1
  Br  Br27  1  0.079775  0.250000  0.993541  1
  Br  Br28  1  0.920225  0.750000  0.006459  1
  Br  Br29  1  0.845793  0.750000  0.296307  1
  Br  Br30  1  0.654207  0.750000  0.796307  1
  Br  Br31  1  0.891360  0.250000  0.313332  1
