# generated using pymatgen
data_Tb11Y5Cd2(HgIr2)2
_symmetry_space_group_name_H-M   'P 1'
_cell_length_a   9.66041532
_cell_length_b   9.65947589
_cell_length_c   9.65617911
_cell_angle_alpha   60.02702645
_cell_angle_beta   60.02655592
_cell_angle_gamma   60.07949096
_symmetry_Int_Tables_number   1
_chemical_formula_structural   Tb11Y5Cd2(HgIr2)2
_chemical_formula_sum   'Tb11 Y5 Cd2 Hg2 Ir4'
_cell_volume   637.78729021
_cell_formula_units_Z   1
loop_
 _symmetry_equiv_pos_site_id
 _symmetry_equiv_pos_as_xyz
  1  'x, y, z'
loop_
 _atom_site_type_symbol
 _atom_site_label
 _atom_site_symmetry_multiplicity
 _atom_site_fract_x
 _atom_site_fract_y
 _atom_site_fract_z
 _atom_site_occupancy
  Tb  Tb0  1  0.349448  0.349541  0.347914  1
  Tb  Tb1  1  0.349477  0.349579  0.952919  1
  Tb  Tb2  1  0.351319  0.949426  0.349526  1
  Tb  Tb3  1  0.949684  0.351266  0.349521  1
  Tb  Tb4  1  0.809071  0.189044  0.191763  1
  Tb  Tb5  1  0.188984  0.809166  0.810214  1
  Tb  Tb6  1  0.188899  0.809149  0.191711  1
  Tb  Tb7  1  0.809118  0.189004  0.810238  1
  Tb  Tb8  1  0.189450  0.189539  0.810528  1
  Tb  Tb9  1  0.808627  0.808632  0.191400  1
  Tb  Tb10  1  0.938092  0.560886  0.562320  1
  Y  Y11  1  0.561096  0.938034  0.938569  1
  Y  Y12  1  0.561232  0.938068  0.562346  1
  Y  Y13  1  0.937849  0.561084  0.938615  1
  Y  Y14  1  0.561623  0.561489  0.938583  1
  Y  Y15  1  0.938018  0.938184  0.561836  1
  Cd  Cd16  1  0.580277  0.257733  0.580956  1
  Cd  Cd17  1  0.257803  0.580245  0.581084  1
  Hg  Hg18  1  0.583911  0.584002  0.586200  1
  Hg  Hg19  1  0.584060  0.583973  0.245782  1
  Ir  Ir20  1  0.142110  0.142099  0.140904  1
  Ir  Ir21  1  0.142122  0.142015  0.574914  1
  Ir  Ir22  1  0.142370  0.575455  0.141026  1
  Ir  Ir23  1  0.575361  0.142391  0.141133  1
