# generated using pymatgen
data_Ho2PaMn3(GaCo)6
_symmetry_space_group_name_H-M   'P 1'
_cell_length_a   8.84909200
_cell_length_b   8.84909159
_cell_length_c   4.05505200
_cell_angle_alpha   90.00000000
_cell_angle_beta   90.00000000
_cell_angle_gamma   120.00000153
_symmetry_Int_Tables_number   1
_chemical_formula_structural   Ho2PaMn3(GaCo)6
_chemical_formula_sum   'Ho2 Pa1 Mn3 Ga6 Co6'
_cell_volume   274.99478203
_cell_formula_units_Z   1
loop_
 _symmetry_equiv_pos_site_id
 _symmetry_equiv_pos_as_xyz
  1  'x, y, z'
loop_
 _atom_site_type_symbol
 _atom_site_label
 _atom_site_symmetry_multiplicity
 _atom_site_fract_x
 _atom_site_fract_y
 _atom_site_fract_z
 _atom_site_occupancy
  Ho  Ho0  1  0.666667  0.333333  0.500000  1
  Ho  Ho1  1  0.333333  0.666667  0.500000  1
  Pa  Pa2  1  0.000000  0.000000  0.000000  1
  Mn  Mn3  1  0.500000  0.500000  0.000000  1
  Mn  Mn4  1  0.500000  0.000000  0.000000  1
  Mn  Mn5  1  0.000000  0.500000  0.000000  1
  Ga  Ga6  1  0.687419  0.687419  0.500000  1
  Ga  Ga7  1  0.312581  0.000000  0.500000  1
  Ga  Ga8  1  0.000000  0.312581  0.500000  1
  Ga  Ga9  1  0.312581  0.312581  0.500000  1
  Ga  Ga10  1  0.687419  0.000000  0.500000  1
  Ga  Ga11  1  0.000000  0.687419  0.500000  1
  Co  Co12  1  0.827481  0.172519  0.000000  1
  Co  Co13  1  0.827481  0.654962  0.000000  1
  Co  Co14  1  0.345038  0.172519  0.000000  1
  Co  Co15  1  0.172519  0.827481  0.000000  1
  Co  Co16  1  0.654962  0.827481  0.000000  1
  Co  Co17  1  0.172519  0.345038  0.000000  1
