# generated using pymatgen
data_CsSr2Cd2Bi3
_symmetry_space_group_name_H-M   'P 1'
_cell_length_a   5.15328500
_cell_length_b   13.33292600
_cell_length_c   17.14410900
_cell_angle_alpha   90.00000000
_cell_angle_beta   90.00000000
_cell_angle_gamma   90.00000000
_symmetry_Int_Tables_number   1
_chemical_formula_structural   CsSr2Cd2Bi3
_chemical_formula_sum   'Cs4 Sr8 Cd8 Bi12'
_cell_volume   1177.94374269
_cell_formula_units_Z   4
loop_
 _symmetry_equiv_pos_site_id
 _symmetry_equiv_pos_as_xyz
  1  'x, y, z'
loop_
 _atom_site_type_symbol
 _atom_site_label
 _atom_site_symmetry_multiplicity
 _atom_site_fract_x
 _atom_site_fract_y
 _atom_site_fract_z
 _atom_site_occupancy
  Cs  Cs0  1  0.250000  0.406374  0.544670  1
  Cs  Cs1  1  0.750000  0.093626  0.044670  1
  Cs  Cs2  1  0.250000  0.906374  0.955330  1
  Cs  Cs3  1  0.750000  0.593626  0.455330  1
  Sr  Sr4  1  0.250000  0.353875  0.275625  1
  Sr  Sr5  1  0.750000  0.146125  0.775625  1
  Sr  Sr6  1  0.250000  0.853875  0.224375  1
  Sr  Sr7  1  0.750000  0.646125  0.724375  1
  Sr  Sr8  1  0.250000  0.096934  0.422073  1
  Sr  Sr9  1  0.750000  0.403066  0.922073  1
  Sr  Sr10  1  0.250000  0.596934  0.077927  1
  Sr  Sr11  1  0.750000  0.903066  0.577927  1
  Cd  Cd12  1  0.250000  0.308508  0.072609  1
  Cd  Cd13  1  0.750000  0.191492  0.572609  1
  Cd  Cd14  1  0.250000  0.808508  0.427391  1
  Cd  Cd15  1  0.750000  0.691492  0.927391  1
  Cd  Cd16  1  0.250000  0.376031  0.785445  1
  Cd  Cd17  1  0.750000  0.123969  0.285445  1
  Cd  Cd18  1  0.250000  0.876031  0.714555  1
  Cd  Cd19  1  0.750000  0.623969  0.214555  1
  Bi  Bi20  1  0.250000  0.114170  0.198001  1
  Bi  Bi21  1  0.750000  0.385830  0.698001  1
  Bi  Bi22  1  0.250000  0.614170  0.301999  1
  Bi  Bi23  1  0.750000  0.885830  0.801999  1
  Bi  Bi24  1  0.250000  0.717406  0.589620  1
  Bi  Bi25  1  0.750000  0.782594  0.089620  1
  Bi  Bi26  1  0.250000  0.217406  0.910380  1
  Bi  Bi27  1  0.750000  0.282594  0.410380  1
  Bi  Bi28  1  0.250000  0.087172  0.630901  1
  Bi  Bi29  1  0.750000  0.412828  0.130901  1
  Bi  Bi30  1  0.250000  0.587172  0.869099  1
  Bi  Bi31  1  0.750000  0.912828  0.369099  1
