# generated using pymatgen
data_Ho4TmZn2Bi
_symmetry_space_group_name_H-M   'P 1'
_cell_length_a   8.54059417
_cell_length_b   8.54059466
_cell_length_c   8.54059434
_cell_angle_alpha   123.43716215
_cell_angle_beta   123.43716418
_cell_angle_gamma   84.14309643
_symmetry_Int_Tables_number   1
_chemical_formula_structural   Ho4TmZn2Bi
_chemical_formula_sum   'Ho8 Tm2 Zn4 Bi2'
_cell_volume   415.24437740
_cell_formula_units_Z   2
loop_
 _symmetry_equiv_pos_site_id
 _symmetry_equiv_pos_as_xyz
  1  'x, y, z'
loop_
 _atom_site_type_symbol
 _atom_site_label
 _atom_site_symmetry_multiplicity
 _atom_site_fract_x
 _atom_site_fract_y
 _atom_site_fract_z
 _atom_site_occupancy
  Ho  Ho0  1  0.011115  0.511115  0.805627  1
  Ho  Ho1  1  0.705488  0.205488  0.194373  1
  Ho  Ho2  1  0.511115  0.705488  0.500000  1
  Ho  Ho3  1  0.205488  0.011115  0.500000  1
  Ho  Ho4  1  0.988885  0.488885  0.194373  1
  Ho  Ho5  1  0.294512  0.794512  0.805627  1
  Ho  Ho6  1  0.488885  0.294512  0.500000  1
  Ho  Ho7  1  0.794512  0.988885  0.500000  1
  Tm  Tm8  1  0.000000  0.000000  0.000000  1
  Tm  Tm9  1  0.500000  0.500000  0.000000  1
  Zn  Zn10  1  0.639804  0.139804  0.779607  1
  Zn  Zn11  1  0.360196  0.860196  0.220393  1
  Zn  Zn12  1  0.139804  0.360196  0.500000  1
  Zn  Zn13  1  0.860196  0.639804  0.500000  1
  Bi  Bi14  1  0.750000  0.750000  0.000000  1
  Bi  Bi15  1  0.250000  0.250000  0.000000  1
