# generated using pymatgen
data_Sc12Co(Si4Tc)3
_symmetry_space_group_name_H-M   'P 1'
_cell_length_a   3.96562700
_cell_length_b   10.38359368
_cell_length_c   11.79033944
_cell_angle_alpha   89.67405273
_cell_angle_beta   90.00000000
_cell_angle_gamma   90.00000000
_symmetry_Int_Tables_number   1
_chemical_formula_structural   Sc12Co(Si4Tc)3
_chemical_formula_sum   'Sc12 Co1 Si12 Tc3'
_cell_volume   485.48836816
_cell_formula_units_Z   1
loop_
 _symmetry_equiv_pos_site_id
 _symmetry_equiv_pos_as_xyz
  1  'x, y, z'
loop_
 _atom_site_type_symbol
 _atom_site_label
 _atom_site_symmetry_multiplicity
 _atom_site_fract_x
 _atom_site_fract_y
 _atom_site_fract_z
 _atom_site_occupancy
  Sc  Sc0  1  0.250000  0.877890  0.015520  1
  Sc  Sc1  1  0.250000  0.620771  0.519933  1
  Sc  Sc2  1  0.750000  0.126959  0.979994  1
  Sc  Sc3  1  0.750000  0.376243  0.479442  1
  Sc  Sc4  1  0.250000  0.921512  0.609123  1
  Sc  Sc5  1  0.250000  0.577892  0.106085  1
  Sc  Sc6  1  0.750000  0.076779  0.395743  1
  Sc  Sc7  1  0.750000  0.424685  0.898926  1
  Sc  Sc8  1  0.250000  0.649626  0.797296  1
  Sc  Sc9  1  0.250000  0.836695  0.298604  1
  Sc  Sc10  1  0.750000  0.337470  0.201903  1
  Sc  Sc11  1  0.750000  0.168851  0.701454  1
  Co  Co12  1  0.250000  0.387096  0.675871  1
  Si  Si13  1  0.250000  0.024584  0.821634  1
  Si  Si14  1  0.250000  0.482902  0.323374  1
  Si  Si15  1  0.750000  0.982749  0.176268  1
  Si  Si16  1  0.750000  0.504168  0.677379  1
  Si  Si17  1  0.250000  0.260860  0.838854  1
  Si  Si18  1  0.250000  0.247705  0.346376  1
  Si  Si19  1  0.750000  0.747195  0.154099  1
  Si  Si20  1  0.750000  0.745691  0.657395  1
  Si  Si21  1  0.250000  0.197162  0.547284  1
  Si  Si22  1  0.250000  0.310494  0.042415  1
  Si  Si23  1  0.750000  0.806534  0.458225  1
  Si  Si24  1  0.750000  0.693147  0.954646  1
  Tc  Tc25  1  0.250000  0.112597  0.177172  1
  Tc  Tc26  1  0.750000  0.610782  0.324142  1
  Tc  Tc27  1  0.750000  0.890959  0.820848  1
