# generated using pymatgen
data_Pr2HoTm3(RuO7)2
_symmetry_space_group_name_H-M   'P 1'
_cell_length_a   6.41169453
_cell_length_b   6.40945621
_cell_length_c   7.49153200
_cell_angle_alpha   90.00000000
_cell_angle_beta   90.00000000
_cell_angle_gamma   109.80968670
_symmetry_Int_Tables_number   1
_chemical_formula_structural   Pr2HoTm3(RuO7)2
_chemical_formula_sum   'Pr2 Ho1 Tm3 Ru2 O14'
_cell_volume   289.64950974
_cell_formula_units_Z   1
loop_
 _symmetry_equiv_pos_site_id
 _symmetry_equiv_pos_as_xyz
  1  'x, y, z'
loop_
 _atom_site_type_symbol
 _atom_site_label
 _atom_site_symmetry_multiplicity
 _atom_site_fract_x
 _atom_site_fract_y
 _atom_site_fract_z
 _atom_site_occupancy
  Pr  Pr0  1  0.999570  0.000003  0.500571  1
  Pr  Pr1  1  0.999570  0.000003  0.999429  1
  Ho  Ho2  1  0.068619  0.517222  0.250000  1
  Tm  Tm3  1  0.483424  0.934362  0.750000  1
  Tm  Tm4  1  0.516410  0.066366  0.250000  1
  Tm  Tm5  1  0.934295  0.483699  0.750000  1
  Ru  Ru6  1  0.500017  0.499629  0.500586  1
  Ru  Ru7  1  0.500017  0.499629  0.999414  1
  O  O8  1  0.591451  0.592114  0.750000  1
  O  O9  1  0.410055  0.407978  0.250000  1
  O  O10  1  0.833915  0.121791  0.750000  1
  O  O11  1  0.165249  0.882041  0.250000  1
  O  O12  1  0.122217  0.834678  0.750000  1
  O  O13  1  0.877111  0.163285  0.250000  1
  O  O14  1  0.441299  0.179763  0.963508  1
  O  O15  1  0.557545  0.819547  0.463844  1
  O  O16  1  0.180173  0.439566  0.961658  1
  O  O17  1  0.820024  0.559724  0.465308  1
  O  O18  1  0.441299  0.179763  0.536492  1
  O  O19  1  0.557545  0.819547  0.036156  1
  O  O20  1  0.820024  0.559724  0.034692  1
  O  O21  1  0.180173  0.439566  0.538342  1
