# generated using pymatgen
data_K2AlP2S7
_symmetry_space_group_name_H-M   'P 1'
_cell_length_a   9.13527054
_cell_length_b   9.13527101
_cell_length_c   8.66014260
_cell_angle_alpha   73.33464939
_cell_angle_beta   73.33465027
_cell_angle_gamma   68.96502167
_symmetry_Int_Tables_number   1
_chemical_formula_structural   K2AlP2S7
_chemical_formula_sum   'K4 Al2 P4 S14'
_cell_volume   632.41493540
_cell_formula_units_Z   2
loop_
 _symmetry_equiv_pos_site_id
 _symmetry_equiv_pos_as_xyz
  1  'x, y, z'
loop_
 _atom_site_type_symbol
 _atom_site_label
 _atom_site_symmetry_multiplicity
 _atom_site_fract_x
 _atom_site_fract_y
 _atom_site_fract_z
 _atom_site_occupancy
  K  K0  1  0.612808  0.055425  0.158268  1
  K  K1  1  0.944575  0.387192  0.841732  1
  K  K2  1  0.387192  0.944575  0.841732  1
  K  K3  1  0.055425  0.612808  0.158268  1
  Al  Al4  1  0.684062  0.315938  0.500000  1
  Al  Al5  1  0.315938  0.684062  0.500000  1
  P  P6  1  0.943159  0.943159  0.441746  1
  P  P7  1  0.056841  0.056841  0.558254  1
  P  P8  1  0.395311  0.395311  0.802191  1
  P  P9  1  0.604689  0.604689  0.197809  1
  S  S10  1  0.694687  0.360744  0.212163  1
  S  S11  1  0.639256  0.305313  0.787837  1
  S  S12  1  0.305313  0.639256  0.787837  1
  S  S13  1  0.360744  0.694687  0.212163  1
  S  S14  1  0.994944  0.994944  0.196683  1
  S  S15  1  0.005056  0.005056  0.803317  1
  S  S16  1  0.702513  0.035520  0.538562  1
  S  S17  1  0.964480  0.297487  0.461438  1
  S  S18  1  0.297487  0.964480  0.461438  1
  S  S19  1  0.035520  0.702513  0.538562  1
  S  S20  1  0.274630  0.274630  0.997460  1
  S  S21  1  0.725370  0.725370  0.002540  1
  S  S22  1  0.378362  0.378362  0.570377  1
  S  S23  1  0.621638  0.621638  0.429623  1
