# generated using pymatgen
data_Tb3Ho5Re(B8Os)3
_symmetry_space_group_name_H-M   'P 1'
_cell_length_a   3.66265000
_cell_length_b   9.15327092
_cell_length_c   11.54176201
_cell_angle_alpha   90.09054476
_cell_angle_beta   90.00000000
_cell_angle_gamma   90.00000000
_symmetry_Int_Tables_number   1
_chemical_formula_structural   Tb3Ho5Re(B8Os)3
_chemical_formula_sum   'Tb3 Ho5 Re1 B24 Os3'
_cell_volume   386.93971660
_cell_formula_units_Z   1
loop_
 _symmetry_equiv_pos_site_id
 _symmetry_equiv_pos_as_xyz
  1  'x, y, z'
loop_
 _atom_site_type_symbol
 _atom_site_label
 _atom_site_symmetry_multiplicity
 _atom_site_fract_x
 _atom_site_fract_y
 _atom_site_fract_z
 _atom_site_occupancy
  Tb  Tb0  1  0.000000  0.322553  0.414758  1
  Tb  Tb1  1  0.000000  0.679867  0.588088  1
  Tb  Tb2  1  0.000000  0.822701  0.083807  1
  Ho  Ho3  1  0.000000  0.176429  0.913216  1
  Ho  Ho4  1  0.000000  0.943296  0.371891  1
  Ho  Ho5  1  0.000000  0.056018  0.627803  1
  Ho  Ho6  1  0.000000  0.442776  0.127549  1
  Ho  Ho7  1  0.000000  0.556460  0.872888  1
  Re  Re8  1  0.000000  0.862813  0.821449  1
  B  B9  1  0.500000  0.554011  0.432825  1
  B  B10  1  0.500000  0.446082  0.567551  1
  B  B11  1  0.500000  0.053948  0.067330  1
  B  B12  1  0.500000  0.947342  0.932826  1
  B  B13  1  0.500000  0.748447  0.419084  1
  B  B14  1  0.500000  0.251664  0.580857  1
  B  B15  1  0.500000  0.248083  0.080599  1
  B  B16  1  0.500000  0.751586  0.918926  1
  B  B17  1  0.500000  0.790292  0.266374  1
  B  B18  1  0.500000  0.209075  0.733251  1
  B  B19  1  0.500000  0.290707  0.233529  1
  B  B20  1  0.500000  0.708735  0.766404  1
  B  B21  1  0.500000  0.630834  0.185612  1
  B  B22  1  0.500000  0.368326  0.814273  1
  B  B23  1  0.500000  0.131525  0.314474  1
  B  B24  1  0.500000  0.868921  0.685880  1
  B  B25  1  0.500000  0.983684  0.212828  1
  B  B26  1  0.500000  0.017929  0.787219  1
  B  B27  1  0.500000  0.483304  0.287520  1
  B  B28  1  0.500000  0.516535  0.713085  1
  B  B29  1  0.500000  0.605247  0.029842  1
  B  B30  1  0.500000  0.392506  0.970597  1
  B  B31  1  0.500000  0.106579  0.470151  1
  B  B32  1  0.500000  0.894006  0.528839  1
  Os  Os33  1  0.000000  0.637487  0.321226  1
  Os  Os34  1  0.000000  0.362287  0.678498  1
  Os  Os35  1  0.000000  0.137944  0.178951  1
