# generated using pymatgen
data_CsTcNiAs2
_symmetry_space_group_name_H-M   'P 1'
_cell_length_a   8.13499734
_cell_length_b   8.13499678
_cell_length_c   8.13499727
_cell_angle_alpha   151.83107008
_cell_angle_beta   151.83108046
_cell_angle_gamma   40.26004256
_symmetry_Int_Tables_number   1
_chemical_formula_structural   CsTcNiAs2
_chemical_formula_sum   'Cs1 Tc1 Ni1 As2'
_cell_volume   119.73685547
_cell_formula_units_Z   1
loop_
 _symmetry_equiv_pos_site_id
 _symmetry_equiv_pos_as_xyz
  1  'x, y, z'
loop_
 _atom_site_type_symbol
 _atom_site_label
 _atom_site_symmetry_multiplicity
 _atom_site_fract_x
 _atom_site_fract_y
 _atom_site_fract_z
 _atom_site_occupancy
  Cs  Cs0  1  0.000000  0.000000  0.000000  1
  Tc  Tc1  1  0.750000  0.250000  0.500000  1
  Ni  Ni2  1  0.250000  0.750000  0.500000  1
  As  As3  1  0.340984  0.340984  0.000000  1
  As  As4  1  0.659016  0.659016  0.000000  1
