# generated using pymatgen
data_Eu5Y(Ni7B2)2
_symmetry_space_group_name_H-M   'P 1'
_cell_length_a   5.13211100
_cell_length_b   5.13211168
_cell_length_c   14.46045700
_cell_angle_alpha   90.00000000
_cell_angle_beta   90.00000000
_cell_angle_gamma   120.00000205
_symmetry_Int_Tables_number   1
_chemical_formula_structural   Eu5Y(Ni7B2)2
_chemical_formula_sum   'Eu5 Y1 Ni14 B4'
_cell_volume   329.84110804
_cell_formula_units_Z   1
loop_
 _symmetry_equiv_pos_site_id
 _symmetry_equiv_pos_as_xyz
  1  'x, y, z'
loop_
 _atom_site_type_symbol
 _atom_site_label
 _atom_site_symmetry_multiplicity
 _atom_site_fract_x
 _atom_site_fract_y
 _atom_site_fract_z
 _atom_site_occupancy
  Eu  Eu0  1  0.333333  0.666667  0.968372  1
  Eu  Eu1  1  0.666667  0.333333  0.031177  1
  Eu  Eu2  1  0.666667  0.333333  0.468823  1
  Eu  Eu3  1  0.333333  0.666667  0.531628  1
  Eu  Eu4  1  0.333333  0.666667  0.750000  1
  Y  Y5  1  0.666667  0.333333  0.250000  1
  Ni  Ni6  1  0.164816  0.835184  0.348181  1
  Ni  Ni7  1  0.164816  0.329632  0.348181  1
  Ni  Ni8  1  0.670368  0.835184  0.348181  1
  Ni  Ni9  1  0.835153  0.164847  0.651504  1
  Ni  Ni10  1  0.835153  0.670306  0.651504  1
  Ni  Ni11  1  0.329694  0.164847  0.651504  1
  Ni  Ni12  1  0.835153  0.164847  0.848496  1
  Ni  Ni13  1  0.835153  0.670306  0.848496  1
  Ni  Ni14  1  0.329694  0.164847  0.848496  1
  Ni  Ni15  1  0.164816  0.835184  0.151819  1
  Ni  Ni16  1  0.164816  0.329632  0.151819  1
  Ni  Ni17  1  0.670368  0.835184  0.151819  1
  Ni  Ni18  1  0.000000  0.000000  0.499823  1
  Ni  Ni19  1  0.000000  0.000000  0.000177  1
  B  B20  1  0.333333  0.666667  0.250000  1
  B  B21  1  0.666667  0.333333  0.750000  1
  B  B22  1  0.000000  0.000000  0.250000  1
  B  B23  1  0.000000  0.000000  0.750000  1
