# generated using pymatgen
data_Ba2Cu(PtO3)6
_symmetry_space_group_name_H-M   'P 1'
_cell_length_a   6.80089046
_cell_length_b   7.10992495
_cell_length_c   7.53009900
_cell_angle_alpha   92.12574028
_cell_angle_beta   96.54156993
_cell_angle_gamma   114.39911384
_symmetry_Int_Tables_number   1
_chemical_formula_structural   Ba2Cu(PtO3)6
_chemical_formula_sum   'Ba2 Cu1 Pt6 O18'
_cell_volume   328.00357402
_cell_formula_units_Z   1
loop_
 _symmetry_equiv_pos_site_id
 _symmetry_equiv_pos_as_xyz
  1  'x, y, z'
loop_
 _atom_site_type_symbol
 _atom_site_label
 _atom_site_symmetry_multiplicity
 _atom_site_fract_x
 _atom_site_fract_y
 _atom_site_fract_z
 _atom_site_occupancy
  Ba  Ba0  1  0.685420  0.315268  0.374534  1
  Ba  Ba1  1  0.317091  0.688468  0.624601  1
  Cu  Cu2  1  0.601078  0.722189  0.115371  1
  Pt  Pt3  1  0.191957  0.874480  0.182488  1
  Pt  Pt4  1  0.179789  0.384634  0.194064  1
  Pt  Pt5  1  0.003535  0.000572  0.499414  1
  Pt  Pt6  1  0.821625  0.620144  0.806262  1
  Pt  Pt7  1  0.809369  0.121663  0.820389  1
  Pt  Pt8  1  0.398509  0.286515  0.886263  1
  O  O9  1  0.685352  0.492297  0.024442  1
  O  O10  1  0.881988  0.218674  0.075566  1
  O  O11  1  0.301943  0.178414  0.123355  1
  O  O12  1  0.492848  0.918793  0.168769  1
  O  O13  1  0.912887  0.885629  0.240258  1
  O  O14  1  0.085764  0.599138  0.273758  1
  O  O15  1  0.477064  0.570584  0.309406  1
  O  O16  1  0.085961  0.286361  0.430268  1
  O  O17  1  0.282130  0.001957  0.437723  1
  O  O18  1  0.725412  0.000007  0.563472  1
  O  O19  1  0.918620  0.715626  0.570694  1
  O  O20  1  0.521282  0.438084  0.679260  1
  O  O21  1  0.911742  0.399615  0.728975  1
  O  O22  1  0.093468  0.103734  0.764341  1
  O  O23  1  0.502095  0.073432  0.828741  1
  O  O24  1  0.699885  0.823019  0.883531  1
  O  O25  1  0.117324  0.780392  0.926709  1
  O  O26  1  0.295865  0.500310  0.967344  1
