# generated using pymatgen
data_Sm2P4RuRh5
_symmetry_space_group_name_H-M   'P 1'
_cell_length_a   3.96848500
_cell_length_b   11.34124064
_cell_length_c   12.71270709
_cell_angle_alpha   89.81398477
_cell_angle_beta   90.00000000
_cell_angle_gamma   90.00000000
_symmetry_Int_Tables_number   1
_chemical_formula_structural   Sm2P4RuRh5
_chemical_formula_sum   'Sm6 P12 Ru3 Rh15'
_cell_volume   572.16470028
_cell_formula_units_Z   3
loop_
 _symmetry_equiv_pos_site_id
 _symmetry_equiv_pos_as_xyz
  1  'x, y, z'
loop_
 _atom_site_type_symbol
 _atom_site_label
 _atom_site_symmetry_multiplicity
 _atom_site_fract_x
 _atom_site_fract_y
 _atom_site_fract_z
 _atom_site_occupancy
  Sm  Sm0  1  0.000000  0.499872  0.519005  1
  Sm  Sm1  1  0.500000  0.000506  0.480330  1
  Sm  Sm2  1  0.500000  0.819707  0.204640  1
  Sm  Sm3  1  0.500000  0.178732  0.204914  1
  Sm  Sm4  1  0.000000  0.678626  0.795080  1
  Sm  Sm5  1  0.000000  0.321500  0.796075  1
  P  P6  1  0.500000  0.497600  0.887774  1
  P  P7  1  0.000000  0.998798  0.113884  1
  P  P8  1  0.500000  0.499384  0.346031  1
  P  P9  1  0.000000  0.000399  0.652903  1
  P  P10  1  0.500000  0.311717  0.619644  1
  P  P11  1  0.500000  0.686808  0.618612  1
  P  P12  1  0.000000  0.188852  0.381166  1
  P  P13  1  0.000000  0.812948  0.381555  1
  P  P14  1  0.500000  0.845833  0.892119  1
  P  P15  1  0.500000  0.159965  0.896369  1
  P  P16  1  0.000000  0.654769  0.107247  1
  P  P17  1  0.000000  0.341117  0.102357  1
  Ru  Ru18  1  0.000000  0.502022  0.991978  1
  Ru  Ru19  1  0.500000  0.998630  0.008200  1
  Ru  Ru20  1  0.500000  0.333200  0.998540  1
  Rh  Rh21  1  0.500000  0.509062  0.162259  1
  Rh  Rh22  1  0.000000  0.992504  0.836267  1
  Rh  Rh23  1  0.500000  0.499630  0.702622  1
  Rh  Rh24  1  0.000000  0.000581  0.297784  1
  Rh  Rh25  1  0.500000  0.669769  0.990982  1
  Rh  Rh26  1  0.000000  0.164116  0.003177  1
  Rh  Rh27  1  0.000000  0.831449  0.007911  1
  Rh  Rh28  1  0.500000  0.295860  0.430536  1
  Rh  Rh29  1  0.500000  0.706431  0.430710  1
  Rh  Rh30  1  0.000000  0.204446  0.569823  1
  Rh  Rh31  1  0.000000  0.794966  0.569630  1
  Rh  Rh32  1  0.500000  0.873816  0.710188  1
  Rh  Rh33  1  0.500000  0.126484  0.714602  1
  Rh  Rh34  1  0.000000  0.626659  0.289757  1
  Rh  Rh35  1  0.000000  0.373242  0.285325  1
