# generated using pymatgen
data_Ta3Nb12Co8RuN4
_symmetry_space_group_name_H-M   'P 1'
_cell_length_a   8.21488710
_cell_length_b   8.21488742
_cell_length_c   8.21488660
_cell_angle_alpha   59.60207508
_cell_angle_beta   59.60207701
_cell_angle_gamma   59.60207446
_symmetry_Int_Tables_number   1
_chemical_formula_structural   Ta3Nb12Co8RuN4
_chemical_formula_sum   'Ta3 Nb12 Co8 Ru1 N4'
_cell_volume   388.45798581
_cell_formula_units_Z   1
loop_
 _symmetry_equiv_pos_site_id
 _symmetry_equiv_pos_as_xyz
  1  'x, y, z'
loop_
 _atom_site_type_symbol
 _atom_site_label
 _atom_site_symmetry_multiplicity
 _atom_site_fract_x
 _atom_site_fract_y
 _atom_site_fract_z
 _atom_site_occupancy
  Ta  Ta0  1  0.625000  0.125000  0.125000  1
  Ta  Ta1  1  0.125000  0.125000  0.625000  1
  Ta  Ta2  1  0.125000  0.625000  0.125000  1
  Nb  Nb3  1  0.685009  0.314423  0.685009  1
  Nb  Nb4  1  0.564991  0.564991  0.935577  1
  Nb  Nb5  1  0.564991  0.935577  0.564991  1
  Nb  Nb6  1  0.942529  0.942529  0.554334  1
  Nb  Nb7  1  0.935577  0.564991  0.564991  1
  Nb  Nb8  1  0.942529  0.554334  0.942529  1
  Nb  Nb9  1  0.695666  0.307471  0.307471  1
  Nb  Nb10  1  0.307471  0.695666  0.307471  1
  Nb  Nb11  1  0.307471  0.307471  0.695666  1
  Nb  Nb12  1  0.314423  0.685009  0.685009  1
  Nb  Nb13  1  0.685009  0.685009  0.314423  1
  Nb  Nb14  1  0.554334  0.942529  0.942529  1
  Co  Co15  1  0.232412  0.924821  0.924821  1
  Co  Co16  1  0.924821  0.232412  0.924821  1
  Co  Co17  1  0.918699  0.918699  0.918699  1
  Co  Co18  1  0.924821  0.924821  0.232412  1
  Co  Co19  1  0.017588  0.325179  0.325179  1
  Co  Co20  1  0.325179  0.325179  0.017588  1
  Co  Co21  1  0.325179  0.017588  0.325179  1
  Co  Co22  1  0.331301  0.331301  0.331301  1
  Ru  Ru23  1  0.125000  0.125000  0.125000  1
  N  N24  1  0.625000  0.625000  0.625000  1
  N  N25  1  0.125000  0.625000  0.625000  1
  N  N26  1  0.625000  0.125000  0.625000  1
  N  N27  1  0.625000  0.625000  0.125000  1
