# generated using pymatgen
data_NdTh2(As2Rh3)3
_symmetry_space_group_name_H-M   'P 1'
_cell_length_a   4.05706000
_cell_length_b   8.51805600
_cell_length_c   9.96529889
_cell_angle_alpha   107.30988330
_cell_angle_beta   90.00000000
_cell_angle_gamma   103.77705871
_symmetry_Int_Tables_number   1
_chemical_formula_structural   NdTh2(As2Rh3)3
_chemical_formula_sum   'Nd1 Th2 As6 Rh9'
_cell_volume   318.39312031
_cell_formula_units_Z   1
loop_
 _symmetry_equiv_pos_site_id
 _symmetry_equiv_pos_as_xyz
  1  'x, y, z'
loop_
 _atom_site_type_symbol
 _atom_site_label
 _atom_site_symmetry_multiplicity
 _atom_site_fract_x
 _atom_site_fract_y
 _atom_site_fract_z
 _atom_site_occupancy
  Nd  Nd0  1  0.156295  0.312589  0.695579  1
  Th  Th1  1  0.843241  0.686482  0.302864  1
  Th  Th2  1  0.999097  0.998194  0.999118  1
  As  As3  1  0.801091  0.602182  0.868502  1
  As  As4  1  0.196299  0.392597  0.126292  1
  As  As5  1  0.540212  0.080425  0.779123  1
  As  As6  1  0.462367  0.924734  0.219807  1
  As  As7  1  0.637183  0.274368  0.454183  1
  As  As8  1  0.361521  0.723042  0.550635  1
  Rh  Rh9  1  0.957013  0.914028  0.670483  1
  Rh  Rh10  1  0.043896  0.087792  0.332131  1
  Rh  Rh11  1  0.779729  0.559456  0.606669  1
  Rh  Rh12  1  0.221673  0.443347  0.387656  1
  Rh  Rh13  1  0.380867  0.761735  0.801969  1
  Rh  Rh14  1  0.621060  0.242119  0.202959  1
  Rh  Rh15  1  0.497060  0.994120  0.496830  1
  Rh  Rh16  1  0.679599  0.359199  0.962024  1
  Rh  Rh17  1  0.321796  0.643591  0.043175  1
