# generated using pymatgen
data_Pr2Co12GeP6
_symmetry_space_group_name_H-M   'P 1'
_cell_length_a   9.20507500
_cell_length_b   9.20507356
_cell_length_c   3.62974000
_cell_angle_alpha   90.00000000
_cell_angle_beta   90.00000000
_cell_angle_gamma   119.99999438
_symmetry_Int_Tables_number   1
_chemical_formula_structural   Pr2Co12GeP6
_chemical_formula_sum   'Pr2 Co12 Ge1 P6'
_cell_volume   266.35494776
_cell_formula_units_Z   1
loop_
 _symmetry_equiv_pos_site_id
 _symmetry_equiv_pos_as_xyz
  1  'x, y, z'
loop_
 _atom_site_type_symbol
 _atom_site_label
 _atom_site_symmetry_multiplicity
 _atom_site_fract_x
 _atom_site_fract_y
 _atom_site_fract_z
 _atom_site_occupancy
  Pr  Pr0  1  0.000000  0.000000  0.000000  1
  Pr  Pr1  1  0.333333  0.666667  0.500000  1
  Co  Co2  1  0.099858  0.391985  0.000000  1
  Co  Co3  1  0.608015  0.707871  0.000000  1
  Co  Co4  1  0.292129  0.900142  0.000000  1
  Co  Co5  1  0.052305  0.768165  0.500000  1
  Co  Co6  1  0.231835  0.284139  0.500000  1
  Co  Co7  1  0.715861  0.947695  0.500000  1
  Co  Co8  1  0.824820  0.617529  0.000000  1
  Co  Co9  1  0.382471  0.207292  0.000000  1
  Co  Co10  1  0.792708  0.175180  0.000000  1
  Co  Co11  1  0.911395  0.443209  0.500000  1
  Co  Co12  1  0.556791  0.468186  0.500000  1
  Co  Co13  1  0.531814  0.088605  0.500000  1
  Ge  Ge14  1  0.666667  0.333333  0.000000  1
  P  P15  1  0.771563  0.730396  0.500000  1
  P  P16  1  0.269604  0.041167  0.500000  1
  P  P17  1  0.958833  0.228437  0.500000  1
  P  P18  1  0.067191  0.627144  0.000000  1
  P  P19  1  0.372856  0.440048  0.000000  1
  P  P20  1  0.559952  0.932809  0.000000  1
