# generated using pymatgen
data_Er3TmCo11(Ni3P4)3
_symmetry_space_group_name_H-M   'P 1'
_cell_length_a   3.66357700
_cell_length_b   10.24042843
_cell_length_c   11.79661300
_cell_angle_alpha   89.96864099
_cell_angle_beta   90.00000000
_cell_angle_gamma   90.00000000
_symmetry_Int_Tables_number   1
_chemical_formula_structural   Er3TmCo11(Ni3P4)3
_chemical_formula_sum   'Er3 Tm1 Co11 Ni9 P12'
_cell_volume   442.56872241
_cell_formula_units_Z   1
loop_
 _symmetry_equiv_pos_site_id
 _symmetry_equiv_pos_as_xyz
  1  'x, y, z'
loop_
 _atom_site_type_symbol
 _atom_site_label
 _atom_site_symmetry_multiplicity
 _atom_site_fract_x
 _atom_site_fract_y
 _atom_site_fract_z
 _atom_site_occupancy
  Er  Er0  1  0.250000  0.582355  0.703555  1
  Er  Er1  1  0.750000  0.417789  0.296159  1
  Er  Er2  1  0.750000  0.082337  0.796274  1
  Tm  Tm3  1  0.250000  0.917618  0.204441  1
  Co  Co4  1  0.250000  0.278490  0.676266  1
  Co  Co5  1  0.750000  0.778596  0.823706  1
  Co  Co6  1  0.750000  0.721941  0.323288  1
  Co  Co7  1  0.250000  0.881684  0.698036  1
  Co  Co8  1  0.250000  0.618840  0.197813  1
  Co  Co9  1  0.750000  0.118360  0.302047  1
  Co  Co10  1  0.750000  0.382023  0.801803  1
  Co  Co11  1  0.250000  0.467106  0.932396  1
  Co  Co12  1  0.250000  0.031821  0.432737  1
  Co  Co13  1  0.750000  0.532691  0.067136  1
  Co  Co14  1  0.750000  0.967581  0.567789  1
  Ni  Ni15  1  0.250000  0.713476  0.989470  1
  Ni  Ni16  1  0.250000  0.785636  0.489957  1
  Ni  Ni17  1  0.750000  0.284313  0.009151  1
  Ni  Ni18  1  0.750000  0.214123  0.510324  1
  Ni  Ni19  1  0.250000  0.408864  0.484574  1
  Ni  Ni20  1  0.250000  0.092104  0.985647  1
  Ni  Ni21  1  0.750000  0.591466  0.515194  1
  Ni  Ni22  1  0.750000  0.907971  0.015108  1
  Ni  Ni23  1  0.250000  0.222452  0.177086  1
  P  P24  1  0.250000  0.422818  0.113051  1
  P  P25  1  0.250000  0.080236  0.613511  1
  P  P26  1  0.750000  0.580239  0.885941  1
  P  P27  1  0.750000  0.919504  0.386745  1
  P  P28  1  0.250000  0.271337  0.865502  1
  P  P29  1  0.250000  0.228446  0.368629  1
  P  P30  1  0.750000  0.729253  0.134302  1
  P  P31  1  0.750000  0.771428  0.633982  1
  P  P32  1  0.250000  0.604391  0.387143  1
  P  P33  1  0.250000  0.895897  0.886914  1
  P  P34  1  0.750000  0.396144  0.612742  1
  P  P35  1  0.750000  0.100670  0.111578  1
