# generated using pymatgen
data_U4GaRe7Si4As
_symmetry_space_group_name_H-M   'P 1'
_cell_length_a   7.18827792
_cell_length_b   7.18784991
_cell_length_c   7.18827731
_cell_angle_alpha   109.44257254
_cell_angle_beta   109.71884953
_cell_angle_gamma   109.25496443
_symmetry_Int_Tables_number   1
_chemical_formula_structural   U4GaRe7Si4As
_chemical_formula_sum   'U4 Ga1 Re7 Si4 As1'
_cell_volume   285.89514706
_cell_formula_units_Z   1
loop_
 _symmetry_equiv_pos_site_id
 _symmetry_equiv_pos_as_xyz
  1  'x, y, z'
loop_
 _atom_site_type_symbol
 _atom_site_label
 _atom_site_symmetry_multiplicity
 _atom_site_fract_x
 _atom_site_fract_y
 _atom_site_fract_z
 _atom_site_occupancy
  U  U0  1  0.513643  0.511265  0.512385  1
  U  U1  1  0.998861  0.996275  0.493976  1
  U  U2  1  0.502299  0.996275  0.997415  1
  U  U3  1  0.998880  0.511265  0.997622  1
  Ga  Ga4  1  0.297656  0.298456  0.000800  1
  Re  Re5  1  0.751885  0.253825  0.501941  1
  Re  Re6  1  0.501098  0.250977  0.749879  1
  Re  Re7  1  0.501497  0.754216  0.252719  1
  Re  Re8  1  0.251132  0.503800  0.751920  1
  Re  Re9  1  0.751880  0.503800  0.252668  1
  Re  Re10  1  0.254293  0.756983  0.502690  1
  Re  Re11  1  0.981878  0.974357  0.992479  1
  Si  Si12  1  0.003737  0.692526  0.688790  1
  Si  Si13  1  0.693386  0.004129  0.690196  1
  Si  Si14  1  0.313933  0.004129  0.310743  1
  Si  Si15  1  0.679874  0.680780  0.000906  1
  As  As16  1  0.004069  0.306941  0.302873  1
