# generated using pymatgen
data_Er4Tm2MoO12
_symmetry_space_group_name_H-M   'P 1'
_cell_length_a   6.41057655
_cell_length_b   6.41460554
_cell_length_c   6.41241672
_cell_angle_alpha   98.65630791
_cell_angle_beta   98.69330264
_cell_angle_gamma   98.71323923
_symmetry_Int_Tables_number   1
_chemical_formula_structural   Er4Tm2MoO12
_chemical_formula_sum   'Er4 Tm2 Mo1 O12'
_cell_volume   253.55966480
_cell_formula_units_Z   1
loop_
 _symmetry_equiv_pos_site_id
 _symmetry_equiv_pos_as_xyz
  1  'x, y, z'
loop_
 _atom_site_type_symbol
 _atom_site_label
 _atom_site_symmetry_multiplicity
 _atom_site_fract_x
 _atom_site_fract_y
 _atom_site_fract_z
 _atom_site_occupancy
  Er  Er0  1  0.682755  0.855936  0.388351  1
  Er  Er1  1  0.388670  0.682709  0.856352  1
  Er  Er2  1  0.856010  0.388840  0.682557  1
  Er  Er3  1  0.317194  0.143895  0.611021  1
  Tm  Tm4  1  0.611029  0.318658  0.144520  1
  Tm  Tm5  1  0.144257  0.610612  0.317994  1
  Mo  Mo6  1  0.000505  0.000686  0.000748  1
  O  O7  1  0.429465  0.588317  0.178134  1
  O  O8  1  0.177682  0.430863  0.588602  1
  O  O9  1  0.589681  0.178130  0.429209  1
  O  O10  1  0.569713  0.409744  0.823804  1
  O  O11  1  0.823178  0.569087  0.408535  1
  O  O12  1  0.409320  0.822001  0.568620  1
  O  O13  1  0.921255  0.036139  0.701339  1
  O  O14  1  0.963787  0.299011  0.079753  1
  O  O15  1  0.299289  0.079684  0.964758  1
  O  O16  1  0.078926  0.962838  0.298583  1
  O  O17  1  0.036057  0.701578  0.921209  1
  O  O18  1  0.701225  0.921270  0.035912  1
