# generated using pymatgen
data_Tb3Dy2Tc5(P6Ir7)2
_symmetry_space_group_name_H-M   'P 1'
_cell_length_a   12.64180300
_cell_length_b   12.73743488
_cell_length_c   3.98667800
_cell_angle_alpha   90.00000000
_cell_angle_beta   90.00000000
_cell_angle_gamma   120.14395465
_symmetry_Int_Tables_number   1
_chemical_formula_structural   Tb3Dy2Tc5(P6Ir7)2
_chemical_formula_sum   'Tb3 Dy2 Tc5 P12 Ir14'
_cell_volume   555.13802641
_cell_formula_units_Z   1
loop_
 _symmetry_equiv_pos_site_id
 _symmetry_equiv_pos_as_xyz
  1  'x, y, z'
loop_
 _atom_site_type_symbol
 _atom_site_label
 _atom_site_symmetry_multiplicity
 _atom_site_fract_x
 _atom_site_fract_y
 _atom_site_fract_z
 _atom_site_occupancy
  Tb  Tb0  1  0.999436  0.811051  0.000000  1
  Tb  Tb1  1  0.186577  0.185069  0.000000  1
  Tb  Tb2  1  0.810776  0.998576  0.000000  1
  Dy  Dy3  1  0.334309  0.667968  0.500000  1
  Dy  Dy4  1  0.666610  0.333423  0.500000  1
  Tc  Tc5  1  0.996708  0.450210  0.500000  1
  Tc  Tc6  1  0.548451  0.544899  0.500000  1
  Tc  Tc7  1  0.456858  0.008994  0.500000  1
  Tc  Tc8  1  0.620495  0.799106  0.500000  1
  Tc  Tc9  1  0.201299  0.821938  0.500000  1
  P  P10  1  0.006403  0.639658  0.500000  1
  P  P11  1  0.363765  0.364957  0.500000  1
  P  P12  1  0.632960  0.993578  0.500000  1
  P  P13  1  0.520213  0.693821  0.000000  1
  P  P14  1  0.308191  0.829900  0.000000  1
  P  P15  1  0.169856  0.483269  0.000000  1
  P  P16  1  0.483367  0.169549  0.000000  1
  P  P17  1  0.685998  0.516544  0.000000  1
  P  P18  1  0.832279  0.314764  0.000000  1
  P  P19  1  0.998989  0.176618  0.500000  1
  P  P20  1  0.817076  0.820245  0.500000  1
  P  P21  1  0.177400  0.993864  0.500000  1
  Ir  Ir22  1  0.507889  0.874603  0.000000  1
  Ir  Ir23  1  0.127719  0.635983  0.000000  1
  Ir  Ir24  1  0.361800  0.493946  0.000000  1
  Ir  Ir25  1  0.490841  0.359142  0.000000  1
  Ir  Ir26  1  0.866038  0.506410  0.000000  1
  Ir  Ir27  1  0.643208  0.136410  0.000000  1
  Ir  Ir28  1  0.000285  0.285703  0.000000  1
  Ir  Ir29  1  0.716140  0.710878  0.000000  1
  Ir  Ir30  1  0.287501  0.005151  0.000000  1
  Ir  Ir31  1  0.179977  0.375331  0.500000  1
  Ir  Ir32  1  0.374412  0.183629  0.500000  1
  Ir  Ir33  1  0.807168  0.622508  0.500000  1
  Ir  Ir34  1  0.819365  0.193022  0.500000  1
  Ir  Ir35  1  0.999640  0.999279  0.500000  1
