# generated using pymatgen
data_Lu5In4IrPt
_symmetry_space_group_name_H-M   'P 1'
_cell_length_a   3.55272700
_cell_length_b   8.03810605
_cell_length_c   17.97576514
_cell_angle_alpha   90.02386616
_cell_angle_beta   90.00000000
_cell_angle_gamma   90.00000000
_symmetry_Int_Tables_number   1
_chemical_formula_structural   Lu5In4IrPt
_chemical_formula_sum   'Lu10 In8 Ir2 Pt2'
_cell_volume   513.33741099
_cell_formula_units_Z   2
loop_
 _symmetry_equiv_pos_site_id
 _symmetry_equiv_pos_as_xyz
  1  'x, y, z'
loop_
 _atom_site_type_symbol
 _atom_site_label
 _atom_site_symmetry_multiplicity
 _atom_site_fract_x
 _atom_site_fract_y
 _atom_site_fract_z
 _atom_site_occupancy
  Lu  Lu0  1  0.000000  0.116132  0.412919  1
  Lu  Lu1  1  0.000000  0.883868  0.587081  1
  Lu  Lu2  1  0.000000  0.382945  0.913364  1
  Lu  Lu3  1  0.000000  0.617055  0.086636  1
  Lu  Lu4  1  0.000000  0.237145  0.222247  1
  Lu  Lu5  1  0.000000  0.762855  0.777753  1
  Lu  Lu6  1  0.000000  0.249912  0.721601  1
  Lu  Lu7  1  0.000000  0.750088  0.278399  1
  Lu  Lu8  1  0.000000  0.000000  0.000000  1
  Lu  Lu9  1  0.000000  0.500000  0.500000  1
  In  In10  1  0.500000  0.424816  0.352455  1
  In  In11  1  0.500000  0.575184  0.647545  1
  In  In12  1  0.500000  0.072882  0.852127  1
  In  In13  1  0.500000  0.927118  0.147873  1
  In  In14  1  0.500000  0.292402  0.065469  1
  In  In15  1  0.500000  0.707598  0.934531  1
  In  In16  1  0.500000  0.206718  0.567130  1
  In  In17  1  0.500000  0.793282  0.432870  1
  Ir  Ir18  1  0.500000  0.022237  0.303908  1
  Ir  Ir19  1  0.500000  0.977763  0.696092  1
  Pt  Pt20  1  0.500000  0.479151  0.803883  1
  Pt  Pt21  1  0.500000  0.520849  0.196117  1
