# generated using pymatgen
data_Tb6YPI12
_symmetry_space_group_name_H-M   'P 1'
_cell_length_a   9.71578011
_cell_length_b   9.71577960
_cell_length_c   9.71577946
_cell_angle_alpha   107.87764588
_cell_angle_beta   107.87765092
_cell_angle_gamma   107.87763973
_symmetry_Int_Tables_number   1
_chemical_formula_structural   Tb6YPI12
_chemical_formula_sum   'Tb6 Y1 P1 I12'
_cell_volume   744.75573572
_cell_formula_units_Z   1
loop_
 _symmetry_equiv_pos_site_id
 _symmetry_equiv_pos_as_xyz
  1  'x, y, z'
loop_
 _atom_site_type_symbol
 _atom_site_label
 _atom_site_symmetry_multiplicity
 _atom_site_fract_x
 _atom_site_fract_y
 _atom_site_fract_z
 _atom_site_occupancy
  Tb  Tb0  1  0.699262  0.971507  0.901343  1
  Tb  Tb1  1  0.971507  0.901343  0.699262  1
  Tb  Tb2  1  0.098657  0.300738  0.028493  1
  Tb  Tb3  1  0.300738  0.028493  0.098657  1
  Tb  Tb4  1  0.901343  0.699262  0.971507  1
  Tb  Tb5  1  0.028493  0.098657  0.300738  1
  Y  Y6  1  0.500000  0.500000  0.500000  1
  P  P7  1  0.000000  0.000000  0.000000  1
  I  I8  1  0.074024  0.226977  0.684648  1
  I  I9  1  0.384586  0.153721  0.464202  1
  I  I10  1  0.615414  0.846279  0.535798  1
  I  I11  1  0.226977  0.684648  0.074024  1
  I  I12  1  0.773023  0.315352  0.925976  1
  I  I13  1  0.684648  0.074024  0.226977  1
  I  I14  1  0.535798  0.615414  0.846279  1
  I  I15  1  0.846279  0.535798  0.615414  1
  I  I16  1  0.925976  0.773023  0.315352  1
  I  I17  1  0.315352  0.925976  0.773023  1
  I  I18  1  0.464202  0.384586  0.153721  1
  I  I19  1  0.153721  0.464202  0.384586  1
