# generated using pymatgen
data_Nd2V3Ni9As7
_symmetry_space_group_name_H-M   'P 1'
_cell_length_a   3.85337200
_cell_length_b   9.51628290
_cell_length_c   9.51628400
_cell_angle_alpha   120.00000289
_cell_angle_beta   90.00000000
_cell_angle_gamma   90.00000000
_symmetry_Int_Tables_number   1
_chemical_formula_structural   Nd2V3Ni9As7
_chemical_formula_sum   'Nd2 V3 Ni9 As7'
_cell_volume   302.20823541
_cell_formula_units_Z   1
loop_
 _symmetry_equiv_pos_site_id
 _symmetry_equiv_pos_as_xyz
  1  'x, y, z'
loop_
 _atom_site_type_symbol
 _atom_site_label
 _atom_site_symmetry_multiplicity
 _atom_site_fract_x
 _atom_site_fract_y
 _atom_site_fract_z
 _atom_site_occupancy
  Nd  Nd0  1  0.000000  0.666667  0.333333  1
  Nd  Nd1  1  0.500000  0.333333  0.666667  1
  V  V2  1  0.500000  0.786127  0.897254  1
  V  V3  1  0.500000  0.111126  0.213873  1
  V  V4  1  0.500000  0.102746  0.888874  1
  Ni  Ni5  1  0.000000  0.570834  0.940178  1
  Ni  Ni6  1  0.000000  0.369344  0.429166  1
  Ni  Ni7  1  0.000000  0.059822  0.630656  1
  Ni  Ni8  1  0.000000  0.872063  0.150936  1
  Ni  Ni9  1  0.000000  0.278872  0.127937  1
  Ni  Ni10  1  0.000000  0.849064  0.721128  1
  Ni  Ni11  1  0.500000  0.947055  0.378694  1
  Ni  Ni12  1  0.500000  0.431638  0.052945  1
  Ni  Ni13  1  0.500000  0.621306  0.568362  1
  As  As14  1  0.000000  0.000000  0.000000  1
  As  As15  1  0.500000  0.706824  0.108785  1
  As  As16  1  0.500000  0.401961  0.293176  1
  As  As17  1  0.500000  0.891215  0.598039  1
  As  As18  1  0.000000  0.593820  0.704092  1
  As  As19  1  0.000000  0.110272  0.406180  1
  As  As20  1  0.000000  0.295908  0.889728  1
