# generated using pymatgen
data_Yb4CdHgPd10
_symmetry_space_group_name_H-M   'P 1'
_cell_length_a   4.25953700
_cell_length_b   5.79182058
_cell_length_c   11.49565900
_cell_angle_alpha   90.91996601
_cell_angle_beta   90.00000000
_cell_angle_gamma   90.00000000
_symmetry_Int_Tables_number   1
_chemical_formula_structural   Yb4CdHgPd10
_chemical_formula_sum   'Yb4 Cd1 Hg1 Pd10'
_cell_volume   283.56679996
_cell_formula_units_Z   1
loop_
 _symmetry_equiv_pos_site_id
 _symmetry_equiv_pos_as_xyz
  1  'x, y, z'
loop_
 _atom_site_type_symbol
 _atom_site_label
 _atom_site_symmetry_multiplicity
 _atom_site_fract_x
 _atom_site_fract_y
 _atom_site_fract_z
 _atom_site_occupancy
  Yb  Yb0  1  0.500000  0.299663  0.864442  1
  Yb  Yb1  1  0.500000  0.794743  0.635824  1
  Yb  Yb2  1  0.500000  0.700337  0.135558  1
  Yb  Yb3  1  0.500000  0.205257  0.364176  1
  Cd  Cd4  1  0.000000  0.000000  0.000000  1
  Hg  Hg5  1  0.000000  0.500000  0.500000  1
  Pd  Pd6  1  0.500000  0.717731  0.380109  1
  Pd  Pd7  1  0.500000  0.282269  0.619891  1
  Pd  Pd8  1  0.000000  0.049171  0.750366  1
  Pd  Pd9  1  0.500000  0.789746  0.882193  1
  Pd  Pd10  1  0.000000  0.450671  0.247900  1
  Pd  Pd11  1  0.000000  0.950829  0.249634  1
  Pd  Pd12  1  0.000000  0.549329  0.752100  1
  Pd  Pd13  1  0.000000  0.500000  0.000000  1
  Pd  Pd14  1  0.000000  0.000000  0.500000  1
  Pd  Pd15  1  0.500000  0.210254  0.117807  1
