# generated using pymatgen
data_Hf3Zr5(Si4Rh3)4
_symmetry_space_group_name_H-M   'P 1'
_cell_length_a   5.49026322
_cell_length_b   6.99184651
_cell_length_c   14.25704755
_cell_angle_alpha   89.92535357
_cell_angle_beta   90.03074207
_cell_angle_gamma   89.98932835
_symmetry_Int_Tables_number   1
_chemical_formula_structural   Hf3Zr5(Si4Rh3)4
_chemical_formula_sum   'Hf3 Zr5 Si16 Rh12'
_cell_volume   547.28583974
_cell_formula_units_Z   1
loop_
 _symmetry_equiv_pos_site_id
 _symmetry_equiv_pos_as_xyz
  1  'x, y, z'
loop_
 _atom_site_type_symbol
 _atom_site_label
 _atom_site_symmetry_multiplicity
 _atom_site_fract_x
 _atom_site_fract_y
 _atom_site_fract_z
 _atom_site_occupancy
  Hf  Hf0  1  0.734109  0.899507  0.348598  1
  Hf  Hf1  1  0.265851  0.900229  0.848689  1
  Hf  Hf2  1  0.765835  0.599716  0.848806  1
  Zr  Zr3  1  0.236424  0.400255  0.151639  1
  Zr  Zr4  1  0.736176  0.099099  0.151652  1
  Zr  Zr5  1  0.263836  0.099669  0.652121  1
  Zr  Zr6  1  0.763621  0.400914  0.652213  1
  Zr  Zr7  1  0.235012  0.599087  0.348388  1
  Si  Si8  1  0.210064  0.022847  0.068707  1
  Si  Si9  1  0.711523  0.523313  0.431128  1
  Si  Si10  1  0.789206  0.023504  0.568978  1
  Si  Si11  1  0.485153  0.755006  0.187643  1
  Si  Si12  1  0.015112  0.254856  0.811961  1
  Si  Si13  1  0.515291  0.245212  0.812002  1
  Si  Si14  1  0.210577  0.977634  0.430985  1
  Si  Si15  1  0.289610  0.522662  0.930888  1
  Si  Si16  1  0.984209  0.745222  0.187532  1
  Si  Si17  1  0.710177  0.477061  0.068620  1
  Si  Si18  1  0.289739  0.477101  0.568572  1
  Si  Si19  1  0.486622  0.244020  0.311621  1
  Si  Si20  1  0.015348  0.745301  0.688130  1
  Si  Si21  1  0.789662  0.977507  0.930973  1
  Si  Si22  1  0.515387  0.755187  0.687991  1
  Si  Si23  1  0.983187  0.253111  0.312122  1
  Rh  Rh24  1  0.990812  0.280797  0.980122  1
  Rh  Rh25  1  0.508406  0.220508  0.480335  1
  Rh  Rh26  1  0.772732  0.997322  0.752086  1
  Rh  Rh27  1  0.490787  0.219395  0.980094  1
  Rh  Rh28  1  0.728473  0.501561  0.250881  1
  Rh  Rh29  1  0.493131  0.779790  0.518638  1
  Rh  Rh30  1  0.008312  0.279700  0.480808  1
  Rh  Rh31  1  0.006545  0.720965  0.017399  1
  Rh  Rh32  1  0.227208  0.998086  0.251183  1
  Rh  Rh33  1  0.272857  0.502748  0.751980  1
  Rh  Rh34  1  0.506391  0.778973  0.017464  1
  Rh  Rh35  1  0.992613  0.722133  0.519053  1
