# generated using pymatgen
data_Si6Ag6Sn(GeP4)3
_symmetry_space_group_name_H-M   'P 1'
_cell_length_a   8.94397497
_cell_length_b   8.93444259
_cell_length_c   8.94397463
_cell_angle_alpha   109.44963816
_cell_angle_beta   109.49280447
_cell_angle_gamma   109.44962787
_symmetry_Int_Tables_number   1
_chemical_formula_structural   Si6Ag6Sn(GeP4)3
_chemical_formula_sum   'Si6 Ag6 Sn1 Ge3 P12'
_cell_volume   550.32889442
_cell_formula_units_Z   1
loop_
 _symmetry_equiv_pos_site_id
 _symmetry_equiv_pos_as_xyz
  1  'x, y, z'
loop_
 _atom_site_type_symbol
 _atom_site_label
 _atom_site_symmetry_multiplicity
 _atom_site_fract_x
 _atom_site_fract_y
 _atom_site_fract_z
 _atom_site_occupancy
  Si  Si0  1  0.497709  0.249072  0.749103  1
  Si  Si1  1  0.502291  0.751363  0.251393  1
  Si  Si2  1  0.748609  0.499969  0.250899  1
  Si  Si3  1  0.251393  0.751363  0.502291  1
  Si  Si4  1  0.250899  0.499969  0.748609  1
  Si  Si5  1  0.749103  0.249072  0.497709  1
  Ag  Ag6  1  0.000000  0.199036  0.201981  1
  Ag  Ag7  1  0.000000  0.800680  0.800147  1
  Ag  Ag8  1  0.199853  0.000533  0.199853  1
  Ag  Ag9  1  0.201981  0.199036  0.000000  1
  Ag  Ag10  1  0.798019  0.997054  0.798019  1
  Ag  Ag11  1  0.800147  0.800680  0.000000  1
  Sn  Sn12  1  0.000000  0.406542  0.000000  1
  Ge  Ge13  1  0.582916  0.582874  0.582916  1
  Ge  Ge14  1  0.000000  0.999958  0.417084  1
  Ge  Ge15  1  0.417084  0.999958  0.000000  1
  P  P16  1  0.498335  0.498773  0.260745  1
  P  P17  1  0.237589  0.238027  0.739254  1
  P  P18  1  0.501332  0.760737  0.000000  1
  P  P19  1  0.751739  0.503075  0.000000  1
  P  P20  1  0.260745  0.498773  0.498335  1
  P  P21  1  0.498667  0.259405  0.498667  1
  P  P22  1  0.000000  0.760737  0.501332  1
  P  P23  1  0.248259  0.751335  0.248259  1
  P  P24  1  0.739254  0.238027  0.237589  1
  P  P25  1  0.762409  0.000438  0.501664  1
  P  P26  1  0.000000  0.503075  0.751739  1
  P  P27  1  0.501664  0.000438  0.762409  1
