# generated using pymatgen
data_Tb16Co3Hg4Ir
_symmetry_space_group_name_H-M   'P 1'
_cell_length_a   9.56060915
_cell_length_b   9.56060994
_cell_length_c   9.56060877
_cell_angle_alpha   59.96484154
_cell_angle_beta   59.96484577
_cell_angle_gamma   59.96484405
_symmetry_Int_Tables_number   1
_chemical_formula_structural   Tb16Co3Hg4Ir
_chemical_formula_sum   'Tb16 Co3 Hg4 Ir1'
_cell_volume   617.44081047
_cell_formula_units_Z   1
loop_
 _symmetry_equiv_pos_site_id
 _symmetry_equiv_pos_as_xyz
  1  'x, y, z'
loop_
 _atom_site_type_symbol
 _atom_site_label
 _atom_site_symmetry_multiplicity
 _atom_site_fract_x
 _atom_site_fract_y
 _atom_site_fract_z
 _atom_site_occupancy
  Tb  Tb0  1  0.346011  0.346011  0.346011  1
  Tb  Tb1  1  0.352326  0.352326  0.953643  1
  Tb  Tb2  1  0.352326  0.953643  0.352326  1
  Tb  Tb3  1  0.953643  0.352326  0.352326  1
  Tb  Tb4  1  0.804827  0.189112  0.189112  1
  Tb  Tb5  1  0.186530  0.810853  0.810853  1
  Tb  Tb6  1  0.189112  0.804827  0.189112  1
  Tb  Tb7  1  0.810853  0.186530  0.810853  1
  Tb  Tb8  1  0.189112  0.189112  0.804827  1
  Tb  Tb9  1  0.810853  0.810853  0.186530  1
  Tb  Tb10  1  0.939075  0.562687  0.562687  1
  Tb  Tb11  1  0.559045  0.939816  0.939816  1
  Tb  Tb12  1  0.562687  0.939075  0.562687  1
  Tb  Tb13  1  0.939816  0.559045  0.939816  1
  Tb  Tb14  1  0.562687  0.562687  0.939075  1
  Tb  Tb15  1  0.939816  0.939816  0.559045  1
  Co  Co16  1  0.141847  0.141847  0.577764  1
  Co  Co17  1  0.141847  0.577764  0.141847  1
  Co  Co18  1  0.577764  0.141847  0.141847  1
  Hg  Hg19  1  0.583971  0.583971  0.583971  1
  Hg  Hg20  1  0.583820  0.583820  0.246342  1
  Hg  Hg21  1  0.583820  0.246342  0.583820  1
  Hg  Hg22  1  0.246342  0.583820  0.583820  1
  Ir  Ir23  1  0.141869  0.141869  0.141869  1
