# generated using pymatgen
data_AsSN6
_symmetry_space_group_name_H-M   'P 1'
_cell_length_a   3.43608042
_cell_length_b   8.44673314
_cell_length_c   9.72359776
_cell_angle_alpha   120.88649932
_cell_angle_beta   86.65652017
_cell_angle_gamma   102.80822403
_symmetry_Int_Tables_number   1
_chemical_formula_structural   AsSN6
_chemical_formula_sum   'As1 S1 N6'
_cell_volume   235.64643772
_cell_formula_units_Z   1
loop_
 _symmetry_equiv_pos_site_id
 _symmetry_equiv_pos_as_xyz
  1  'x, y, z'
loop_
 _atom_site_type_symbol
 _atom_site_label
 _atom_site_symmetry_multiplicity
 _atom_site_fract_x
 _atom_site_fract_y
 _atom_site_fract_z
 _atom_site_occupancy
  As  As0  1  0.127759  0.116997  0.928047  1
  S  S1  1  0.659072  0.227800  0.102742  1
  N  N2  1  0.316323  0.658631  0.447518  1
  N  N3  1  0.885624  0.762660  0.118870  1
  N  N4  1  0.179569  0.654858  0.552746  1
  N  N5  1  0.893624  0.362623  0.705739  1
  N  N6  1  0.006365  0.861231  0.245712  1
  N  N7  1  0.691791  0.232303  0.610572  1
