# generated using pymatgen
data_Tb19Yb(Sn5Bi3)2
_symmetry_space_group_name_H-M   'P 1'
_cell_length_a   8.22812773
_cell_length_b   8.24509039
_cell_length_c   15.66642800
_cell_angle_alpha   89.97163386
_cell_angle_beta   89.84342070
_cell_angle_gamma   90.23833126
_symmetry_Int_Tables_number   1
_chemical_formula_structural   Tb19Yb(Sn5Bi3)2
_chemical_formula_sum   'Tb19 Yb1 Sn10 Bi6'
_cell_volume   1062.82313197
_cell_formula_units_Z   1
loop_
 _symmetry_equiv_pos_site_id
 _symmetry_equiv_pos_as_xyz
  1  'x, y, z'
loop_
 _atom_site_type_symbol
 _atom_site_label
 _atom_site_symmetry_multiplicity
 _atom_site_fract_x
 _atom_site_fract_y
 _atom_site_fract_z
 _atom_site_occupancy
  Tb  Tb0  1  0.057896  0.166220  0.390302  1
  Tb  Tb1  1  0.394723  0.838498  0.120792  1
  Tb  Tb2  1  0.114300  0.334435  0.622825  1
  Tb  Tb3  1  0.449147  0.674121  0.889594  1
  Tb  Tb4  1  0.886729  0.665971  0.122540  1
  Tb  Tb5  1  0.109766  0.338132  0.877271  1
  Tb  Tb6  1  0.221888  0.497740  0.249874  1
  Tb  Tb7  1  0.720640  0.999516  0.247000  1
  Tb  Tb8  1  0.444813  0.676212  0.611336  1
  Tb  Tb9  1  0.278928  0.000740  0.746266  1
  Tb  Tb10  1  0.607117  0.161523  0.621433  1
  Tb  Tb11  1  0.779024  0.501744  0.750044  1
  Tb  Tb12  1  0.888227  0.660792  0.376573  1
  Tb  Tb13  1  0.047898  0.166740  0.108983  1
  Tb  Tb14  1  0.941249  0.833785  0.890599  1
  Tb  Tb15  1  0.612817  0.159254  0.879877  1
  Tb  Tb16  1  0.555367  0.324576  0.110899  1
  Tb  Tb17  1  0.386694  0.840643  0.379198  1
  Tb  Tb18  1  0.954410  0.831882  0.609103  1
  Yb  Yb19  1  0.548726  0.324255  0.392382  1
  Sn  Sn20  1  0.644378  0.859398  0.749789  1
  Sn  Sn21  1  0.858946  0.356379  0.249683  1
  Sn  Sn22  1  0.585073  0.626701  0.249822  1
  Sn  Sn23  1  0.414740  0.374122  0.751816  1
  Sn  Sn24  1  0.142623  0.643453  0.751582  1
  Sn  Sn25  1  0.912051  0.128005  0.750099  1
  Sn  Sn26  1  0.271462  0.022089  0.545070  1
  Sn  Sn27  1  0.729580  0.978773  0.044022  1
  Sn  Sn28  1  0.354978  0.140875  0.248784  1
  Sn  Sn29  1  0.087445  0.871204  0.249396  1
  Bi  Bi30  1  0.771347  0.482306  0.546142  1
  Bi  Bi31  1  0.731563  0.975401  0.456038  1
  Bi  Bi32  1  0.225314  0.524254  0.456852  1
  Bi  Bi33  1  0.269350  0.020530  0.954822  1
  Bi  Bi34  1  0.769993  0.480588  0.955455  1
  Bi  Bi35  1  0.230796  0.519142  0.043740  1
