# generated using pymatgen
data_Pr8Dy2CdSi4Ge
_symmetry_space_group_name_H-M   'P 1'
_cell_length_a   7.71404100
_cell_length_b   9.29991904
_cell_length_c   7.71404100
_cell_angle_alpha   114.50275845
_cell_angle_beta   90.00000000
_cell_angle_gamma   114.50275845
_symmetry_Int_Tables_number   1
_chemical_formula_structural   Pr8Dy2CdSi4Ge
_chemical_formula_sum   'Pr8 Dy2 Cd1 Si4 Ge1'
_cell_volume   448.21920065
_cell_formula_units_Z   1
loop_
 _symmetry_equiv_pos_site_id
 _symmetry_equiv_pos_as_xyz
  1  'x, y, z'
loop_
 _atom_site_type_symbol
 _atom_site_label
 _atom_site_symmetry_multiplicity
 _atom_site_fract_x
 _atom_site_fract_y
 _atom_site_fract_z
 _atom_site_occupancy
  Pr  Pr0  1  0.525439  0.721874  0.672026  1
  Pr  Pr1  1  0.196436  0.721874  0.049849  1
  Pr  Pr2  1  0.672026  0.721874  0.196436  1
  Pr  Pr3  1  0.049849  0.721874  0.525439  1
  Pr  Pr4  1  0.450151  0.278126  0.303564  1
  Pr  Pr5  1  0.827974  0.278126  0.974561  1
  Pr  Pr6  1  0.303564  0.278126  0.827974  1
  Pr  Pr7  1  0.974561  0.278126  0.450151  1
  Dy  Dy8  1  0.979435  0.958870  0.979435  1
  Dy  Dy9  1  0.520565  0.041130  0.520565  1
  Cd  Cd10  1  0.750000  0.500000  0.750000  1
  Si  Si11  1  0.882422  0.000000  0.617578  1
  Si  Si12  1  0.117578  0.000000  0.382422  1
  Si  Si13  1  0.617578  0.000000  0.117578  1
  Si  Si14  1  0.382422  0.000000  0.882422  1
  Ge  Ge15  1  0.250000  0.500000  0.250000  1
