# generated using pymatgen
data_CaCeDy(PO4)3
_symmetry_space_group_name_H-M   'P 1'
_cell_length_a   6.96265987
_cell_length_b   6.97681473
_cell_length_c   6.37265600
_cell_angle_alpha   90.00000000
_cell_angle_beta   90.00000000
_cell_angle_gamma   120.27724243
_symmetry_Int_Tables_number   1
_chemical_formula_structural   CaCeDy(PO4)3
_chemical_formula_sum   'Ca1 Ce1 Dy1 P3 O12'
_cell_volume   267.33966949
_cell_formula_units_Z   1
loop_
 _symmetry_equiv_pos_site_id
 _symmetry_equiv_pos_as_xyz
  1  'x, y, z'
loop_
 _atom_site_type_symbol
 _atom_site_label
 _atom_site_symmetry_multiplicity
 _atom_site_fract_x
 _atom_site_fract_y
 _atom_site_fract_z
 _atom_site_occupancy
  Ca  Ca0  1  0.500000  0.500000  0.162663  1
  Ce  Ce1  1  0.500000  0.000000  0.494309  1
  Dy  Dy2  1  0.000000  0.500000  0.844137  1
  P  P3  1  0.000000  0.500000  0.328342  1
  P  P4  1  0.500000  0.000000  0.002185  1
  P  P5  1  0.500000  0.500000  0.669211  1
  O  O6  1  0.140336  0.695779  0.483867  1
  O  O7  1  0.443474  0.298039  0.523407  1
  O  O8  1  0.304501  0.859914  0.849478  1
  O  O9  1  0.297757  0.443068  0.808410  1
  O  O10  1  0.441532  0.135252  0.154640  1
  O  O11  1  0.556526  0.701961  0.523407  1
  O  O12  1  0.863153  0.558279  0.179775  1
  O  O13  1  0.859664  0.304221  0.483867  1
  O  O14  1  0.558468  0.864748  0.154640  1
  O  O15  1  0.702243  0.556932  0.808410  1
  O  O16  1  0.695499  0.140086  0.849478  1
  O  O17  1  0.136847  0.441721  0.179775  1
