# generated using pymatgen
data_Gd6Y3Er(SiB4)4
_symmetry_space_group_name_H-M   'P 1'
_cell_length_a   7.27580815
_cell_length_b   7.27474631
_cell_length_c   8.18102500
_cell_angle_alpha   90.00000000
_cell_angle_beta   90.00000000
_cell_angle_gamma   90.02853296
_symmetry_Int_Tables_number   1
_chemical_formula_structural   Gd6Y3Er(SiB4)4
_chemical_formula_sum   'Gd6 Y3 Er1 Si4 B16'
_cell_volume   433.01880593
_cell_formula_units_Z   1
loop_
 _symmetry_equiv_pos_site_id
 _symmetry_equiv_pos_as_xyz
  1  'x, y, z'
loop_
 _atom_site_type_symbol
 _atom_site_label
 _atom_site_symmetry_multiplicity
 _atom_site_fract_x
 _atom_site_fract_y
 _atom_site_fract_z
 _atom_site_occupancy
  Gd  Gd0  1  0.680734  0.180587  0.225531  1
  Gd  Gd1  1  0.318957  0.819635  0.774473  1
  Gd  Gd2  1  0.318957  0.819635  0.225527  1
  Gd  Gd3  1  0.819829  0.680532  0.225418  1
  Gd  Gd4  1  0.819829  0.680532  0.774582  1
  Gd  Gd5  1  0.680734  0.180587  0.774469  1
  Y  Y6  1  0.180257  0.319347  0.776927  1
  Y  Y7  1  0.180257  0.319347  0.223073  1
  Y  Y8  1  0.500448  0.500151  0.500000  1
  Er  Er9  1  0.999671  0.999134  0.500000  1
  Si  Si10  1  0.114931  0.614690  0.500000  1
  Si  Si11  1  0.887798  0.382862  0.500000  1
  Si  Si12  1  0.382362  0.115183  0.500000  1
  Si  Si13  1  0.614406  0.887214  0.500000  1
  B  B14  1  0.172533  0.039192  0.000000  1
  B  B15  1  0.827782  0.961179  0.000000  1
  B  B16  1  0.960723  0.172361  0.000000  1
  B  B17  1  0.327798  0.539335  0.000000  1
  B  B18  1  0.039364  0.827971  0.000000  1
  B  B19  1  0.672125  0.460871  0.000000  1
  B  B20  1  0.538935  0.672395  0.000000  1
  B  B21  1  0.460844  0.327508  0.000000  1
  B  B22  1  0.090344  0.590080  0.000000  1
  B  B23  1  0.910037  0.409819  0.000000  1
  B  B24  1  0.410058  0.089992  0.000000  1
  B  B25  1  0.589962  0.909990  0.000000  1
  B  B26  1  0.000161  0.000137  0.160503  1
  B  B27  1  0.000161  0.000137  0.839497  1
  B  B28  1  0.499999  0.499798  0.839898  1
  B  B29  1  0.499999  0.499798  0.160102  1
