# generated using pymatgen
data_YTa4Sn(B2Ru5)2
_symmetry_space_group_name_H-M   'P 1'
_cell_length_a   9.49734815
_cell_length_b   9.54652873
_cell_length_c   3.07175300
_cell_angle_alpha   90.00000000
_cell_angle_beta   90.00000000
_cell_angle_gamma   90.68058719
_symmetry_Int_Tables_number   1
_chemical_formula_structural   YTa4Sn(B2Ru5)2
_chemical_formula_sum   'Y1 Ta4 Sn1 B4 Ru10'
_cell_volume   278.48608100
_cell_formula_units_Z   1
loop_
 _symmetry_equiv_pos_site_id
 _symmetry_equiv_pos_as_xyz
  1  'x, y, z'
loop_
 _atom_site_type_symbol
 _atom_site_label
 _atom_site_symmetry_multiplicity
 _atom_site_fract_x
 _atom_site_fract_y
 _atom_site_fract_z
 _atom_site_occupancy
  Y  Y0  1  0.820872  0.673277  0.000000  1
  Ta  Ta1  1  0.178103  0.321835  0.000000  1
  Ta  Ta2  1  0.320206  0.827052  0.000000  1
  Ta  Ta3  1  0.678595  0.170909  0.000000  1
  Ta  Ta4  1  0.000137  0.997063  0.000000  1
  Sn  Sn5  1  0.506818  0.503306  0.000000  1
  B  B6  1  0.616165  0.882490  0.000000  1
  B  B7  1  0.379054  0.127461  0.000000  1
  B  B8  1  0.127527  0.618384  0.000000  1
  B  B9  1  0.881805  0.374737  0.000000  1
  Ru  Ru10  1  0.552872  0.733577  0.500000  1
  Ru  Ru11  1  0.421927  0.283471  0.500000  1
  Ru  Ru12  1  0.078701  0.781973  0.500000  1
  Ru  Ru13  1  0.935439  0.213665  0.500000  1
  Ru  Ru14  1  0.282687  0.573469  0.500000  1
  Ru  Ru15  1  0.720719  0.405322  0.500000  1
  Ru  Ru16  1  0.217018  0.072232  0.500000  1
  Ru  Ru17  1  0.775511  0.943069  0.500000  1
  Ru  Ru18  1  0.496305  0.007608  0.500000  1
  Ru  Ru19  1  0.009539  0.489100  0.500000  1
