# generated using pymatgen
data_TbDyTmTaO7
_symmetry_space_group_name_H-M   'P 1'
_cell_length_a   6.47197481
_cell_length_b   6.47197419
_cell_length_c   7.46382003
_cell_angle_alpha   89.93376616
_cell_angle_beta   89.93376739
_cell_angle_gamma   108.61585202
_symmetry_Int_Tables_number   1
_chemical_formula_structural   TbDyTmTaO7
_chemical_formula_sum   'Tb2 Dy2 Tm2 Ta2 O14'
_cell_volume   296.27545588
_cell_formula_units_Z   2
loop_
 _symmetry_equiv_pos_site_id
 _symmetry_equiv_pos_as_xyz
  1  'x, y, z'
loop_
 _atom_site_type_symbol
 _atom_site_label
 _atom_site_symmetry_multiplicity
 _atom_site_fract_x
 _atom_site_fract_y
 _atom_site_fract_z
 _atom_site_occupancy
  Tb  Tb0  1  0.465806  0.464969  0.001266  1
  Tb  Tb1  1  0.535031  0.534194  0.498734  1
  Dy  Dy2  1  0.000035  0.465528  0.741562  1
  Dy  Dy3  1  0.534472  0.999965  0.758438  1
  Tm  Tm4  1  0.001080  0.534940  0.241659  1
  Tm  Tm5  1  0.465060  0.998920  0.258341  1
  Ta  Ta6  1  0.002309  0.002978  0.498462  1
  Ta  Ta7  1  0.997022  0.997691  0.001538  1
  O  O8  1  0.932003  0.067997  0.750000  1
  O  O9  1  0.639425  0.360575  0.750000  1
  O  O10  1  0.309500  0.050831  0.541817  1
  O  O11  1  0.949169  0.690500  0.958183  1
  O  O12  1  0.632331  0.367669  0.250000  1
  O  O13  1  0.917690  0.670899  0.522241  1
  O  O14  1  0.329101  0.082310  0.977759  1
  O  O15  1  0.080269  0.328416  0.027815  1
  O  O16  1  0.671584  0.919731  0.472185  1
  O  O17  1  0.370270  0.629730  0.750000  1
  O  O18  1  0.690855  0.949814  0.047296  1
  O  O19  1  0.050186  0.309145  0.452704  1
  O  O20  1  0.356571  0.643429  0.250000  1
  O  O21  1  0.070227  0.929773  0.250000  1
