# generated using pymatgen
data_Ca20Tl5Ag7
_symmetry_space_group_name_H-M   'P 1'
_cell_length_a   8.16744638
_cell_length_b   8.16736053
_cell_length_c   14.89432301
_cell_angle_alpha   89.99822513
_cell_angle_beta   90.00117110
_cell_angle_gamma   90.04282106
_symmetry_Int_Tables_number   1
_chemical_formula_structural   Ca20Tl5Ag7
_chemical_formula_sum   'Ca20 Tl5 Ag7'
_cell_volume   993.54756965
_cell_formula_units_Z   1
loop_
 _symmetry_equiv_pos_site_id
 _symmetry_equiv_pos_as_xyz
  1  'x, y, z'
loop_
 _atom_site_type_symbol
 _atom_site_label
 _atom_site_symmetry_multiplicity
 _atom_site_fract_x
 _atom_site_fract_y
 _atom_site_fract_z
 _atom_site_occupancy
  Ca  Ca0  1  0.667790  0.168851  0.102673  1
  Ca  Ca1  1  0.168151  0.666610  0.607325  1
  Ca  Ca2  1  0.330333  0.833205  0.102752  1
  Ca  Ca3  1  0.832629  0.332537  0.607309  1
  Ca  Ca4  1  0.835857  0.665027  0.102744  1
  Ca  Ca5  1  0.332233  0.168482  0.607156  1
  Ca  Ca6  1  0.167137  0.331939  0.104976  1
  Ca  Ca7  1  0.666058  0.833208  0.606448  1
  Ca  Ca8  1  0.833784  0.332101  0.893302  1
  Ca  Ca9  1  0.330820  0.831999  0.396692  1
  Ca  Ca10  1  0.167058  0.667145  0.893312  1
  Ca  Ca11  1  0.667184  0.169840  0.396610  1
  Ca  Ca12  1  0.666563  0.834329  0.894222  1
  Ca  Ca13  1  0.168358  0.332400  0.394354  1
  Ca  Ca14  1  0.331740  0.167403  0.893468  1
  Ca  Ca15  1  0.834720  0.664549  0.396646  1
  Ca  Ca16  1  0.499437  0.500292  0.751599  1
  Ca  Ca17  1  0.002037  0.002546  0.250082  1
  Ca  Ca18  1  0.999710  0.000555  0.749949  1
  Ca  Ca19  1  0.497448  0.497937  0.248301  1
  Tl  Tl20  1  0.499916  0.498328  0.501410  1
  Tl  Tl21  1  0.499916  0.498318  0.998674  1
  Tl  Tl22  1  0.001718  0.000089  0.501346  1
  Tl  Tl23  1  0.629007  0.870909  0.249565  1
  Tl  Tl24  1  0.001640  0.000085  0.998615  1
  Ag  Ag25  1  0.626418  0.125911  0.750452  1
  Ag  Ag26  1  0.125090  0.627207  0.249590  1
  Ag  Ag27  1  0.872725  0.374966  0.249586  1
  Ag  Ag28  1  0.374177  0.873565  0.750456  1
  Ag  Ag29  1  0.873200  0.626723  0.750487  1
  Ag  Ag30  1  0.370908  0.129129  0.249395  1
  Ag  Ag31  1  0.126240  0.373813  0.750502  1
