# generated using pymatgen
data_ErCrNi4P3
_symmetry_space_group_name_H-M   'P 1'
_cell_length_a   3.67658600
_cell_length_b   10.47266800
_cell_length_c   11.95566100
_cell_angle_alpha   90.00000000
_cell_angle_beta   90.00000000
_cell_angle_gamma   90.00000000
_symmetry_Int_Tables_number   1
_chemical_formula_structural   ErCrNi4P3
_chemical_formula_sum   'Er4 Cr4 Ni16 P12'
_cell_volume   460.33676063
_cell_formula_units_Z   4
loop_
 _symmetry_equiv_pos_site_id
 _symmetry_equiv_pos_as_xyz
  1  'x, y, z'
loop_
 _atom_site_type_symbol
 _atom_site_label
 _atom_site_symmetry_multiplicity
 _atom_site_fract_x
 _atom_site_fract_y
 _atom_site_fract_z
 _atom_site_occupancy
  Er  Er0  1  0.250000  0.583830  0.706158  1
  Er  Er1  1  0.250000  0.916170  0.206158  1
  Er  Er2  1  0.750000  0.416170  0.293842  1
  Er  Er3  1  0.750000  0.083830  0.793842  1
  Cr  Cr4  1  0.250000  0.709844  0.986572  1
  Cr  Cr5  1  0.250000  0.790156  0.486572  1
  Cr  Cr6  1  0.750000  0.290156  0.013428  1
  Cr  Cr7  1  0.750000  0.209844  0.513428  1
  Ni  Ni8  1  0.250000  0.409833  0.487971  1
  Ni  Ni9  1  0.250000  0.090167  0.987971  1
  Ni  Ni10  1  0.750000  0.590167  0.512029  1
  Ni  Ni11  1  0.750000  0.909833  0.012029  1
  Ni  Ni12  1  0.250000  0.220807  0.179244  1
  Ni  Ni13  1  0.250000  0.279193  0.679244  1
  Ni  Ni14  1  0.750000  0.779193  0.820756  1
  Ni  Ni15  1  0.750000  0.720807  0.320756  1
  Ni  Ni16  1  0.250000  0.883456  0.700912  1
  Ni  Ni17  1  0.250000  0.616544  0.200912  1
  Ni  Ni18  1  0.750000  0.116544  0.299088  1
  Ni  Ni19  1  0.750000  0.383456  0.799088  1
  Ni  Ni20  1  0.250000  0.466445  0.930616  1
  Ni  Ni21  1  0.250000  0.033555  0.430616  1
  Ni  Ni22  1  0.750000  0.533555  0.069384  1
  Ni  Ni23  1  0.750000  0.966445  0.569384  1
  P  P24  1  0.250000  0.416843  0.112040  1
  P  P25  1  0.250000  0.083157  0.612040  1
  P  P26  1  0.750000  0.583157  0.887960  1
  P  P27  1  0.750000  0.916843  0.387960  1
  P  P28  1  0.250000  0.266942  0.872082  1
  P  P29  1  0.250000  0.233058  0.372082  1
  P  P30  1  0.750000  0.733058  0.127918  1
  P  P31  1  0.750000  0.766942  0.627918  1
  P  P32  1  0.250000  0.600329  0.389527  1
  P  P33  1  0.250000  0.899671  0.889527  1
  P  P34  1  0.750000  0.399671  0.610473  1
  P  P35  1  0.750000  0.100329  0.110473  1
