# generated using pymatgen
data_ZnCo4TeO8
_symmetry_space_group_name_H-M   'P 1'
_cell_length_a   6.00593451
_cell_length_b   10.40752193
_cell_length_c   6.23606872
_cell_angle_alpha   73.85346600
_cell_angle_beta   61.22357656
_cell_angle_gamma   89.98887921
_symmetry_Int_Tables_number   1
_chemical_formula_structural   ZnCo4TeO8
_chemical_formula_sum   'Zn2 Co8 Te2 O16'
_cell_volume   324.01884635
_cell_formula_units_Z   2
loop_
 _symmetry_equiv_pos_site_id
 _symmetry_equiv_pos_as_xyz
  1  'x, y, z'
loop_
 _atom_site_type_symbol
 _atom_site_label
 _atom_site_symmetry_multiplicity
 _atom_site_fract_x
 _atom_site_fract_y
 _atom_site_fract_z
 _atom_site_occupancy
  Zn  Zn0  1  0.714606  0.571257  0.072612  1
  Zn  Zn1  1  0.785863  0.928729  0.927455  1
  Co  Co2  1  0.749677  0.250030  0.499935  1
  Co  Co3  1  0.001044  0.499881  0.499737  1
  Co  Co4  1  0.249667  0.249961  0.499951  1
  Co  Co5  1  0.211036  0.070459  0.076352  1
  Co  Co6  1  0.288520  0.429552  0.923542  1
  Co  Co7  1  0.250349  0.749980  0.500028  1
  Co  Co8  1  0.498964  0.000124  0.500250  1
  Co  Co9  1  0.750349  0.750052  0.500022  1
  Te  Te10  1  0.749656  0.249996  0.000017  1
  Te  Te11  1  0.250268  0.749978  0.000116  1
  O  O12  1  0.399274  0.133218  0.700636  1
  O  O13  1  0.900867  0.633434  0.699252  1
  O  O14  1  0.100128  0.366789  0.299282  1
  O  O15  1  0.599784  0.866580  0.300767  1
  O  O16  1  0.408038  0.136319  0.227741  1
  O  O17  1  0.908245  0.635829  0.229502  1
  O  O18  1  0.862574  0.136006  0.228336  1
  O  O19  1  0.363873  0.636130  0.229028  1
  O  O20  1  0.635018  0.363760  0.229552  1
  O  O21  1  0.136036  0.863543  0.228168  1
  O  O22  1  0.636945  0.363987  0.771543  1
  O  O23  1  0.136617  0.863861  0.771105  1
  O  O24  1  0.864343  0.136240  0.770391  1
  O  O25  1  0.364597  0.636476  0.771888  1
  O  O26  1  0.091422  0.363606  0.772279  1
  O  O27  1  0.592240  0.864222  0.770512  1
