# generated using pymatgen
data_TbErFeB6
_symmetry_space_group_name_H-M   'P 1'
_cell_length_a   3.55144000
_cell_length_b   9.08559600
_cell_length_c   11.45852700
_cell_angle_alpha   90.00000000
_cell_angle_beta   90.00000000
_cell_angle_gamma   90.00000000
_symmetry_Int_Tables_number   1
_chemical_formula_structural   TbErFeB6
_chemical_formula_sum   'Tb4 Er4 Fe4 B24'
_cell_volume   369.73170699
_cell_formula_units_Z   4
loop_
 _symmetry_equiv_pos_site_id
 _symmetry_equiv_pos_as_xyz
  1  'x, y, z'
loop_
 _atom_site_type_symbol
 _atom_site_label
 _atom_site_symmetry_multiplicity
 _atom_site_fract_x
 _atom_site_fract_y
 _atom_site_fract_z
 _atom_site_occupancy
  Tb  Tb0  1  0.000000  0.824086  0.085696  1
  Tb  Tb1  1  0.000000  0.175914  0.914304  1
  Tb  Tb2  1  0.000000  0.324086  0.414304  1
  Tb  Tb3  1  0.000000  0.675914  0.585696  1
  Er  Er4  1  0.000000  0.443231  0.129419  1
  Er  Er5  1  0.000000  0.556769  0.870581  1
  Er  Er6  1  0.000000  0.943231  0.370581  1
  Er  Er7  1  0.000000  0.056769  0.629419  1
  Fe  Fe8  1  0.000000  0.138871  0.179785  1
  Fe  Fe9  1  0.000000  0.861129  0.820215  1
  Fe  Fe10  1  0.000000  0.638871  0.320215  1
  Fe  Fe11  1  0.000000  0.361129  0.679785  1
  B  B12  1  0.500000  0.054654  0.068512  1
  B  B13  1  0.500000  0.945346  0.931488  1
  B  B14  1  0.500000  0.554654  0.431488  1
  B  B15  1  0.500000  0.445346  0.568512  1
  B  B16  1  0.500000  0.247037  0.081899  1
  B  B17  1  0.500000  0.752963  0.918101  1
  B  B18  1  0.500000  0.747037  0.418101  1
  B  B19  1  0.500000  0.252963  0.581899  1
  B  B20  1  0.500000  0.289416  0.233350  1
  B  B21  1  0.500000  0.710584  0.766650  1
  B  B22  1  0.500000  0.789416  0.266650  1
  B  B23  1  0.500000  0.210584  0.733350  1
  B  B24  1  0.500000  0.131746  0.314179  1
  B  B25  1  0.500000  0.868254  0.685821  1
  B  B26  1  0.500000  0.631746  0.185821  1
  B  B27  1  0.500000  0.368254  0.814179  1
  B  B28  1  0.500000  0.486169  0.287915  1
  B  B29  1  0.500000  0.513831  0.712085  1
  B  B30  1  0.500000  0.986169  0.212085  1
  B  B31  1  0.500000  0.013831  0.787915  1
  B  B32  1  0.500000  0.107879  0.470446  1
  B  B33  1  0.500000  0.892121  0.529554  1
  B  B34  1  0.500000  0.607879  0.029554  1
  B  B35  1  0.500000  0.392121  0.970446  1
