# generated using pymatgen
data_TbNd2(YIr)2
_symmetry_space_group_name_H-M   'P 1'
_cell_length_a   6.55547045
_cell_length_b   7.24917870
_cell_length_c   8.78981409
_cell_angle_alpha   97.14790475
_cell_angle_beta   111.89467134
_cell_angle_gamma   89.99999237
_symmetry_Int_Tables_number   1
_chemical_formula_structural   TbNd2(YIr)2
_chemical_formula_sum   'Tb2 Nd4 Y4 Ir4'
_cell_volume   384.07783814
_cell_formula_units_Z   2
loop_
 _symmetry_equiv_pos_site_id
 _symmetry_equiv_pos_as_xyz
  1  'x, y, z'
loop_
 _atom_site_type_symbol
 _atom_site_label
 _atom_site_symmetry_multiplicity
 _atom_site_fract_x
 _atom_site_fract_y
 _atom_site_fract_z
 _atom_site_occupancy
  Tb  Tb0  1  0.429571  0.750000  0.000000  1
  Tb  Tb1  1  0.570429  0.250000  0.000000  1
  Nd  Nd2  1  0.976298  0.920708  0.190341  1
  Nd  Nd3  1  0.785958  0.579292  0.809659  1
  Nd  Nd4  1  0.023702  0.079292  0.809659  1
  Nd  Nd5  1  0.214042  0.420708  0.190341  1
  Y  Y6  1  0.645587  0.815450  0.436680  1
  Y  Y7  1  0.208908  0.684550  0.563320  1
  Y  Y8  1  0.354413  0.184550  0.563320  1
  Y  Y9  1  0.791092  0.315450  0.436680  1
  Ir  Ir10  1  0.814453  0.572942  0.225071  1
  Ir  Ir11  1  0.589382  0.927058  0.774929  1
  Ir  Ir12  1  0.185547  0.427058  0.774929  1
  Ir  Ir13  1  0.410618  0.072942  0.225071  1
