# generated using pymatgen
data_YTmCo3P7Ru9
_symmetry_space_group_name_H-M   'P 1'
_cell_length_a   9.31645400
_cell_length_b   9.31645277
_cell_length_c   3.82018900
_cell_angle_alpha   90.00000000
_cell_angle_beta   90.00000000
_cell_angle_gamma   119.99999725
_symmetry_Int_Tables_number   1
_chemical_formula_structural   YTmCo3P7Ru9
_chemical_formula_sum   'Y1 Tm1 Co3 P7 Ru9'
_cell_volume   287.15522587
_cell_formula_units_Z   1
loop_
 _symmetry_equiv_pos_site_id
 _symmetry_equiv_pos_as_xyz
  1  'x, y, z'
loop_
 _atom_site_type_symbol
 _atom_site_label
 _atom_site_symmetry_multiplicity
 _atom_site_fract_x
 _atom_site_fract_y
 _atom_site_fract_z
 _atom_site_occupancy
  Y  Y0  1  0.666667  0.333333  0.000000  1
  Tm  Tm1  1  0.000000  0.000000  0.500000  1
  Co  Co2  1  0.491041  0.936036  0.000000  1
  Co  Co3  1  0.063964  0.555005  0.000000  1
  Co  Co4  1  0.444995  0.508959  0.000000  1
  P  P5  1  0.333333  0.666667  0.000000  1
  P  P6  1  0.448571  0.067551  0.500000  1
  P  P7  1  0.932449  0.381020  0.500000  1
  P  P8  1  0.618980  0.551429  0.500000  1
  P  P9  1  0.744541  0.967390  0.000000  1
  P  P10  1  0.032610  0.777150  0.000000  1
  P  P11  1  0.222850  0.255459  0.000000  1
  Ru  Ru12  1  0.760360  0.729358  0.000000  1
  Ru  Ru13  1  0.270642  0.031002  0.000000  1
  Ru  Ru14  1  0.968998  0.239640  0.000000  1
  Ru  Ru15  1  0.715852  0.101594  0.500000  1
  Ru  Ru16  1  0.898406  0.614256  0.500000  1
  Ru  Ru17  1  0.385744  0.284148  0.500000  1
  Ru  Ru18  1  0.539772  0.752167  0.500000  1
  Ru  Ru19  1  0.247833  0.787606  0.500000  1
  Ru  Ru20  1  0.212394  0.460228  0.500000  1
