# generated using pymatgen
data_Rb11NaLi8(SiP3)4
_symmetry_space_group_name_H-M   'P 1'
_cell_length_a   9.76266640
_cell_length_b   9.76541779
_cell_length_c   15.73311495
_cell_angle_alpha   89.92126489
_cell_angle_beta   90.06998603
_cell_angle_gamma   143.00005595
_symmetry_Int_Tables_number   1
_chemical_formula_structural   Rb11NaLi8(SiP3)4
_chemical_formula_sum   'Rb11 Na1 Li8 Si4 P12'
_cell_volume   902.68460605
_cell_formula_units_Z   1
loop_
 _symmetry_equiv_pos_site_id
 _symmetry_equiv_pos_as_xyz
  1  'x, y, z'
loop_
 _atom_site_type_symbol
 _atom_site_label
 _atom_site_symmetry_multiplicity
 _atom_site_fract_x
 _atom_site_fract_y
 _atom_site_fract_z
 _atom_site_occupancy
  Rb  Rb0  1  0.554402  0.891910  0.335595  1
  Rb  Rb1  1  0.396270  0.058913  0.163801  1
  Rb  Rb2  1  0.055583  0.393475  0.165202  1
  Rb  Rb3  1  0.893753  0.555267  0.336337  1
  Rb  Rb4  1  0.442682  0.105667  0.671502  1
  Rb  Rb5  1  0.605261  0.945662  0.827921  1
  Rb  Rb6  1  0.280913  0.281083  0.326203  1
  Rb  Rb7  1  0.780742  0.779645  0.173394  1
  Rb  Rb8  1  0.218750  0.217727  0.819363  1
  Rb  Rb9  1  0.722269  0.716014  0.678001  1
  Rb  Rb10  1  0.102071  0.448319  0.669832  1
  Na  Na11  1  0.935635  0.589443  0.868669  1
  Li  Li12  1  0.917903  0.079962  0.996440  1
  Li  Li13  1  0.579463  0.418204  0.501314  1
  Li  Li14  1  0.084033  0.926215  0.995489  1
  Li  Li15  1  0.418392  0.579246  0.502281  1
  Li  Li16  1  0.752899  0.243614  0.997435  1
  Li  Li17  1  0.745908  0.251256  0.501682  1
  Li  Li18  1  0.255578  0.758535  0.996502  1
  Li  Li19  1  0.254271  0.748431  0.501608  1
  Si  Si20  1  0.584909  0.414664  0.995676  1
  Si  Si21  1  0.912503  0.086232  0.501439  1
  Si  Si22  1  0.412586  0.588912  0.996398  1
  Si  Si23  1  0.087133  0.913054  0.500675  1
  P  P24  1  0.879923  0.565711  0.074530  1
  P  P25  1  0.446098  0.129687  0.912372  1
  P  P26  1  0.622815  0.936553  0.583375  1
  P  P27  1  0.937498  0.621715  0.581020  1
  P  P28  1  0.120308  0.437901  0.914700  1
  P  P29  1  0.562796  0.877695  0.079126  1
  P  P30  1  0.377641  0.062504  0.418663  1
  P  P31  1  0.199923  0.199430  0.576920  1
  P  P32  1  0.700329  0.701537  0.920298  1
  P  P33  1  0.298052  0.299946  0.072347  1
  P  P34  1  0.061458  0.376380  0.419350  1
  P  P35  1  0.799250  0.799492  0.424538  1
