# generated using pymatgen
data_HoEr15Cd4(OsPt)2
_symmetry_space_group_name_H-M   'P 1'
_cell_length_a   9.57405751
_cell_length_b   9.57405847
_cell_length_c   9.64010700
_cell_angle_alpha   59.77153281
_cell_angle_beta   59.77152947
_cell_angle_gamma   59.53105895
_symmetry_Int_Tables_number   1
_chemical_formula_structural   HoEr15Cd4(OsPt)2
_chemical_formula_sum   'Ho1 Er15 Cd4 Os2 Pt2'
_cell_volume   620.43795244
_cell_formula_units_Z   1
loop_
 _symmetry_equiv_pos_site_id
 _symmetry_equiv_pos_as_xyz
  1  'x, y, z'
loop_
 _atom_site_type_symbol
 _atom_site_label
 _atom_site_symmetry_multiplicity
 _atom_site_fract_x
 _atom_site_fract_y
 _atom_site_fract_z
 _atom_site_occupancy
  Ho  Ho0  1  0.189990  0.189990  0.810010  1
  Er  Er1  1  0.600107  0.600107  0.601563  1
  Er  Er2  1  0.600107  0.600107  0.198224  1
  Er  Er3  1  0.596835  0.204240  0.599463  1
  Er  Er4  1  0.204240  0.596835  0.599463  1
  Er  Er5  1  0.064289  0.438019  0.440652  1
  Er  Er6  1  0.438019  0.064289  0.057040  1
  Er  Er7  1  0.438019  0.064289  0.440652  1
  Er  Er8  1  0.064289  0.438019  0.057040  1
  Er  Er9  1  0.438389  0.438389  0.061611  1
  Er  Er10  1  0.058304  0.058304  0.441696  1
  Er  Er11  1  0.188182  0.806502  0.816975  1
  Er  Er12  1  0.806502  0.188182  0.188341  1
  Er  Er13  1  0.806502  0.188182  0.816975  1
  Er  Er14  1  0.188182  0.806502  0.188341  1
  Er  Er15  1  0.814440  0.814440  0.185560  1
  Cd  Cd16  1  0.829987  0.829987  0.831793  1
  Cd  Cd17  1  0.829987  0.829987  0.508233  1
  Cd  Cd18  1  0.830843  0.504899  0.832129  1
  Cd  Cd19  1  0.504899  0.830843  0.832129  1
  Os  Os20  1  0.394441  0.394441  0.387392  1
  Os  Os21  1  0.394441  0.394441  0.823726  1
  Pt  Pt22  1  0.394244  0.824760  0.390498  1
  Pt  Pt23  1  0.824760  0.394244  0.390498  1
