# generated using pymatgen
data_Sm10Be3Si15Ag2
_symmetry_space_group_name_H-M   'P 1'
_cell_length_a   4.12815500
_cell_length_b   4.11709817
_cell_length_c   34.90063400
_cell_angle_alpha   86.60460280
_cell_angle_beta   86.55126479
_cell_angle_gamma   90.00268220
_symmetry_Int_Tables_number   1
_chemical_formula_structural   Sm10Be3Si15Ag2
_chemical_formula_sum   'Sm10 Be3 Si15 Ag2'
_cell_volume   591.05437747
_cell_formula_units_Z   1
loop_
 _symmetry_equiv_pos_site_id
 _symmetry_equiv_pos_as_xyz
  1  'x, y, z'
loop_
 _atom_site_type_symbol
 _atom_site_label
 _atom_site_symmetry_multiplicity
 _atom_site_fract_x
 _atom_site_fract_y
 _atom_site_fract_z
 _atom_site_occupancy
  Sm  Sm0  1  0.948076  0.448183  0.103833  1
  Sm  Sm1  1  0.350870  0.850793  0.298470  1
  Sm  Sm2  1  0.753696  0.253909  0.492699  1
  Sm  Sm3  1  0.149211  0.650040  0.700935  1
  Sm  Sm4  1  0.545020  0.045344  0.909311  1
  Sm  Sm5  1  0.997429  0.997066  0.005841  1
  Sm  Sm6  1  0.400107  0.399802  0.200619  1
  Sm  Sm7  1  0.802423  0.802097  0.395518  1
  Sm  Sm8  1  0.205098  0.204513  0.590314  1
  Sm  Sm9  1  0.600678  0.600643  0.798107  1
  Be  Be10  1  0.465068  0.965337  0.069577  1
  Be  Be11  1  0.867558  0.367840  0.264616  1
  Be  Be12  1  0.269923  0.770118  0.459099  1
  Si  Si13  1  0.667041  0.167138  0.665491  1
  Si  Si14  1  0.062090  0.563017  0.873505  1
  Si  Si15  1  0.915959  0.916448  0.168029  1
  Si  Si16  1  0.318342  0.319121  0.362752  1
  Si  Si17  1  0.720635  0.721044  0.558110  1
  Si  Si18  1  0.116486  0.116486  0.766740  1
  Si  Si19  1  0.513031  0.513099  0.973686  1
  Si  Si20  1  0.433688  0.933221  0.133147  1
  Si  Si21  1  0.836019  0.335405  0.328047  1
  Si  Si22  1  0.238779  0.738710  0.522539  1
  Si  Si23  1  0.633826  0.134696  0.732263  1
  Si  Si24  1  0.030263  0.529990  0.939929  1
  Si  Si25  1  0.479888  0.479578  0.040921  1
  Si  Si26  1  0.882758  0.882393  0.235512  1
  Si  Si27  1  0.285240  0.284553  0.430168  1
  Ag  Ag28  1  0.686149  0.685446  0.628720  1
  Ag  Ag29  1  0.081851  0.081173  0.837099  1
