# generated using pymatgen
data_Tb18Nd2Si15Os
_symmetry_space_group_name_H-M   'P 1'
_cell_length_a   7.45337040
_cell_length_b   7.81244355
_cell_length_c   14.73840996
_cell_angle_alpha   89.78052853
_cell_angle_beta   90.04116106
_cell_angle_gamma   89.93570356
_symmetry_Int_Tables_number   1
_chemical_formula_structural   Tb18Nd2Si15Os
_chemical_formula_sum   'Tb18 Nd2 Si15 Os1'
_cell_volume   858.19633659
_cell_formula_units_Z   1
loop_
 _symmetry_equiv_pos_site_id
 _symmetry_equiv_pos_as_xyz
  1  'x, y, z'
loop_
 _atom_site_type_symbol
 _atom_site_label
 _atom_site_symmetry_multiplicity
 _atom_site_fract_x
 _atom_site_fract_y
 _atom_site_fract_z
 _atom_site_occupancy
  Tb  Tb0  1  0.806452  0.576296  0.877709  1
  Tb  Tb1  1  0.324940  0.432513  0.123637  1
  Tb  Tb2  1  0.183507  0.928330  0.372814  1
  Tb  Tb3  1  0.682765  0.069692  0.626737  1
  Tb  Tb4  1  0.183655  0.928005  0.628633  1
  Tb  Tb5  1  0.682245  0.069876  0.372004  1
  Tb  Tb6  1  0.808731  0.573675  0.123370  1
  Tb  Tb7  1  0.326887  0.436772  0.875022  1
  Tb  Tb8  1  0.643511  0.237329  0.999603  1
  Tb  Tb9  1  0.159410  0.762093  0.000355  1
  Tb  Tb10  1  0.350725  0.264605  0.499737  1
  Tb  Tb11  1  0.849725  0.733373  0.500066  1
  Tb  Tb12  1  0.477757  0.925011  0.848757  1
  Tb  Tb13  1  0.973538  0.065548  0.151795  1
  Tb  Tb14  1  0.476643  0.925090  0.150834  1
  Tb  Tb15  1  0.972054  0.066608  0.848737  1
  Tb  Tb16  1  0.529345  0.564063  0.652189  1
  Tb  Tb17  1  0.027703  0.434167  0.347297  1
  Nd  Nd18  1  0.523730  0.567874  0.343532  1
  Nd  Nd19  1  0.024672  0.430284  0.656988  1
  Si  Si20  1  0.019612  0.350195  0.999461  1
  Si  Si21  1  0.475609  0.856571  0.500794  1
  Si  Si22  1  0.978634  0.141882  0.499560  1
  Si  Si23  1  0.651750  0.276142  0.789479  1
  Si  Si24  1  0.145731  0.720800  0.210534  1
  Si  Si25  1  0.353157  0.217182  0.287308  1
  Si  Si26  1  0.850932  0.782411  0.712796  1
  Si  Si27  1  0.360857  0.219759  0.711285  1
  Si  Si28  1  0.857516  0.779831  0.288531  1
  Si  Si29  1  0.647812  0.270065  0.207747  1
  Si  Si30  1  0.140103  0.726596  0.792097  1
  Si  Si31  1  0.766586  0.883123  0.000468  1
  Si  Si32  1  0.257006  0.126802  0.999480  1
  Si  Si33  1  0.233735  0.626202  0.501463  1
  Si  Si34  1  0.734951  0.373624  0.498974  1
  Os  Os35  1  0.518010  0.657609  0.000201  1
