# generated using pymatgen
data_Sr4Fe2IrWO12
_symmetry_space_group_name_H-M   'P 1'
_cell_length_a   5.61253965
_cell_length_b   5.64238749
_cell_length_c   9.77069465
_cell_angle_alpha   89.62735695
_cell_angle_beta   106.67962888
_cell_angle_gamma   119.66233943
_symmetry_Int_Tables_number   1
_chemical_formula_structural   Sr4Fe2IrWO12
_chemical_formula_sum   'Sr4 Fe2 Ir1 W1 O12'
_cell_volume   254.12204004
_cell_formula_units_Z   1
loop_
 _symmetry_equiv_pos_site_id
 _symmetry_equiv_pos_as_xyz
  1  'x, y, z'
loop_
 _atom_site_type_symbol
 _atom_site_label
 _atom_site_symmetry_multiplicity
 _atom_site_fract_x
 _atom_site_fract_y
 _atom_site_fract_z
 _atom_site_occupancy
  Sr  Sr0  1  0.755248  0.627270  0.385677  1
  Sr  Sr1  1  0.744041  0.122767  0.861742  1
  Sr  Sr2  1  0.255959  0.877233  0.138258  1
  Sr  Sr3  1  0.244752  0.372730  0.614323  1
  Fe  Fe4  1  0.002588  0.251729  0.255805  1
  Fe  Fe5  1  0.997412  0.748271  0.744195  1
  Ir  Ir6  1  0.500000  0.000000  0.500000  1
  W  W7  1  0.500000  0.500000  0.000000  1
  O  O8  1  0.745648  0.863786  0.120943  1
  O  O9  1  0.744703  0.374258  0.627051  1
  O  O10  1  0.255297  0.625742  0.372949  1
  O  O11  1  0.254352  0.136214  0.879057  1
  O  O12  1  0.209397  0.099341  0.389060  1
  O  O13  1  0.222866  0.609617  0.899538  1
  O  O14  1  0.790603  0.900659  0.610940  1
  O  O15  1  0.777134  0.390383  0.100462  1
  O  O16  1  0.706931  0.639269  0.861125  1
  O  O17  1  0.715491  0.146796  0.356548  1
  O  O18  1  0.284509  0.853204  0.643452  1
  O  O19  1  0.293069  0.360731  0.138875  1
