# generated using pymatgen
data_TbDy3(MoN3)4
_symmetry_space_group_name_H-M   'P 1'
_cell_length_a   7.31106528
_cell_length_b   7.31106510
_cell_length_c   6.25899600
_cell_angle_alpha   73.42773060
_cell_angle_beta   73.42773101
_cell_angle_gamma   81.15478484
_symmetry_Int_Tables_number   1
_chemical_formula_structural   TbDy3(MoN3)4
_chemical_formula_sum   'Tb1 Dy3 Mo4 N12'
_cell_volume   306.38055576
_cell_formula_units_Z   1
loop_
 _symmetry_equiv_pos_site_id
 _symmetry_equiv_pos_as_xyz
  1  'x, y, z'
loop_
 _atom_site_type_symbol
 _atom_site_label
 _atom_site_symmetry_multiplicity
 _atom_site_fract_x
 _atom_site_fract_y
 _atom_site_fract_z
 _atom_site_occupancy
  Tb  Tb0  1  0.296230  0.703770  0.750000  1
  Dy  Dy1  1  0.911946  0.088054  0.750000  1
  Dy  Dy2  1  0.704633  0.295367  0.250000  1
  Dy  Dy3  1  0.087602  0.912398  0.250000  1
  Mo  Mo4  1  0.801590  0.619502  0.769921  1
  Mo  Mo5  1  0.198394  0.380297  0.230433  1
  Mo  Mo6  1  0.619703  0.801606  0.269567  1
  Mo  Mo7  1  0.380498  0.198410  0.730079  1
  N  N8  1  0.219250  0.999026  0.847229  1
  N  N9  1  0.362269  0.351587  0.437328  1
  N  N10  1  0.638609  0.648579  0.561940  1
  N  N11  1  0.624662  0.108127  0.658465  1
  N  N12  1  0.000974  0.780750  0.652771  1
  N  N13  1  0.779821  0.002109  0.153460  1
  N  N14  1  0.108792  0.624572  0.158960  1
  N  N15  1  0.891873  0.375338  0.841535  1
  N  N16  1  0.997891  0.220179  0.346540  1
  N  N17  1  0.351421  0.361391  0.938060  1
  N  N18  1  0.648413  0.637731  0.062672  1
  N  N19  1  0.375428  0.891208  0.341040  1
