# generated using pymatgen
data_LiNd3Cd2Sn2Au
_symmetry_space_group_name_H-M   'P 1'
_cell_length_a   7.60607290
_cell_length_b   7.60607415
_cell_length_c   4.64680000
_cell_angle_alpha   90.00000000
_cell_angle_beta   90.00000000
_cell_angle_gamma   120.48730156
_symmetry_Int_Tables_number   1
_chemical_formula_structural   LiNd3Cd2Sn2Au
_chemical_formula_sum   'Li1 Nd3 Cd2 Sn2 Au1'
_cell_volume   231.66055385
_cell_formula_units_Z   1
loop_
 _symmetry_equiv_pos_site_id
 _symmetry_equiv_pos_as_xyz
  1  'x, y, z'
loop_
 _atom_site_type_symbol
 _atom_site_label
 _atom_site_symmetry_multiplicity
 _atom_site_fract_x
 _atom_site_fract_y
 _atom_site_fract_z
 _atom_site_occupancy
  Li  Li0  1  0.774375  0.774375  0.500000  1
  Nd  Nd1  1  0.591903  0.000219  0.000000  1
  Nd  Nd2  1  0.000219  0.591903  0.000000  1
  Nd  Nd3  1  0.402163  0.402163  0.000000  1
  Cd  Cd4  1  0.235339  0.997324  0.500000  1
  Cd  Cd5  1  0.997324  0.235339  0.500000  1
  Sn  Sn6  1  0.343262  0.668525  0.500000  1
  Sn  Sn7  1  0.668525  0.343262  0.500000  1
  Au  Au8  1  0.986890  0.986890  0.000000  1
