# generated using pymatgen
data_Nd2ThSn3IrPt2
_symmetry_space_group_name_H-M   'P 1'
_cell_length_a   7.64978900
_cell_length_b   7.63515274
_cell_length_c   4.13958000
_cell_angle_alpha   90.00000000
_cell_angle_beta   90.00000000
_cell_angle_gamma   120.06342837
_symmetry_Int_Tables_number   1
_chemical_formula_structural   Nd2ThSn3IrPt2
_chemical_formula_sum   'Nd2 Th1 Sn3 Ir1 Pt2'
_cell_volume   209.25515473
_cell_formula_units_Z   1
loop_
 _symmetry_equiv_pos_site_id
 _symmetry_equiv_pos_as_xyz
  1  'x, y, z'
loop_
 _atom_site_type_symbol
 _atom_site_label
 _atom_site_symmetry_multiplicity
 _atom_site_fract_x
 _atom_site_fract_y
 _atom_site_fract_z
 _atom_site_occupancy
  Nd  Nd0  1  0.000001  0.592571  0.000000  1
  Nd  Nd1  1  0.407431  0.407429  0.000000  1
  Th  Th2  1  0.590867  0.000000  0.000000  1
  Sn  Sn3  1  0.241778  0.000000  0.500000  1
  Sn  Sn4  1  0.007387  0.256409  0.500000  1
  Sn  Sn5  1  0.750977  0.743591  0.500000  1
  Ir  Ir6  1  0.988557  0.000000  0.000000  1
  Pt  Pt7  1  0.347239  0.681478  0.500000  1
  Pt  Pt8  1  0.665762  0.318522  0.500000  1
