# generated using pymatgen
data_MnZn4Fe(PO4)4
_symmetry_space_group_name_H-M   'P 1'
_cell_length_a   5.09955463
_cell_length_b   7.77398187
_cell_length_c   8.70096023
_cell_angle_alpha   90.15550568
_cell_angle_beta   90.44068415
_cell_angle_gamma   95.48991915
_symmetry_Int_Tables_number   1
_chemical_formula_structural   MnZn4Fe(PO4)4
_chemical_formula_sum   'Mn1 Zn4 Fe1 P4 O16'
_cell_volume   343.34508077
_cell_formula_units_Z   1
loop_
 _symmetry_equiv_pos_site_id
 _symmetry_equiv_pos_as_xyz
  1  'x, y, z'
loop_
 _atom_site_type_symbol
 _atom_site_label
 _atom_site_symmetry_multiplicity
 _atom_site_fract_x
 _atom_site_fract_y
 _atom_site_fract_z
 _atom_site_occupancy
  Mn  Mn0  1  0.000198  0.500197  0.499845  1
  Zn  Zn1  1  0.927508  0.378562  0.864674  1
  Zn  Zn2  1  0.072437  0.621483  0.135332  1
  Zn  Zn3  1  0.429520  0.879110  0.634903  1
  Zn  Zn4  1  0.570467  0.120832  0.365140  1
  Fe  Fe5  1  0.499969  0.000026  0.999951  1
  P  P6  1  0.467276  0.296125  0.693495  1
  P  P7  1  0.969770  0.797458  0.809046  1
  P  P8  1  0.532726  0.703885  0.306510  1
  P  P9  1  0.030198  0.202529  0.190971  1
  O  O10  1  0.446861  0.135738  0.582613  1
  O  O11  1  0.949032  0.636151  0.917257  1
  O  O12  1  0.553201  0.864173  0.417455  1
  O  O13  1  0.050897  0.363908  0.082828  1
  O  O14  1  0.572165  0.242331  0.854411  1
  O  O15  1  0.073224  0.744853  0.647679  1
  O  O16  1  0.427784  0.757692  0.145641  1
  O  O17  1  0.926790  0.255057  0.352367  1
  O  O18  1  0.188846  0.360538  0.702771  1
  O  O19  1  0.693170  0.863894  0.798313  1
  O  O20  1  0.811037  0.639321  0.297240  1
  O  O21  1  0.306877  0.136159  0.201674  1
  O  O22  1  0.665393  0.439868  0.632102  1
  O  O23  1  0.171380  0.939392  0.873132  1
  O  O24  1  0.334650  0.560125  0.367841  1
  O  O25  1  0.828627  0.060594  0.126808  1
