# generated using pymatgen
data_Nd2Sc3Pb4
_symmetry_space_group_name_H-M   'P 1'
_cell_length_a   8.04175900
_cell_length_b   15.31804600
_cell_length_c   8.13649800
_cell_angle_alpha   90.00000000
_cell_angle_beta   90.00000000
_cell_angle_gamma   90.00000000
_symmetry_Int_Tables_number   1
_chemical_formula_structural   Nd2Sc3Pb4
_chemical_formula_sum   'Nd8 Sc12 Pb16'
_cell_volume   1002.28664857
_cell_formula_units_Z   4
loop_
 _symmetry_equiv_pos_site_id
 _symmetry_equiv_pos_as_xyz
  1  'x, y, z'
loop_
 _atom_site_type_symbol
 _atom_site_label
 _atom_site_symmetry_multiplicity
 _atom_site_fract_x
 _atom_site_fract_y
 _atom_site_fract_z
 _atom_site_occupancy
  Nd  Nd0  1  0.476509  0.595438  0.676650  1
  Nd  Nd1  1  0.976509  0.904562  0.823350  1
  Nd  Nd2  1  0.523491  0.095438  0.323350  1
  Nd  Nd3  1  0.023491  0.404562  0.176650  1
  Nd  Nd4  1  0.523491  0.404562  0.323350  1
  Nd  Nd5  1  0.023491  0.095438  0.176650  1
  Nd  Nd6  1  0.476509  0.904562  0.676650  1
  Nd  Nd7  1  0.976509  0.595438  0.823350  1
  Sc  Sc8  1  0.637249  0.625214  0.156500  1
  Sc  Sc9  1  0.137249  0.874786  0.343500  1
  Sc  Sc10  1  0.362751  0.125214  0.843500  1
  Sc  Sc11  1  0.862751  0.374786  0.656500  1
  Sc  Sc12  1  0.362751  0.374786  0.843500  1
  Sc  Sc13  1  0.862751  0.125214  0.656500  1
  Sc  Sc14  1  0.637249  0.874786  0.156500  1
  Sc  Sc15  1  0.137249  0.625214  0.343500  1
  Sc  Sc16  1  0.804693  0.750000  0.492180  1
  Sc  Sc17  1  0.304693  0.750000  0.007820  1
  Sc  Sc18  1  0.195307  0.250000  0.507820  1
  Sc  Sc19  1  0.695307  0.250000  0.992180  1
  Pb  Pb20  1  0.696876  0.454943  0.953518  1
  Pb  Pb21  1  0.196876  0.045057  0.546482  1
  Pb  Pb22  1  0.303124  0.954943  0.046482  1
  Pb  Pb23  1  0.803124  0.545057  0.453518  1
  Pb  Pb24  1  0.303124  0.545057  0.046482  1
  Pb  Pb25  1  0.803124  0.954943  0.453518  1
  Pb  Pb26  1  0.696876  0.045057  0.953518  1
  Pb  Pb27  1  0.196876  0.454943  0.546482  1
  Pb  Pb28  1  0.443698  0.750000  0.364316  1
  Pb  Pb29  1  0.943698  0.750000  0.135684  1
  Pb  Pb30  1  0.556302  0.250000  0.635684  1
  Pb  Pb31  1  0.056302  0.250000  0.864316  1
  Pb  Pb32  1  0.665092  0.750000  0.851864  1
  Pb  Pb33  1  0.165092  0.750000  0.648136  1
  Pb  Pb34  1  0.334908  0.250000  0.148136  1
  Pb  Pb35  1  0.834908  0.250000  0.351864  1
