# generated using pymatgen
data_Y8Mo(Pd5Pt7)2
_symmetry_space_group_name_H-M   'P 1'
_cell_length_a   8.33990100
_cell_length_b   8.37108998
_cell_length_c   8.37393400
_cell_angle_alpha   90.02774069
_cell_angle_beta   90.00000000
_cell_angle_gamma   90.00000000
_symmetry_Int_Tables_number   1
_chemical_formula_structural   Y8Mo(Pd5Pt7)2
_chemical_formula_sum   'Y8 Mo1 Pd10 Pt14'
_cell_volume   584.61827647
_cell_formula_units_Z   1
loop_
 _symmetry_equiv_pos_site_id
 _symmetry_equiv_pos_as_xyz
  1  'x, y, z'
loop_
 _atom_site_type_symbol
 _atom_site_label
 _atom_site_symmetry_multiplicity
 _atom_site_fract_x
 _atom_site_fract_y
 _atom_site_fract_z
 _atom_site_occupancy
  Y  Y0  1  0.250339  0.250890  0.251277  1
  Y  Y1  1  0.748179  0.747942  0.748051  1
  Y  Y2  1  0.749324  0.749158  0.251318  1
  Y  Y3  1  0.748766  0.251975  0.747888  1
  Y  Y4  1  0.251234  0.251975  0.747888  1
  Y  Y5  1  0.250676  0.749158  0.251318  1
  Y  Y6  1  0.251821  0.747942  0.748051  1
  Y  Y7  1  0.749661  0.250890  0.251277  1
  Mo  Mo8  1  0.000000  0.000309  0.009308  1
  Pd  Pd9  1  0.500000  0.263861  0.999925  1
  Pd  Pd10  1  0.000000  0.736510  0.500639  1
  Pd  Pd11  1  0.500000  0.736215  0.000052  1
  Pd  Pd12  1  0.500000  0.999912  0.263433  1
  Pd  Pd13  1  0.264188  0.999990  0.500865  1
  Pd  Pd14  1  0.500000  0.999988  0.734323  1
  Pd  Pd15  1  0.735812  0.999990  0.500865  1
  Pd  Pd16  1  0.000000  0.500412  0.262979  1
  Pd  Pd17  1  0.000000  0.500321  0.734657  1
  Pd  Pd18  1  0.000000  0.999753  0.701128  1
  Pt  Pt19  1  0.263831  0.500001  0.000118  1
  Pt  Pt20  1  0.736169  0.500001  0.000118  1
  Pt  Pt21  1  0.000000  0.263400  0.500425  1
  Pt  Pt22  1  0.254165  0.499823  0.499310  1
  Pt  Pt23  1  0.745835  0.499823  0.499310  1
  Pt  Pt24  1  0.500000  0.253863  0.499349  1
  Pt  Pt25  1  0.500000  0.745771  0.499393  1
  Pt  Pt26  1  0.500000  0.500021  0.254013  1
  Pt  Pt27  1  0.500000  0.500026  0.745520  1
  Pt  Pt28  1  0.302199  0.999849  0.997635  1
  Pt  Pt29  1  0.697801  0.999849  0.997635  1
  Pt  Pt30  1  0.000000  0.301151  0.997609  1
  Pt  Pt31  1  0.000000  0.699316  0.997530  1
  Pt  Pt32  1  0.000000  0.999917  0.306794  1
