# generated using pymatgen
data_NdEr2Tm(Ir2O7)2
_symmetry_space_group_name_H-M   'P 1'
_cell_length_a   7.27182327
_cell_length_b   7.21591139
_cell_length_c   7.21591090
_cell_angle_alpha   60.10720344
_cell_angle_beta   60.36458317
_cell_angle_gamma   60.36457766
_symmetry_Int_Tables_number   1
_chemical_formula_structural   NdEr2Tm(Ir2O7)2
_chemical_formula_sum   'Nd1 Er2 Tm1 Ir4 O14'
_cell_volume   269.42414363
_cell_formula_units_Z   1
loop_
 _symmetry_equiv_pos_site_id
 _symmetry_equiv_pos_as_xyz
  1  'x, y, z'
loop_
 _atom_site_type_symbol
 _atom_site_label
 _atom_site_symmetry_multiplicity
 _atom_site_fract_x
 _atom_site_fract_y
 _atom_site_fract_z
 _atom_site_occupancy
  Nd  Nd0  1  0.625000  0.125000  0.125000  1
  Er  Er1  1  0.125000  0.625000  0.125000  1
  Er  Er2  1  0.125000  0.125000  0.625000  1
  Tm  Tm3  1  0.125000  0.125000  0.125000  1
  Ir  Ir4  1  0.125000  0.625000  0.625000  1
  Ir  Ir5  1  0.625000  0.125000  0.625000  1
  Ir  Ir6  1  0.625000  0.625000  0.125000  1
  Ir  Ir7  1  0.625000  0.625000  0.625000  1
  O  O8  1  0.723321  0.701678  0.287636  1
  O  O9  1  0.287254  0.288040  0.713612  1
  O  O10  1  0.723321  0.287636  0.701678  1
  O  O11  1  0.287254  0.713612  0.288040  1
  O  O12  1  0.287406  0.712221  0.712221  1
  O  O13  1  0.724609  0.287366  0.287366  1
  O  O14  1  0.526679  0.548322  0.962364  1
  O  O15  1  0.962746  0.961960  0.536388  1
  O  O16  1  0.526679  0.962364  0.548322  1
  O  O17  1  0.962746  0.536388  0.961960  1
  O  O18  1  0.962594  0.537779  0.537779  1
  O  O19  1  0.525391  0.962634  0.962634  1
  O  O20  1  0.238387  0.253393  0.253393  1
  O  O21  1  0.011613  0.996607  0.996607  1
