# generated using pymatgen
data_Tb6Hf3Zr(Sn3O)2
_symmetry_space_group_name_H-M   'P 1'
_cell_length_a   8.78041600
_cell_length_b   8.78041710
_cell_length_c   6.02445600
_cell_angle_alpha   90.00000000
_cell_angle_beta   90.00000000
_cell_angle_gamma   120.00000341
_symmetry_Int_Tables_number   1
_chemical_formula_structural   Tb6Hf3Zr(Sn3O)2
_chemical_formula_sum   'Tb6 Hf3 Zr1 Sn6 O2'
_cell_volume   402.23392123
_cell_formula_units_Z   1
loop_
 _symmetry_equiv_pos_site_id
 _symmetry_equiv_pos_as_xyz
  1  'x, y, z'
loop_
 _atom_site_type_symbol
 _atom_site_label
 _atom_site_symmetry_multiplicity
 _atom_site_fract_x
 _atom_site_fract_y
 _atom_site_fract_z
 _atom_site_occupancy
  Tb  Tb0  1  0.000046  0.772403  0.749977  1
  Tb  Tb1  1  0.000046  0.227644  0.250023  1
  Tb  Tb2  1  0.227597  0.227644  0.749977  1
  Tb  Tb3  1  0.227597  0.999954  0.250023  1
  Tb  Tb4  1  0.772356  0.772403  0.250023  1
  Tb  Tb5  1  0.772356  0.999954  0.749977  1
  Hf  Hf6  1  0.333333  0.666667  0.000000  1
  Hf  Hf7  1  0.333333  0.666667  0.500000  1
  Hf  Hf8  1  0.666667  0.333333  0.000000  1
  Zr  Zr9  1  0.666667  0.333333  0.500000  1
  Sn  Sn10  1  0.000473  0.593866  0.249523  1
  Sn  Sn11  1  0.000473  0.406607  0.750477  1
  Sn  Sn12  1  0.406134  0.406607  0.249523  1
  Sn  Sn13  1  0.593393  0.593866  0.750477  1
  Sn  Sn14  1  0.406134  0.999527  0.750477  1
  Sn  Sn15  1  0.593393  0.999527  0.249523  1
  O  O16  1  0.000000  0.000000  0.000000  1
  O  O17  1  0.000000  0.000000  0.500000  1
