# generated using pymatgen
data_YHf2Zr(Al3Rh)6
_symmetry_space_group_name_H-M   'P 1'
_cell_length_a   7.48581426
_cell_length_b   7.47753404
_cell_length_c   9.30270700
_cell_angle_alpha   90.00000000
_cell_angle_beta   90.00000000
_cell_angle_gamma   119.70721743
_symmetry_Int_Tables_number   1
_chemical_formula_structural   YHf2Zr(Al3Rh)6
_chemical_formula_sum   'Y1 Hf2 Zr1 Al18 Rh6'
_cell_volume   452.28393366
_cell_formula_units_Z   1
loop_
 _symmetry_equiv_pos_site_id
 _symmetry_equiv_pos_as_xyz
  1  'x, y, z'
loop_
 _atom_site_type_symbol
 _atom_site_label
 _atom_site_symmetry_multiplicity
 _atom_site_fract_x
 _atom_site_fract_y
 _atom_site_fract_z
 _atom_site_occupancy
  Y  Y0  1  0.329071  0.006358  0.750000  1
  Hf  Hf1  1  0.994016  0.672172  0.250000  1
  Hf  Hf2  1  0.671792  0.994056  0.250000  1
  Zr  Zr3  1  0.006081  0.329441  0.750000  1
  Al  Al4  1  0.121466  0.123013  0.250000  1
  Al  Al5  1  0.872263  0.875911  0.750000  1
  Al  Al6  1  0.996459  0.334697  0.078055  1
  Al  Al7  1  0.000071  0.662487  0.927178  1
  Al  Al8  1  0.000071  0.662487  0.572822  1
  Al  Al9  1  0.335055  0.997197  0.417974  1
  Al  Al10  1  0.996459  0.334697  0.421945  1
  Al  Al11  1  0.668218  0.002386  0.572965  1
  Al  Al12  1  0.668218  0.002386  0.927035  1
  Al  Al13  1  0.335055  0.997197  0.082026  1
  Al  Al14  1  0.331294  0.333873  0.552778  1
  Al  Al15  1  0.669045  0.668980  0.438817  1
  Al  Al16  1  0.669045  0.668980  0.061183  1
  Al  Al17  1  0.331294  0.333873  0.947222  1
  Al  Al18  1  0.337863  0.553984  0.250000  1
  Al  Al19  1  0.666738  0.451409  0.750000  1
  Al  Al20  1  0.555914  0.339426  0.250000  1
  Al  Al21  1  0.445486  0.656379  0.750000  1
  Rh  Rh22  1  0.672700  0.327789  0.002193  1
  Rh  Rh23  1  0.328421  0.673778  0.002659  1
  Rh  Rh24  1  0.328421  0.673778  0.497341  1
  Rh  Rh25  1  0.672700  0.327789  0.497807  1
  Rh  Rh26  1  0.998394  0.997740  0.002603  1
  Rh  Rh27  1  0.998394  0.997740  0.497397  1
