# generated using pymatgen
data_Sm3Pa3(Ni3Bi4)2
_symmetry_space_group_name_H-M   'P 1'
_cell_length_a   8.38750936
_cell_length_b   8.41085145
_cell_length_c   8.38750817
_cell_angle_alpha   109.69409222
_cell_angle_beta   109.27802462
_cell_angle_gamma   109.32889827
_symmetry_Int_Tables_number   1
_chemical_formula_structural   Sm3Pa3(Ni3Bi4)2
_chemical_formula_sum   'Sm3 Pa3 Ni6 Bi8'
_cell_volume   456.12221420
_cell_formula_units_Z   1
loop_
 _symmetry_equiv_pos_site_id
 _symmetry_equiv_pos_as_xyz
  1  'x, y, z'
loop_
 _atom_site_type_symbol
 _atom_site_label
 _atom_site_symmetry_multiplicity
 _atom_site_fract_x
 _atom_site_fract_y
 _atom_site_fract_z
 _atom_site_occupancy
  Sm  Sm0  1  0.627180  0.750000  0.377180  1
  Sm  Sm1  1  0.251571  0.126320  0.876526  1
  Sm  Sm2  1  0.750207  0.373680  0.625251  1
  Pa  Pa3  1  0.125999  0.878561  0.249913  1
  Pa  Pa4  1  0.371352  0.621439  0.747437  1
  Pa  Pa5  1  0.871554  0.250000  0.121554  1
  Ni  Ni6  1  0.641041  0.362736  0.239483  1
  Ni  Ni7  1  0.876747  0.137264  0.778305  1
  Ni  Ni8  1  0.367736  0.250000  0.617736  1
  Ni  Ni9  1  0.130990  0.750000  0.880990  1
  Ni  Ni10  1  0.232429  0.613827  0.370029  1
  Ni  Ni11  1  0.756201  0.886173  0.118602  1
  Bi  Bi12  1  0.337894  0.336091  0.332882  1
  Bi  Bi13  1  0.167644  0.502307  0.001528  1
  Bi  Bi14  1  0.996792  0.163909  0.501804  1
  Bi  Bi15  1  0.835407  0.832327  0.832326  1
  Bi  Bi16  1  0.499221  0.997693  0.165338  1
  Bi  Bi17  1  0.664218  0.502905  0.998723  1
  Bi  Bi18  1  0.495818  0.997095  0.661313  1
  Bi  Bi19  1  0.999999  0.667673  0.503080  1
