# generated using pymatgen
data_Be8FeOs2W
_symmetry_space_group_name_H-M   'P 1'
_cell_length_a   4.34655000
_cell_length_b   4.34654974
_cell_length_c   7.08168700
_cell_angle_alpha   90.00000000
_cell_angle_beta   90.00000000
_cell_angle_gamma   119.99998673
_symmetry_Int_Tables_number   1
_chemical_formula_structural   Be8FeOs2W
_chemical_formula_sum   'Be8 Fe1 Os2 W1'
_cell_volume   115.86619670
_cell_formula_units_Z   1
loop_
 _symmetry_equiv_pos_site_id
 _symmetry_equiv_pos_as_xyz
  1  'x, y, z'
loop_
 _atom_site_type_symbol
 _atom_site_label
 _atom_site_symmetry_multiplicity
 _atom_site_fract_x
 _atom_site_fract_y
 _atom_site_fract_z
 _atom_site_occupancy
  Be  Be0  1  0.000000  0.000000  0.003608  1
  Be  Be1  1  0.000000  0.000000  0.497301  1
  Be  Be2  1  0.830561  0.661122  0.258580  1
  Be  Be3  1  0.169156  0.830844  0.740449  1
  Be  Be4  1  0.661688  0.830844  0.740449  1
  Be  Be5  1  0.338878  0.169439  0.258580  1
  Be  Be6  1  0.830561  0.169439  0.258580  1
  Be  Be7  1  0.169156  0.338312  0.740449  1
  Fe  Fe8  1  0.333333  0.666667  0.436300  1
  Os  Os9  1  0.333333  0.666667  0.059268  1
  Os  Os10  1  0.666667  0.333333  0.567384  1
  W  W11  1  0.666667  0.333333  0.939055  1
