# generated using pymatgen
data_Nd16Cd4CoNiPd2
_symmetry_space_group_name_H-M   'P 1'
_cell_length_a   9.93038104
_cell_length_b   9.93038167
_cell_length_c   9.93015478
_cell_angle_alpha   60.12500356
_cell_angle_beta   60.12500031
_cell_angle_gamma   60.21452731
_symmetry_Int_Tables_number   1
_chemical_formula_structural   Nd16Cd4CoNiPd2
_chemical_formula_sum   'Nd16 Cd4 Co1 Ni1 Pd2'
_cell_volume   694.85259782
_cell_formula_units_Z   1
loop_
 _symmetry_equiv_pos_site_id
 _symmetry_equiv_pos_as_xyz
  1  'x, y, z'
loop_
 _atom_site_type_symbol
 _atom_site_label
 _atom_site_symmetry_multiplicity
 _atom_site_fract_x
 _atom_site_fract_y
 _atom_site_fract_z
 _atom_site_occupancy
  Nd  Nd0  1  0.344002  0.344002  0.359098  1
  Nd  Nd1  1  0.348244  0.348244  0.945041  1
  Nd  Nd2  1  0.341452  0.954273  0.354372  1
  Nd  Nd3  1  0.954273  0.341452  0.354372  1
  Nd  Nd4  1  0.818034  0.190761  0.190347  1
  Nd  Nd5  1  0.188936  0.820007  0.800495  1
  Nd  Nd6  1  0.190761  0.818034  0.190347  1
  Nd  Nd7  1  0.820007  0.188936  0.800495  1
  Nd  Nd8  1  0.189420  0.189420  0.808532  1
  Nd  Nd9  1  0.808341  0.808341  0.190546  1
  Nd  Nd10  1  0.937606  0.562269  0.564435  1
  Nd  Nd11  1  0.562055  0.935055  0.937983  1
  Nd  Nd12  1  0.562269  0.937606  0.564435  1
  Nd  Nd13  1  0.935055  0.562055  0.937983  1
  Nd  Nd14  1  0.560617  0.560617  0.942414  1
  Nd  Nd15  1  0.934600  0.934600  0.565411  1
  Cd  Cd16  1  0.580109  0.580109  0.579499  1
  Cd  Cd17  1  0.580407  0.580407  0.260156  1
  Cd  Cd18  1  0.581973  0.257924  0.579833  1
  Cd  Cd19  1  0.257924  0.581973  0.579833  1
  Co  Co20  1  0.142820  0.142820  0.571854  1
  Ni  Ni21  1  0.144173  0.144173  0.141983  1
  Pd  Pd22  1  0.145325  0.571601  0.140267  1
  Pd  Pd23  1  0.571601  0.145325  0.140267  1
