# generated using pymatgen
data_Dy2ErIn3Ag2Rh
_symmetry_space_group_name_H-M   'P 1'
_cell_length_a   7.81581933
_cell_length_b   7.80980994
_cell_length_c   3.88448400
_cell_angle_alpha   90.00000000
_cell_angle_beta   90.00000000
_cell_angle_gamma   119.90496041
_symmetry_Int_Tables_number   1
_chemical_formula_structural   Dy2ErIn3Ag2Rh
_chemical_formula_sum   'Dy2 Er1 In3 Ag2 Rh1'
_cell_volume   205.53891757
_cell_formula_units_Z   1
loop_
 _symmetry_equiv_pos_site_id
 _symmetry_equiv_pos_as_xyz
  1  'x, y, z'
loop_
 _atom_site_type_symbol
 _atom_site_label
 _atom_site_symmetry_multiplicity
 _atom_site_fract_x
 _atom_site_fract_y
 _atom_site_fract_z
 _atom_site_occupancy
  Dy  Dy0  1  0.028789  0.606354  0.500000  1
  Dy  Dy1  1  0.394720  0.423237  0.500000  1
  Er  Er2  1  0.575267  0.968643  0.500000  1
  In  In3  1  0.267439  0.002657  0.000000  1
  In  In4  1  0.735300  0.732687  0.000000  1
  In  In5  1  0.997946  0.265557  0.000000  1
  Ag  Ag6  1  0.666234  0.331443  0.000000  1
  Ag  Ag7  1  0.999199  0.000405  0.500000  1
  Rh  Rh8  1  0.335106  0.669019  0.000000  1
