# generated using pymatgen
data_Tb6Tm2Ti11Si16Hg
_symmetry_space_group_name_H-M   'P 1'
_cell_length_a   7.08564270
_cell_length_b   7.08705198
_cell_length_c   12.93670335
_cell_angle_alpha   90.13620265
_cell_angle_beta   89.92612209
_cell_angle_gamma   89.56008365
_symmetry_Int_Tables_number   1
_chemical_formula_structural   Tb6Tm2Ti11Si16Hg
_chemical_formula_sum   'Tb6 Tm2 Ti11 Si16 Hg1'
_cell_volume   649.61207205
_cell_formula_units_Z   1
loop_
 _symmetry_equiv_pos_site_id
 _symmetry_equiv_pos_as_xyz
  1  'x, y, z'
loop_
 _atom_site_type_symbol
 _atom_site_label
 _atom_site_symmetry_multiplicity
 _atom_site_fract_x
 _atom_site_fract_y
 _atom_site_fract_z
 _atom_site_occupancy
  Tb  Tb0  1  0.501370  0.157809  0.215125  1
  Tb  Tb1  1  0.839148  0.497470  0.284397  1
  Tb  Tb2  1  0.158133  0.501489  0.784727  1
  Tb  Tb3  1  0.657080  0.000233  0.968159  1
  Tb  Tb4  1  0.002742  0.340636  0.533202  1
  Tb  Tb5  1  0.000424  0.657245  0.031417  1
  Tm  Tm6  1  0.341485  0.000963  0.467131  1
  Tm  Tm7  1  0.498814  0.840034  0.715620  1
  Ti  Ti8  1  0.173990  0.826507  0.250816  1
  Ti  Ti9  1  0.826163  0.173654  0.749021  1
  Ti  Ti10  1  0.671890  0.673086  0.500354  1
  Ti  Ti11  1  0.148016  0.008673  0.876879  1
  Ti  Ti12  1  0.495626  0.650722  0.123880  1
  Ti  Ti13  1  0.506800  0.351257  0.624474  1
  Ti  Ti14  1  0.649968  0.495143  0.875726  1
  Ti  Ti15  1  0.350802  0.507878  0.375986  1
  Ti  Ti16  1  0.848710  0.991292  0.375393  1
  Ti  Ti17  1  0.009160  0.148083  0.122884  1
  Ti  Ti18  1  0.990911  0.849256  0.624892  1
  Si  Si19  1  0.202977  0.129656  0.683769  1
  Si  Si20  1  0.374639  0.725110  0.926915  1
  Si  Si21  1  0.629151  0.293284  0.433572  1
  Si  Si22  1  0.724346  0.374491  0.071889  1
  Si  Si23  1  0.295890  0.633149  0.567329  1
  Si  Si24  1  0.798677  0.868265  0.183915  1
  Si  Si25  1  0.132109  0.200206  0.316395  1
  Si  Si26  1  0.866621  0.799008  0.815753  1
  Si  Si27  1  0.285912  0.932850  0.067544  1
  Si  Si28  1  0.545543  0.791465  0.315500  1
  Si  Si29  1  0.459185  0.203968  0.804677  1
  Si  Si30  1  0.789653  0.547338  0.685157  1
  Si  Si31  1  0.206189  0.458660  0.194977  1
  Si  Si32  1  0.707487  0.046525  0.564326  1
  Si  Si33  1  0.932996  0.285691  0.932164  1
  Si  Si34  1  0.049004  0.710893  0.436076  1
  Hg  Hg35  1  0.328386  0.328009  0.999961  1
