# generated using pymatgen
data_Dy18Ho2CoBi8Rh3
_symmetry_space_group_name_H-M   'P 1'
_cell_length_a   8.02942550
_cell_length_b   8.98224523
_cell_length_c   12.45826100
_cell_angle_alpha   90.01338047
_cell_angle_beta   89.80797638
_cell_angle_gamma   89.97806243
_symmetry_Int_Tables_number   1
_chemical_formula_structural   Dy18Ho2CoBi8Rh3
_chemical_formula_sum   'Dy18 Ho2 Co1 Bi8 Rh3'
_cell_volume   898.51291295
_cell_formula_units_Z   1
loop_
 _symmetry_equiv_pos_site_id
 _symmetry_equiv_pos_as_xyz
  1  'x, y, z'
loop_
 _atom_site_type_symbol
 _atom_site_label
 _atom_site_symmetry_multiplicity
 _atom_site_fract_x
 _atom_site_fract_y
 _atom_site_fract_z
 _atom_site_occupancy
  Dy  Dy0  1  0.345372  0.750034  0.699861  1
  Dy  Dy1  1  0.657872  0.249976  0.293898  1
  Dy  Dy2  1  0.842579  0.249937  0.793876  1
  Dy  Dy3  1  0.157406  0.750072  0.205705  1
  Dy  Dy4  1  0.879576  0.750122  0.806078  1
  Dy  Dy5  1  0.120958  0.249888  0.193515  1
  Dy  Dy6  1  0.378942  0.249986  0.693766  1
  Dy  Dy7  1  0.615047  0.750000  0.311359  1
  Dy  Dy8  1  0.676980  0.545081  0.564189  1
  Dy  Dy9  1  0.323653  0.465458  0.436428  1
  Dy  Dy10  1  0.178164  0.457559  0.934179  1
  Dy  Dy11  1  0.323645  0.034543  0.436421  1
  Dy  Dy12  1  0.821302  0.541636  0.065720  1
  Dy  Dy13  1  0.676994  0.954921  0.564203  1
  Dy  Dy14  1  0.051396  0.750015  0.498894  1
  Dy  Dy15  1  0.950212  0.249988  0.501323  1
  Dy  Dy16  1  0.547486  0.249872  0.000792  1
  Dy  Dy17  1  0.451071  0.750122  0.998260  1
  Ho  Ho18  1  0.821900  0.958278  0.065612  1
  Ho  Ho19  1  0.177556  0.042517  0.934278  1
  Co  Co20  1  0.432496  0.749996  0.491648  1
  Bi  Bi21  1  0.571146  0.509838  0.826112  1
  Bi  Bi22  1  0.428951  0.491036  0.173782  1
  Bi  Bi23  1  0.071903  0.490593  0.672817  1
  Bi  Bi24  1  0.429142  0.008959  0.173738  1
  Bi  Bi25  1  0.928388  0.510050  0.327351  1
  Bi  Bi26  1  0.570949  0.990170  0.826157  1
  Bi  Bi27  1  0.928335  0.989944  0.327310  1
  Bi  Bi28  1  0.071954  0.009409  0.672865  1
  Rh  Rh29  1  0.070260  0.750419  0.990558  1
  Rh  Rh30  1  0.928536  0.249581  0.010042  1
  Rh  Rh31  1  0.569830  0.250000  0.509264  1
