# generated using pymatgen
data_Li4Tb2CeSn4
_symmetry_space_group_name_H-M   'P 1'
_cell_length_a   4.67026539
_cell_length_b   7.12764939
_cell_length_c   8.73054024
_cell_angle_alpha   114.09193825
_cell_angle_beta   105.51360364
_cell_angle_gamma   90.00000529
_symmetry_Int_Tables_number   1
_chemical_formula_structural   Li4Tb2CeSn4
_chemical_formula_sum   'Li4 Tb2 Ce1 Sn4'
_cell_volume   253.66393738
_cell_formula_units_Z   1
loop_
 _symmetry_equiv_pos_site_id
 _symmetry_equiv_pos_as_xyz
  1  'x, y, z'
loop_
 _atom_site_type_symbol
 _atom_site_label
 _atom_site_symmetry_multiplicity
 _atom_site_fract_x
 _atom_site_fract_y
 _atom_site_fract_z
 _atom_site_occupancy
  Li  Li0  1  0.326618  0.015678  0.653234  1
  Li  Li1  1  0.672104  0.981451  0.344210  1
  Li  Li2  1  0.326618  0.637556  0.653234  1
  Li  Li3  1  0.672104  0.362759  0.344210  1
  Tb  Tb4  1  0.129401  0.629401  0.258803  1
  Tb  Tb5  1  0.001597  0.001597  0.003194  1
  Ce  Ce6  1  0.871265  0.371265  0.742529  1
  Sn  Sn7  1  0.213570  0.213570  0.427139  1
  Sn  Sn8  1  0.786592  0.786592  0.573185  1
  Sn  Sn9  1  0.500066  0.298654  0.000131  1
  Sn  Sn10  1  0.500066  0.701478  0.000131  1
