# generated using pymatgen
data_Y3Tm9Tc3Rh
_symmetry_space_group_name_H-M   'P 1'
_cell_length_a   6.25226632
_cell_length_b   7.37022591
_cell_length_c   9.01043600
_cell_angle_alpha   90.00000000
_cell_angle_beta   90.00000000
_cell_angle_gamma   89.91253115
_symmetry_Int_Tables_number   1
_chemical_formula_structural   Y3Tm9Tc3Rh
_chemical_formula_sum   'Y3 Tm9 Tc3 Rh1'
_cell_volume   415.20595023
_cell_formula_units_Z   1
loop_
 _symmetry_equiv_pos_site_id
 _symmetry_equiv_pos_as_xyz
  1  'x, y, z'
loop_
 _atom_site_type_symbol
 _atom_site_label
 _atom_site_symmetry_multiplicity
 _atom_site_fract_x
 _atom_site_fract_y
 _atom_site_fract_z
 _atom_site_occupancy
  Y  Y0  1  0.628405  0.042048  0.250000  1
  Y  Y1  1  0.122467  0.462698  0.750000  1
  Y  Y2  1  0.874619  0.539066  0.250000  1
  Tm  Tm3  1  0.374101  0.958898  0.750000  1
  Tm  Tm4  1  0.161870  0.177014  0.060490  1
  Tm  Tm5  1  0.832607  0.823987  0.934156  1
  Tm  Tm6  1  0.659925  0.323246  0.936330  1
  Tm  Tm7  1  0.832607  0.823987  0.565844  1
  Tm  Tm8  1  0.340118  0.674830  0.060584  1
  Tm  Tm9  1  0.161870  0.177014  0.439510  1
  Tm  Tm10  1  0.340118  0.674830  0.439416  1
  Tm  Tm11  1  0.659925  0.323246  0.563670  1
  Tc  Tc12  1  0.455067  0.384340  0.250000  1
  Tc  Tc13  1  0.542959  0.617000  0.750000  1
  Tc  Tc14  1  0.962555  0.112002  0.750000  1
  Rh  Rh15  1  0.050788  0.885794  0.250000  1
