# generated using pymatgen
data_LiYb2AlB28
_symmetry_space_group_name_H-M   'P 1'
_cell_length_a   7.25560975
_cell_length_b   7.25560904
_cell_length_c   7.28016057
_cell_angle_alpha   132.57659970
_cell_angle_beta   110.96338774
_cell_angle_gamma   87.83102366
_symmetry_Int_Tables_number   1
_chemical_formula_structural   LiYb2AlB28
_chemical_formula_sum   'Li1 Yb2 Al1 B28'
_cell_volume   251.64925050
_cell_formula_units_Z   1
loop_
 _symmetry_equiv_pos_site_id
 _symmetry_equiv_pos_as_xyz
  1  'x, y, z'
loop_
 _atom_site_type_symbol
 _atom_site_label
 _atom_site_symmetry_multiplicity
 _atom_site_fract_x
 _atom_site_fract_y
 _atom_site_fract_z
 _atom_site_occupancy
  Li  Li0  1  0.000000  0.500000  0.000000  1
  Yb  Yb1  1  0.607364  0.248802  0.356166  1
  Yb  Yb2  1  0.392636  0.751198  0.643834  1
  Al  Al3  1  0.000000  0.000000  0.500000  1
  B  B4  1  0.635171  0.664405  0.968222  1
  B  B5  1  0.364829  0.335595  0.031778  1
  B  B6  1  0.196183  0.166949  0.031778  1
  B  B7  1  0.803817  0.833051  0.968222  1
  B  B8  1  0.774637  0.146813  0.625541  1
  B  B9  1  0.225363  0.853187  0.374459  1
  B  B10  1  0.021273  0.649096  0.374459  1
  B  B11  1  0.978727  0.350904  0.625541  1
  B  B12  1  0.917335  0.088151  0.830694  1
  B  B13  1  0.082665  0.911849  0.169306  1
  B  B14  1  0.757458  0.586641  0.169306  1
  B  B15  1  0.242542  0.413359  0.830694  1
  B  B16  1  0.397743  0.398641  0.679078  1
  B  B17  1  0.602815  0.281569  0.001779  1
  B  B18  1  0.220209  0.898964  0.001779  1
  B  B19  1  0.780437  0.781336  0.679078  1
  B  B20  1  0.602257  0.601359  0.320922  1
  B  B21  1  0.397185  0.718431  0.998221  1
  B  B22  1  0.779791  0.101036  0.998221  1
  B  B23  1  0.219563  0.218664  0.320922  1
  B  B24  1  0.034395  0.828460  0.705715  1
  B  B25  1  0.966548  0.667793  0.795452  1
  B  B26  1  0.627659  0.328904  0.795452  1
  B  B27  1  0.377255  0.171320  0.705715  1
  B  B28  1  0.965605  0.171540  0.294285  1
  B  B29  1  0.033452  0.332207  0.204548  1
  B  B30  1  0.372341  0.671096  0.204548  1
  B  B31  1  0.622745  0.828680  0.294285  1
