# generated using pymatgen
data_Lu10HgBi5C2
_symmetry_space_group_name_H-M   'P 1'
_cell_length_a   8.99969483
_cell_length_b   8.99969476
_cell_length_c   6.37773500
_cell_angle_alpha   90.00000000
_cell_angle_beta   90.00000000
_cell_angle_gamma   120.95850198
_symmetry_Int_Tables_number   1
_chemical_formula_structural   Lu10HgBi5C2
_chemical_formula_sum   'Lu10 Hg1 Bi5 C2'
_cell_volume   442.97220212
_cell_formula_units_Z   1
loop_
 _symmetry_equiv_pos_site_id
 _symmetry_equiv_pos_as_xyz
  1  'x, y, z'
loop_
 _atom_site_type_symbol
 _atom_site_label
 _atom_site_symmetry_multiplicity
 _atom_site_fract_x
 _atom_site_fract_y
 _atom_site_fract_z
 _atom_site_occupancy
  Lu  Lu0  1  0.661637  0.334806  0.495662  1
  Lu  Lu1  1  0.334806  0.661637  0.495662  1
  Lu  Lu2  1  0.334806  0.661637  0.004338  1
  Lu  Lu3  1  0.661637  0.334806  0.004338  1
  Lu  Lu4  1  0.795712  0.795712  0.250000  1
  Lu  Lu5  1  0.211380  0.008595  0.250000  1
  Lu  Lu6  1  0.008595  0.211380  0.250000  1
  Lu  Lu7  1  0.203449  0.203449  0.750000  1
  Lu  Lu8  1  0.792421  0.998126  0.750000  1
  Lu  Lu9  1  0.998126  0.792421  0.750000  1
  Hg  Hg10  1  0.404908  0.404908  0.250000  1
  Bi  Bi11  1  0.603679  0.001649  0.250000  1
  Bi  Bi12  1  0.001649  0.603679  0.250000  1
  Bi  Bi13  1  0.592209  0.592209  0.750000  1
  Bi  Bi14  1  0.398410  0.995912  0.750000  1
  Bi  Bi15  1  0.995912  0.398410  0.750000  1
  C  C16  1  0.000331  0.000331  0.500973  1
  C  C17  1  0.000331  0.000331  0.999027  1
