# generated using pymatgen
data_Y2TmIn3Ga2Pt
_symmetry_space_group_name_H-M   'P 1'
_cell_length_a   7.24970136
_cell_length_b   7.25983875
_cell_length_c   4.41519800
_cell_angle_alpha   90.00000000
_cell_angle_beta   90.00000000
_cell_angle_gamma   120.04626978
_symmetry_Int_Tables_number   1
_chemical_formula_structural   Y2TmIn3Ga2Pt
_chemical_formula_sum   'Y2 Tm1 In3 Ga2 Pt1'
_cell_volume   201.15240581
_cell_formula_units_Z   1
loop_
 _symmetry_equiv_pos_site_id
 _symmetry_equiv_pos_as_xyz
  1  'x, y, z'
loop_
 _atom_site_type_symbol
 _atom_site_label
 _atom_site_symmetry_multiplicity
 _atom_site_fract_x
 _atom_site_fract_y
 _atom_site_fract_z
 _atom_site_occupancy
  Y  Y0  1  0.409463  0.409756  0.500000  1
  Y  Y1  1  0.590537  0.000293  0.500000  1
  Tm  Tm2  1  0.000000  0.592533  0.500000  1
  In  In3  1  0.000000  0.250953  0.000000  1
  In  In4  1  0.749700  0.749253  0.000000  1
  In  In5  1  0.250300  0.999553  0.000000  1
  Ga  Ga6  1  0.668370  0.334599  0.000000  1
  Ga  Ga7  1  0.331630  0.666230  0.000000  1
  Pt  Pt8  1  0.000000  0.996830  0.500000  1
