# generated using pymatgen
data_Y2LuCr(Co4P3)2
_symmetry_space_group_name_H-M   'P 1'
_cell_length_a   3.68290500
_cell_length_b   10.49098900
_cell_length_c   12.15187700
_cell_angle_alpha   90.00000000
_cell_angle_beta   90.00000000
_cell_angle_gamma   90.00000000
_symmetry_Int_Tables_number   1
_chemical_formula_structural   Y2LuCr(Co4P3)2
_chemical_formula_sum   'Y4 Lu2 Cr2 Co16 P12'
_cell_volume   469.51590973
_cell_formula_units_Z   2
loop_
 _symmetry_equiv_pos_site_id
 _symmetry_equiv_pos_as_xyz
  1  'x, y, z'
loop_
 _atom_site_type_symbol
 _atom_site_label
 _atom_site_symmetry_multiplicity
 _atom_site_fract_x
 _atom_site_fract_y
 _atom_site_fract_z
 _atom_site_occupancy
  Y  Y0  1  0.000000  0.500000  0.522947  1
  Y  Y1  1  0.500000  0.000000  0.477990  1
  Y  Y2  1  0.500000  0.817499  0.204313  1
  Y  Y3  1  0.500000  0.182501  0.204313  1
  Lu  Lu4  1  0.000000  0.681654  0.795830  1
  Lu  Lu5  1  0.000000  0.318346  0.795830  1
  Cr  Cr6  1  0.500000  0.500000  0.154746  1
  Cr  Cr7  1  0.000000  0.000000  0.844203  1
  Co  Co8  1  0.500000  0.500000  0.703473  1
  Co  Co9  1  0.000000  0.000000  0.297947  1
  Co  Co10  1  0.000000  0.500000  0.985402  1
  Co  Co11  1  0.500000  0.000000  0.011415  1
  Co  Co12  1  0.500000  0.333054  0.990302  1
  Co  Co13  1  0.500000  0.666946  0.990302  1
  Co  Co14  1  0.000000  0.168133  0.006270  1
  Co  Co15  1  0.000000  0.831867  0.006270  1
  Co  Co16  1  0.500000  0.296445  0.431890  1
  Co  Co17  1  0.500000  0.703555  0.431890  1
  Co  Co18  1  0.000000  0.204208  0.571097  1
  Co  Co19  1  0.000000  0.795792  0.571097  1
  Co  Co20  1  0.500000  0.878371  0.709848  1
  Co  Co21  1  0.500000  0.121629  0.709848  1
  Co  Co22  1  0.000000  0.620424  0.291187  1
  Co  Co23  1  0.000000  0.379576  0.291187  1
  P  P24  1  0.500000  0.500000  0.880150  1
  P  P25  1  0.000000  0.000000  0.117238  1
  P  P26  1  0.500000  0.500000  0.342611  1
  P  P27  1  0.000000  0.000000  0.657366  1
  P  P28  1  0.500000  0.311834  0.618488  1
  P  P29  1  0.500000  0.688166  0.618488  1
  P  P30  1  0.000000  0.188932  0.384734  1
  P  P31  1  0.000000  0.811068  0.384734  1
  P  P32  1  0.500000  0.846862  0.890922  1
  P  P33  1  0.500000  0.153138  0.890922  1
  P  P34  1  0.000000  0.650986  0.107377  1
  P  P35  1  0.000000  0.349014  0.107377  1
