# generated using pymatgen
data_Th2Al20Tc3Ru
_symmetry_space_group_name_H-M   'P 1'
_cell_length_a   6.92196888
_cell_length_b   6.92801532
_cell_length_c   9.23524028
_cell_angle_alpha   89.88237409
_cell_angle_beta   89.82846867
_cell_angle_gamma   97.17426885
_symmetry_Int_Tables_number   1
_chemical_formula_structural   Th2Al20Tc3Ru
_chemical_formula_sum   'Th2 Al20 Tc3 Ru1'
_cell_volume   439.40997930
_cell_formula_units_Z   1
loop_
 _symmetry_equiv_pos_site_id
 _symmetry_equiv_pos_as_xyz
  1  'x, y, z'
loop_
 _atom_site_type_symbol
 _atom_site_label
 _atom_site_symmetry_multiplicity
 _atom_site_fract_x
 _atom_site_fract_y
 _atom_site_fract_z
 _atom_site_occupancy
  Th  Th0  1  0.875155  0.129007  0.750924  1
  Th  Th1  1  0.124845  0.870993  0.249076  1
  Al  Al2  1  0.771883  0.772160  0.000226  1
  Al  Al3  1  0.772240  0.772854  0.499747  1
  Al  Al4  1  0.228117  0.227840  0.999774  1
  Al  Al5  1  0.227760  0.227146  0.500253  1
  Al  Al6  1  0.621490  0.378079  0.953738  1
  Al  Al7  1  0.378510  0.621921  0.046262  1
  Al  Al8  1  0.622059  0.378544  0.546485  1
  Al  Al9  1  0.377941  0.621456  0.453515  1
  Al  Al10  1  0.841168  0.158602  0.398948  1
  Al  Al11  1  0.158832  0.841398  0.601052  1
  Al  Al12  1  0.840208  0.158749  0.101541  1
  Al  Al13  1  0.159792  0.841251  0.898459  1
  Al  Al14  1  0.407689  0.139328  0.749612  1
  Al  Al15  1  0.140035  0.407170  0.250281  1
  Al  Al16  1  0.592311  0.860672  0.250388  1
  Al  Al17  1  0.859965  0.592830  0.749719  1
  Al  Al18  1  0.519019  0.781235  0.750605  1
  Al  Al19  1  0.779722  0.518552  0.250666  1
  Al  Al20  1  0.480981  0.218765  0.249395  1
  Al  Al21  1  0.220278  0.481448  0.749334  1
  Tc  Tc22  1  0.500000  0.000000  0.000000  1
  Tc  Tc23  1  0.000000  0.500000  0.000000  1
  Tc  Tc24  1  0.000000  0.500000  0.500000  1
  Ru  Ru25  1  0.500000  0.000000  0.500000  1
