# generated using pymatgen
data_Ca3Sm(Ni5C3)2
_symmetry_space_group_name_H-M   'P 1'
_cell_length_a   8.22863702
_cell_length_b   8.22863756
_cell_length_c   3.89423400
_cell_angle_alpha   90.00000000
_cell_angle_beta   90.00000000
_cell_angle_gamma   90.07370307
_symmetry_Int_Tables_number   1
_chemical_formula_structural   Ca3Sm(Ni5C3)2
_chemical_formula_sum   'Ca3 Sm1 Ni10 C6'
_cell_volume   263.68020262
_cell_formula_units_Z   1
loop_
 _symmetry_equiv_pos_site_id
 _symmetry_equiv_pos_as_xyz
  1  'x, y, z'
loop_
 _atom_site_type_symbol
 _atom_site_label
 _atom_site_symmetry_multiplicity
 _atom_site_fract_x
 _atom_site_fract_y
 _atom_site_fract_z
 _atom_site_occupancy
  Ca  Ca0  1  0.344561  0.154702  0.000000  1
  Ca  Ca1  1  0.654702  0.844561  0.000000  1
  Ca  Ca2  1  0.157348  0.657348  0.000000  1
  Sm  Sm3  1  0.843250  0.343250  0.000000  1
  Ni  Ni4  1  0.921121  0.786671  0.500000  1
  Ni  Ni5  1  0.711481  0.575300  0.500000  1
  Ni  Ni6  1  0.422613  0.713752  0.500000  1
  Ni  Ni7  1  0.286671  0.421121  0.500000  1
  Ni  Ni8  1  0.579044  0.288664  0.500000  1
  Ni  Ni9  1  0.788664  0.079044  0.500000  1
  Ni  Ni10  1  0.075300  0.211481  0.500000  1
  Ni  Ni11  1  0.213752  0.922613  0.500000  1
  Ni  Ni12  1  0.502325  0.498111  0.000000  1
  Ni  Ni13  1  0.998111  0.002325  0.000000  1
  C  C14  1  0.443462  0.943462  0.500000  1
  C  C15  1  0.058229  0.442167  0.500000  1
  C  C16  1  0.942167  0.558229  0.500000  1
  C  C17  1  0.497363  0.500887  0.500000  1
  C  C18  1  0.558948  0.058948  0.500000  1
  C  C19  1  0.000887  0.997363  0.500000  1
