# generated using pymatgen
data_Nd10Sn5BiP2
_symmetry_space_group_name_H-M   'P 1'
_cell_length_a   9.43715836
_cell_length_b   9.43715647
_cell_length_c   7.00098300
_cell_angle_alpha   90.00000000
_cell_angle_beta   90.00000000
_cell_angle_gamma   120.03171565
_symmetry_Int_Tables_number   1
_chemical_formula_structural   Nd10Sn5BiP2
_chemical_formula_sum   'Nd10 Sn5 Bi1 P2'
_cell_volume   539.80035975
_cell_formula_units_Z   1
loop_
 _symmetry_equiv_pos_site_id
 _symmetry_equiv_pos_as_xyz
  1  'x, y, z'
loop_
 _atom_site_type_symbol
 _atom_site_label
 _atom_site_symmetry_multiplicity
 _atom_site_fract_x
 _atom_site_fract_y
 _atom_site_fract_z
 _atom_site_occupancy
  Nd  Nd0  1  0.761843  0.761843  0.250000  1
  Nd  Nd1  1  0.237458  0.996155  0.250000  1
  Nd  Nd2  1  0.996155  0.237458  0.250000  1
  Nd  Nd3  1  0.239016  0.239016  0.750000  1
  Nd  Nd4  1  0.760647  0.999361  0.750000  1
  Nd  Nd5  1  0.999361  0.760647  0.750000  1
  Nd  Nd6  1  0.669564  0.332303  0.502042  1
  Nd  Nd7  1  0.332303  0.669564  0.502042  1
  Nd  Nd8  1  0.332303  0.669564  0.997958  1
  Nd  Nd9  1  0.669564  0.332303  0.997958  1
  Sn  Sn10  1  0.599445  0.000055  0.250000  1
  Sn  Sn11  1  0.000055  0.599445  0.250000  1
  Sn  Sn12  1  0.600142  0.600142  0.750000  1
  Sn  Sn13  1  0.400515  0.000473  0.750000  1
  Sn  Sn14  1  0.000473  0.400515  0.750000  1
  Bi  Bi15  1  0.399707  0.399707  0.250000  1
  P  P16  1  0.000724  0.000724  0.499602  1
  P  P17  1  0.000724  0.000724  0.000398  1
