# generated using pymatgen
data_Nb12Fe5Ni(Os3C2)2
_symmetry_space_group_name_H-M   'P 1'
_cell_length_a   8.22849933
_cell_length_b   8.24708860
_cell_length_c   8.22849825
_cell_angle_alpha   119.77832893
_cell_angle_beta   120.08103667
_cell_angle_gamma   90.05761708
_symmetry_Int_Tables_number   1
_chemical_formula_structural   Nb12Fe5Ni(Os3C2)2
_chemical_formula_sum   'Nb12 Fe5 Ni1 Os6 C4'
_cell_volume   395.48257834
_cell_formula_units_Z   1
loop_
 _symmetry_equiv_pos_site_id
 _symmetry_equiv_pos_as_xyz
  1  'x, y, z'
loop_
 _atom_site_type_symbol
 _atom_site_label
 _atom_site_symmetry_multiplicity
 _atom_site_fract_x
 _atom_site_fract_y
 _atom_site_fract_z
 _atom_site_occupancy
  Nb  Nb0  1  0.067148  0.065449  0.998301  1
  Nb  Nb1  1  0.682341  0.682458  0.000117  1
  Nb  Nb2  1  0.679905  0.066182  0.998607  1
  Nb  Nb3  1  0.065957  0.682662  0.999090  1
  Nb  Nb4  1  0.067574  0.066182  0.386277  1
  Nb  Nb5  1  0.683572  0.682662  0.616705  1
  Nb  Nb6  1  0.432622  0.932684  0.500061  1
  Nb  Nb7  1  0.819105  0.319741  0.500636  1
  Nb  Nb8  1  0.816006  0.929748  0.499122  1
  Nb  Nb9  1  0.429534  0.319536  0.503055  1
  Nb  Nb10  1  0.430626  0.929748  0.113742  1
  Nb  Nb11  1  0.816481  0.319536  0.890002  1
  Fe  Fe12  1  0.452085  0.299196  0.847110  1
  Fe  Fe13  1  0.451890  0.602753  0.150863  1
  Fe  Fe14  1  0.047445  0.701382  0.344360  1
  Fe  Fe15  1  0.357022  0.701382  0.653937  1
  Fe  Fe16  1  0.047415  0.699527  0.652112  1
  Ni  Ni17  1  0.043103  0.379797  0.336694  1
  Os  Os18  1  0.261424  0.511126  0.756378  1
  Os  Os19  1  0.754749  0.511126  0.249703  1
  Os  Os20  1  0.254433  0.518141  0.263708  1
  Os  Os21  1  0.250937  0.988032  0.737095  1
  Os  Os22  1  0.457159  0.296887  0.161482  1
  Os  Os23  1  0.135405  0.296887  0.839728  1
  C  C24  1  0.748752  0.999973  0.749959  1
  C  C25  1  0.250014  0.999973  0.251222  1
  C  C26  1  0.749025  0.998913  0.249888  1
  C  C27  1  0.748273  0.498318  0.750044  1
