# generated using pymatgen
data_Gd3Hf2Pb3Se
_symmetry_space_group_name_H-M   'P 1'
_cell_length_a   9.19150800
_cell_length_b   9.19150713
_cell_length_c   6.39668400
_cell_angle_alpha   90.00000000
_cell_angle_beta   90.00000000
_cell_angle_gamma   119.99999593
_symmetry_Int_Tables_number   1
_chemical_formula_structural   Gd3Hf2Pb3Se
_chemical_formula_sum   'Gd6 Hf4 Pb6 Se2'
_cell_volume   468.01421521
_cell_formula_units_Z   2
loop_
 _symmetry_equiv_pos_site_id
 _symmetry_equiv_pos_as_xyz
  1  'x, y, z'
loop_
 _atom_site_type_symbol
 _atom_site_label
 _atom_site_symmetry_multiplicity
 _atom_site_fract_x
 _atom_site_fract_y
 _atom_site_fract_z
 _atom_site_occupancy
  Gd  Gd0  1  0.000000  0.256991  0.250000  1
  Gd  Gd1  1  0.743009  0.000000  0.750000  1
  Gd  Gd2  1  0.256991  0.256991  0.750000  1
  Gd  Gd3  1  0.000000  0.743009  0.750000  1
  Gd  Gd4  1  0.743009  0.743009  0.250000  1
  Gd  Gd5  1  0.256991  0.000000  0.250000  1
  Hf  Hf6  1  0.666667  0.333333  0.000000  1
  Hf  Hf7  1  0.333333  0.666667  0.500000  1
  Hf  Hf8  1  0.333333  0.666667  0.000000  1
  Hf  Hf9  1  0.666667  0.333333  0.500000  1
  Pb  Pb10  1  0.601784  0.601784  0.750000  1
  Pb  Pb11  1  0.398216  0.000000  0.750000  1
  Pb  Pb12  1  0.000000  0.601784  0.250000  1
  Pb  Pb13  1  0.398216  0.398216  0.250000  1
  Pb  Pb14  1  0.000000  0.398216  0.750000  1
  Pb  Pb15  1  0.601784  0.000000  0.250000  1
  Se  Se16  1  0.000000  0.000000  0.000000  1
  Se  Se17  1  0.000000  0.000000  0.500000  1
