# generated using pymatgen
data_DyTm3V4F28
_symmetry_space_group_name_H-M   'P 1'
_cell_length_a   5.46771906
_cell_length_b   8.73743804
_cell_length_c   11.70432884
_cell_angle_alpha   63.54075228
_cell_angle_beta   90.01390405
_cell_angle_gamma   89.99777103
_symmetry_Int_Tables_number   1
_chemical_formula_structural   DyTm3V4F28
_chemical_formula_sum   'Dy1 Tm3 V4 F28'
_cell_volume   500.58963584
_cell_formula_units_Z   1
loop_
 _symmetry_equiv_pos_site_id
 _symmetry_equiv_pos_as_xyz
  1  'x, y, z'
loop_
 _atom_site_type_symbol
 _atom_site_label
 _atom_site_symmetry_multiplicity
 _atom_site_fract_x
 _atom_site_fract_y
 _atom_site_fract_z
 _atom_site_occupancy
  Dy  Dy0  1  0.741997  0.810156  0.270115  1
  Tm  Tm1  1  0.758152  0.809823  0.770075  1
  Tm  Tm2  1  0.258151  0.191408  0.729413  1
  Tm  Tm3  1  0.241417  0.194417  0.228552  1
  V  V4  1  0.754857  0.274472  0.953598  1
  V  V5  1  0.254599  0.726118  0.547260  1
  V  V6  1  0.246073  0.726564  0.043824  1
  V  V7  1  0.745656  0.271956  0.455195  1
  F  F8  1  0.452228  0.705953  0.921761  1
  F  F9  1  0.952799  0.292884  0.576983  1
  F  F10  1  0.548207  0.294271  0.076047  1
  F  F11  1  0.050115  0.705119  0.424680  1
  F  F12  1  0.460233  0.282044  0.546993  1
  F  F13  1  0.959365  0.716993  0.952804  1
  F  F14  1  0.540086  0.715428  0.456640  1
  F  F15  1  0.040174  0.283660  0.045604  1
  F  F16  1  0.767779  0.508362  0.861236  1
  F  F17  1  0.266765  0.491377  0.639735  1
  F  F18  1  0.231894  0.491719  0.136970  1
  F  F19  1  0.731230  0.505788  0.362351  1
  F  F20  1  0.757137  0.042273  0.045134  1
  F  F21  1  0.257101  0.957397  0.455649  1
  F  F22  1  0.243095  0.958290  0.953221  1
  F  F23  1  0.743137  0.040235  0.546414  1
  F  F24  1  0.977679  0.731858  0.643510  1
  F  F25  1  0.479024  0.267879  0.857070  1
  F  F26  1  0.022246  0.268190  0.358128  1
  F  F27  1  0.522753  0.730465  0.139938  1
  F  F28  1  0.044022  0.746583  0.169683  1
  F  F29  1  0.539876  0.250661  0.330171  1
  F  F30  1  0.960655  0.251720  0.829444  1
  F  F31  1  0.459401  0.748264  0.671854  1
  F  F32  1  0.417797  0.976205  0.231309  1
  F  F33  1  0.924514  0.030769  0.268628  1
  F  F34  1  0.574772  0.025931  0.767816  1
  F  F35  1  0.075015  0.974769  0.732194  1
