# generated using pymatgen
data_Ce3In3CuIrRh
_symmetry_space_group_name_H-M   'P 1'
_cell_length_a   7.62399600
_cell_length_b   7.62399631
_cell_length_c   3.94430400
_cell_angle_alpha   90.00000000
_cell_angle_beta   90.00000000
_cell_angle_gamma   120.00000731
_symmetry_Int_Tables_number   1
_chemical_formula_structural   Ce3In3CuIrRh
_chemical_formula_sum   'Ce3 In3 Cu1 Ir1 Rh1'
_cell_volume   198.54836594
_cell_formula_units_Z   1
loop_
 _symmetry_equiv_pos_site_id
 _symmetry_equiv_pos_as_xyz
  1  'x, y, z'
loop_
 _atom_site_type_symbol
 _atom_site_label
 _atom_site_symmetry_multiplicity
 _atom_site_fract_x
 _atom_site_fract_y
 _atom_site_fract_z
 _atom_site_occupancy
  Ce  Ce0  1  0.416936  0.998453  0.500000  1
  Ce  Ce1  1  0.001547  0.418483  0.500000  1
  Ce  Ce2  1  0.581517  0.583064  0.500000  1
  In  In3  1  0.752047  0.000695  0.000000  1
  In  In4  1  0.999305  0.751352  0.000000  1
  In  In5  1  0.248648  0.247953  0.000000  1
  Cu  Cu6  1  0.000000  0.000000  0.500000  1
  Ir  Ir7  1  0.333333  0.666667  0.000000  1
  Rh  Rh8  1  0.666667  0.333333  0.000000  1
