# generated using pymatgen
data_Gd4HfPt2RhO14
_symmetry_space_group_name_H-M   'P 1'
_cell_length_a   7.37408954
_cell_length_b   7.37408949
_cell_length_c   7.39815040
_cell_angle_alpha   59.51960686
_cell_angle_beta   59.51959523
_cell_angle_gamma   59.46707883
_symmetry_Int_Tables_number   1
_chemical_formula_structural   Gd4HfPt2RhO14
_chemical_formula_sum   'Gd4 Hf1 Pt2 Rh1 O14'
_cell_volume   281.24117066
_cell_formula_units_Z   1
loop_
 _symmetry_equiv_pos_site_id
 _symmetry_equiv_pos_as_xyz
  1  'x, y, z'
loop_
 _atom_site_type_symbol
 _atom_site_label
 _atom_site_symmetry_multiplicity
 _atom_site_fract_x
 _atom_site_fract_y
 _atom_site_fract_z
 _atom_site_occupancy
  Gd  Gd0  1  0.625000  0.125000  0.125000  1
  Gd  Gd1  1  0.125000  0.625000  0.125000  1
  Gd  Gd2  1  0.125000  0.125000  0.625000  1
  Gd  Gd3  1  0.125000  0.125000  0.125000  1
  Hf  Hf4  1  0.625000  0.625000  0.625000  1
  Pt  Pt5  1  0.125000  0.625000  0.625000  1
  Pt  Pt6  1  0.625000  0.125000  0.625000  1
  Rh  Rh7  1  0.625000  0.625000  0.125000  1
  O  O8  1  0.713296  0.713296  0.284022  1
  O  O9  1  0.287881  0.287881  0.717508  1
  O  O10  1  0.713943  0.281139  0.713160  1
  O  O11  1  0.291349  0.713808  0.290358  1
  O  O12  1  0.281139  0.713943  0.713160  1
  O  O13  1  0.713808  0.291349  0.290358  1
  O  O14  1  0.536704  0.536704  0.965978  1
  O  O15  1  0.962119  0.962119  0.532492  1
  O  O16  1  0.536057  0.968861  0.536840  1
  O  O17  1  0.958651  0.536192  0.959642  1
  O  O18  1  0.968861  0.536057  0.536840  1
  O  O19  1  0.536192  0.958651  0.959642  1
  O  O20  1  0.248607  0.248607  0.249434  1
  O  O21  1  0.001393  0.001393  0.000566  1
