# generated using pymatgen
data_HfZr7Fe5Si14Ni3
_symmetry_space_group_name_H-M   'P 1'
_cell_length_a   9.52729929
_cell_length_b   9.52646856
_cell_length_c   9.49255327
_cell_angle_alpha   94.12769510
_cell_angle_beta   94.04951775
_cell_angle_gamma   148.78893102
_symmetry_Int_Tables_number   1
_chemical_formula_structural   HfZr7Fe5Si14Ni3
_chemical_formula_sum   'Hf1 Zr7 Fe5 Si14 Ni3'
_cell_volume   430.48656880
_cell_formula_units_Z   1
loop_
 _symmetry_equiv_pos_site_id
 _symmetry_equiv_pos_as_xyz
  1  'x, y, z'
loop_
 _atom_site_type_symbol
 _atom_site_label
 _atom_site_symmetry_multiplicity
 _atom_site_fract_x
 _atom_site_fract_y
 _atom_site_fract_z
 _atom_site_occupancy
  Hf  Hf0  1  0.298976  0.495681  0.802834  1
  Zr  Zr1  1  0.135888  0.135910  0.276793  1
  Zr  Zr2  1  0.864397  0.864721  0.723534  1
  Zr  Zr3  1  0.862402  0.137833  0.999757  1
  Zr  Zr4  1  0.137803  0.861792  0.999854  1
  Zr  Zr5  1  0.505098  0.307683  0.802165  1
  Zr  Zr6  1  0.504255  0.700405  0.196403  1
  Zr  Zr7  1  0.691742  0.494598  0.197242  1
  Fe  Fe8  1  0.402186  0.903404  0.799898  1
  Fe  Fe9  1  0.095892  0.597808  0.199850  1
  Fe  Fe10  1  0.097158  0.903590  0.500198  1
  Fe  Fe11  1  0.401003  0.600568  0.500973  1
  Fe  Fe12  1  0.608381  0.391432  0.499921  1
  Si  Si13  1  0.472507  0.066576  0.587353  1
  Si  Si14  1  0.462419  0.870473  0.407815  1
  Si  Si15  1  0.933331  0.527609  0.412456  1
  Si  Si16  1  0.129423  0.537778  0.592060  1
  Si  Si17  1  0.748061  0.748437  0.999094  1
  Si  Si18  1  0.250964  0.251403  0.999492  1
  Si  Si19  1  0.300230  0.298609  0.579572  1
  Si  Si20  1  0.702051  0.700252  0.421282  1
  Si  Si21  1  0.710001  0.289323  0.999767  1
  Si  Si22  1  0.289485  0.709465  0.999626  1
  Si  Si23  1  0.013276  0.314094  0.300974  1
  Si  Si24  1  0.010430  0.710464  0.697327  1
  Si  Si25  1  0.686345  0.986429  0.700238  1
  Si  Si26  1  0.288883  0.989216  0.302404  1
  Ni  Ni27  1  0.895375  0.107307  0.501403  1
  Ni  Ni28  1  0.898143  0.395250  0.788568  1
  Ni  Ni29  1  0.603897  0.101894  0.211144  1
