# generated using pymatgen
data_Pu2C2Br
_symmetry_space_group_name_H-M   'P 1'
_cell_length_a   7.73286669
_cell_length_b   7.73286726
_cell_length_c   6.29178254
_cell_angle_alpha   98.86081683
_cell_angle_beta   98.86081578
_cell_angle_gamma   30.30728985
_symmetry_Int_Tables_number   1
_chemical_formula_structural   Pu2C2Br
_chemical_formula_sum   'Pu4 C4 Br2'
_cell_volume   187.42717635
_cell_formula_units_Z   2
loop_
 _symmetry_equiv_pos_site_id
 _symmetry_equiv_pos_as_xyz
  1  'x, y, z'
loop_
 _atom_site_type_symbol
 _atom_site_label
 _atom_site_symmetry_multiplicity
 _atom_site_fract_x
 _atom_site_fract_y
 _atom_site_fract_z
 _atom_site_occupancy
  Pu  Pu0  1  0.470902  0.837971  0.155592  1
  Pu  Pu1  1  0.162030  0.529098  0.344407  1
  Pu  Pu2  1  0.837971  0.470902  0.655593  1
  Pu  Pu3  1  0.529099  0.162030  0.844408  1
  C  C4  1  0.101569  0.344779  0.027531  1
  C  C5  1  0.655221  0.898432  0.472468  1
  C  C6  1  0.344779  0.101569  0.527532  1
  C  C7  1  0.898432  0.655221  0.972469  1
  Br  Br8  1  0.794376  0.205624  0.250000  1
  Br  Br9  1  0.205624  0.794376  0.750001  1
