# generated using pymatgen
data_Hf5NbCo2(Si3Ni)2
_symmetry_space_group_name_H-M   'P 1'
_cell_length_a   5.28981437
_cell_length_b   5.28981634
_cell_length_c   12.79399827
_cell_angle_alpha   89.72038811
_cell_angle_beta   90.27961292
_cell_angle_gamma   137.29857192
_symmetry_Int_Tables_number   1
_chemical_formula_structural   Hf5NbCo2(Si3Ni)2
_chemical_formula_sum   'Hf5 Nb1 Co2 Si6 Ni2'
_cell_volume   242.78678308
_cell_formula_units_Z   1
loop_
 _symmetry_equiv_pos_site_id
 _symmetry_equiv_pos_as_xyz
  1  'x, y, z'
loop_
 _atom_site_type_symbol
 _atom_site_label
 _atom_site_symmetry_multiplicity
 _atom_site_fract_x
 _atom_site_fract_y
 _atom_site_fract_z
 _atom_site_occupancy
  Hf  Hf0  1  0.865913  0.134087  0.750538  1
  Hf  Hf1  1  0.574562  0.425438  0.617419  1
  Hf  Hf2  1  0.427464  0.572536  0.379064  1
  Hf  Hf3  1  0.426331  0.573669  0.117762  1
  Hf  Hf4  1  0.575184  0.424816  0.884795  1
  Nb  Nb5  1  0.134876  0.865124  0.249769  1
  Co  Co6  1  0.278775  0.721225  0.921672  1
  Co  Co7  1  0.720751  0.279249  0.080012  1
  Si  Si8  1  0.828557  0.171443  0.246431  1
  Si  Si9  1  0.162892  0.837108  0.753189  1
  Si  Si10  1  0.890375  0.109625  0.538862  1
  Si  Si11  1  0.111805  0.888195  0.455571  1
  Si  Si12  1  0.111309  0.888691  0.047074  1
  Si  Si13  1  0.890203  0.109797  0.958494  1
  Ni  Ni14  1  0.718822  0.281178  0.411116  1
  Ni  Ni15  1  0.282183  0.717817  0.588233  1
