# generated using pymatgen
data_NdLu2Ni2Rh7
_symmetry_space_group_name_H-M   'P 1'
_cell_length_a   5.29230984
_cell_length_b   5.29231068
_cell_length_c   8.94305700
_cell_angle_alpha   72.78912980
_cell_angle_beta   72.78912700
_cell_angle_gamma   60.00000256
_symmetry_Int_Tables_number   1
_chemical_formula_structural   NdLu2Ni2Rh7
_chemical_formula_sum   'Nd1 Lu2 Ni2 Rh7'
_cell_volume   203.86984703
_cell_formula_units_Z   1
loop_
 _symmetry_equiv_pos_site_id
 _symmetry_equiv_pos_as_xyz
  1  'x, y, z'
loop_
 _atom_site_type_symbol
 _atom_site_label
 _atom_site_symmetry_multiplicity
 _atom_site_fract_x
 _atom_site_fract_y
 _atom_site_fract_z
 _atom_site_occupancy
  Nd  Nd0  1  0.000000  0.000000  0.000000  1
  Lu  Lu1  1  0.140203  0.140203  0.579394  1
  Lu  Lu2  1  0.859797  0.859797  0.420606  1
  Ni  Ni3  1  0.333403  0.333403  0.999792  1
  Ni  Ni4  1  0.666597  0.666597  0.000208  1
  Rh  Rh5  1  0.078571  0.582575  0.756280  1
  Rh  Rh6  1  0.582575  0.582575  0.756280  1
  Rh  Rh7  1  0.582575  0.078571  0.756280  1
  Rh  Rh8  1  0.921429  0.417425  0.243720  1
  Rh  Rh9  1  0.417425  0.417425  0.243720  1
  Rh  Rh10  1  0.417425  0.921429  0.243720  1
  Rh  Rh11  1  0.500000  0.500000  0.500000  1
