# generated using pymatgen
data_Ta7Tc2(B2Ru)4
_symmetry_space_group_name_H-M   'P 1'
_cell_length_a   9.53161259
_cell_length_b   9.54081416
_cell_length_c   3.17305200
_cell_angle_alpha   90.00000000
_cell_angle_beta   90.00000000
_cell_angle_gamma   119.85565151
_symmetry_Int_Tables_number   1
_chemical_formula_structural   Ta7Tc2(B2Ru)4
_chemical_formula_sum   'Ta7 Tc2 B8 Ru4'
_cell_volume   250.25888626
_cell_formula_units_Z   1
loop_
 _symmetry_equiv_pos_site_id
 _symmetry_equiv_pos_as_xyz
  1  'x, y, z'
loop_
 _atom_site_type_symbol
 _atom_site_label
 _atom_site_symmetry_multiplicity
 _atom_site_fract_x
 _atom_site_fract_y
 _atom_site_fract_z
 _atom_site_occupancy
  Ta  Ta0  1  0.000392  0.000078  0.000000  1
  Ta  Ta1  1  0.723023  0.637693  0.000000  1
  Ta  Ta2  1  0.363360  0.085951  0.000000  1
  Ta  Ta3  1  0.914623  0.276866  0.000000  1
  Ta  Ta4  1  0.277586  0.364299  0.000000  1
  Ta  Ta5  1  0.634244  0.913378  0.000000  1
  Ta  Ta6  1  0.087077  0.720796  0.000000  1
  Tc  Tc7  1  0.357397  0.846927  0.500000  1
  Tc  Tc8  1  0.153646  0.508631  0.500000  1
  B  B9  1  0.666989  0.334170  0.000000  1
  B  B10  1  0.331269  0.667445  0.000000  1
  B  B11  1  0.154895  0.934120  0.500000  1
  B  B12  1  0.065029  0.219618  0.500000  1
  B  B13  1  0.780938  0.846384  0.500000  1
  B  B14  1  0.845125  0.064439  0.500000  1
  B  B15  1  0.934664  0.780580  0.500000  1
  B  B16  1  0.218854  0.153869  0.500000  1
  Ru  Ru17  1  0.490424  0.642511  0.500000  1
  Ru  Ru18  1  0.644894  0.157918  0.500000  1
  Ru  Ru19  1  0.842579  0.487680  0.500000  1
  Ru  Ru20  1  0.512991  0.356648  0.500000  1
