# generated using pymatgen
data_NdHo(OsO3)6
_symmetry_space_group_name_H-M   'P 1'
_cell_length_a   7.43374300
_cell_length_b   5.26333222
_cell_length_c   8.22343836
_cell_angle_alpha   85.49053833
_cell_angle_beta   90.00000000
_cell_angle_gamma   90.00000000
_symmetry_Int_Tables_number   1
_chemical_formula_structural   NdHo(OsO3)6
_chemical_formula_sum   'Nd1 Ho1 Os6 O18'
_cell_volume   320.75635132
_cell_formula_units_Z   1
loop_
 _symmetry_equiv_pos_site_id
 _symmetry_equiv_pos_as_xyz
  1  'x, y, z'
loop_
 _atom_site_type_symbol
 _atom_site_label
 _atom_site_symmetry_multiplicity
 _atom_site_fract_x
 _atom_site_fract_y
 _atom_site_fract_z
 _atom_site_occupancy
  Nd  Nd0  1  0.250000  0.974341  0.427736  1
  Ho  Ho1  1  0.750000  0.033289  0.574355  1
  Os  Os2  1  0.497533  0.539787  0.692617  1
  Os  Os3  1  0.993354  0.464099  0.307464  1
  Os  Os4  1  0.500815  0.001986  0.998744  1
  Os  Os5  1  0.999185  0.001986  0.998744  1
  Os  Os6  1  0.002467  0.539787  0.692617  1
  Os  Os7  1  0.506646  0.464099  0.307464  1
  O  O8  1  0.750000  0.414113  0.689468  1
  O  O9  1  0.250000  0.570378  0.315770  1
  O  O10  1  0.750000  0.079876  0.014685  1
  O  O11  1  0.250000  0.917900  0.981076  1
  O  O12  1  0.250000  0.636473  0.674095  1
  O  O13  1  0.750000  0.336894  0.332125  1
  O  O14  1  0.029857  0.262290  0.529364  1
  O  O15  1  0.544512  0.736742  0.473048  1
  O  O16  1  0.565324  0.853821  0.786285  1
  O  O17  1  0.060895  0.155425  0.207146  1
  O  O18  1  0.439105  0.155425  0.207146  1
  O  O19  1  0.934676  0.853821  0.786285  1
  O  O20  1  0.038521  0.313389  0.877305  1
  O  O21  1  0.537313  0.690828  0.123373  1
  O  O22  1  0.962687  0.690828  0.123373  1
  O  O23  1  0.461479  0.313389  0.877305  1
  O  O24  1  0.470143  0.262290  0.529364  1
  O  O25  1  0.955488  0.736742  0.473048  1
