# generated using pymatgen
data_Dy5Sc(CdHg2)6
_symmetry_space_group_name_H-M   'P 1'
_cell_length_a   5.06212415
_cell_length_b   7.06584800
_cell_length_c   15.57449941
_cell_angle_alpha   90.00000000
_cell_angle_beta   90.02686360
_cell_angle_gamma   90.00000000
_symmetry_Int_Tables_number   1
_chemical_formula_structural   Dy5Sc(CdHg2)6
_chemical_formula_sum   'Dy5 Sc1 Cd6 Hg12'
_cell_volume   557.07174493
_cell_formula_units_Z   1
loop_
 _symmetry_equiv_pos_site_id
 _symmetry_equiv_pos_as_xyz
  1  'x, y, z'
loop_
 _atom_site_type_symbol
 _atom_site_label
 _atom_site_symmetry_multiplicity
 _atom_site_fract_x
 _atom_site_fract_y
 _atom_site_fract_z
 _atom_site_occupancy
  Dy  Dy0  1  0.000071  0.000000  0.998391  1
  Dy  Dy1  1  0.499647  0.500000  0.165251  1
  Dy  Dy2  1  0.999977  0.000000  0.333928  1
  Dy  Dy3  1  0.499979  0.500000  0.501426  1
  Dy  Dy4  1  0.000291  0.000000  0.667676  1
  Sc  Sc5  1  0.500102  0.500000  0.833218  1
  Cd  Cd6  1  0.000029  0.500000  0.999616  1
  Cd  Cd7  1  0.499892  0.000000  0.164607  1
  Cd  Cd8  1  0.999884  0.500000  0.334069  1
  Cd  Cd9  1  0.499989  0.000000  0.502020  1
  Cd  Cd10  1  0.000063  0.500000  0.666356  1
  Cd  Cd11  1  0.500104  0.000000  0.833400  1
  Hg  Hg12  1  0.500182  0.257596  0.995308  1
  Hg  Hg13  1  0.500182  0.742403  0.995308  1
  Hg  Hg14  1  0.999922  0.246668  0.166507  1
  Hg  Hg15  1  0.999922  0.753331  0.166507  1
  Hg  Hg16  1  0.499883  0.253110  0.333397  1
  Hg  Hg17  1  0.499883  0.746890  0.333397  1
  Hg  Hg18  1  0.999834  0.247151  0.500541  1
  Hg  Hg19  1  0.999834  0.752848  0.500541  1
  Hg  Hg20  1  0.500010  0.257345  0.671284  1
  Hg  Hg21  1  0.500010  0.742655  0.671284  1
  Hg  Hg22  1  0.000156  0.257294  0.832983  1
  Hg  Hg23  1  0.000156  0.742705  0.832983  1
