# generated using pymatgen
data_YEr3(TcB6)2
_symmetry_space_group_name_H-M   'P 1'
_cell_length_a   3.66720700
_cell_length_b   9.13114503
_cell_length_c   11.50920800
_cell_angle_alpha   89.99480425
_cell_angle_beta   90.00000000
_cell_angle_gamma   90.00000000
_symmetry_Int_Tables_number   1
_chemical_formula_structural   YEr3(TcB6)2
_chemical_formula_sum   'Y2 Er6 Tc4 B24'
_cell_volume   385.39502377
_cell_formula_units_Z   2
loop_
 _symmetry_equiv_pos_site_id
 _symmetry_equiv_pos_as_xyz
  1  'x, y, z'
loop_
 _atom_site_type_symbol
 _atom_site_label
 _atom_site_symmetry_multiplicity
 _atom_site_fract_x
 _atom_site_fract_y
 _atom_site_fract_z
 _atom_site_occupancy
  Y  Y0  1  0.500000  0.324020  0.414140  1
  Y  Y1  1  0.500000  0.675980  0.585860  1
  Er  Er2  1  0.500000  0.175607  0.914310  1
  Er  Er3  1  0.500000  0.824393  0.085690  1
  Er  Er4  1  0.500000  0.443216  0.130174  1
  Er  Er5  1  0.500000  0.556784  0.869826  1
  Er  Er6  1  0.500000  0.056696  0.630959  1
  Er  Er7  1  0.500000  0.943304  0.369041  1
  Tc  Tc8  1  0.500000  0.139077  0.179097  1
  Tc  Tc9  1  0.500000  0.860923  0.820903  1
  Tc  Tc10  1  0.500000  0.360123  0.680398  1
  Tc  Tc11  1  0.500000  0.639877  0.319602  1
  B  B12  1  0.000000  0.099188  0.472405  1
  B  B13  1  0.000000  0.900812  0.527595  1
  B  B14  1  0.000000  0.399474  0.972067  1
  B  B15  1  0.000000  0.600526  0.027933  1
  B  B16  1  0.000000  0.130846  0.314224  1
  B  B17  1  0.000000  0.869154  0.685776  1
  B  B18  1  0.000000  0.368449  0.815334  1
  B  B19  1  0.000000  0.631551  0.184666  1
  B  B20  1  0.000000  0.053342  0.066701  1
  B  B21  1  0.000000  0.946658  0.933299  1
  B  B22  1  0.000000  0.446188  0.567617  1
  B  B23  1  0.000000  0.553812  0.432383  1
  B  B24  1  0.000000  0.482749  0.287354  1
  B  B25  1  0.000000  0.517251  0.712646  1
  B  B26  1  0.000000  0.017870  0.788551  1
  B  B27  1  0.000000  0.982130  0.211449  1
  B  B28  1  0.000000  0.249467  0.080617  1
  B  B29  1  0.000000  0.750533  0.919383  1
  B  B30  1  0.000000  0.249973  0.581840  1
  B  B31  1  0.000000  0.750027  0.418160  1
  B  B32  1  0.000000  0.292596  0.233997  1
  B  B33  1  0.000000  0.707404  0.766003  1
  B  B34  1  0.000000  0.206918  0.735333  1
  B  B35  1  0.000000  0.793082  0.264667  1
