# generated using pymatgen
data_ErLu2(CuSi)4
_symmetry_space_group_name_H-M   'P 1'
_cell_length_a   4.08480814
_cell_length_b   6.50755000
_cell_length_c   7.74009096
_cell_angle_alpha   114.85855347
_cell_angle_beta   105.30001073
_cell_angle_gamma   90.00000191
_symmetry_Int_Tables_number   1
_chemical_formula_structural   ErLu2(CuSi)4
_chemical_formula_sum   'Er1 Lu2 Cu4 Si4'
_cell_volume   178.61611926
_cell_formula_units_Z   1
loop_
 _symmetry_equiv_pos_site_id
 _symmetry_equiv_pos_as_xyz
  1  'x, y, z'
loop_
 _atom_site_type_symbol
 _atom_site_label
 _atom_site_symmetry_multiplicity
 _atom_site_fract_x
 _atom_site_fract_y
 _atom_site_fract_z
 _atom_site_occupancy
  Er  Er0  1  0.000000  0.500000  0.000000  1
  Lu  Lu1  1  0.872409  0.872409  0.744819  1
  Lu  Lu2  1  0.127591  0.127591  0.255181  1
  Cu  Cu3  1  0.669976  0.862394  0.339951  1
  Cu  Cu4  1  0.669976  0.477557  0.339951  1
  Cu  Cu5  1  0.330024  0.522443  0.660049  1
  Cu  Cu6  1  0.330024  0.137606  0.660049  1
  Si  Si7  1  0.783187  0.283187  0.566375  1
  Si  Si8  1  0.216813  0.716813  0.433625  1
  Si  Si9  1  0.500000  0.185248  0.000000  1
  Si  Si10  1  0.500000  0.814752  0.000000  1
