# generated using pymatgen
data_CsYTa6Cl18
_symmetry_space_group_name_H-M   'P 1'
_cell_length_a   10.26463756
_cell_length_b   10.26463791
_cell_length_c   10.26463739
_cell_angle_alpha   56.04282176
_cell_angle_beta   56.04281832
_cell_angle_gamma   56.04282028
_symmetry_Int_Tables_number   1
_chemical_formula_structural   CsYTa6Cl18
_chemical_formula_sum   'Cs1 Y1 Ta6 Cl18'
_cell_volume   694.64839192
_cell_formula_units_Z   1
loop_
 _symmetry_equiv_pos_site_id
 _symmetry_equiv_pos_as_xyz
  1  'x, y, z'
loop_
 _atom_site_type_symbol
 _atom_site_label
 _atom_site_symmetry_multiplicity
 _atom_site_fract_x
 _atom_site_fract_y
 _atom_site_fract_z
 _atom_site_occupancy
  Cs  Cs0  1  0.224256  0.224256  0.224256  1
  Y  Y1  1  0.499076  0.499076  0.499076  1
  Ta  Ta2  1  0.810275  0.146064  0.906935  1
  Ta  Ta3  1  0.906935  0.810275  0.146064  1
  Ta  Ta4  1  0.146064  0.906935  0.810275  1
  Ta  Ta5  1  0.190674  0.854004  0.091890  1
  Ta  Ta6  1  0.091890  0.190674  0.854004  1
  Ta  Ta7  1  0.854004  0.091890  0.190674  1
  Cl  Cl8  1  0.880826  0.402255  0.718619  1
  Cl  Cl9  1  0.718619  0.880826  0.402255  1
  Cl  Cl10  1  0.402255  0.718619  0.880826  1
  Cl  Cl11  1  0.118327  0.597784  0.283198  1
  Cl  Cl12  1  0.283198  0.118327  0.597784  1
  Cl  Cl13  1  0.597784  0.283198  0.118327  1
  Cl  Cl14  1  0.553234  0.335770  0.790608  1
  Cl  Cl15  1  0.790608  0.553234  0.335770  1
  Cl  Cl16  1  0.335770  0.790608  0.553234  1
  Cl  Cl17  1  0.442163  0.666342  0.212402  1
  Cl  Cl18  1  0.212402  0.442163  0.666342  1
  Cl  Cl19  1  0.666342  0.212402  0.442163  1
  Cl  Cl20  1  0.663235  0.945971  0.062898  1
  Cl  Cl21  1  0.062898  0.663235  0.945971  1
  Cl  Cl22  1  0.945971  0.062898  0.663235  1
  Cl  Cl23  1  0.339961  0.051585  0.932786  1
  Cl  Cl24  1  0.932786  0.339961  0.051585  1
  Cl  Cl25  1  0.051585  0.932786  0.339961  1
