# generated using pymatgen
data_ThAl3Cr4Re5
_symmetry_space_group_name_H-M   'P 1'
_cell_length_a   4.82268986
_cell_length_b   6.83597682
_cell_length_c   6.83597847
_cell_angle_alpha   83.46866792
_cell_angle_beta   69.34481459
_cell_angle_gamma   69.34480174
_symmetry_Int_Tables_number   1
_chemical_formula_structural   ThAl3Cr4Re5
_chemical_formula_sum   'Th1 Al3 Cr4 Re5'
_cell_volume   197.31053526
_cell_formula_units_Z   1
loop_
 _symmetry_equiv_pos_site_id
 _symmetry_equiv_pos_as_xyz
  1  'x, y, z'
loop_
 _atom_site_type_symbol
 _atom_site_label
 _atom_site_symmetry_multiplicity
 _atom_site_fract_x
 _atom_site_fract_y
 _atom_site_fract_z
 _atom_site_occupancy
  Th  Th0  1  0.000000  0.997706  0.002294  1
  Al  Al1  1  0.500000  0.231334  0.768666  1
  Al  Al2  1  0.725542  0.773926  0.774988  1
  Al  Al3  1  0.274458  0.225012  0.226074  1
  Cr  Cr4  1  0.998765  0.999820  0.498719  1
  Cr  Cr5  1  0.502695  0.999820  0.498719  1
  Cr  Cr6  1  0.497305  0.501281  0.000180  1
  Cr  Cr7  1  0.001235  0.501281  0.000180  1
  Re  Re8  1  0.000000  0.361111  0.638889  1
  Re  Re9  1  0.000000  0.637626  0.362374  1
  Re  Re10  1  0.641708  0.355366  0.361218  1
  Re  Re11  1  0.358292  0.638782  0.644634  1
  Re  Re12  1  0.500000  0.776937  0.223063  1
