# generated using pymatgen
data_TbNb2B2Ru5
_symmetry_space_group_name_H-M   'P 1'
_cell_length_a   9.58527455
_cell_length_b   9.58527532
_cell_length_c   3.08915300
_cell_angle_alpha   90.00000000
_cell_angle_beta   90.00000000
_cell_angle_gamma   89.13384906
_symmetry_Int_Tables_number   1
_chemical_formula_structural   TbNb2B2Ru5
_chemical_formula_sum   'Tb2 Nb4 B4 Ru10'
_cell_volume   283.79121079
_cell_formula_units_Z   2
loop_
 _symmetry_equiv_pos_site_id
 _symmetry_equiv_pos_as_xyz
  1  'x, y, z'
loop_
 _atom_site_type_symbol
 _atom_site_label
 _atom_site_symmetry_multiplicity
 _atom_site_fract_x
 _atom_site_fract_y
 _atom_site_fract_z
 _atom_site_occupancy
  Tb  Tb0  1  0.176264  0.176264  0.000000  1
  Tb  Tb1  1  0.823736  0.823736  0.000000  1
  Nb  Nb2  1  0.500000  0.000000  0.000000  1
  Nb  Nb3  1  0.000000  0.500000  0.000000  1
  Nb  Nb4  1  0.675274  0.324726  0.000000  1
  Nb  Nb5  1  0.324726  0.675274  0.000000  1
  B  B6  1  0.379700  0.379700  0.000000  1
  B  B7  1  0.620300  0.620300  0.000000  1
  B  B8  1  0.878440  0.121560  0.000000  1
  B  B9  1  0.121560  0.878440  0.000000  1
  Ru  Ru10  1  0.500000  0.500000  0.500000  1
  Ru  Ru11  1  0.000000  0.000000  0.500000  1
  Ru  Ru12  1  0.440851  0.223283  0.500000  1
  Ru  Ru13  1  0.559149  0.776717  0.500000  1
  Ru  Ru14  1  0.918062  0.285261  0.500000  1
  Ru  Ru15  1  0.081938  0.714739  0.500000  1
  Ru  Ru16  1  0.714739  0.081938  0.500000  1
  Ru  Ru17  1  0.285261  0.918062  0.500000  1
  Ru  Ru18  1  0.776717  0.559149  0.500000  1
  Ru  Ru19  1  0.223283  0.440851  0.500000  1
