# generated using pymatgen
data_Cs12K5Rb(GaSb4)2
_symmetry_space_group_name_H-M   'P 1'
_cell_length_a   11.16445200
_cell_length_b   11.21664665
_cell_length_c   11.76530300
_cell_angle_alpha   90.00000000
_cell_angle_beta   90.00000000
_cell_angle_gamma   119.84613272
_symmetry_Int_Tables_number   1
_chemical_formula_structural   Cs12K5Rb(GaSb4)2
_chemical_formula_sum   'Cs12 K5 Rb1 Ga2 Sb8'
_cell_volume   1277.92531078
_cell_formula_units_Z   1
loop_
 _symmetry_equiv_pos_site_id
 _symmetry_equiv_pos_as_xyz
  1  'x, y, z'
loop_
 _atom_site_type_symbol
 _atom_site_label
 _atom_site_symmetry_multiplicity
 _atom_site_fract_x
 _atom_site_fract_y
 _atom_site_fract_z
 _atom_site_occupancy
  Cs  Cs0  1  0.208872  0.417742  0.541561  1
  Cs  Cs1  1  0.791130  0.208834  0.041650  1
  Cs  Cs2  1  0.417706  0.208836  0.041651  1
  Cs  Cs3  1  0.581841  0.791249  0.541140  1
  Cs  Cs4  1  0.209408  0.791249  0.541142  1
  Cs  Cs5  1  0.790818  0.581635  0.457474  1
  Cs  Cs6  1  0.791130  0.208834  0.458350  1
  Cs  Cs7  1  0.790818  0.581635  0.042526  1
  Cs  Cs8  1  0.417706  0.208836  0.458349  1
  Cs  Cs9  1  0.581841  0.791249  0.958860  1
  Cs  Cs10  1  0.208872  0.417742  0.958439  1
  Cs  Cs11  1  0.209408  0.791249  0.958858  1
  K  K12  1  0.119344  0.238701  0.250000  1
  K  K13  1  0.880862  0.120000  0.750000  1
  K  K14  1  0.239129  0.120000  0.750000  1
  K  K15  1  0.761652  0.880954  0.250000  1
  K  K16  1  0.119310  0.880958  0.250000  1
  Rb  Rb17  1  0.881350  0.762701  0.750000  1
  Ga  Ga18  1  0.333605  0.667210  0.250000  1
  Ga  Ga19  1  0.666442  0.332881  0.750000  1
  Sb  Sb20  1  0.472762  0.527980  0.250000  1
  Sb  Sb21  1  0.945134  0.468967  0.750000  1
  Sb  Sb22  1  0.527801  0.055601  0.750000  1
  Sb  Sb23  1  0.472044  0.944086  0.250000  1
  Sb  Sb24  1  0.055218  0.527980  0.250000  1
  Sb  Sb25  1  0.523833  0.468965  0.750000  1
  Sb  Sb26  1  0.000982  0.001963  0.002072  1
  Sb  Sb27  1  0.000982  0.001963  0.497928  1
