# generated using pymatgen
data_Y3Er13MgCo4Ag3
_symmetry_space_group_name_H-M   'P 1'
_cell_length_a   9.39243713
_cell_length_b   9.39740770
_cell_length_c   9.39301600
_cell_angle_alpha   59.99785824
_cell_angle_beta   59.92354343
_cell_angle_gamma   59.93473224
_symmetry_Int_Tables_number   1
_chemical_formula_structural   Y3Er13MgCo4Ag3
_chemical_formula_sum   'Y3 Er13 Mg1 Co4 Ag3'
_cell_volume   585.60315848
_cell_formula_units_Z   1
loop_
 _symmetry_equiv_pos_site_id
 _symmetry_equiv_pos_as_xyz
  1  'x, y, z'
loop_
 _atom_site_type_symbol
 _atom_site_label
 _atom_site_symmetry_multiplicity
 _atom_site_fract_x
 _atom_site_fract_y
 _atom_site_fract_z
 _atom_site_occupancy
  Y  Y0  1  0.936353  0.562031  0.939373  1
  Y  Y1  1  0.562172  0.564326  0.936546  1
  Y  Y2  1  0.935264  0.938801  0.562237  1
  Er  Er3  1  0.346112  0.344555  0.345840  1
  Er  Er4  1  0.346612  0.344568  0.963595  1
  Er  Er5  1  0.346416  0.963647  0.345337  1
  Er  Er6  1  0.952780  0.348772  0.349532  1
  Er  Er7  1  0.809446  0.188596  0.189696  1
  Er  Er8  1  0.186209  0.814596  0.813572  1
  Er  Er9  1  0.185814  0.813976  0.186571  1
  Er  Er10  1  0.810033  0.188812  0.812194  1
  Er  Er11  1  0.186270  0.185801  0.813668  1
  Er  Er12  1  0.809170  0.812342  0.189756  1
  Er  Er13  1  0.936509  0.561393  0.560119  1
  Er  Er14  1  0.560239  0.938914  0.938480  1
  Er  Er15  1  0.561778  0.938003  0.562447  1
  Mg  Mg16  1  0.289402  0.570228  0.570025  1
  Co  Co17  1  0.139060  0.142295  0.142238  1
  Co  Co18  1  0.138701  0.143030  0.576424  1
  Co  Co19  1  0.138157  0.576442  0.143278  1
  Co  Co20  1  0.575828  0.140874  0.141647  1
  Ag  Ag21  1  0.583128  0.582873  0.581849  1
  Ag  Ag22  1  0.582330  0.582979  0.252750  1
  Ag  Ag23  1  0.582215  0.252149  0.582825  1
