# generated using pymatgen
data_Sc6Zn22InAg
_symmetry_space_group_name_H-M   'P 1'
_cell_length_a   8.82826942
_cell_length_b   8.82826845
_cell_length_c   8.82826800
_cell_angle_alpha   60.00000170
_cell_angle_beta   60.00000532
_cell_angle_gamma   59.99999993
_symmetry_Int_Tables_number   1
_chemical_formula_structural   Sc6Zn22InAg
_chemical_formula_sum   'Sc6 Zn22 In1 Ag1'
_cell_volume   486.53226119
_cell_formula_units_Z   1
loop_
 _symmetry_equiv_pos_site_id
 _symmetry_equiv_pos_as_xyz
  1  'x, y, z'
loop_
 _atom_site_type_symbol
 _atom_site_label
 _atom_site_symmetry_multiplicity
 _atom_site_fract_x
 _atom_site_fract_y
 _atom_site_fract_z
 _atom_site_occupancy
  Sc  Sc0  1  0.731304  0.268696  0.268696  1
  Sc  Sc1  1  0.268696  0.731304  0.731304  1
  Sc  Sc2  1  0.268696  0.731304  0.268696  1
  Sc  Sc3  1  0.731304  0.268696  0.731304  1
  Sc  Sc4  1  0.268696  0.268696  0.731304  1
  Sc  Sc5  1  0.731304  0.731304  0.268696  1
  Zn  Zn6  1  0.129077  0.129077  0.129077  1
  Zn  Zn7  1  0.870923  0.870923  0.870923  1
  Zn  Zn8  1  0.129077  0.129077  0.612769  1
  Zn  Zn9  1  0.129077  0.612769  0.129077  1
  Zn  Zn10  1  0.870923  0.870923  0.387231  1
  Zn  Zn11  1  0.870923  0.387231  0.870923  1
  Zn  Zn12  1  0.612769  0.129077  0.129077  1
  Zn  Zn13  1  0.387231  0.870923  0.870923  1
  Zn  Zn14  1  0.500000  0.000000  0.000000  1
  Zn  Zn15  1  0.000000  0.500000  0.500000  1
  Zn  Zn16  1  0.000000  0.500000  0.000000  1
  Zn  Zn17  1  0.500000  0.000000  0.500000  1
  Zn  Zn18  1  0.000000  0.000000  0.500000  1
  Zn  Zn19  1  0.500000  0.500000  0.000000  1
  Zn  Zn20  1  0.346180  0.346180  0.346180  1
  Zn  Zn21  1  0.653820  0.653820  0.653820  1
  Zn  Zn22  1  0.346180  0.346180  0.961460  1
  Zn  Zn23  1  0.346180  0.961460  0.346180  1
  Zn  Zn24  1  0.653820  0.653820  0.038540  1
  Zn  Zn25  1  0.653820  0.038540  0.653820  1
  Zn  Zn26  1  0.961460  0.346180  0.346180  1
  Zn  Zn27  1  0.038540  0.653820  0.653820  1
  In  In28  1  0.500000  0.500000  0.500000  1
  Ag  Ag29  1  0.000000  0.000000  0.000000  1
