# generated using pymatgen
data_Lu4Al6ReRh
_symmetry_space_group_name_H-M   'P 1'
_cell_length_a   5.43799600
_cell_length_b   5.43799628
_cell_length_c   8.79061600
_cell_angle_alpha   90.00000000
_cell_angle_beta   90.00000000
_cell_angle_gamma   119.99999832
_symmetry_Int_Tables_number   1
_chemical_formula_structural   Lu4Al6ReRh
_chemical_formula_sum   'Lu4 Al6 Re1 Rh1'
_cell_volume   225.12707972
_cell_formula_units_Z   1
loop_
 _symmetry_equiv_pos_site_id
 _symmetry_equiv_pos_as_xyz
  1  'x, y, z'
loop_
 _atom_site_type_symbol
 _atom_site_label
 _atom_site_symmetry_multiplicity
 _atom_site_fract_x
 _atom_site_fract_y
 _atom_site_fract_z
 _atom_site_occupancy
  Lu  Lu0  1  0.666666  0.333333  0.053497  1
  Lu  Lu1  1  0.666666  0.333333  0.443836  1
  Lu  Lu2  1  0.333333  0.666666  0.556165  1
  Lu  Lu3  1  0.333333  0.666666  0.946503  1
  Al  Al4  1  0.163903  0.327806  0.247631  1
  Al  Al5  1  0.163904  0.836097  0.247631  1
  Al  Al6  1  0.672193  0.836097  0.247631  1
  Al  Al7  1  0.327806  0.163902  0.752369  1
  Al  Al8  1  0.836097  0.163902  0.752369  1
  Al  Al9  1  0.836097  0.672195  0.752369  1
  Re  Re10  1  0.000000  0.000000  0.500000  1
  Rh  Rh11  1  0.000000  0.000000  0.000000  1
