# generated using pymatgen
data_Hf9Re4Rh
_symmetry_space_group_name_H-M   'P 1'
_cell_length_a   8.54105200
_cell_length_b   8.62996434
_cell_length_c   8.62996803
_cell_angle_alpha   120.00196915
_cell_angle_beta   90.00000000
_cell_angle_gamma   90.00000000
_symmetry_Int_Tables_number   1
_chemical_formula_structural   Hf9Re4Rh
_chemical_formula_sum   'Hf18 Re8 Rh2'
_cell_volume   550.87310274
_cell_formula_units_Z   2
loop_
 _symmetry_equiv_pos_site_id
 _symmetry_equiv_pos_as_xyz
  1  'x, y, z'
loop_
 _atom_site_type_symbol
 _atom_site_label
 _atom_site_symmetry_multiplicity
 _atom_site_fract_x
 _atom_site_fract_y
 _atom_site_fract_z
 _atom_site_occupancy
  Hf  Hf0  1  0.554301  0.804077  0.608157  1
  Hf  Hf1  1  0.554286  0.804072  0.195924  1
  Hf  Hf2  1  0.554299  0.391836  0.195918  1
  Hf  Hf3  1  0.445699  0.195923  0.391843  1
  Hf  Hf4  1  0.445714  0.195928  0.804076  1
  Hf  Hf5  1  0.445701  0.608164  0.804082  1
  Hf  Hf6  1  0.054301  0.195923  0.391843  1
  Hf  Hf7  1  0.054286  0.195928  0.804076  1
  Hf  Hf8  1  0.054299  0.608164  0.804082  1
  Hf  Hf9  1  0.945699  0.804077  0.608157  1
  Hf  Hf10  1  0.945714  0.804072  0.195924  1
  Hf  Hf11  1  0.945701  0.391836  0.195918  1
  Hf  Hf12  1  0.750000  0.457333  0.914640  1
  Hf  Hf13  1  0.750000  0.457318  0.542687  1
  Hf  Hf14  1  0.750000  0.085361  0.542668  1
  Hf  Hf15  1  0.250000  0.542667  0.085360  1
  Hf  Hf16  1  0.250000  0.542682  0.457313  1
  Hf  Hf17  1  0.250000  0.914639  0.457332  1
  Re  Re18  1  0.750000  0.110264  0.220498  1
  Re  Re19  1  0.750000  0.110267  0.889744  1
  Re  Re20  1  0.750000  0.779502  0.889738  1
  Re  Re21  1  0.250000  0.889736  0.779502  1
  Re  Re22  1  0.250000  0.889733  0.110256  1
  Re  Re23  1  0.250000  0.220498  0.110262  1
  Re  Re24  1  0.500000  0.000000  0.000000  1
  Re  Re25  1  0.000000  0.000000  0.000000  1
  Rh  Rh26  1  0.750000  0.666684  0.333335  1
  Rh  Rh27  1  0.250000  0.333316  0.666665  1
