# generated using pymatgen
data_K4ScCrSi8(O10F)2
_symmetry_space_group_name_H-M   'P 1'
_cell_length_a   8.11330323
_cell_length_b   8.88472450
_cell_length_c   8.88472500
_cell_angle_alpha   102.03281408
_cell_angle_beta   117.16710085
_cell_angle_gamma   62.83289821
_symmetry_Int_Tables_number   1
_chemical_formula_structural   K4ScCrSi8(O10F)2
_chemical_formula_sum   'K4 Sc1 Cr1 Si8 O20 F2'
_cell_volume   506.93472068
_cell_formula_units_Z   1
loop_
 _symmetry_equiv_pos_site_id
 _symmetry_equiv_pos_as_xyz
  1  'x, y, z'
loop_
 _atom_site_type_symbol
 _atom_site_label
 _atom_site_symmetry_multiplicity
 _atom_site_fract_x
 _atom_site_fract_y
 _atom_site_fract_z
 _atom_site_occupancy
  K  K0  1  0.316427  0.366816  0.001328  1
  K  K1  1  0.683243  0.998672  0.366816  1
  K  K2  1  0.315101  0.001329  0.633185  1
  K  K3  1  0.681914  0.633185  0.998671  1
  Sc  Sc4  1  0.758350  0.000000  0.000000  1
  Cr  Cr5  1  0.248585  0.000000  0.000000  1
  Si  Si6  1  0.179955  0.321497  0.298196  1
  Si  Si7  1  0.796374  0.325645  0.303014  1
  Si  Si8  1  0.122021  0.696987  0.325646  1
  Si  Si9  1  0.501453  0.701805  0.321498  1
  Si  Si10  1  0.493362  0.303014  0.674354  1
  Si  Si11  1  0.881760  0.298196  0.678502  1
  Si  Si12  1  0.203256  0.678502  0.701804  1
  Si  Si13  1  0.819007  0.674354  0.696986  1
  O  O14  1  0.444014  0.817846  0.175656  1
  O  O15  1  0.916569  0.811756  0.179986  1
  O  O16  1  0.268358  0.175656  0.182153  1
  O  O17  1  0.736584  0.179986  0.188243  1
  O  O18  1  0.940716  0.374372  0.256368  1
  O  O19  1  0.188776  0.495685  0.270806  1
  O  O20  1  0.585390  0.500001  0.269595  1
  O  O21  1  0.315087  0.743632  0.374372  1
  O  O22  1  0.085392  0.730405  0.500001  1
  O  O23  1  0.684460  0.729194  0.495685  1
  O  O24  1  0.315796  0.269595  0.499999  1
  O  O25  1  0.917970  0.270806  0.504315  1
  O  O26  1  0.684347  0.256368  0.625628  1
  O  O27  1  0.413655  0.504315  0.729194  1
  O  O28  1  0.815797  0.499999  0.730405  1
  O  O29  1  0.058720  0.625628  0.743632  1
  O  O30  1  0.261860  0.824344  0.817846  1
  O  O31  1  0.728326  0.820014  0.811756  1
  O  O32  1  0.086205  0.182153  0.824344  1
  O  O33  1  0.548340  0.188243  0.820014  1
  F  F34  1  0.008060  0.000000  0.000000  1
  F  F35  1  0.494763  0.000000  0.000000  1
