# generated using pymatgen
data_TbHo7(AgRh)2
_symmetry_space_group_name_H-M   'P 1'
_cell_length_a   9.52018821
_cell_length_b   9.52018860
_cell_length_c   9.50144800
_cell_angle_alpha   60.06510345
_cell_angle_beta   60.06510210
_cell_angle_gamma   59.86980443
_symmetry_Int_Tables_number   1
_chemical_formula_structural   TbHo7(AgRh)2
_chemical_formula_sum   'Tb2 Ho14 Ag4 Rh4'
_cell_volume   608.92325170
_cell_formula_units_Z   2
loop_
 _symmetry_equiv_pos_site_id
 _symmetry_equiv_pos_as_xyz
  1  'x, y, z'
loop_
 _atom_site_type_symbol
 _atom_site_label
 _atom_site_symmetry_multiplicity
 _atom_site_fract_x
 _atom_site_fract_y
 _atom_site_fract_z
 _atom_site_occupancy
  Tb  Tb0  1  0.934913  0.934913  0.565087  1
  Tb  Tb1  1  0.565087  0.565087  0.934913  1
  Ho  Ho2  1  0.687980  0.687980  0.312020  1
  Ho  Ho3  1  0.147679  0.557396  0.147462  1
  Ho  Ho4  1  0.687390  0.312610  0.687390  1
  Ho  Ho5  1  0.147462  0.147462  0.147679  1
  Ho  Ho6  1  0.557396  0.147679  0.147462  1
  Ho  Ho7  1  0.687390  0.312610  0.312610  1
  Ho  Ho8  1  0.147462  0.147462  0.557396  1
  Ho  Ho9  1  0.312610  0.687390  0.312610  1
  Ho  Ho10  1  0.312610  0.687390  0.687390  1
  Ho  Ho11  1  0.935853  0.564147  0.564147  1
  Ho  Ho12  1  0.935853  0.564147  0.935853  1
  Ho  Ho13  1  0.564147  0.935853  0.564147  1
  Ho  Ho14  1  0.564147  0.935853  0.935853  1
  Ho  Ho15  1  0.312020  0.312020  0.687980  1
  Ag  Ag16  1  0.917899  0.917899  0.245610  1
  Ag  Ag17  1  0.245610  0.918591  0.917899  1
  Ag  Ag18  1  0.917899  0.917899  0.918591  1
  Ag  Ag19  1  0.918591  0.245610  0.917899  1
  Rh  Rh20  1  0.356411  0.356411  0.929527  1
  Rh  Rh21  1  0.357649  0.929527  0.356411  1
  Rh  Rh22  1  0.929527  0.357649  0.356411  1
  Rh  Rh23  1  0.356411  0.356411  0.357649  1
