# generated using pymatgen
data_SrLiPrWO6
_symmetry_space_group_name_H-M   'P 1'
_cell_length_a   5.85367500
_cell_length_b   5.63618833
_cell_length_c   9.68107913
_cell_angle_alpha   54.71372735
_cell_angle_beta   90.00000000
_cell_angle_gamma   90.00000000
_symmetry_Int_Tables_number   1
_chemical_formula_structural   SrLiPrWO6
_chemical_formula_sum   'Sr2 Li2 Pr2 W2 O12'
_cell_volume   260.72033635
_cell_formula_units_Z   2
loop_
 _symmetry_equiv_pos_site_id
 _symmetry_equiv_pos_as_xyz
  1  'x, y, z'
loop_
 _atom_site_type_symbol
 _atom_site_label
 _atom_site_symmetry_multiplicity
 _atom_site_fract_x
 _atom_site_fract_y
 _atom_site_fract_z
 _atom_site_occupancy
  Sr  Sr0  1  0.709097  0.255471  0.251361  1
  Sr  Sr1  1  0.290903  0.255471  0.751361  1
  Li  Li2  1  0.266910  0.500686  0.997595  1
  Li  Li3  1  0.733090  0.500686  0.497595  1
  Pr  Pr4  1  0.183534  0.734825  0.254484  1
  Pr  Pr5  1  0.816466  0.734825  0.754484  1
  W  W6  1  0.741035  0.000302  0.999694  1
  W  W7  1  0.258965  0.000302  0.499694  1
  O  O8  1  0.719177  0.138844  0.762209  1
  O  O9  1  0.459916  0.776955  0.050556  1
  O  O10  1  0.432857  0.334313  0.453624  1
  O  O11  1  0.940450  0.690210  0.034814  1
  O  O12  1  0.985044  0.239031  0.455321  1
  O  O13  1  0.222688  0.829364  0.740341  1
  O  O14  1  0.280823  0.138844  0.262209  1
  O  O15  1  0.540084  0.776955  0.550556  1
  O  O16  1  0.567143  0.334313  0.953624  1
  O  O17  1  0.059550  0.690210  0.534814  1
  O  O18  1  0.014956  0.239031  0.955321  1
  O  O19  1  0.777312  0.829364  0.240341  1
