# generated using pymatgen
data_TiV11As3P4
_symmetry_space_group_name_H-M   'P 1'
_cell_length_a   9.50415203
_cell_length_b   9.47507990
_cell_length_c   3.28872900
_cell_angle_alpha   90.00000000
_cell_angle_beta   90.00000000
_cell_angle_gamma   119.95184879
_symmetry_Int_Tables_number   1
_chemical_formula_structural   TiV11As3P4
_chemical_formula_sum   'Ti1 V11 As3 P4'
_cell_volume   256.60522304
_cell_formula_units_Z   1
loop_
 _symmetry_equiv_pos_site_id
 _symmetry_equiv_pos_as_xyz
  1  'x, y, z'
loop_
 _atom_site_type_symbol
 _atom_site_label
 _atom_site_symmetry_multiplicity
 _atom_site_fract_x
 _atom_site_fract_y
 _atom_site_fract_z
 _atom_site_occupancy
  Ti  Ti0  1  0.199692  0.998041  0.000000  1
  V  V1  1  0.118678  0.616628  0.000000  1
  V  V2  1  0.997720  0.194296  0.000000  1
  V  V3  1  0.497946  0.877814  0.000000  1
  V  V4  1  0.269977  0.252658  0.500000  1
  V  V5  1  0.376695  0.499878  0.000000  1
  V  V6  1  0.806968  0.808353  0.000000  1
  V  V7  1  0.627266  0.491586  0.500000  1
  V  V8  1  0.510807  0.136792  0.500000  1
  V  V9  1  0.979000  0.731123  0.500000  1
  V  V10  1  0.863272  0.374236  0.500000  1
  V  V11  1  0.752216  0.019958  0.500000  1
  As  As12  1  0.285237  0.838093  0.500000  1
  As  As13  1  0.155191  0.440840  0.500000  1
  As  As14  1  0.559024  0.715318  0.500000  1
  P  P15  1  0.464615  0.291217  0.000000  1
  P  P16  1  0.000341  0.002027  0.500000  1
  P  P17  1  0.825091  0.536774  0.000000  1
  P  P18  1  0.710260  0.174370  0.000000  1
