# generated using pymatgen
data_Tb5(CoTe)2
_symmetry_space_group_name_H-M   'P 1'
_cell_length_a   3.96885500
_cell_length_b   14.59367600
_cell_length_c   15.94624900
_cell_angle_alpha   90.00000000
_cell_angle_beta   90.00000000
_cell_angle_gamma   90.00000000
_symmetry_Int_Tables_number   1
_chemical_formula_structural   Tb5(CoTe)2
_chemical_formula_sum   'Tb20 Co8 Te8'
_cell_volume   923.60967557
_cell_formula_units_Z   4
loop_
 _symmetry_equiv_pos_site_id
 _symmetry_equiv_pos_as_xyz
  1  'x, y, z'
loop_
 _atom_site_type_symbol
 _atom_site_label
 _atom_site_symmetry_multiplicity
 _atom_site_fract_x
 _atom_site_fract_y
 _atom_site_fract_z
 _atom_site_occupancy
  Tb  Tb0  1  0.250000  0.151659  0.259895  1
  Tb  Tb1  1  0.250000  0.651659  0.240105  1
  Tb  Tb2  1  0.750000  0.848341  0.740105  1
  Tb  Tb3  1  0.750000  0.348341  0.759895  1
  Tb  Tb4  1  0.250000  0.886185  0.195044  1
  Tb  Tb5  1  0.250000  0.386185  0.304956  1
  Tb  Tb6  1  0.750000  0.113815  0.804956  1
  Tb  Tb7  1  0.750000  0.613815  0.695044  1
  Tb  Tb8  1  0.250000  0.882509  0.552887  1
  Tb  Tb9  1  0.250000  0.382509  0.947113  1
  Tb  Tb10  1  0.750000  0.117491  0.447113  1
  Tb  Tb11  1  0.750000  0.617491  0.052887  1
  Tb  Tb12  1  0.250000  0.210363  0.615438  1
  Tb  Tb13  1  0.250000  0.710363  0.884562  1
  Tb  Tb14  1  0.750000  0.789637  0.384562  1
  Tb  Tb15  1  0.750000  0.289637  0.115438  1
  Tb  Tb16  1  0.250000  0.134814  0.992548  1
  Tb  Tb17  1  0.250000  0.634814  0.507452  1
  Tb  Tb18  1  0.750000  0.865186  0.007452  1
  Tb  Tb19  1  0.750000  0.365186  0.492548  1
  Co  Co20  1  0.250000  0.739981  0.663649  1
  Co  Co21  1  0.250000  0.239981  0.836351  1
  Co  Co22  1  0.750000  0.260019  0.336351  1
  Co  Co23  1  0.750000  0.760019  0.163649  1
  Co  Co24  1  0.250000  0.249244  0.431352  1
  Co  Co25  1  0.250000  0.749244  0.068648  1
  Co  Co26  1  0.750000  0.750756  0.568648  1
  Co  Co27  1  0.750000  0.250756  0.931352  1
  Te  Te28  1  0.250000  0.966800  0.373198  1
  Te  Te29  1  0.250000  0.466800  0.126802  1
  Te  Te30  1  0.750000  0.033200  0.626802  1
  Te  Te31  1  0.750000  0.533200  0.873198  1
  Te  Te32  1  0.250000  0.950456  0.870679  1
  Te  Te33  1  0.250000  0.450456  0.629321  1
  Te  Te34  1  0.750000  0.049544  0.129321  1
  Te  Te35  1  0.750000  0.549544  0.370679  1
