# generated using pymatgen
data_Ba4Mn5Zn3(PO4)8
_symmetry_space_group_name_H-M   'P 1'
_cell_length_a   10.02031056
_cell_length_b   8.79869549
_cell_length_c   9.39133199
_cell_angle_alpha   88.48712866
_cell_angle_beta   90.22347615
_cell_angle_gamma   89.61433174
_symmetry_Int_Tables_number   1
_chemical_formula_structural   Ba4Mn5Zn3(PO4)8
_chemical_formula_sum   'Ba4 Mn5 Zn3 P8 O32'
_cell_volume   827.67873393
_cell_formula_units_Z   1
loop_
 _symmetry_equiv_pos_site_id
 _symmetry_equiv_pos_as_xyz
  1  'x, y, z'
loop_
 _atom_site_type_symbol
 _atom_site_label
 _atom_site_symmetry_multiplicity
 _atom_site_fract_x
 _atom_site_fract_y
 _atom_site_fract_z
 _atom_site_occupancy
  Ba  Ba0  1  0.919946  0.254854  0.606214  1
  Ba  Ba1  1  0.417303  0.745760  0.896948  1
  Ba  Ba2  1  0.079410  0.744400  0.392987  1
  Ba  Ba3  1  0.588201  0.255613  0.104947  1
  Mn  Mn4  1  0.679089  0.586405  0.447013  1
  Mn  Mn5  1  0.319673  0.416250  0.557189  1
  Mn  Mn6  1  0.574196  0.074990  0.705747  1
  Mn  Mn7  1  0.178803  0.414367  0.051927  1
  Mn  Mn8  1  0.425911  0.925995  0.294681  1
  Zn  Zn9  1  0.928033  0.074188  0.206884  1
  Zn  Zn10  1  0.072552  0.925235  0.792906  1
  Zn  Zn11  1  0.820717  0.585411  0.944716  1
  P  P12  1  0.592175  0.443821  0.749496  1
  P  P13  1  0.085634  0.564672  0.754496  1
  P  P14  1  0.911386  0.440491  0.243608  1
  P  P15  1  0.411656  0.555877  0.252334  1
  P  P16  1  0.708511  0.962705  0.421666  1
  P  P17  1  0.200954  0.041796  0.069842  1
  P  P18  1  0.291220  0.039155  0.579148  1
  P  P19  1  0.797990  0.951074  0.928702  1
  O  O20  1  0.426528  0.720834  0.191026  1
  O  O21  1  0.922132  0.273398  0.302453  1
  O  O22  1  0.576471  0.279323  0.811837  1
  O  O23  1  0.070574  0.729401  0.691844  1
  O  O24  1  0.653267  0.811033  0.482877  1
  O  O25  1  0.148552  0.194099  0.006873  1
  O  O26  1  0.345592  0.191733  0.518848  1
  O  O27  1  0.848359  0.796422  0.989606  1
  O  O28  1  0.695263  0.442968  0.627177  1
  O  O29  1  0.192928  0.560446  0.873600  1
  O  O30  1  0.306827  0.554997  0.373304  1
  O  O31  1  0.809023  0.448228  0.118981  1
  O  O32  1  0.705680  0.084150  0.539347  1
  O  O33  1  0.195040  0.917037  0.954517  1
  O  O34  1  0.293959  0.918319  0.460934  1
  O  O35  1  0.804705  0.073185  0.046409  1
  O  O36  1  0.868030  0.538232  0.372074  1
  O  O37  1  0.370319  0.454671  0.125810  1
  O  O38  1  0.126782  0.463234  0.627276  1
  O  O39  1  0.636189  0.546478  0.874321  1
  O  O40  1  0.889229  0.006677  0.802400  1
  O  O41  1  0.384617  0.981916  0.703253  1
  O  O42  1  0.110162  0.988840  0.197668  1
  O  O43  1  0.615347  0.019678  0.297270  1
  O  O44  1  0.951712  0.498068  0.810960  1
  O  O45  1  0.456790  0.510678  0.694917  1
  O  O46  1  0.047572  0.505605  0.194944  1
  O  O47  1  0.546283  0.489110  0.308501  1
  O  O48  1  0.650089  0.943320  0.877088  1
  O  O49  1  0.144357  0.057133  0.631710  1
  O  O50  1  0.348771  0.053280  0.121060  1
  O  O51  1  0.855490  0.944450  0.369662  1
