# generated using pymatgen
data_Gd2Hg3(SCl4)2
_symmetry_space_group_name_H-M   'P 1'
_cell_length_a   7.57605012
_cell_length_b   7.57605022
_cell_length_c   9.62400480
_cell_angle_alpha   64.92987791
_cell_angle_beta   64.92987649
_cell_angle_gamma   58.78735009
_symmetry_Int_Tables_number   1
_chemical_formula_structural   Gd2Hg3(SCl4)2
_chemical_formula_sum   'Gd2 Hg3 S2 Cl8'
_cell_volume   412.79381258
_cell_formula_units_Z   1
loop_
 _symmetry_equiv_pos_site_id
 _symmetry_equiv_pos_as_xyz
  1  'x, y, z'
loop_
 _atom_site_type_symbol
 _atom_site_label
 _atom_site_symmetry_multiplicity
 _atom_site_fract_x
 _atom_site_fract_y
 _atom_site_fract_z
 _atom_site_occupancy
  Gd  Gd0  1  0.136791  0.136791  0.552174  1
  Gd  Gd1  1  0.863209  0.863209  0.447826  1
  Hg  Hg2  1  0.000000  0.500000  0.000000  1
  Hg  Hg3  1  0.500000  0.000000  0.000000  1
  Hg  Hg4  1  0.500000  0.500000  0.000000  1
  S  S5  1  0.617987  0.617987  0.129103  1
  S  S6  1  0.382013  0.382013  0.870897  1
  Cl  Cl7  1  0.231243  0.768757  0.500000  1
  Cl  Cl8  1  0.768757  0.231243  0.500000  1
  Cl  Cl9  1  0.931091  0.472576  0.693710  1
  Cl  Cl10  1  0.472576  0.931091  0.693710  1
  Cl  Cl11  1  0.068909  0.527424  0.306290  1
  Cl  Cl12  1  0.527424  0.068909  0.306290  1
  Cl  Cl13  1  0.953916  0.953916  0.849484  1
  Cl  Cl14  1  0.046084  0.046084  0.150516  1
