# generated using pymatgen
data_Nd16Dy4Si15Os
_symmetry_space_group_name_H-M   'P 1'
_cell_length_a   7.62864529
_cell_length_b   7.96909246
_cell_length_c   15.06021000
_cell_angle_alpha   90.00000000
_cell_angle_beta   90.00000000
_cell_angle_gamma   89.85852818
_symmetry_Int_Tables_number   1
_chemical_formula_structural   Nd16Dy4Si15Os
_chemical_formula_sum   'Nd16 Dy4 Si15 Os1'
_cell_volume   915.55827415
_cell_formula_units_Z   1
loop_
 _symmetry_equiv_pos_site_id
 _symmetry_equiv_pos_as_xyz
  1  'x, y, z'
loop_
 _atom_site_type_symbol
 _atom_site_label
 _atom_site_symmetry_multiplicity
 _atom_site_fract_x
 _atom_site_fract_y
 _atom_site_fract_z
 _atom_site_occupancy
  Nd  Nd0  1  0.810322  0.321817  0.621890  1
  Nd  Nd1  1  0.463414  0.688529  0.900175  1
  Nd  Nd2  1  0.963989  0.814397  0.901682  1
  Nd  Nd3  1  0.198517  0.675539  0.127152  1
  Nd  Nd4  1  0.681742  0.814624  0.124551  1
  Nd  Nd5  1  0.310581  0.180602  0.876989  1
  Nd  Nd6  1  0.198517  0.675539  0.372848  1
  Nd  Nd7  1  0.035455  0.185581  0.099049  1
  Nd  Nd8  1  0.310581  0.180602  0.623011  1
  Nd  Nd9  1  0.530309  0.322651  0.400243  1
  Nd  Nd10  1  0.810322  0.321817  0.878110  1
  Nd  Nd11  1  0.963989  0.814397  0.598318  1
  Nd  Nd12  1  0.463414  0.688529  0.599825  1
  Nd  Nd13  1  0.035455  0.185581  0.400951  1
  Nd  Nd14  1  0.681742  0.814624  0.375449  1
  Nd  Nd15  1  0.530309  0.322651  0.099757  1
  Dy  Dy16  1  0.140793  0.518029  0.750000  1
  Dy  Dy17  1  0.845833  0.485291  0.250000  1
  Dy  Dy18  1  0.363529  0.015911  0.250000  1
  Dy  Dy19  1  0.639438  0.985046  0.750000  1
  Si  Si20  1  0.245666  0.365823  0.250000  1
  Si  Si21  1  0.868076  0.524877  0.458142  1
  Si  Si22  1  0.514533  0.404810  0.750000  1
  Si  Si23  1  0.635859  0.024924  0.958065  1
  Si  Si24  1  0.010829  0.097058  0.750000  1
  Si  Si25  1  0.756127  0.626032  0.750000  1
  Si  Si26  1  0.751415  0.122530  0.250000  1
  Si  Si27  1  0.359889  0.976483  0.458850  1
  Si  Si28  1  0.988069  0.904136  0.250000  1
  Si  Si29  1  0.359889  0.976483  0.041150  1
  Si  Si30  1  0.635859  0.024924  0.541935  1
  Si  Si31  1  0.141142  0.474870  0.959972  1
  Si  Si32  1  0.141142  0.474870  0.540028  1
  Si  Si33  1  0.868076  0.524877  0.041858  1
  Si  Si34  1  0.253382  0.874345  0.750000  1
  Os  Os35  1  0.491798  0.591198  0.250000  1
