# generated using pymatgen
data_Y3Ga5
_symmetry_space_group_name_H-M   'P 1'
_cell_length_a   6.12249100
_cell_length_b   9.66146300
_cell_length_c   11.63975300
_cell_angle_alpha   90.00000000
_cell_angle_beta   90.00000000
_cell_angle_gamma   90.00000000
_symmetry_Int_Tables_number   1
_chemical_formula_structural   Y3Ga5
_chemical_formula_sum   'Y12 Ga20'
_cell_volume   688.51723328
_cell_formula_units_Z   4
loop_
 _symmetry_equiv_pos_site_id
 _symmetry_equiv_pos_as_xyz
  1  'x, y, z'
loop_
 _atom_site_type_symbol
 _atom_site_label
 _atom_site_symmetry_multiplicity
 _atom_site_fract_x
 _atom_site_fract_y
 _atom_site_fract_z
 _atom_site_occupancy
  Y  Y0  1  0.849371  0.750000  0.075913  1
  Y  Y1  1  0.650629  0.750000  0.575913  1
  Y  Y2  1  0.150629  0.250000  0.924087  1
  Y  Y3  1  0.349371  0.250000  0.424087  1
  Y  Y4  1  0.890326  0.509087  0.351085  1
  Y  Y5  1  0.609674  0.990913  0.851085  1
  Y  Y6  1  0.109674  0.009087  0.648915  1
  Y  Y7  1  0.390326  0.490913  0.148915  1
  Y  Y8  1  0.109674  0.490913  0.648915  1
  Y  Y9  1  0.390326  0.009087  0.148915  1
  Y  Y10  1  0.890326  0.990913  0.351085  1
  Y  Y11  1  0.609674  0.509087  0.851085  1
  Ga  Ga12  1  0.875297  0.054608  0.090206  1
  Ga  Ga13  1  0.624703  0.445392  0.590206  1
  Ga  Ga14  1  0.124703  0.554608  0.909794  1
  Ga  Ga15  1  0.375297  0.945392  0.409794  1
  Ga  Ga16  1  0.124703  0.945392  0.909794  1
  Ga  Ga17  1  0.375297  0.554608  0.409794  1
  Ga  Ga18  1  0.875297  0.445392  0.090206  1
  Ga  Ga19  1  0.624703  0.054608  0.590206  1
  Ga  Ga20  1  0.173033  0.750000  0.253093  1
  Ga  Ga21  1  0.326967  0.750000  0.753093  1
  Ga  Ga22  1  0.826967  0.250000  0.746907  1
  Ga  Ga23  1  0.673033  0.250000  0.246907  1
  Ga  Ga24  1  0.373299  0.750000  0.003752  1
  Ga  Ga25  1  0.126701  0.750000  0.503752  1
  Ga  Ga26  1  0.626701  0.250000  0.996248  1
  Ga  Ga27  1  0.873299  0.250000  0.496248  1
  Ga  Ga28  1  0.601086  0.750000  0.299963  1
  Ga  Ga29  1  0.898914  0.750000  0.799963  1
  Ga  Ga30  1  0.398914  0.250000  0.700037  1
  Ga  Ga31  1  0.101086  0.250000  0.200037  1
