# generated using pymatgen
data_CeHo3InIr
_symmetry_space_group_name_H-M   'P 1'
_cell_length_a   9.65981459
_cell_length_b   9.65981417
_cell_length_c   9.65981400
_cell_angle_alpha   60.00000059
_cell_angle_beta   60.00000202
_cell_angle_gamma   59.99999597
_symmetry_Int_Tables_number   1
_chemical_formula_structural   CeHo3InIr
_chemical_formula_sum   'Ce4 Ho12 In4 Ir4'
_cell_volume   637.36956875
_cell_formula_units_Z   4
loop_
 _symmetry_equiv_pos_site_id
 _symmetry_equiv_pos_as_xyz
  1  'x, y, z'
loop_
 _atom_site_type_symbol
 _atom_site_label
 _atom_site_symmetry_multiplicity
 _atom_site_fract_x
 _atom_site_fract_y
 _atom_site_fract_z
 _atom_site_occupancy
  Ce  Ce0  1  0.598716  0.598716  0.598716  1
  Ce  Ce1  1  0.598716  0.598716  0.203852  1
  Ce  Ce2  1  0.598716  0.203852  0.598716  1
  Ce  Ce3  1  0.203852  0.598716  0.598716  1
  Ho  Ho4  1  0.061336  0.438664  0.438664  1
  Ho  Ho5  1  0.438664  0.061336  0.061336  1
  Ho  Ho6  1  0.438664  0.061336  0.438664  1
  Ho  Ho7  1  0.061336  0.438664  0.061336  1
  Ho  Ho8  1  0.438664  0.438664  0.061336  1
  Ho  Ho9  1  0.061336  0.061336  0.438664  1
  Ho  Ho10  1  0.189189  0.810811  0.810811  1
  Ho  Ho11  1  0.810811  0.189189  0.189189  1
  Ho  Ho12  1  0.810811  0.189189  0.810811  1
  Ho  Ho13  1  0.189189  0.810811  0.189189  1
  Ho  Ho14  1  0.810811  0.810811  0.189189  1
  Ho  Ho15  1  0.189189  0.189189  0.810811  1
  In  In16  1  0.834039  0.834039  0.834039  1
  In  In17  1  0.834039  0.834039  0.497884  1
  In  In18  1  0.834039  0.497884  0.834039  1
  In  In19  1  0.497884  0.834039  0.834039  1
  Ir  Ir20  1  0.392773  0.392773  0.392773  1
  Ir  Ir21  1  0.392773  0.392773  0.821679  1
  Ir  Ir22  1  0.392773  0.821679  0.392773  1
  Ir  Ir23  1  0.821679  0.392773  0.392773  1
