# generated using pymatgen
data_Lu10Ga4Bi3Te
_symmetry_space_group_name_H-M   'P 1'
_cell_length_a   8.54153127
_cell_length_b   8.54153179
_cell_length_c   7.86688513
_cell_angle_alpha   89.99047586
_cell_angle_beta   89.99047640
_cell_angle_gamma   125.23540535
_symmetry_Int_Tables_number   1
_chemical_formula_structural   Lu10Ga4Bi3Te
_chemical_formula_sum   'Lu10 Ga4 Bi3 Te1'
_cell_volume   468.79601818
_cell_formula_units_Z   1
loop_
 _symmetry_equiv_pos_site_id
 _symmetry_equiv_pos_as_xyz
  1  'x, y, z'
loop_
 _atom_site_type_symbol
 _atom_site_label
 _atom_site_symmetry_multiplicity
 _atom_site_fract_x
 _atom_site_fract_y
 _atom_site_fract_z
 _atom_site_occupancy
  Lu  Lu0  1  0.999424  0.000576  0.000000  1
  Lu  Lu1  1  0.501162  0.498838  0.500000  1
  Lu  Lu2  1  0.785028  0.540375  0.163350  1
  Lu  Lu3  1  0.459625  0.214972  0.836650  1
  Lu  Lu4  1  0.958143  0.712891  0.664984  1
  Lu  Lu5  1  0.287109  0.041857  0.335016  1
  Lu  Lu6  1  0.212774  0.458485  0.836207  1
  Lu  Lu7  1  0.541515  0.787226  0.163793  1
  Lu  Lu8  1  0.041228  0.287256  0.335229  1
  Lu  Lu9  1  0.712744  0.958772  0.664771  1
  Ga  Ga10  1  0.865056  0.865495  0.366497  1
  Ga  Ga11  1  0.134505  0.134944  0.633503  1
  Ga  Ga12  1  0.633588  0.635046  0.864757  1
  Ga  Ga13  1  0.364954  0.366412  0.135243  1
  Bi  Bi14  1  0.207867  0.792133  0.000000  1
  Bi  Bi15  1  0.708286  0.291714  0.500000  1
  Bi  Bi16  1  0.792531  0.207469  0.000000  1
  Te  Te17  1  0.294462  0.705538  0.500000  1
