# generated using pymatgen
data_Y6PdRh
_symmetry_space_group_name_H-M   'P 1'
_cell_length_a   6.44673154
_cell_length_b   7.13817014
_cell_length_c   9.59907300
_cell_angle_alpha   90.00000000
_cell_angle_beta   90.00000000
_cell_angle_gamma   90.17933085
_symmetry_Int_Tables_number   1
_chemical_formula_structural   Y6PdRh
_chemical_formula_sum   'Y12 Pd2 Rh2'
_cell_volume   441.72669706
_cell_formula_units_Z   2
loop_
 _symmetry_equiv_pos_site_id
 _symmetry_equiv_pos_as_xyz
  1  'x, y, z'
loop_
 _atom_site_type_symbol
 _atom_site_label
 _atom_site_symmetry_multiplicity
 _atom_site_fract_x
 _atom_site_fract_y
 _atom_site_fract_z
 _atom_site_occupancy
  Y  Y0  1  0.638315  0.024330  0.250000  1
  Y  Y1  1  0.361685  0.975670  0.750000  1
  Y  Y2  1  0.127766  0.463944  0.750000  1
  Y  Y3  1  0.872234  0.536056  0.250000  1
  Y  Y4  1  0.172798  0.179909  0.061721  1
  Y  Y5  1  0.827202  0.820091  0.938279  1
  Y  Y6  1  0.676143  0.316328  0.938155  1
  Y  Y7  1  0.827202  0.820091  0.561721  1
  Y  Y8  1  0.323857  0.683672  0.061845  1
  Y  Y9  1  0.172798  0.179909  0.438279  1
  Y  Y10  1  0.323857  0.683672  0.438155  1
  Y  Y11  1  0.676143  0.316328  0.561845  1
  Pd  Pd12  1  0.449744  0.388049  0.250000  1
  Pd  Pd13  1  0.550256  0.611951  0.750000  1
  Rh  Rh14  1  0.943889  0.113070  0.750000  1
  Rh  Rh15  1  0.056111  0.886930  0.250000  1
