# generated using pymatgen
data_Dy2Tm6Ti11Si16Au
_symmetry_space_group_name_H-M   'P 1'
_cell_length_a   7.03389191
_cell_length_b   7.03526324
_cell_length_c   12.83131288
_cell_angle_alpha   89.86331978
_cell_angle_beta   90.07653931
_cell_angle_gamma   89.64458370
_symmetry_Int_Tables_number   1
_chemical_formula_structural   Dy2Tm6Ti11Si16Au
_chemical_formula_sum   'Dy2 Tm6 Ti11 Si16 Au1'
_cell_volume   634.94652325
_cell_formula_units_Z   1
loop_
 _symmetry_equiv_pos_site_id
 _symmetry_equiv_pos_as_xyz
  1  'x, y, z'
loop_
 _atom_site_type_symbol
 _atom_site_label
 _atom_site_symmetry_multiplicity
 _atom_site_fract_x
 _atom_site_fract_y
 _atom_site_fract_z
 _atom_site_occupancy
  Dy  Dy0  1  0.498771  0.841885  0.714377  1
  Dy  Dy1  1  0.343471  0.999921  0.468475  1
  Tm  Tm2  1  0.997939  0.658852  0.033346  1
  Tm  Tm3  1  0.999144  0.343788  0.531309  1
  Tm  Tm4  1  0.659177  0.998004  0.966983  1
  Tm  Tm5  1  0.159142  0.501995  0.783337  1
  Tm  Tm6  1  0.842670  0.499314  0.285136  1
  Tm  Tm7  1  0.502298  0.159427  0.216780  1
  Ti  Ti8  1  0.348821  0.504734  0.376405  1
  Ti  Ti9  1  0.851882  0.993044  0.376880  1
  Ti  Ti10  1  0.007353  0.149691  0.125390  1
  Ti  Ti11  1  0.992650  0.851950  0.623004  1
  Ti  Ti12  1  0.505140  0.349120  0.623584  1
  Ti  Ti13  1  0.149523  0.007960  0.874924  1
  Ti  Ti14  1  0.825909  0.173945  0.749792  1
  Ti  Ti15  1  0.173358  0.825238  0.250193  1
  Ti  Ti16  1  0.327036  0.327235  0.000197  1
  Ti  Ti17  1  0.493022  0.648616  0.125597  1
  Ti  Ti18  1  0.649327  0.493079  0.874609  1
  Si  Si19  1  0.060365  0.712149  0.433825  1
  Si  Si20  1  0.952275  0.292480  0.935436  1
  Si  Si21  1  0.715161  0.063592  0.565916  1
  Si  Si22  1  0.207545  0.453408  0.185203  1
  Si  Si23  1  0.794386  0.544676  0.690292  1
  Si  Si24  1  0.452877  0.208802  0.815183  1
  Si  Si25  1  0.545950  0.792940  0.309275  1
  Si  Si26  1  0.292332  0.952299  0.064868  1
  Si  Si27  1  0.798064  0.866693  0.183763  1
  Si  Si28  1  0.278857  0.624590  0.571358  1
  Si  Si29  1  0.706006  0.367766  0.068030  1
  Si  Si30  1  0.628044  0.282124  0.428229  1
  Si  Si31  1  0.367815  0.705746  0.932472  1
  Si  Si32  1  0.132441  0.203089  0.316990  1
  Si  Si33  1  0.201111  0.134516  0.682825  1
  Si  Si34  1  0.868065  0.797518  0.816581  1
  Au  Au35  1  0.672073  0.669815  0.499432  1
