# generated using pymatgen
data_Zr8Cu3MoOs4
_symmetry_space_group_name_H-M   'P 1'
_cell_length_a   6.63387900
_cell_length_b   4.64589100
_cell_length_c   9.27840100
_cell_angle_alpha   90.00000000
_cell_angle_beta   89.99992840
_cell_angle_gamma   90.00000000
_symmetry_Int_Tables_number   1
_chemical_formula_structural   Zr8Cu3MoOs4
_chemical_formula_sum   'Zr8 Cu3 Mo1 Os4'
_cell_volume   285.96290509
_cell_formula_units_Z   1
loop_
 _symmetry_equiv_pos_site_id
 _symmetry_equiv_pos_as_xyz
  1  'x, y, z'
loop_
 _atom_site_type_symbol
 _atom_site_label
 _atom_site_symmetry_multiplicity
 _atom_site_fract_x
 _atom_site_fract_y
 _atom_site_fract_z
 _atom_site_occupancy
  Zr  Zr0  1  0.998533  0.750000  0.125274  1
  Zr  Zr1  1  0.501462  0.750000  0.125281  1
  Zr  Zr2  1  0.998831  0.250000  0.373284  1
  Zr  Zr3  1  0.501168  0.250000  0.373288  1
  Zr  Zr4  1  0.500313  0.750000  0.625373  1
  Zr  Zr5  1  0.999689  0.750000  0.625380  1
  Zr  Zr6  1  0.501424  0.250000  0.875921  1
  Zr  Zr7  1  0.998577  0.250000  0.875926  1
  Cu  Cu8  1  0.249982  0.750000  0.376401  1
  Cu  Cu9  1  0.750015  0.250000  0.623291  1
  Cu  Cu10  1  0.250016  0.750000  0.876602  1
  Mo  Mo11  1  0.749996  0.250000  0.124600  1
  Os  Os12  1  0.249998  0.250000  0.124482  1
  Os  Os13  1  0.750002  0.750000  0.380191  1
  Os  Os14  1  0.249997  0.250000  0.624648  1
  Os  Os15  1  0.749995  0.750000  0.870053  1
