# generated using pymatgen
data_CdFe4RuCl16
_symmetry_space_group_name_H-M   'P 1'
_cell_length_a   10.16476395
_cell_length_b   10.16476371
_cell_length_c   12.14264800
_cell_angle_alpha   56.08933895
_cell_angle_beta   56.08933985
_cell_angle_gamma   49.00850541
_symmetry_Int_Tables_number   1
_chemical_formula_structural   CdFe4RuCl16
_chemical_formula_sum   'Cd1 Fe4 Ru1 Cl16'
_cell_volume   748.10745267
_cell_formula_units_Z   1
loop_
 _symmetry_equiv_pos_site_id
 _symmetry_equiv_pos_as_xyz
  1  'x, y, z'
loop_
 _atom_site_type_symbol
 _atom_site_label
 _atom_site_symmetry_multiplicity
 _atom_site_fract_x
 _atom_site_fract_y
 _atom_site_fract_z
 _atom_site_occupancy
  Cd  Cd0  1  0.003776  0.996224  0.750000  1
  Fe  Fe1  1  0.152286  0.692981  0.513133  1
  Fe  Fe2  1  0.307019  0.847714  0.986867  1
  Fe  Fe3  1  0.847138  0.310770  0.467064  1
  Fe  Fe4  1  0.689230  0.152862  0.032936  1
  Ru  Ru5  1  0.017108  0.982892  0.250000  1
  Cl  Cl6  1  0.293221  0.407143  0.539668  1
  Cl  Cl7  1  0.592857  0.706779  0.960332  1
  Cl  Cl8  1  0.700853  0.600036  0.431922  1
  Cl  Cl9  1  0.399964  0.299147  0.068078  1
  Cl  Cl10  1  0.873304  0.852481  0.486705  1
  Cl  Cl11  1  0.147519  0.126696  0.013295  1
  Cl  Cl12  1  0.124317  0.171070  0.483196  1
  Cl  Cl13  1  0.828930  0.875683  0.016804  1
  Cl  Cl14  1  0.140610  0.699889  0.701021  1
  Cl  Cl15  1  0.300111  0.859390  0.798979  1
  Cl  Cl16  1  0.873718  0.264092  0.290930  1
  Cl  Cl17  1  0.735908  0.126282  0.209070  1
  Cl  Cl18  1  0.280053  0.851532  0.305566  1
  Cl  Cl19  1  0.148468  0.719947  0.194434  1
  Cl  Cl20  1  0.710184  0.166576  0.671031  1
  Cl  Cl21  1  0.833424  0.289816  0.828969  1
