# generated using pymatgen
data_Ti4W2C5
_symmetry_space_group_name_H-M   'P 1'
_cell_length_a   5.31899598
_cell_length_b   5.31899719
_cell_length_c   5.29982808
_cell_angle_alpha   80.51432548
_cell_angle_beta   80.51430488
_cell_angle_gamma   120.18788763
_symmetry_Int_Tables_number   1
_chemical_formula_structural   Ti4W2C5
_chemical_formula_sum   'Ti4 W2 C5'
_cell_volume   122.32142099
_cell_formula_units_Z   1
loop_
 _symmetry_equiv_pos_site_id
 _symmetry_equiv_pos_as_xyz
  1  'x, y, z'
loop_
 _atom_site_type_symbol
 _atom_site_label
 _atom_site_symmetry_multiplicity
 _atom_site_fract_x
 _atom_site_fract_y
 _atom_site_fract_z
 _atom_site_occupancy
  Ti  Ti0  1  0.735182  0.739402  0.735900  1
  Ti  Ti1  1  0.260598  0.264818  0.264100  1
  Ti  Ti2  1  0.085899  0.439356  0.745728  1
  Ti  Ti3  1  0.560644  0.914101  0.254272  1
  W  W4  1  0.912540  0.557824  0.253645  1
  W  W5  1  0.442176  0.087460  0.746355  1
  C  C6  1  0.499039  0.500961  0.500000  1
  C  C7  1  0.666567  0.333433  0.000000  1
  C  C8  1  0.334496  0.665504  0.000000  1
  C  C9  1  0.836011  0.163989  0.500000  1
  C  C10  1  0.166849  0.833151  0.500000  1
