# generated using pymatgen
data_Zr13Sn3(Rh2N)4
_symmetry_space_group_name_H-M   'P 1'
_cell_length_a   8.77064082
_cell_length_b   8.77064044
_cell_length_c   8.75630188
_cell_angle_alpha   59.94581224
_cell_angle_beta   59.94581826
_cell_angle_gamma   60.00000062
_symmetry_Int_Tables_number   1
_chemical_formula_structural   Zr13Sn3(Rh2N)4
_chemical_formula_sum   'Zr13 Sn3 Rh8 N4'
_cell_volume   475.89614737
_cell_formula_units_Z   1
loop_
 _symmetry_equiv_pos_site_id
 _symmetry_equiv_pos_as_xyz
  1  'x, y, z'
loop_
 _atom_site_type_symbol
 _atom_site_label
 _atom_site_symmetry_multiplicity
 _atom_site_fract_x
 _atom_site_fract_y
 _atom_site_fract_z
 _atom_site_occupancy
  Zr  Zr0  1  0.625000  0.625000  0.125000  1
  Zr  Zr1  1  0.813588  0.813588  0.189549  1
  Zr  Zr2  1  0.185354  0.185354  0.815822  1
  Zr  Zr3  1  0.813469  0.185354  0.815822  1
  Zr  Zr4  1  0.183274  0.813588  0.189549  1
  Zr  Zr5  1  0.185354  0.813469  0.815822  1
  Zr  Zr6  1  0.813588  0.183274  0.189549  1
  Zr  Zr7  1  0.436412  0.436412  0.060451  1
  Zr  Zr8  1  0.064646  0.064646  0.434178  1
  Zr  Zr9  1  0.436531  0.064646  0.434178  1
  Zr  Zr10  1  0.066726  0.436412  0.060451  1
  Zr  Zr11  1  0.064646  0.436531  0.434178  1
  Zr  Zr12  1  0.436412  0.066726  0.060451  1
  Sn  Sn13  1  0.125000  0.625000  0.625000  1
  Sn  Sn14  1  0.625000  0.125000  0.625000  1
  Sn  Sn15  1  0.625000  0.625000  0.625000  1
  Rh  Rh16  1  0.770651  0.414196  0.400957  1
  Rh  Rh17  1  0.414196  0.770651  0.400957  1
  Rh  Rh18  1  0.409133  0.409133  0.772601  1
  Rh  Rh19  1  0.414196  0.414196  0.400957  1
  Rh  Rh20  1  0.479349  0.835804  0.849043  1
  Rh  Rh21  1  0.835804  0.479349  0.849043  1
  Rh  Rh22  1  0.840867  0.840867  0.477399  1
  Rh  Rh23  1  0.835804  0.835804  0.849043  1
  N  N24  1  0.625000  0.125000  0.125000  1
  N  N25  1  0.125000  0.625000  0.125000  1
  N  N26  1  0.125000  0.125000  0.625000  1
  N  N27  1  0.125000  0.125000  0.125000  1
