# generated using pymatgen
data_Nd4Mn(Sb4Pt)2
_symmetry_space_group_name_H-M   'P 1'
_cell_length_a   10.99796642
_cell_length_b   10.99796697
_cell_length_c   10.99796694
_cell_angle_alpha   146.93133402
_cell_angle_beta   146.93134215
_cell_angle_gamma   47.46545683
_symmetry_Int_Tables_number   1
_chemical_formula_structural   Nd4Mn(Sb4Pt)2
_chemical_formula_sum   'Nd4 Mn1 Sb8 Pt2'
_cell_volume   394.51395901
_cell_formula_units_Z   1
loop_
 _symmetry_equiv_pos_site_id
 _symmetry_equiv_pos_as_xyz
  1  'x, y, z'
loop_
 _atom_site_type_symbol
 _atom_site_label
 _atom_site_symmetry_multiplicity
 _atom_site_fract_x
 _atom_site_fract_y
 _atom_site_fract_z
 _atom_site_occupancy
  Nd  Nd0  1  0.628782  0.126269  0.000000  1
  Nd  Nd1  1  0.126269  0.628782  0.000000  1
  Nd  Nd2  1  0.873731  0.873731  0.502513  1
  Nd  Nd3  1  0.371218  0.371218  0.497487  1
  Mn  Mn4  1  0.000000  0.000000  0.000000  1
  Sb  Sb5  1  0.249859  0.249859  0.000000  1
  Sb  Sb6  1  0.750141  0.750141  0.000000  1
  Sb  Sb7  1  0.250000  0.750000  0.500000  1
  Sb  Sb8  1  0.750000  0.250000  0.500000  1
  Sb  Sb9  1  0.333184  0.817277  0.000000  1
  Sb  Sb10  1  0.817277  0.333184  0.000000  1
  Sb  Sb11  1  0.182723  0.182723  0.515907  1
  Sb  Sb12  1  0.666816  0.666816  0.484093  1
  Pt  Pt13  1  0.500000  0.000000  0.500000  1
  Pt  Pt14  1  0.000000  0.500000  0.500000  1
