# generated using pymatgen
data_Li2Si4PdRu5
_symmetry_space_group_name_H-M   'P 1'
_cell_length_a   4.07340600
_cell_length_b   5.04557069
_cell_length_c   7.07218700
_cell_angle_alpha   89.78148253
_cell_angle_beta   90.00000000
_cell_angle_gamma   90.00000000
_symmetry_Int_Tables_number   1
_chemical_formula_structural   Li2Si4PdRu5
_chemical_formula_sum   'Li2 Si4 Pd1 Ru5'
_cell_volume   145.35118321
_cell_formula_units_Z   1
loop_
 _symmetry_equiv_pos_site_id
 _symmetry_equiv_pos_as_xyz
  1  'x, y, z'
loop_
 _atom_site_type_symbol
 _atom_site_label
 _atom_site_symmetry_multiplicity
 _atom_site_fract_x
 _atom_site_fract_y
 _atom_site_fract_z
 _atom_site_occupancy
  Li  Li0  1  0.750000  0.500027  0.750100  1
  Li  Li1  1  0.250000  0.499994  0.249913  1
  Si  Si2  1  0.250000  0.209258  0.925613  1
  Si  Si3  1  0.750000  0.805008  0.093200  1
  Si  Si4  1  0.250000  0.790722  0.574422  1
  Si  Si5  1  0.750000  0.194962  0.406777  1
  Pd  Pd6  1  0.750000  0.999990  0.750016  1
  Ru  Ru7  1  0.250000  0.000002  0.249982  1
  Ru  Ru8  1  0.250000  0.693727  0.911716  1
  Ru  Ru9  1  0.750000  0.324370  0.079147  1
  Ru  Ru10  1  0.250000  0.306308  0.588256  1
  Ru  Ru11  1  0.750000  0.675631  0.420860  1
