# generated using pymatgen
data_Y5(Cd2Pd)2
_symmetry_space_group_name_H-M   'P 1'
_cell_length_a   3.64288200
_cell_length_b   8.04202200
_cell_length_c   18.46029300
_cell_angle_alpha   90.00000000
_cell_angle_beta   90.00000000
_cell_angle_gamma   90.00000000
_symmetry_Int_Tables_number   1
_chemical_formula_structural   Y5(Cd2Pd)2
_chemical_formula_sum   'Y10 Cd8 Pd4'
_cell_volume   540.81527625
_cell_formula_units_Z   2
loop_
 _symmetry_equiv_pos_site_id
 _symmetry_equiv_pos_as_xyz
  1  'x, y, z'
loop_
 _atom_site_type_symbol
 _atom_site_label
 _atom_site_symmetry_multiplicity
 _atom_site_fract_x
 _atom_site_fract_y
 _atom_site_fract_z
 _atom_site_occupancy
  Y  Y0  1  0.500000  0.240574  0.782522  1
  Y  Y1  1  0.500000  0.759426  0.217478  1
  Y  Y2  1  0.500000  0.259426  0.282522  1
  Y  Y3  1  0.500000  0.740574  0.717478  1
  Y  Y4  1  0.500000  0.114599  0.583241  1
  Y  Y5  1  0.500000  0.885401  0.416759  1
  Y  Y6  1  0.500000  0.385401  0.083241  1
  Y  Y7  1  0.500000  0.614599  0.916759  1
  Y  Y8  1  0.500000  0.000000  0.000000  1
  Y  Y9  1  0.500000  0.500000  0.500000  1
  Cd  Cd10  1  0.000000  0.076039  0.149246  1
  Cd  Cd11  1  0.000000  0.923961  0.850754  1
  Cd  Cd12  1  0.000000  0.423961  0.649246  1
  Cd  Cd13  1  0.000000  0.576039  0.350754  1
  Cd  Cd14  1  0.000000  0.213572  0.432283  1
  Cd  Cd15  1  0.000000  0.786428  0.567717  1
  Cd  Cd16  1  0.000000  0.286428  0.932283  1
  Cd  Cd17  1  0.000000  0.713572  0.067717  1
  Pd  Pd18  1  0.000000  0.027613  0.695757  1
  Pd  Pd19  1  0.000000  0.972387  0.304243  1
  Pd  Pd20  1  0.000000  0.472387  0.195757  1
  Pd  Pd21  1  0.000000  0.527613  0.804243  1
