# generated using pymatgen
data_BaSrZr2(NiAs2)2
_symmetry_space_group_name_H-M   'P 1'
_cell_length_a   4.17448600
_cell_length_b   4.17448693
_cell_length_c   14.84474400
_cell_angle_alpha   90.00000000
_cell_angle_beta   90.00000000
_cell_angle_gamma   119.99999261
_symmetry_Int_Tables_number   1
_chemical_formula_structural   BaSrZr2(NiAs2)2
_chemical_formula_sum   'Ba1 Sr1 Zr2 Ni2 As4'
_cell_volume   224.03170871
_cell_formula_units_Z   1
loop_
 _symmetry_equiv_pos_site_id
 _symmetry_equiv_pos_as_xyz
  1  'x, y, z'
loop_
 _atom_site_type_symbol
 _atom_site_label
 _atom_site_symmetry_multiplicity
 _atom_site_fract_x
 _atom_site_fract_y
 _atom_site_fract_z
 _atom_site_occupancy
  Ba  Ba0  1  0.666667  0.333333  0.388932  1
  Sr  Sr1  1  0.333333  0.666667  0.890129  1
  Zr  Zr2  1  0.333333  0.666667  0.632205  1
  Zr  Zr3  1  0.666667  0.333333  0.119730  1
  Ni  Ni4  1  0.000000  0.000000  0.709481  1
  Ni  Ni5  1  0.000000  0.000000  0.196462  1
  As  As6  1  0.333333  0.666667  0.240088  1
  As  As7  1  0.000000  0.000000  0.028457  1
  As  As8  1  0.000000  0.000000  0.541183  1
  As  As9  1  0.666667  0.333333  0.753334  1
