# generated using pymatgen
data_CaYb(HfH5)2
_symmetry_space_group_name_H-M   'P 1'
_cell_length_a   3.37932100
_cell_length_b   5.06255803
_cell_length_c   13.74898600
_cell_angle_alpha   90.00595303
_cell_angle_beta   90.00000000
_cell_angle_gamma   90.00000000
_symmetry_Int_Tables_number   1
_chemical_formula_structural   CaYb(HfH5)2
_chemical_formula_sum   'Ca2 Yb2 Hf4 H20'
_cell_volume   235.21777022
_cell_formula_units_Z   2
loop_
 _symmetry_equiv_pos_site_id
 _symmetry_equiv_pos_as_xyz
  1  'x, y, z'
loop_
 _atom_site_type_symbol
 _atom_site_label
 _atom_site_symmetry_multiplicity
 _atom_site_fract_x
 _atom_site_fract_y
 _atom_site_fract_z
 _atom_site_occupancy
  Ca  Ca0  1  0.762050  0.499071  0.312421  1
  Ca  Ca1  1  0.262050  0.000929  0.687579  1
  Yb  Yb2  1  0.737900  0.501087  0.811564  1
  Yb  Yb3  1  0.237900  0.998913  0.188436  1
  Hf  Hf4  1  0.232177  0.002416  0.934141  1
  Hf  Hf5  1  0.732177  0.497584  0.065859  1
  Hf  Hf6  1  0.267937  0.997125  0.434138  1
  Hf  Hf7  1  0.767937  0.502875  0.565862  1
  H  H8  1  0.731804  0.756579  0.949261  1
  H  H9  1  0.231804  0.743421  0.050739  1
  H  H10  1  0.768285  0.241869  0.449927  1
  H  H11  1  0.268285  0.258131  0.550073  1
  H  H12  1  0.235977  0.756335  0.825358  1
  H  H13  1  0.735977  0.743665  0.174642  1
  H  H14  1  0.263987  0.242732  0.324829  1
  H  H15  1  0.763987  0.257268  0.675171  1
  H  H16  1  0.736029  0.253797  0.174996  1
  H  H17  1  0.236029  0.246203  0.825004  1
  H  H18  1  0.763965  0.745311  0.675605  1
  H  H19  1  0.263965  0.754689  0.324395  1
  H  H20  1  0.733843  0.001510  0.838147  1
  H  H21  1  0.233843  0.498490  0.161853  1
  H  H22  1  0.765975  0.998729  0.336700  1
  H  H23  1  0.265975  0.501271  0.663300  1
  H  H24  1  0.231710  0.253504  0.051106  1
  H  H25  1  0.731710  0.246496  0.948894  1
  H  H26  1  0.268361  0.744650  0.550269  1
  H  H27  1  0.768361  0.755350  0.449731  1
