# generated using pymatgen
data_EuZr(SnIr)2
_symmetry_space_group_name_H-M   'P 1'
_cell_length_a   7.47029900
_cell_length_b   7.47029900
_cell_length_c   7.98363600
_cell_angle_alpha   90.00000000
_cell_angle_beta   90.00000000
_cell_angle_gamma   119.99999556
_symmetry_Int_Tables_number   1
_chemical_formula_structural   EuZr(SnIr)2
_chemical_formula_sum   'Eu3 Zr3 Sn6 Ir6'
_cell_volume   385.84008882
_cell_formula_units_Z   3
loop_
 _symmetry_equiv_pos_site_id
 _symmetry_equiv_pos_as_xyz
  1  'x, y, z'
loop_
 _atom_site_type_symbol
 _atom_site_label
 _atom_site_symmetry_multiplicity
 _atom_site_fract_x
 _atom_site_fract_y
 _atom_site_fract_z
 _atom_site_occupancy
  Eu  Eu0  1  0.588474  0.588378  0.750000  1
  Eu  Eu1  1  0.999902  0.411526  0.750000  1
  Eu  Eu2  1  0.411622  0.000098  0.750000  1
  Zr  Zr3  1  0.392595  0.000157  0.250000  1
  Zr  Zr4  1  0.607564  0.607405  0.250000  1
  Zr  Zr5  1  0.999843  0.392436  0.250000  1
  Sn  Sn6  1  0.261992  0.262131  0.489793  1
  Sn  Sn7  1  0.261992  0.262131  0.010207  1
  Sn  Sn8  1  0.737869  0.999862  0.010207  1
  Sn  Sn9  1  0.000138  0.738008  0.489793  1
  Sn  Sn10  1  0.737869  0.999862  0.489793  1
  Sn  Sn11  1  0.000138  0.738008  0.010207  1
  Ir  Ir12  1  0.666667  0.333333  0.452677  1
  Ir  Ir13  1  0.666667  0.333333  0.047323  1
  Ir  Ir14  1  0.333333  0.666667  0.047554  1
  Ir  Ir15  1  0.333333  0.666667  0.452446  1
  Ir  Ir16  1  0.000000  0.000000  0.750000  1
  Ir  Ir17  1  0.000000  0.000000  0.250000  1
