# generated using pymatgen
data_CsLa5(CCl5)2
_symmetry_space_group_name_H-M   'P 1'
_cell_length_a   8.62313900
_cell_length_b   14.99707635
_cell_length_c   15.28833000
_cell_angle_alpha   90.00000000
_cell_angle_beta   90.00000000
_cell_angle_gamma   90.36741265
_symmetry_Int_Tables_number   1
_chemical_formula_structural   CsLa5(CCl5)2
_chemical_formula_sum   'Cs4 La20 C8 Cl40'
_cell_volume   1977.07483449
_cell_formula_units_Z   4
loop_
 _symmetry_equiv_pos_site_id
 _symmetry_equiv_pos_as_xyz
  1  'x, y, z'
loop_
 _atom_site_type_symbol
 _atom_site_label
 _atom_site_symmetry_multiplicity
 _atom_site_fract_x
 _atom_site_fract_y
 _atom_site_fract_z
 _atom_site_occupancy
  Cs  Cs0  1  0.753640  0.236264  0.545987  1
  Cs  Cs1  1  0.253640  0.736264  0.954013  1
  Cs  Cs2  1  0.246360  0.763736  0.454013  1
  Cs  Cs3  1  0.746360  0.263736  0.045987  1
  La  La4  1  0.650853  0.769338  0.755552  1
  La  La5  1  0.248043  0.415764  0.536962  1
  La  La6  1  0.251957  0.084236  0.036962  1
  La  La7  1  0.076634  0.540470  0.735431  1
  La  La8  1  0.751957  0.584236  0.463038  1
  La  La9  1  0.849147  0.730662  0.255552  1
  La  La10  1  0.250757  0.078252  0.439568  1
  La  La11  1  0.750757  0.578252  0.060432  1
  La  La12  1  0.523634  0.441023  0.740146  1
  La  La13  1  0.923366  0.459530  0.264569  1
  La  La14  1  0.476366  0.558977  0.259854  1
  La  La15  1  0.423366  0.959530  0.235431  1
  La  La16  1  0.023634  0.941023  0.759854  1
  La  La17  1  0.576634  0.040470  0.764569  1
  La  La18  1  0.749243  0.921748  0.560432  1
  La  La19  1  0.976366  0.058977  0.240146  1
  La  La20  1  0.150853  0.269338  0.744448  1
  La  La21  1  0.748043  0.915764  0.963038  1
  La  La22  1  0.249243  0.421748  0.939568  1
  La  La23  1  0.349147  0.230662  0.244448  1
  C  C24  1  0.749459  0.917721  0.712789  1
  C  C25  1  0.750541  0.582279  0.212789  1
  C  C26  1  0.751457  0.917739  0.809255  1
  C  C27  1  0.248543  0.082261  0.190745  1
  C  C28  1  0.748543  0.582261  0.309255  1
  C  C29  1  0.251457  0.417739  0.690745  1
  C  C30  1  0.249459  0.417721  0.787211  1
  C  C31  1  0.250541  0.082279  0.287211  1
  Cl  Cl32  1  0.133842  0.233931  0.558413  1
  Cl  Cl33  1  0.026519  0.562388  0.917571  1
  Cl  Cl34  1  0.113850  0.874305  0.270777  1
  Cl  Cl35  1  0.499799  0.755824  0.260585  1
  Cl  Cl36  1  0.579700  0.083930  0.947569  1
  Cl  Cl37  1  0.000201  0.744176  0.760585  1
  Cl  Cl38  1  0.866158  0.766069  0.441587  1
  Cl  Cl39  1  0.090868  0.936554  0.573635  1
  Cl  Cl40  1  0.573842  0.423742  0.556141  1
  Cl  Cl41  1  0.571188  0.762552  0.574684  1
  Cl  Cl42  1  0.071188  0.262552  0.925316  1
  Cl  Cl43  1  0.754245  0.912168  0.186396  1
  Cl  Cl44  1  0.500201  0.244176  0.739415  1
  Cl  Cl45  1  0.886150  0.125695  0.729223  1
  Cl  Cl46  1  0.366179  0.877720  0.768675  1
  Cl  Cl47  1  0.426158  0.576258  0.443859  1
  Cl  Cl48  1  0.613850  0.374305  0.229223  1
  Cl  Cl49  1  0.409132  0.563446  0.073635  1
  Cl  Cl50  1  0.745755  0.587832  0.686396  1
  Cl  Cl51  1  0.473481  0.937612  0.417571  1
  Cl  Cl52  1  0.920300  0.416070  0.447569  1
  Cl  Cl53  1  0.909132  0.063446  0.426365  1
  Cl  Cl54  1  0.928812  0.737448  0.074684  1
  Cl  Cl55  1  0.866179  0.377720  0.731325  1
  Cl  Cl56  1  0.245755  0.087832  0.813604  1
  Cl  Cl57  1  0.079700  0.583930  0.552431  1
  Cl  Cl58  1  0.973481  0.437612  0.082429  1
  Cl  Cl59  1  0.926158  0.076258  0.056141  1
  Cl  Cl60  1  0.633842  0.733931  0.941587  1
  Cl  Cl61  1  0.420300  0.916070  0.052431  1
  Cl  Cl62  1  0.428812  0.237448  0.425316  1
  Cl  Cl63  1  0.999799  0.255824  0.239415  1
  Cl  Cl64  1  0.366158  0.266069  0.058413  1
  Cl  Cl65  1  0.386150  0.625695  0.770777  1
  Cl  Cl66  1  0.526519  0.062388  0.582429  1
  Cl  Cl67  1  0.633821  0.122280  0.231325  1
  Cl  Cl68  1  0.254245  0.412168  0.313604  1
  Cl  Cl69  1  0.073842  0.923742  0.943859  1
  Cl  Cl70  1  0.133821  0.622280  0.268675  1
  Cl  Cl71  1  0.590868  0.436554  0.926365  1
