# generated using pymatgen
data_Rb8Mn3CrS4(O4F3)4
_symmetry_space_group_name_H-M   'P 1'
_cell_length_a   11.36641800
_cell_length_b   7.48220557
_cell_length_c   8.94543000
_cell_angle_alpha   86.77934547
_cell_angle_beta   90.00000000
_cell_angle_gamma   90.00000000
_symmetry_Int_Tables_number   1
_chemical_formula_structural   Rb8Mn3CrS4(O4F3)4
_chemical_formula_sum   'Rb8 Mn3 Cr1 S4 O16 F12'
_cell_volume   759.57035024
_cell_formula_units_Z   1
loop_
 _symmetry_equiv_pos_site_id
 _symmetry_equiv_pos_as_xyz
  1  'x, y, z'
loop_
 _atom_site_type_symbol
 _atom_site_label
 _atom_site_symmetry_multiplicity
 _atom_site_fract_x
 _atom_site_fract_y
 _atom_site_fract_z
 _atom_site_occupancy
  Rb  Rb0  1  0.189847  0.298262  0.670380  1
  Rb  Rb1  1  0.691878  0.698381  0.827503  1
  Rb  Rb2  1  0.810153  0.701738  0.329620  1
  Rb  Rb3  1  0.308122  0.301619  0.172497  1
  Rb  Rb4  1  0.307868  0.807321  0.829968  1
  Rb  Rb5  1  0.808591  0.189824  0.665045  1
  Rb  Rb6  1  0.692132  0.192679  0.170032  1
  Rb  Rb7  1  0.191409  0.810176  0.334955  1
  Mn  Mn8  1  0.000000  0.000000  0.000000  1
  Mn  Mn9  1  0.500000  0.500000  0.500000  1
  Mn  Mn10  1  0.000000  0.500000  0.000000  1
  Cr  Cr11  1  0.500000  0.000000  0.500000  1
  S  S12  1  0.499249  0.245210  0.796603  1
  S  S13  1  0.001168  0.748147  0.697205  1
  S  S14  1  0.500751  0.754790  0.203397  1
  S  S15  1  0.998832  0.251853  0.302795  1
  O  O16  1  0.403837  0.170451  0.891253  1
  O  O17  1  0.903279  0.821985  0.605763  1
  O  O18  1  0.596163  0.829549  0.108747  1
  O  O19  1  0.096721  0.178015  0.394237  1
  O  O20  1  0.596353  0.319265  0.881644  1
  O  O21  1  0.092927  0.664039  0.609214  1
  O  O22  1  0.403647  0.680735  0.118356  1
  O  O23  1  0.907073  0.335961  0.390786  1
  O  O24  1  0.443131  0.393237  0.694586  1
  O  O25  1  0.944663  0.605019  0.805673  1
  O  O26  1  0.556869  0.606763  0.305414  1
  O  O27  1  0.055337  0.394981  0.194327  1
  O  O28  1  0.055274  0.889291  0.788113  1
  O  O29  1  0.549625  0.104879  0.698555  1
  O  O30  1  0.944726  0.110709  0.211887  1
  O  O31  1  0.450375  0.895121  0.301445  1
  F  F32  1  0.342232  0.522018  0.442883  1
  F  F33  1  0.841225  0.479618  0.055580  1
  F  F34  1  0.657768  0.477982  0.557117  1
  F  F35  1  0.158775  0.520382  0.944420  1
  F  F36  1  0.159306  0.023391  0.045906  1
  F  F37  1  0.664632  0.978292  0.452736  1
  F  F38  1  0.840694  0.976609  0.954094  1
  F  F39  1  0.335368  0.021708  0.547264  1
  F  F40  1  0.001448  0.763205  0.101304  1
  F  F41  1  0.500937  0.239756  0.397513  1
  F  F42  1  0.998552  0.236795  0.898696  1
  F  F43  1  0.499063  0.760244  0.602487  1
