# generated using pymatgen
data_Pr11Dy(Si7Cl3)2
_symmetry_space_group_name_H-M   'P 1'
_cell_length_a   4.01628600
_cell_length_b   11.53894800
_cell_length_c   16.28674000
_cell_angle_alpha   90.00000000
_cell_angle_beta   90.00000000
_cell_angle_gamma   90.00000000
_symmetry_Int_Tables_number   1
_chemical_formula_structural   Pr11Dy(Si7Cl3)2
_chemical_formula_sum   'Pr11 Dy1 Si14 Cl6'
_cell_volume   754.78804184
_cell_formula_units_Z   1
loop_
 _symmetry_equiv_pos_site_id
 _symmetry_equiv_pos_as_xyz
  1  'x, y, z'
loop_
 _atom_site_type_symbol
 _atom_site_label
 _atom_site_symmetry_multiplicity
 _atom_site_fract_x
 _atom_site_fract_y
 _atom_site_fract_z
 _atom_site_occupancy
  Pr  Pr0  1  0.500000  0.333653  0.500000  1
  Pr  Pr1  1  0.000000  0.665922  0.000000  1
  Pr  Pr2  1  0.500000  0.354733  0.753468  1
  Pr  Pr3  1  0.000000  0.645908  0.742989  1
  Pr  Pr4  1  0.500000  0.354733  0.246532  1
  Pr  Pr5  1  0.000000  0.645908  0.257011  1
  Pr  Pr6  1  0.500000  0.054176  0.876851  1
  Pr  Pr7  1  0.000000  0.943029  0.621606  1
  Pr  Pr8  1  0.500000  0.054176  0.123149  1
  Pr  Pr9  1  0.000000  0.943029  0.378394  1
  Pr  Pr10  1  0.500000  0.352886  0.000000  1
  Dy  Dy11  1  0.000000  0.649917  0.500000  1
  Si  Si12  1  0.000000  0.143629  0.000000  1
  Si  Si13  1  0.500000  0.855296  0.500000  1
  Si  Si14  1  0.500000  0.570266  0.875806  1
  Si  Si15  1  0.000000  0.432798  0.621101  1
  Si  Si16  1  0.500000  0.570266  0.124194  1
  Si  Si17  1  0.000000  0.432798  0.378899  1
  Si  Si18  1  0.000000  0.248633  0.873262  1
  Si  Si19  1  0.500000  0.749793  0.624294  1
  Si  Si20  1  0.000000  0.248633  0.126738  1
  Si  Si21  1  0.500000  0.749793  0.375706  1
  Si  Si22  1  0.000000  0.457681  0.876212  1
  Si  Si23  1  0.500000  0.543799  0.618990  1
  Si  Si24  1  0.500000  0.543799  0.381010  1
  Si  Si25  1  0.000000  0.457681  0.123788  1
  Cl  Cl26  1  0.500000  0.107100  0.694542  1
  Cl  Cl27  1  0.000000  0.891722  0.804937  1
  Cl  Cl28  1  0.000000  0.137301  0.500000  1
  Cl  Cl29  1  0.500000  0.862121  0.000000  1
  Cl  Cl30  1  0.500000  0.107100  0.305458  1
  Cl  Cl31  1  0.000000  0.891722  0.195063  1
