# generated using pymatgen
data_LaNd2Cu7(Ni3B)2
_symmetry_space_group_name_H-M   'P 1'
_cell_length_a   5.15518745
_cell_length_b   5.15430536
_cell_length_c   11.00222001
_cell_angle_alpha   89.98950979
_cell_angle_beta   90.02096571
_cell_angle_gamma   120.00565491
_symmetry_Int_Tables_number   1
_chemical_formula_structural   LaNd2Cu7(Ni3B)2
_chemical_formula_sum   'La1 Nd2 Cu7 Ni6 B2'
_cell_volume   253.16332057
_cell_formula_units_Z   1
loop_
 _symmetry_equiv_pos_site_id
 _symmetry_equiv_pos_as_xyz
  1  'x, y, z'
loop_
 _atom_site_type_symbol
 _atom_site_label
 _atom_site_symmetry_multiplicity
 _atom_site_fract_x
 _atom_site_fract_y
 _atom_site_fract_z
 _atom_site_occupancy
  La  La0  1  0.999734  0.000000  0.683727  1
  Nd  Nd1  1  0.000064  0.000000  0.000279  1
  Nd  Nd2  1  0.000050  0.000000  0.316113  1
  Cu  Cu3  1  0.499995  0.000000  0.499444  1
  Cu  Cu4  1  0.499891  0.500017  0.499451  1
  Cu  Cu5  1  0.999874  0.499983  0.499451  1
  Cu  Cu6  1  0.333395  0.666650  0.313807  1
  Cu  Cu7  1  0.666746  0.333350  0.313807  1
  Cu  Cu8  1  0.666313  0.333356  0.686260  1
  Cu  Cu9  1  0.332957  0.666644  0.686260  1
  Ni  Ni10  1  0.500454  0.000000  0.127673  1
  Ni  Ni11  1  0.500321  0.499988  0.127363  1
  Ni  Ni12  1  0.000333  0.500012  0.127363  1
  Ni  Ni13  1  0.499813  0.000000  0.872870  1
  Ni  Ni14  1  0.499837  0.499945  0.872939  1
  Ni  Ni15  1  0.999892  0.500055  0.872939  1
  B  B16  1  0.333552  0.666872  0.000125  1
  B  B17  1  0.666679  0.333128  0.000125  1
