# generated using pymatgen
data_Th4Re16Si7Ge
_symmetry_space_group_name_H-M   'P 1'
_cell_length_a   4.17390400
_cell_length_b   7.29586353
_cell_length_c   15.72312916
_cell_angle_alpha   89.95626831
_cell_angle_beta   90.00000000
_cell_angle_gamma   90.00000000
_symmetry_Int_Tables_number   1
_chemical_formula_structural   Th4Re16Si7Ge
_chemical_formula_sum   'Th4 Re16 Si7 Ge1'
_cell_volume   478.80426810
_cell_formula_units_Z   1
loop_
 _symmetry_equiv_pos_site_id
 _symmetry_equiv_pos_as_xyz
  1  'x, y, z'
loop_
 _atom_site_type_symbol
 _atom_site_label
 _atom_site_symmetry_multiplicity
 _atom_site_fract_x
 _atom_site_fract_y
 _atom_site_fract_z
 _atom_site_occupancy
  Th  Th0  1  0.000000  0.586395  0.117233  1
  Th  Th1  1  0.000000  0.412576  0.882350  1
  Th  Th2  1  0.500000  0.091396  0.380835  1
  Th  Th3  1  0.500000  0.913959  0.619884  1
  Re  Re4  1  0.000000  0.141050  0.050778  1
  Re  Re5  1  0.000000  0.857297  0.949102  1
  Re  Re6  1  0.500000  0.636733  0.448141  1
  Re  Re7  1  0.500000  0.357640  0.551555  1
  Re  Re8  1  0.000000  0.735046  0.319480  1
  Re  Re9  1  0.000000  0.261583  0.679922  1
  Re  Re10  1  0.500000  0.237351  0.178455  1
  Re  Re11  1  0.500000  0.761829  0.821043  1
  Re  Re12  1  0.000000  0.428068  0.419509  1
  Re  Re13  1  0.000000  0.568739  0.580719  1
  Re  Re14  1  0.500000  0.928584  0.080038  1
  Re  Re15  1  0.500000  0.069744  0.920020  1
  Re  Re16  1  0.000000  0.998705  0.206347  1
  Re  Re17  1  0.000000  0.999358  0.793960  1
  Re  Re18  1  0.500000  0.499100  0.292669  1
  Re  Re19  1  0.500000  0.499676  0.706699  1
  Si  Si20  1  0.000000  0.177124  0.526877  1
  Si  Si21  1  0.500000  0.327649  0.025307  1
  Si  Si22  1  0.500000  0.671164  0.974322  1
  Si  Si23  1  0.000000  0.304764  0.272327  1
  Si  Si24  1  0.000000  0.694850  0.726807  1
  Si  Si25  1  0.500000  0.803922  0.226100  1
  Si  Si26  1  0.500000  0.195532  0.774137  1
  Ge  Ge27  1  0.000000  0.840167  0.475383  1
