# generated using pymatgen
data_Tm2Lu(InAu)3
_symmetry_space_group_name_H-M   'P 1'
_cell_length_a   7.72399957
_cell_length_b   7.72400033
_cell_length_c   3.92979400
_cell_angle_alpha   90.00000000
_cell_angle_beta   90.00000000
_cell_angle_gamma   119.95603433
_symmetry_Int_Tables_number   1
_chemical_formula_structural   Tm2Lu(InAu)3
_chemical_formula_sum   'Tm2 Lu1 In3 Au3'
_cell_volume   203.13145308
_cell_formula_units_Z   1
loop_
 _symmetry_equiv_pos_site_id
 _symmetry_equiv_pos_as_xyz
  1  'x, y, z'
loop_
 _atom_site_type_symbol
 _atom_site_label
 _atom_site_symmetry_multiplicity
 _atom_site_fract_x
 _atom_site_fract_y
 _atom_site_fract_z
 _atom_site_occupancy
  Tm  Tm0  1  0.403084  0.000149  0.500000  1
  Tm  Tm1  1  0.000149  0.403084  0.500000  1
  Lu  Lu2  1  0.596879  0.596879  0.500000  1
  In  In3  1  0.737503  0.999836  0.000000  1
  In  In4  1  0.999836  0.737503  0.000000  1
  In  In5  1  0.262647  0.262647  0.000000  1
  Au  Au6  1  0.333782  0.666451  0.000000  1
  Au  Au7  1  0.666451  0.333782  0.000000  1
  Au  Au8  1  0.999670  0.999670  0.500000  1
