# generated using pymatgen
data_TmTa(SnPt)2
_symmetry_space_group_name_H-M   'P 1'
_cell_length_a   6.41945400
_cell_length_b   4.52508500
_cell_length_c   9.06790800
_cell_angle_alpha   90.00000000
_cell_angle_beta   90.00000000
_cell_angle_gamma   90.00000000
_symmetry_Int_Tables_number   1
_chemical_formula_structural   TmTa(SnPt)2
_chemical_formula_sum   'Tm2 Ta2 Sn4 Pt4'
_cell_volume   263.40980566
_cell_formula_units_Z   2
loop_
 _symmetry_equiv_pos_site_id
 _symmetry_equiv_pos_as_xyz
  1  'x, y, z'
loop_
 _atom_site_type_symbol
 _atom_site_label
 _atom_site_symmetry_multiplicity
 _atom_site_fract_x
 _atom_site_fract_y
 _atom_site_fract_z
 _atom_site_occupancy
  Tm  Tm0  1  0.003241  0.000000  0.376321  1
  Tm  Tm1  1  0.503242  0.500001  0.623680  1
  Ta  Ta2  1  0.497489  0.500001  0.124136  1
  Ta  Ta3  1  0.997490  0.000000  0.875863  1
  Sn  Sn4  1  0.987568  0.500001  0.125873  1
  Sn  Sn5  1  0.509726  0.000000  0.373736  1
  Sn  Sn6  1  0.009726  0.500001  0.626266  1
  Sn  Sn7  1  0.487569  0.000000  0.874129  1
  Pt  Pt8  1  0.736707  0.000000  0.111679  1
  Pt  Pt9  1  0.265266  0.500001  0.358486  1
  Pt  Pt10  1  0.765267  0.000000  0.641515  1
  Pt  Pt11  1  0.236707  0.500001  0.888322  1
