# generated using pymatgen
data_CoTcB2W
_symmetry_space_group_name_H-M   'P 1'
_cell_length_a   4.51320181
_cell_length_b   4.51320304
_cell_length_c   4.51320205
_cell_angle_alpha   139.42781474
_cell_angle_beta   119.60961696
_cell_angle_gamma   75.30491973
_symmetry_Int_Tables_number   1
_chemical_formula_structural   CoTcB2W
_chemical_formula_sum   'Co1 Tc1 B2 W1'
_cell_volume   50.76662414
_cell_formula_units_Z   1
loop_
 _symmetry_equiv_pos_site_id
 _symmetry_equiv_pos_as_xyz
  1  'x, y, z'
loop_
 _atom_site_type_symbol
 _atom_site_label
 _atom_site_symmetry_multiplicity
 _atom_site_fract_x
 _atom_site_fract_y
 _atom_site_fract_z
 _atom_site_occupancy
  Co  Co0  1  0.000258  0.000258  0.000000  1
  Tc  Tc1  1  0.697348  0.197348  0.500000  1
  B  B2  1  0.705811  0.501425  0.204387  1
  B  B3  1  0.297038  0.501425  0.795613  1
  W  W4  1  0.299545  0.799545  0.500000  1
