# generated using pymatgen
data_Ho20Ir7Ru4Au
_symmetry_space_group_name_H-M   'P 1'
_cell_length_a   10.81413749
_cell_length_b   10.81413749
_cell_length_c   6.43020671
_cell_angle_alpha   90.09801362
_cell_angle_beta   90.09801362
_cell_angle_gamma   89.67100158
_symmetry_Int_Tables_number   1
_chemical_formula_structural   Ho20Ir7Ru4Au
_chemical_formula_sum   'Ho20 Ir7 Ru4 Au1'
_cell_volume   751.96960123
_cell_formula_units_Z   1
loop_
 _symmetry_equiv_pos_site_id
 _symmetry_equiv_pos_as_xyz
  1  'x, y, z'
loop_
 _atom_site_type_symbol
 _atom_site_label
 _atom_site_symmetry_multiplicity
 _atom_site_fract_x
 _atom_site_fract_y
 _atom_site_fract_z
 _atom_site_occupancy
  Ho  Ho0  1  0.292105  0.085850  0.377390  1
  Ho  Ho1  1  0.294825  0.913016  0.877522  1
  Ho  Ho2  1  0.701731  0.083330  0.864784  1
  Ho  Ho3  1  0.703677  0.906498  0.381409  1
  Ho  Ho4  1  0.586276  0.792772  0.878776  1
  Ho  Ho5  1  0.578168  0.207330  0.378620  1
  Ho  Ho6  1  0.412065  0.792771  0.378129  1
  Ho  Ho7  1  0.412492  0.206747  0.879303  1
  Ho  Ho8  1  0.207228  0.413724  0.621224  1
  Ho  Ho9  1  0.207229  0.587935  0.121871  1
  Ho  Ho10  1  0.792670  0.421832  0.121380  1
  Ho  Ho11  1  0.793253  0.587508  0.620697  1
  Ho  Ho12  1  0.914150  0.707895  0.122610  1
  Ho  Ho13  1  0.916670  0.298269  0.635216  1
  Ho  Ho14  1  0.086984  0.705175  0.622478  1
  Ho  Ho15  1  0.093502  0.296323  0.118591  1
  Ho  Ho16  1  0.003568  0.995813  0.503142  1
  Ho  Ho17  1  0.004187  0.996432  0.996858  1
  Ho  Ho18  1  0.499479  0.500362  0.999191  1
  Ho  Ho19  1  0.499638  0.500521  0.500809  1
  Ir  Ir20  1  0.848452  0.848988  0.750255  1
  Ir  Ir21  1  0.151012  0.151548  0.749745  1
  Ir  Ir22  1  0.153107  0.846893  0.250000  1
  Ir  Ir23  1  0.653568  0.346432  0.750000  1
  Ir  Ir24  1  0.652252  0.652079  0.249861  1
  Ir  Ir25  1  0.347921  0.347748  0.250139  1
  Ir  Ir26  1  0.347379  0.652621  0.750000  1
  Ru  Ru27  1  0.500647  0.999817  0.125031  1
  Ru  Ru28  1  0.499963  0.999553  0.622183  1
  Ru  Ru29  1  0.000447  0.500037  0.877817  1
  Ru  Ru30  1  0.000183  0.499353  0.374969  1
  Au  Au31  1  0.845170  0.154830  0.250000  1
