# generated using pymatgen
data_La4DyOs2
_symmetry_space_group_name_H-M   'P 1'
_cell_length_a   8.98432938
_cell_length_b   8.98433067
_cell_length_c   7.36129611
_cell_angle_alpha   84.92495914
_cell_angle_beta   84.92495059
_cell_angle_gamma   43.97325704
_symmetry_Int_Tables_number   1
_chemical_formula_structural   La4DyOs2
_chemical_formula_sum   'La8 Dy2 Os4'
_cell_volume   410.67820955
_cell_formula_units_Z   2
loop_
 _symmetry_equiv_pos_site_id
 _symmetry_equiv_pos_as_xyz
  1  'x, y, z'
loop_
 _atom_site_type_symbol
 _atom_site_label
 _atom_site_symmetry_multiplicity
 _atom_site_fract_x
 _atom_site_fract_y
 _atom_site_fract_z
 _atom_site_occupancy
  La  La0  1  0.202405  0.978113  0.589879  1
  La  La1  1  0.021887  0.797595  0.910121  1
  La  La2  1  0.209877  0.363335  0.315805  1
  La  La3  1  0.636665  0.790123  0.184195  1
  La  La4  1  0.790123  0.636665  0.684195  1
  La  La5  1  0.363335  0.209877  0.815805  1
  La  La6  1  0.978113  0.202405  0.089879  1
  La  La7  1  0.797595  0.021887  0.410121  1
  Dy  Dy8  1  0.566808  0.433192  0.750000  1
  Dy  Dy9  1  0.433192  0.566808  0.250000  1
  Os  Os10  1  0.180146  0.603141  0.575046  1
  Os  Os11  1  0.396859  0.819854  0.924954  1
  Os  Os12  1  0.819854  0.396859  0.424954  1
  Os  Os13  1  0.603141  0.180146  0.075046  1
