# generated using pymatgen
data_Ce3Pa7O20
_symmetry_space_group_name_H-M   'P 1'
_cell_length_a   6.70557146
_cell_length_b   7.75112923
_cell_length_c   8.64905511
_cell_angle_alpha   102.95795416
_cell_angle_beta   97.28328136
_cell_angle_gamma   106.83402571
_symmetry_Int_Tables_number   1
_chemical_formula_structural   Ce3Pa7O20
_chemical_formula_sum   'Ce3 Pa7 O20'
_cell_volume   410.36795894
_cell_formula_units_Z   1
loop_
 _symmetry_equiv_pos_site_id
 _symmetry_equiv_pos_as_xyz
  1  'x, y, z'
loop_
 _atom_site_type_symbol
 _atom_site_label
 _atom_site_symmetry_multiplicity
 _atom_site_fract_x
 _atom_site_fract_y
 _atom_site_fract_z
 _atom_site_occupancy
  Ce  Ce0  1  0.397451  0.298282  0.798881  1
  Ce  Ce1  1  0.200553  0.900802  0.400125  1
  Ce  Ce2  1  0.002026  0.000624  0.000859  1
  Pa  Pa3  1  0.800193  0.601044  0.601196  1
  Pa  Pa4  1  0.597962  0.198477  0.198500  1
  Pa  Pa5  1  0.999697  0.499909  0.000122  1
  Pa  Pa6  1  0.799477  0.100234  0.601436  1
  Pa  Pa7  1  0.401168  0.801183  0.800399  1
  Pa  Pa8  1  0.199622  0.399116  0.399696  1
  Pa  Pa9  1  0.601966  0.700312  0.198795  1
  O  O10  1  0.845024  0.326497  0.449126  1
  O  O11  1  0.643387  0.922678  0.051666  1
  O  O12  1  0.941867  0.763231  0.146757  1
  O  O13  1  0.451590  0.531231  0.644937  1
  O  O14  1  0.840247  0.821372  0.452209  1
  O  O15  1  0.653381  0.426432  0.056191  1
  O  O16  1  0.756314  0.379089  0.747053  1
  O  O17  1  0.261897  0.138809  0.254438  1
  O  O18  1  0.946912  0.282703  0.156245  1
  O  O19  1  0.460146  0.019437  0.651968  1
  O  O20  1  0.562205  0.977440  0.348030  1
  O  O21  1  0.051526  0.717438  0.845231  1
  O  O22  1  0.746420  0.869975  0.745194  1
  O  O23  1  0.349918  0.583498  0.953860  1
  O  O24  1  0.255157  0.616738  0.247057  1
  O  O25  1  0.553063  0.476667  0.350958  1
  O  O26  1  0.136242  0.180163  0.545546  1
  O  O27  1  0.038103  0.230705  0.848884  1
  O  O28  1  0.359902  0.068993  0.952165  1
  O  O29  1  0.146585  0.666918  0.552475  1
