# generated using pymatgen
data_Y2Cr2Co3P6Ir5
_symmetry_space_group_name_H-M   'P 1'
_cell_length_a   3.80970000
_cell_length_b   10.67754869
_cell_length_c   12.33062488
_cell_angle_alpha   90.00612062
_cell_angle_beta   90.00000000
_cell_angle_gamma   90.00000000
_symmetry_Int_Tables_number   1
_chemical_formula_structural   Y2Cr2Co3P6Ir5
_chemical_formula_sum   'Y4 Cr4 Co6 P12 Ir10'
_cell_volume   501.58832816
_cell_formula_units_Z   2
loop_
 _symmetry_equiv_pos_site_id
 _symmetry_equiv_pos_as_xyz
  1  'x, y, z'
loop_
 _atom_site_type_symbol
 _atom_site_label
 _atom_site_symmetry_multiplicity
 _atom_site_fract_x
 _atom_site_fract_y
 _atom_site_fract_z
 _atom_site_occupancy
  Y  Y0  1  0.250000  0.918933  0.212614  1
  Y  Y1  1  0.750000  0.081067  0.787386  1
  Y  Y2  1  0.750000  0.413804  0.290518  1
  Y  Y3  1  0.250000  0.586196  0.709482  1
  Cr  Cr4  1  0.250000  0.790967  0.489475  1
  Cr  Cr5  1  0.750000  0.209033  0.510525  1
  Cr  Cr6  1  0.750000  0.287432  0.014135  1
  Cr  Cr7  1  0.250000  0.712568  0.985865  1
  Co  Co8  1  0.750000  0.115403  0.306448  1
  Co  Co9  1  0.250000  0.884597  0.693552  1
  Co  Co10  1  0.250000  0.037253  0.434265  1
  Co  Co11  1  0.750000  0.962747  0.565735  1
  Co  Co12  1  0.750000  0.536154  0.064338  1
  Co  Co13  1  0.250000  0.463846  0.935662  1
  P  P14  1  0.250000  0.068895  0.608323  1
  P  P15  1  0.750000  0.931105  0.391677  1
  P  P16  1  0.750000  0.580252  0.893991  1
  P  P17  1  0.250000  0.419748  0.106009  1
  P  P18  1  0.250000  0.225390  0.371247  1
  P  P19  1  0.750000  0.774610  0.628753  1
  P  P20  1  0.750000  0.729857  0.128028  1
  P  P21  1  0.250000  0.270143  0.871972  1
  P  P22  1  0.250000  0.902391  0.880765  1
  P  P23  1  0.750000  0.097609  0.119235  1
  P  P24  1  0.750000  0.400945  0.611145  1
  P  P25  1  0.250000  0.599055  0.388855  1
  Ir  Ir26  1  0.250000  0.094315  0.980375  1
  Ir  Ir27  1  0.750000  0.905685  0.019625  1
  Ir  Ir28  1  0.750000  0.596416  0.517970  1
  Ir  Ir29  1  0.250000  0.403584  0.482030  1
  Ir  Ir30  1  0.250000  0.267042  0.677657  1
  Ir  Ir31  1  0.750000  0.732958  0.322343  1
  Ir  Ir32  1  0.750000  0.777594  0.819169  1
  Ir  Ir33  1  0.250000  0.222406  0.180831  1
  Ir  Ir34  1  0.250000  0.611662  0.196923  1
  Ir  Ir35  1  0.750000  0.388338  0.803077  1
