# generated using pymatgen
data_Lu4Th6Ge20Ir3Rh5
_symmetry_space_group_name_H-M   'P 1'
_cell_length_a   13.09591301
_cell_length_b   13.09519629
_cell_length_c   4.37550400
_cell_angle_alpha   90.00000000
_cell_angle_beta   90.00000000
_cell_angle_gamma   89.96418804
_symmetry_Int_Tables_number   1
_chemical_formula_structural   Lu4Th6Ge20Ir3Rh5
_chemical_formula_sum   'Lu4 Th6 Ge20 Ir3 Rh5'
_cell_volume   750.37057363
_cell_formula_units_Z   1
loop_
 _symmetry_equiv_pos_site_id
 _symmetry_equiv_pos_as_xyz
  1  'x, y, z'
loop_
 _atom_site_type_symbol
 _atom_site_label
 _atom_site_symmetry_multiplicity
 _atom_site_fract_x
 _atom_site_fract_y
 _atom_site_fract_z
 _atom_site_occupancy
  Lu  Lu0  1  0.325282  0.825257  0.500000  1
  Lu  Lu1  1  0.824997  0.674051  0.500000  1
  Lu  Lu2  1  0.174725  0.325585  0.500000  1
  Lu  Lu3  1  0.674155  0.175042  0.500000  1
  Th  Th4  1  0.500027  0.500376  0.000000  1
  Th  Th5  1  0.000081  0.999795  0.000000  1
  Th  Th6  1  0.886904  0.388245  0.500000  1
  Th  Th7  1  0.388251  0.112957  0.500000  1
  Th  Th8  1  0.612384  0.887471  0.500000  1
  Th  Th9  1  0.112940  0.611772  0.500000  1
  Ge  Ge10  1  0.432557  0.933112  0.000000  1
  Ge  Ge11  1  0.933718  0.568390  0.000000  1
  Ge  Ge12  1  0.066288  0.431674  0.000000  1
  Ge  Ge13  1  0.567960  0.066626  0.000000  1
  Ge  Ge14  1  0.336068  0.299843  0.000000  1
  Ge  Ge15  1  0.662810  0.700007  0.000000  1
  Ge  Ge16  1  0.700280  0.336231  0.000000  1
  Ge  Ge17  1  0.300247  0.663708  0.000000  1
  Ge  Ge18  1  0.800663  0.837564  0.000000  1
  Ge  Ge19  1  0.837745  0.199055  0.000000  1
  Ge  Ge20  1  0.162333  0.800815  0.000000  1
  Ge  Ge21  1  0.199081  0.162130  0.000000  1
  Ge  Ge22  1  0.338713  0.496168  0.500000  1
  Ge  Ge23  1  0.661305  0.503410  0.500000  1
  Ge  Ge24  1  0.503610  0.338934  0.500000  1
  Ge  Ge25  1  0.496731  0.662755  0.500000  1
  Ge  Ge26  1  0.996743  0.837293  0.500000  1
  Ge  Ge27  1  0.837464  0.003210  0.500000  1
  Ge  Ge28  1  0.003167  0.162503  0.500000  1
  Ge  Ge29  1  0.162636  0.996707  0.500000  1
  Ir  Ir30  1  0.254143  0.477046  0.000000  1
  Ir  Ir31  1  0.745753  0.523067  0.000000  1
  Ir  Ir32  1  0.523070  0.254792  0.000000  1
  Rh  Rh33  1  0.476973  0.744913  0.000000  1
  Rh  Rh34  1  0.976591  0.755725  0.000000  1
  Rh  Rh35  1  0.755537  0.023184  0.000000  1
  Rh  Rh36  1  0.244668  0.976302  0.000000  1
  Rh  Rh37  1  0.023401  0.244287  0.000000  1
