# generated using pymatgen
data_TbY3NiAg
_symmetry_space_group_name_H-M   'P 1'
_cell_length_a   9.48085364
_cell_length_b   9.48085416
_cell_length_c   9.48085300
_cell_angle_alpha   60.00000055
_cell_angle_beta   59.99999875
_cell_angle_gamma   59.99999895
_symmetry_Int_Tables_number   1
_chemical_formula_structural   TbY3NiAg
_chemical_formula_sum   'Tb4 Y12 Ni4 Ag4'
_cell_volume   602.59748902
_cell_formula_units_Z   4
loop_
 _symmetry_equiv_pos_site_id
 _symmetry_equiv_pos_as_xyz
  1  'x, y, z'
loop_
 _atom_site_type_symbol
 _atom_site_label
 _atom_site_symmetry_multiplicity
 _atom_site_fract_x
 _atom_site_fract_y
 _atom_site_fract_z
 _atom_site_occupancy
  Tb  Tb0  1  0.600391  0.600391  0.600391  1
  Tb  Tb1  1  0.600391  0.600391  0.198827  1
  Tb  Tb2  1  0.600391  0.198827  0.600391  1
  Tb  Tb3  1  0.198827  0.600391  0.600391  1
  Y  Y4  1  0.060980  0.439020  0.439020  1
  Y  Y5  1  0.439020  0.060980  0.060980  1
  Y  Y6  1  0.439020  0.060980  0.439020  1
  Y  Y7  1  0.060980  0.439020  0.060980  1
  Y  Y8  1  0.439020  0.439020  0.060980  1
  Y  Y9  1  0.060980  0.060980  0.439020  1
  Y  Y10  1  0.185515  0.814485  0.814485  1
  Y  Y11  1  0.814485  0.185515  0.185515  1
  Y  Y12  1  0.814485  0.185515  0.814485  1
  Y  Y13  1  0.185515  0.814485  0.185515  1
  Y  Y14  1  0.814485  0.814485  0.185515  1
  Y  Y15  1  0.185515  0.185515  0.814485  1
  Ni  Ni16  1  0.393485  0.393485  0.393485  1
  Ni  Ni17  1  0.393485  0.393485  0.819547  1
  Ni  Ni18  1  0.393485  0.819547  0.393485  1
  Ni  Ni19  1  0.819547  0.393485  0.393485  1
  Ag  Ag20  1  0.831399  0.831399  0.831399  1
  Ag  Ag21  1  0.831399  0.831399  0.505801  1
  Ag  Ag22  1  0.831399  0.505801  0.831399  1
  Ag  Ag23  1  0.505801  0.831399  0.831399  1
