# generated using pymatgen
data_YEr2Ga4Pd7
_symmetry_space_group_name_H-M   'P 1'
_cell_length_a   8.07867241
_cell_length_b   8.07867317
_cell_length_c   9.59223190
_cell_angle_alpha   56.26017114
_cell_angle_beta   56.26016971
_cell_angle_gamma   29.43132484
_symmetry_Int_Tables_number   1
_chemical_formula_structural   YEr2Ga4Pd7
_chemical_formula_sum   'Y1 Er2 Ga4 Pd7'
_cell_volume   251.84184917
_cell_formula_units_Z   1
loop_
 _symmetry_equiv_pos_site_id
 _symmetry_equiv_pos_as_xyz
  1  'x, y, z'
loop_
 _atom_site_type_symbol
 _atom_site_label
 _atom_site_symmetry_multiplicity
 _atom_site_fract_x
 _atom_site_fract_y
 _atom_site_fract_z
 _atom_site_occupancy
  Y  Y0  1  0.500000  0.500000  0.500000  1
  Er  Er1  1  0.827215  0.827215  0.167133  1
  Er  Er2  1  0.172785  0.172785  0.832867  1
  Ga  Ga3  1  0.389127  0.389127  0.332133  1
  Ga  Ga4  1  0.610873  0.610873  0.667867  1
  Ga  Ga5  1  0.837551  0.837551  0.764221  1
  Ga  Ga6  1  0.162449  0.162449  0.235779  1
  Pd  Pd7  1  0.665904  0.665904  0.073174  1
  Pd  Pd8  1  0.009334  0.009334  0.210266  1
  Pd  Pd9  1  0.990666  0.990666  0.789734  1
  Pd  Pd10  1  0.500000  0.500000  0.000000  1
  Pd  Pd11  1  0.192387  0.192387  0.466549  1
  Pd  Pd12  1  0.807613  0.807613  0.533451  1
  Pd  Pd13  1  0.334096  0.334096  0.926826  1
