# generated using pymatgen
data_Er4Th3Sn23Ru6
_symmetry_space_group_name_H-M   'P 1'
_cell_length_a   9.87848249
_cell_length_b   9.87848341
_cell_length_c   10.16560099
_cell_angle_alpha   90.28585258
_cell_angle_beta   89.71414815
_cell_angle_gamma   119.95981885
_symmetry_Int_Tables_number   1
_chemical_formula_structural   Er4Th3Sn23Ru6
_chemical_formula_sum   'Er4 Th3 Sn23 Ru6'
_cell_volume   859.43431653
_cell_formula_units_Z   1
loop_
 _symmetry_equiv_pos_site_id
 _symmetry_equiv_pos_as_xyz
  1  'x, y, z'
loop_
 _atom_site_type_symbol
 _atom_site_label
 _atom_site_symmetry_multiplicity
 _atom_site_fract_x
 _atom_site_fract_y
 _atom_site_fract_z
 _atom_site_occupancy
  Er  Er0  1  0.484481  0.967094  0.302986  1
  Er  Er1  1  0.515519  0.032906  0.697014  1
  Er  Er2  1  0.032906  0.515519  0.302986  1
  Er  Er3  1  0.967094  0.484481  0.697014  1
  Th  Th4  1  0.483439  0.516561  0.305241  1
  Th  Th5  1  0.516561  0.483439  0.694759  1
  Th  Th6  1  0.000000  0.000000  0.000000  1
  Sn  Sn7  1  0.120236  0.879764  0.275667  1
  Sn  Sn8  1  0.879764  0.120236  0.724333  1
  Sn  Sn9  1  0.114152  0.234540  0.277655  1
  Sn  Sn10  1  0.885848  0.765460  0.722345  1
  Sn  Sn11  1  0.765460  0.885848  0.277655  1
  Sn  Sn12  1  0.234540  0.114152  0.722345  1
  Sn  Sn13  1  0.781085  0.218915  0.459578  1
  Sn  Sn14  1  0.218915  0.781085  0.540422  1
  Sn  Sn15  1  0.788672  0.562668  0.460279  1
  Sn  Sn16  1  0.211328  0.437332  0.539721  1
  Sn  Sn17  1  0.437332  0.211328  0.460279  1
  Sn  Sn18  1  0.562668  0.788672  0.539721  1
  Sn  Sn19  1  0.350593  0.999954  0.000161  1
  Sn  Sn20  1  0.649407  0.000046  0.999839  1
  Sn  Sn21  1  0.999954  0.350593  0.999839  1
  Sn  Sn22  1  0.000046  0.649407  0.000161  1
  Sn  Sn23  1  0.650365  0.650365  0.000000  1
  Sn  Sn24  1  0.349635  0.349635  0.000000  1
  Sn  Sn25  1  0.330064  0.669936  0.122363  1
  Sn  Sn26  1  0.669936  0.330064  0.877637  1
  Sn  Sn27  1  0.331766  0.668234  0.823638  1
  Sn  Sn28  1  0.668234  0.331766  0.176362  1
  Sn  Sn29  1  0.000000  0.000000  0.500000  1
  Ru  Ru30  1  0.830299  0.169701  0.199659  1
  Ru  Ru31  1  0.169701  0.830299  0.800341  1
  Ru  Ru32  1  0.829092  0.661480  0.200467  1
  Ru  Ru33  1  0.170908  0.338520  0.799533  1
  Ru  Ru34  1  0.338520  0.170908  0.200467  1
  Ru  Ru35  1  0.661480  0.829092  0.799533  1
