# generated using pymatgen
data_Tm2Lu2MnAl3B16
_symmetry_space_group_name_H-M   'P 1'
_cell_length_a   3.46393200
_cell_length_b   5.90514276
_cell_length_c   11.41911279
_cell_angle_alpha   90.18088099
_cell_angle_beta   90.00000000
_cell_angle_gamma   90.00000000
_symmetry_Int_Tables_number   1
_chemical_formula_structural   Tm2Lu2MnAl3B16
_chemical_formula_sum   'Tm2 Lu2 Mn1 Al3 B16'
_cell_volume   233.57693636
_cell_formula_units_Z   1
loop_
 _symmetry_equiv_pos_site_id
 _symmetry_equiv_pos_as_xyz
  1  'x, y, z'
loop_
 _atom_site_type_symbol
 _atom_site_label
 _atom_site_symmetry_multiplicity
 _atom_site_fract_x
 _atom_site_fract_y
 _atom_site_fract_z
 _atom_site_occupancy
  Tm  Tm0  1  0.000000  0.370438  0.657345  1
  Tm  Tm1  1  0.000000  0.628289  0.347406  1
  Lu  Lu2  1  0.000000  0.875502  0.851830  1
  Lu  Lu3  1  0.000000  0.129516  0.144485  1
  Mn  Mn4  1  0.000000  0.372436  0.917442  1
  Al  Al5  1  0.000000  0.632942  0.082907  1
  Al  Al6  1  0.000000  0.860857  0.593173  1
  Al  Al7  1  0.000000  0.137812  0.409752  1
  B  B8  1  0.500000  0.026115  0.693986  1
  B  B9  1  0.500000  0.973592  0.305561  1
  B  B10  1  0.500000  0.518846  0.809083  1
  B  B11  1  0.500000  0.474982  0.192672  1
  B  B12  1  0.500000  0.114165  0.547824  1
  B  B13  1  0.500000  0.885725  0.452361  1
  B  B14  1  0.500000  0.610434  0.949931  1
  B  B15  1  0.500000  0.382255  0.044040  1
  B  B16  1  0.500000  0.291240  0.312066  1
  B  B17  1  0.500000  0.708215  0.687844  1
  B  B18  1  0.500000  0.790113  0.185970  1
  B  B19  1  0.500000  0.214334  0.816676  1
  B  B20  1  0.500000  0.366743  0.469108  1
  B  B21  1  0.500000  0.632440  0.530969  1
  B  B22  1  0.500000  0.866640  0.031182  1
  B  B23  1  0.500000  0.136367  0.966388  1
