# generated using pymatgen
data_Zr5Ga3O
_symmetry_space_group_name_H-M   'P 1'
_cell_length_a   8.08543100
_cell_length_b   8.08543106
_cell_length_c   5.72979900
_cell_angle_alpha   90.00000000
_cell_angle_beta   90.00000000
_cell_angle_gamma   119.99999568
_symmetry_Int_Tables_number   1
_chemical_formula_structural   Zr5Ga3O
_chemical_formula_sum   'Zr10 Ga6 O2'
_cell_volume   324.39667297
_cell_formula_units_Z   2
loop_
 _symmetry_equiv_pos_site_id
 _symmetry_equiv_pos_as_xyz
  1  'x, y, z'
loop_
 _atom_site_type_symbol
 _atom_site_label
 _atom_site_symmetry_multiplicity
 _atom_site_fract_x
 _atom_site_fract_y
 _atom_site_fract_z
 _atom_site_occupancy
  Zr  Zr0  1  0.000000  0.765961  0.750000  1
  Zr  Zr1  1  0.000000  0.234039  0.250000  1
  Zr  Zr2  1  0.333333  0.666667  0.000000  1
  Zr  Zr3  1  0.333333  0.666667  0.500000  1
  Zr  Zr4  1  0.234039  0.234039  0.750000  1
  Zr  Zr5  1  0.234039  0.000000  0.250000  1
  Zr  Zr6  1  0.765961  0.765961  0.250000  1
  Zr  Zr7  1  0.666667  0.333333  0.000000  1
  Zr  Zr8  1  0.666667  0.333333  0.500000  1
  Zr  Zr9  1  0.765961  0.000000  0.750000  1
  Ga  Ga10  1  0.000000  0.599027  0.250000  1
  Ga  Ga11  1  0.000000  0.400973  0.750000  1
  Ga  Ga12  1  0.400973  0.400973  0.250000  1
  Ga  Ga13  1  0.599027  0.599027  0.750000  1
  Ga  Ga14  1  0.400973  0.000000  0.750000  1
  Ga  Ga15  1  0.599027  0.000000  0.250000  1
  O  O16  1  0.000000  0.000000  0.000000  1
  O  O17  1  0.000000  0.000000  0.500000  1
