# generated using pymatgen
data_DyTmOs3W
_symmetry_space_group_name_H-M   'P 1'
_cell_length_a   5.50587629
_cell_length_b   5.50587610
_cell_length_c   8.41151000
_cell_angle_alpha   90.00240128
_cell_angle_beta   89.99759740
_cell_angle_gamma   120.02116782
_symmetry_Int_Tables_number   1
_chemical_formula_structural   DyTmOs3W
_chemical_formula_sum   'Dy2 Tm2 Os6 W2'
_cell_volume   220.78258054
_cell_formula_units_Z   2
loop_
 _symmetry_equiv_pos_site_id
 _symmetry_equiv_pos_as_xyz
  1  'x, y, z'
loop_
 _atom_site_type_symbol
 _atom_site_label
 _atom_site_symmetry_multiplicity
 _atom_site_fract_x
 _atom_site_fract_y
 _atom_site_fract_z
 _atom_site_occupancy
  Dy  Dy0  1  0.666654  0.333346  0.564725  1
  Dy  Dy1  1  0.333346  0.666654  0.435275  1
  Tm  Tm2  1  0.333340  0.666660  0.063398  1
  Tm  Tm3  1  0.666660  0.333340  0.936602  1
  Os  Os4  1  0.172957  0.345917  0.751484  1
  Os  Os5  1  0.172962  0.827038  0.751486  1
  Os  Os6  1  0.654083  0.827043  0.751484  1
  Os  Os7  1  0.827043  0.654083  0.248516  1
  Os  Os8  1  0.827038  0.172962  0.248514  1
  Os  Os9  1  0.345917  0.172957  0.248516  1
  W  W10  1  0.000000  0.000000  0.500000  1
  W  W11  1  0.000000  0.000000  0.000000  1
