# generated using pymatgen
data_Pr8Lu12Ga15Si
_symmetry_space_group_name_H-M   'P 1'
_cell_length_a   7.63482700
_cell_length_b   7.86400873
_cell_length_c   15.08607500
_cell_angle_alpha   90.00000000
_cell_angle_beta   90.00000000
_cell_angle_gamma   90.12504669
_symmetry_Int_Tables_number   1
_chemical_formula_structural   Pr8Lu12Ga15Si
_chemical_formula_sum   'Pr8 Lu12 Ga15 Si1'
_cell_volume   905.77100818
_cell_formula_units_Z   1
loop_
 _symmetry_equiv_pos_site_id
 _symmetry_equiv_pos_as_xyz
  1  'x, y, z'
loop_
 _atom_site_type_symbol
 _atom_site_label
 _atom_site_symmetry_multiplicity
 _atom_site_fract_x
 _atom_site_fract_y
 _atom_site_fract_z
 _atom_site_occupancy
  Pr  Pr0  1  0.014221  0.176375  0.095351  1
  Pr  Pr1  1  0.984535  0.820487  0.903070  1
  Pr  Pr2  1  0.485669  0.677091  0.903808  1
  Pr  Pr3  1  0.984535  0.820487  0.596930  1
  Pr  Pr4  1  0.514033  0.322214  0.094831  1
  Pr  Pr5  1  0.014221  0.176375  0.404649  1
  Pr  Pr6  1  0.514033  0.322214  0.405169  1
  Pr  Pr7  1  0.485669  0.677091  0.596192  1
  Lu  Lu8  1  0.159717  0.504073  0.750000  1
  Lu  Lu9  1  0.835762  0.495185  0.250000  1
  Lu  Lu10  1  0.336399  0.004371  0.250000  1
  Lu  Lu11  1  0.664828  0.992360  0.750000  1
  Lu  Lu12  1  0.331480  0.173767  0.622775  1
  Lu  Lu13  1  0.670769  0.827761  0.376936  1
  Lu  Lu14  1  0.171077  0.672876  0.376658  1
  Lu  Lu15  1  0.670769  0.827761  0.123064  1
  Lu  Lu16  1  0.828033  0.330157  0.622951  1
  Lu  Lu17  1  0.331480  0.173767  0.877225  1
  Lu  Lu18  1  0.828033  0.330157  0.877049  1
  Lu  Lu19  1  0.171077  0.672876  0.123342  1
  Ga  Ga20  1  0.033819  0.118688  0.750000  1
  Ga  Ga21  1  0.966257  0.883085  0.250000  1
  Ga  Ga22  1  0.466453  0.617049  0.250000  1
  Ga  Ga23  1  0.533843  0.389125  0.750000  1
  Ga  Ga24  1  0.283802  0.878431  0.750000  1
  Ga  Ga25  1  0.717867  0.123451  0.250000  1
  Ga  Ga26  1  0.217368  0.376912  0.250000  1
  Ga  Ga27  1  0.155662  0.464258  0.540226  1
  Ga  Ga28  1  0.844215  0.535832  0.459859  1
  Ga  Ga29  1  0.343910  0.962413  0.460835  1
  Ga  Ga30  1  0.844215  0.535832  0.040141  1
  Ga  Ga31  1  0.657715  0.035671  0.540635  1
  Ga  Ga32  1  0.155662  0.464258  0.959774  1
  Ga  Ga33  1  0.657715  0.035671  0.959365  1
  Ga  Ga34  1  0.343910  0.962413  0.039165  1
  Si  Si35  1  0.781249  0.619459  0.750000  1
