# generated using pymatgen
data_Nd20Ir9Os2Rh
_symmetry_space_group_name_H-M   'P 1'
_cell_length_a   11.26162500
_cell_length_b   11.26162500
_cell_length_c   6.60298500
_cell_angle_alpha   90.00000000
_cell_angle_beta   90.00000000
_cell_angle_gamma   90.00000000
_symmetry_Int_Tables_number   1
_chemical_formula_structural   Nd20Ir9Os2Rh
_chemical_formula_sum   'Nd20 Ir9 Os2 Rh1'
_cell_volume   837.41827466
_cell_formula_units_Z   1
loop_
 _symmetry_equiv_pos_site_id
 _symmetry_equiv_pos_as_xyz
  1  'x, y, z'
loop_
 _atom_site_type_symbol
 _atom_site_label
 _atom_site_symmetry_multiplicity
 _atom_site_fract_x
 _atom_site_fract_y
 _atom_site_fract_z
 _atom_site_occupancy
  Nd  Nd0  1  0.088629  0.292689  0.118564  1
  Nd  Nd1  1  0.792689  0.411371  0.118564  1
  Nd  Nd2  1  0.207311  0.588629  0.118564  1
  Nd  Nd3  1  0.911371  0.707311  0.118564  1
  Nd  Nd4  1  0.410893  0.792236  0.380609  1
  Nd  Nd5  1  0.589107  0.207764  0.380609  1
  Nd  Nd6  1  0.292236  0.089107  0.380609  1
  Nd  Nd7  1  0.707764  0.910893  0.380609  1
  Nd  Nd8  1  0.410710  0.207708  0.886433  1
  Nd  Nd9  1  0.707708  0.089290  0.886433  1
  Nd  Nd10  1  0.292292  0.910710  0.886433  1
  Nd  Nd11  1  0.589290  0.792292  0.886433  1
  Nd  Nd12  1  0.089246  0.707366  0.614980  1
  Nd  Nd13  1  0.910754  0.292634  0.614980  1
  Nd  Nd14  1  0.207366  0.410754  0.614980  1
  Nd  Nd15  1  0.792634  0.589246  0.614980  1
  Nd  Nd16  1  0.000000  0.000000  0.000143  1
  Nd  Nd17  1  0.500000  0.500000  0.000143  1
  Nd  Nd18  1  0.500000  0.500000  0.500668  1
  Nd  Nd19  1  0.000000  0.000000  0.500668  1
  Ir  Ir20  1  0.153590  0.846744  0.249658  1
  Ir  Ir21  1  0.346744  0.346410  0.249658  1
  Ir  Ir22  1  0.653256  0.653590  0.249658  1
  Ir  Ir23  1  0.846410  0.153256  0.249658  1
  Ir  Ir24  1  0.347362  0.653440  0.749654  1
  Ir  Ir25  1  0.153440  0.152638  0.749654  1
  Ir  Ir26  1  0.846560  0.847362  0.749654  1
  Ir  Ir27  1  0.652638  0.346560  0.749654  1
  Ir  Ir28  1  0.000000  0.500000  0.878078  1
  Os  Os29  1  0.000000  0.500000  0.377289  1
  Os  Os30  1  0.500000  0.000000  0.122843  1
  Rh  Rh31  1  0.500000  0.000000  0.620579  1
