# generated using pymatgen
data_Yb3HoSe4
_symmetry_space_group_name_H-M   'P 1'
_cell_length_a   13.73588440
_cell_length_b   13.73588440
_cell_length_c   13.73588240
_cell_angle_alpha   17.31160763
_cell_angle_beta   17.31160864
_cell_angle_gamma   17.31160925
_symmetry_Int_Tables_number   1
_chemical_formula_structural   Yb3HoSe4
_chemical_formula_sum   'Yb3 Ho1 Se4'
_cell_volume   200.24640941
_cell_formula_units_Z   1
loop_
 _symmetry_equiv_pos_site_id
 _symmetry_equiv_pos_as_xyz
  1  'x, y, z'
loop_
 _atom_site_type_symbol
 _atom_site_label
 _atom_site_symmetry_multiplicity
 _atom_site_fract_x
 _atom_site_fract_y
 _atom_site_fract_z
 _atom_site_occupancy
  Yb  Yb0  1  0.250908  0.250908  0.250908  1
  Yb  Yb1  1  0.500000  0.500000  0.500000  1
  Yb  Yb2  1  0.749092  0.749092  0.749092  1
  Ho  Ho3  1  0.000000  0.000000  0.000000  1
  Se  Se4  1  0.373776  0.373776  0.373776  1
  Se  Se5  1  0.124236  0.124236  0.124236  1
  Se  Se6  1  0.626224  0.626224  0.626224  1
  Se  Se7  1  0.875764  0.875764  0.875764  1
