# generated using pymatgen
data_Er2CuBRh5
_symmetry_space_group_name_H-M   'P 1'
_cell_length_a   5.83201376
_cell_length_b   5.75852040
_cell_length_c   5.75852007
_cell_angle_alpha   60.84616121
_cell_angle_beta   59.57691830
_cell_angle_gamma   59.57690970
_symmetry_Int_Tables_number   1
_chemical_formula_structural   Er2CuBRh5
_chemical_formula_sum   'Er2 Cu1 B1 Rh5'
_cell_volume   136.70423470
_cell_formula_units_Z   1
loop_
 _symmetry_equiv_pos_site_id
 _symmetry_equiv_pos_as_xyz
  1  'x, y, z'
loop_
 _atom_site_type_symbol
 _atom_site_label
 _atom_site_symmetry_multiplicity
 _atom_site_fract_x
 _atom_site_fract_y
 _atom_site_fract_z
 _atom_site_occupancy
  Er  Er0  1  0.250055  0.249945  0.249945  1
  Er  Er1  1  0.750055  0.749945  0.749945  1
  Cu  Cu2  1  0.763202  0.236797  0.236797  1
  B  B3  1  0.499676  0.500322  0.500322  1
  Rh  Rh4  1  0.244071  0.755928  0.245241  1
  Rh  Rh5  1  0.754758  0.755928  0.245241  1
  Rh  Rh6  1  0.244071  0.245241  0.755928  1
  Rh  Rh7  1  0.754758  0.245241  0.755928  1
  Rh  Rh8  1  0.239352  0.760647  0.760647  1
