# generated using pymatgen
data_TbIn6IrBr12
_symmetry_space_group_name_H-M   'P 1'
_cell_length_a   9.22387130
_cell_length_b   9.22387088
_cell_length_c   9.22387012
_cell_angle_alpha   104.76039464
_cell_angle_beta   104.76040239
_cell_angle_gamma   104.76040511
_symmetry_Int_Tables_number   1
_chemical_formula_structural   TbIn6IrBr12
_chemical_formula_sum   'Tb1 In6 Ir1 Br12'
_cell_volume   689.60676473
_cell_formula_units_Z   1
loop_
 _symmetry_equiv_pos_site_id
 _symmetry_equiv_pos_as_xyz
  1  'x, y, z'
loop_
 _atom_site_type_symbol
 _atom_site_label
 _atom_site_symmetry_multiplicity
 _atom_site_fract_x
 _atom_site_fract_y
 _atom_site_fract_z
 _atom_site_occupancy
  Tb  Tb0  1  0.500000  0.500000  0.500000  1
  In  In1  1  0.046452  0.062859  0.309096  1
  In  In2  1  0.309096  0.046452  0.062859  1
  In  In3  1  0.062859  0.309096  0.046452  1
  In  In4  1  0.953548  0.937141  0.690904  1
  In  In5  1  0.690904  0.953548  0.937141  1
  In  In6  1  0.937141  0.690904  0.953548  1
  Ir  Ir7  1  0.000000  0.000000  0.000000  1
  Br  Br8  1  0.982583  0.558481  0.192634  1
  Br  Br9  1  0.192634  0.982583  0.558481  1
  Br  Br10  1  0.558481  0.192634  0.982583  1
  Br  Br11  1  0.017417  0.441519  0.807366  1
  Br  Br12  1  0.807366  0.017417  0.441519  1
  Br  Br13  1  0.441519  0.807366  0.017417  1
  Br  Br14  1  0.490814  0.183099  0.385569  1
  Br  Br15  1  0.385569  0.490814  0.183099  1
  Br  Br16  1  0.183099  0.385569  0.490814  1
  Br  Br17  1  0.509186  0.816901  0.614431  1
  Br  Br18  1  0.614431  0.509186  0.816901  1
  Br  Br19  1  0.816901  0.614431  0.509186  1
