# generated using pymatgen
data_Ho8Lu4InCo4Cu
_symmetry_space_group_name_H-M   'P 1'
_cell_length_a   8.21500035
_cell_length_b   8.21495215
_cell_length_c   8.21500202
_cell_angle_alpha   111.19653287
_cell_angle_beta   110.61706855
_cell_angle_gamma   106.63747243
_symmetry_Int_Tables_number   1
_chemical_formula_structural   Ho8Lu4InCo4Cu
_chemical_formula_sum   'Ho8 Lu4 In1 Co4 Cu1'
_cell_volume   425.98367564
_cell_formula_units_Z   1
loop_
 _symmetry_equiv_pos_site_id
 _symmetry_equiv_pos_as_xyz
  1  'x, y, z'
loop_
 _atom_site_type_symbol
 _atom_site_label
 _atom_site_symmetry_multiplicity
 _atom_site_fract_x
 _atom_site_fract_y
 _atom_site_fract_z
 _atom_site_occupancy
  Ho  Ho0  1  0.186841  0.290896  0.477731  1
  Ho  Ho1  1  0.813159  0.709104  0.522269  1
  Ho  Ho2  1  0.186836  0.709104  0.895946  1
  Ho  Ho3  1  0.813164  0.290896  0.104054  1
  Ho  Ho4  1  0.417158  0.217976  0.199185  1
  Ho  Ho5  1  0.582842  0.782024  0.800815  1
  Ho  Ho6  1  0.018791  0.217976  0.800819  1
  Ho  Ho7  1  0.981209  0.782024  0.199181  1
  Lu  Lu8  1  0.316749  0.623042  0.306291  1
  Lu  Lu9  1  0.683251  0.376958  0.693709  1
  Lu  Lu10  1  0.316760  0.010462  0.693703  1
  Lu  Lu11  1  0.683240  0.989538  0.306297  1
  In  In12  1  0.500000  0.500000  0.000000  1
  Co  Co13  1  0.113769  0.613766  0.499998  1
  Co  Co14  1  0.886231  0.386234  0.500002  1
  Co  Co15  1  0.376934  0.000000  0.376934  1
  Co  Co16  1  0.623066  0.000000  0.623066  1
  Cu  Cu17  1  0.000000  0.000000  0.000000  1
