# generated using pymatgen
data_Th4Al23ZnPt9
_symmetry_space_group_name_H-M   'P 1'
_cell_length_a   7.63646828
_cell_length_b   7.65424073
_cell_length_c   13.22550898
_cell_angle_alpha   84.47434069
_cell_angle_beta   78.90224669
_cell_angle_gamma   59.93203876
_symmetry_Int_Tables_number   1
_chemical_formula_structural   Th4Al23ZnPt9
_chemical_formula_sum   'Th4 Al23 Zn1 Pt9'
_cell_volume   656.51062523
_cell_formula_units_Z   1
loop_
 _symmetry_equiv_pos_site_id
 _symmetry_equiv_pos_as_xyz
  1  'x, y, z'
loop_
 _atom_site_type_symbol
 _atom_site_label
 _atom_site_symmetry_multiplicity
 _atom_site_fract_x
 _atom_site_fract_y
 _atom_site_fract_z
 _atom_site_occupancy
  Th  Th0  1  0.394737  0.167379  0.807542  1
  Th  Th1  1  0.606585  0.832057  0.190800  1
  Th  Th2  1  0.733491  0.498900  0.807506  1
  Th  Th3  1  0.266155  0.501838  0.192896  1
  Al  Al4  1  0.317102  0.162542  0.053613  1
  Al  Al5  1  0.146048  0.833260  0.561341  1
  Al  Al6  1  0.854090  0.166663  0.439364  1
  Al  Al7  1  0.481197  0.166863  0.557830  1
  Al  Al8  1  0.518683  0.833294  0.442436  1
  Al  Al9  1  0.212286  0.165036  0.334971  1
  Al  Al10  1  0.788601  0.834559  0.664598  1
  Al  Al11  1  0.435309  0.510090  0.665841  1
  Al  Al12  1  0.564633  0.490058  0.334908  1
  Al  Al13  1  0.111388  0.155779  0.664300  1
  Al  Al14  1  0.887972  0.844600  0.336291  1
  Al  Al15  1  0.349230  0.503120  0.944811  1
  Al  Al16  1  0.652289  0.500398  0.053618  1
  Al  Al17  1  0.014981  0.164657  0.956500  1
  Al  Al18  1  0.982330  0.835143  0.040819  1
  Al  Al19  1  0.186220  0.499876  0.442787  1
  Al  Al20  1  0.813509  0.500230  0.557793  1
  Al  Al21  1  0.738815  0.164010  0.183411  1
  Al  Al22  1  0.259957  0.836683  0.816891  1
  Al  Al23  1  0.058064  0.636039  0.816739  1
  Al  Al24  1  0.939505  0.364184  0.185100  1
  Al  Al25  1  0.857585  0.036675  0.818095  1
  Al  Al26  1  0.139279  0.962428  0.183965  1
  Zn  Zn27  1  0.689077  0.833713  0.940308  1
  Pt  Pt28  1  0.120425  0.491315  0.639379  1
  Pt  Pt29  1  0.879810  0.508905  0.361131  1
  Pt  Pt30  1  0.655787  0.179658  0.000978  1
  Pt  Pt31  1  0.336972  0.827550  0.001515  1
  Pt  Pt32  1  0.536802  0.167045  0.361133  1
  Pt  Pt33  1  0.462711  0.833121  0.639175  1
  Pt  Pt34  1  0.778545  0.175415  0.638203  1
  Pt  Pt35  1  0.222087  0.824382  0.362367  1
  Pt  Pt36  1  0.007744  0.492534  0.001046  1
