# generated using pymatgen
data_Tb3ErGa12Ni
_symmetry_space_group_name_H-M   'P 1'
_cell_length_a   7.49166780
_cell_length_b   7.47240786
_cell_length_c   7.47240810
_cell_angle_alpha   109.41895905
_cell_angle_beta   109.52344055
_cell_angle_gamma   109.52343092
_symmetry_Int_Tables_number   1
_chemical_formula_structural   Tb3ErGa12Ni
_chemical_formula_sum   'Tb3 Er1 Ga12 Ni1'
_cell_volume   321.80847975
_cell_formula_units_Z   1
loop_
 _symmetry_equiv_pos_site_id
 _symmetry_equiv_pos_as_xyz
  1  'x, y, z'
loop_
 _atom_site_type_symbol
 _atom_site_label
 _atom_site_symmetry_multiplicity
 _atom_site_fract_x
 _atom_site_fract_y
 _atom_site_fract_z
 _atom_site_occupancy
  Tb  Tb0  1  0.000000  0.000000  0.500000  1
  Tb  Tb1  1  0.000000  0.500000  0.000000  1
  Tb  Tb2  1  0.500000  0.500000  0.500000  1
  Er  Er3  1  0.500000  0.000000  0.000000  1
  Ga  Ga4  1  0.749712  0.249712  0.499424  1
  Ga  Ga5  1  0.749712  0.499424  0.249712  1
  Ga  Ga6  1  0.500000  0.249712  0.750288  1
  Ga  Ga7  1  0.250288  0.500576  0.750288  1
  Ga  Ga8  1  0.250288  0.750288  0.500576  1
  Ga  Ga9  1  0.500000  0.750288  0.249712  1
  Ga  Ga10  1  0.711468  0.711912  0.000000  1
  Ga  Ga11  1  0.288532  0.000000  0.288088  1
  Ga  Ga12  1  0.999556  0.288088  0.288088  1
  Ga  Ga13  1  0.288532  0.288088  0.000000  1
  Ga  Ga14  1  0.711468  0.000000  0.711912  1
  Ga  Ga15  1  0.000444  0.711912  0.711912  1
  Ni  Ni16  1  0.000000  0.000000  0.000000  1
