# generated using pymatgen
data_La4NdB4Pd7Rh8
_symmetry_space_group_name_H-M   'P 1'
_cell_length_a   4.28778900
_cell_length_b   4.28778900
_cell_length_c   21.43143400
_cell_angle_alpha   90.00000000
_cell_angle_beta   90.00000000
_cell_angle_gamma   90.00000000
_symmetry_Int_Tables_number   1
_chemical_formula_structural   La4NdB4Pd7Rh8
_chemical_formula_sum   'La4 Nd1 B4 Pd7 Rh8'
_cell_volume   394.01979680
_cell_formula_units_Z   1
loop_
 _symmetry_equiv_pos_site_id
 _symmetry_equiv_pos_as_xyz
  1  'x, y, z'
loop_
 _atom_site_type_symbol
 _atom_site_label
 _atom_site_symmetry_multiplicity
 _atom_site_fract_x
 _atom_site_fract_y
 _atom_site_fract_z
 _atom_site_occupancy
  La  La0  1  0.000000  0.000000  0.900052  1
  La  La1  1  0.000000  0.000000  0.099948  1
  La  La2  1  0.000000  0.000000  0.300115  1
  La  La3  1  0.000000  0.000000  0.699885  1
  Nd  Nd4  1  0.000000  0.000000  0.500000  1
  B  B5  1  0.500000  0.500000  0.188895  1
  B  B6  1  0.500000  0.500000  0.397354  1
  B  B7  1  0.500000  0.500000  0.602646  1
  B  B8  1  0.500000  0.500000  0.811105  1
  Pd  Pd9  1  0.500000  0.500000  0.909537  1
  Pd  Pd10  1  0.500000  0.500000  0.090463  1
  Pd  Pd11  1  0.500000  0.500000  0.296380  1
  Pd  Pd12  1  0.500000  0.500000  0.500000  1
  Pd  Pd13  1  0.500000  0.500000  0.703620  1
  Pd  Pd14  1  0.500000  0.000000  0.000000  1
  Pd  Pd15  1  0.000000  0.500000  0.000000  1
  Rh  Rh16  1  0.500000  0.000000  0.200535  1
  Rh  Rh17  1  0.500000  0.000000  0.400853  1
  Rh  Rh18  1  0.500000  0.000000  0.599147  1
  Rh  Rh19  1  0.500000  0.000000  0.799465  1
  Rh  Rh20  1  0.000000  0.500000  0.200535  1
  Rh  Rh21  1  0.000000  0.500000  0.400853  1
  Rh  Rh22  1  0.000000  0.500000  0.599147  1
  Rh  Rh23  1  0.000000  0.500000  0.799465  1
