# generated using pymatgen
data_Ba3NbF10
_symmetry_space_group_name_H-M   'P 1'
_cell_length_a   8.71545483
_cell_length_b   8.71545588
_cell_length_c   6.16846900
_cell_angle_alpha   90.00000000
_cell_angle_beta   90.00000000
_cell_angle_gamma   100.27508168
_symmetry_Int_Tables_number   1
_chemical_formula_structural   Ba3NbF10
_chemical_formula_sum   'Ba6 Nb2 F20'
_cell_volume   461.03743527
_cell_formula_units_Z   2
loop_
 _symmetry_equiv_pos_site_id
 _symmetry_equiv_pos_as_xyz
  1  'x, y, z'
loop_
 _atom_site_type_symbol
 _atom_site_label
 _atom_site_symmetry_multiplicity
 _atom_site_fract_x
 _atom_site_fract_y
 _atom_site_fract_z
 _atom_site_occupancy
  Ba  Ba0  1  0.825737  0.601531  0.750000  1
  Ba  Ba1  1  0.174263  0.398469  0.250000  1
  Ba  Ba2  1  0.398469  0.174263  0.750000  1
  Ba  Ba3  1  0.601531  0.825737  0.250000  1
  Ba  Ba4  1  0.887530  0.112470  0.750000  1
  Ba  Ba5  1  0.112470  0.887530  0.250000  1
  Nb  Nb6  1  0.320431  0.679569  0.750000  1
  Nb  Nb7  1  0.679569  0.320431  0.250000  1
  F  F8  1  0.138479  0.138479  0.500000  1
  F  F9  1  0.861521  0.861521  0.500000  1
  F  F10  1  0.861521  0.861521  0.000000  1
  F  F11  1  0.138479  0.138479  0.000000  1
  F  F12  1  0.116898  0.648693  0.540033  1
  F  F13  1  0.883102  0.351307  0.459967  1
  F  F14  1  0.883102  0.351307  0.040033  1
  F  F15  1  0.351307  0.883102  0.959967  1
  F  F16  1  0.116898  0.648693  0.959967  1
  F  F17  1  0.648693  0.116898  0.040033  1
  F  F18  1  0.648693  0.116898  0.459967  1
  F  F19  1  0.351307  0.883102  0.540033  1
  F  F20  1  0.243937  0.435303  0.750000  1
  F  F21  1  0.756063  0.564697  0.250000  1
  F  F22  1  0.564697  0.756063  0.750000  1
  F  F23  1  0.435303  0.243937  0.250000  1
  F  F24  1  0.605005  0.394995  0.539550  1
  F  F25  1  0.394995  0.605005  0.460450  1
  F  F26  1  0.394995  0.605005  0.039550  1
  F  F27  1  0.605005  0.394995  0.960450  1
