# generated using pymatgen
data_TbDy5(RuBr3)2
_symmetry_space_group_name_H-M   'P 1'
_cell_length_a   4.10371300
_cell_length_b   8.53560043
_cell_length_c   11.93250165
_cell_angle_alpha   87.02202533
_cell_angle_beta   90.00000000
_cell_angle_gamma   90.00000000
_symmetry_Int_Tables_number   1
_chemical_formula_structural   TbDy5(RuBr3)2
_chemical_formula_sum   'Tb1 Dy5 Ru2 Br6'
_cell_volume   417.40311288
_cell_formula_units_Z   1
loop_
 _symmetry_equiv_pos_site_id
 _symmetry_equiv_pos_as_xyz
  1  'x, y, z'
loop_
 _atom_site_type_symbol
 _atom_site_label
 _atom_site_symmetry_multiplicity
 _atom_site_fract_x
 _atom_site_fract_y
 _atom_site_fract_z
 _atom_site_occupancy
  Tb  Tb0  1  0.750000  0.113787  0.173300  1
  Dy  Dy1  1  0.250000  0.273800  0.397313  1
  Dy  Dy2  1  0.750000  0.724465  0.603162  1
  Dy  Dy3  1  0.250000  0.862771  0.364159  1
  Dy  Dy4  1  0.750000  0.136119  0.634194  1
  Dy  Dy5  1  0.250000  0.887977  0.824671  1
  Ru  Ru6  1  0.250000  0.940377  0.594828  1
  Ru  Ru7  1  0.750000  0.058383  0.403601  1
  Br  Br8  1  0.250000  0.427749  0.630916  1
  Br  Br9  1  0.750000  0.569322  0.373346  1
  Br  Br10  1  0.250000  0.880384  0.103696  1
  Br  Br11  1  0.750000  0.120898  0.894874  1
  Br  Br12  1  0.250000  0.354582  0.143963  1
  Br  Br13  1  0.750000  0.649386  0.857979  1
