# generated using pymatgen
data_Tb6Zn20AsRh3
_symmetry_space_group_name_H-M   'P 1'
_cell_length_a   8.98765653
_cell_length_b   8.99137356
_cell_length_c   9.02067300
_cell_angle_alpha   60.26076639
_cell_angle_beta   59.90569760
_cell_angle_gamma   60.22942978
_symmetry_Int_Tables_number   1
_chemical_formula_structural   Tb6Zn20AsRh3
_chemical_formula_sum   'Tb6 Zn20 As1 Rh3'
_cell_volume   516.99061834
_cell_formula_units_Z   1
loop_
 _symmetry_equiv_pos_site_id
 _symmetry_equiv_pos_as_xyz
  1  'x, y, z'
loop_
 _atom_site_type_symbol
 _atom_site_label
 _atom_site_symmetry_multiplicity
 _atom_site_fract_x
 _atom_site_fract_y
 _atom_site_fract_z
 _atom_site_occupancy
  Tb  Tb0  1  0.721194  0.278803  0.278806  1
  Tb  Tb1  1  0.720980  0.274873  0.725125  1
  Tb  Tb2  1  0.714032  0.724109  0.275895  1
  Tb  Tb3  1  0.278806  0.721197  0.721194  1
  Tb  Tb4  1  0.279020  0.725127  0.274875  1
  Tb  Tb5  1  0.285968  0.275891  0.724105  1
  Zn  Zn6  1  0.621986  0.122045  0.127889  1
  Zn  Zn7  1  0.122251  0.623511  0.123424  1
  Zn  Zn8  1  0.130826  0.123420  0.623507  1
  Zn  Zn9  1  0.128084  0.127880  0.122048  1
  Zn  Zn10  1  0.378014  0.877955  0.872111  1
  Zn  Zn11  1  0.877749  0.376489  0.876576  1
  Zn  Zn12  1  0.869174  0.876580  0.376493  1
  Zn  Zn13  1  0.871916  0.872120  0.877952  1
  Zn  Zn14  1  0.500000  0.500000  0.000000  1
  Zn  Zn15  1  0.000000  0.500000  0.500000  1
  Zn  Zn16  1  0.000000  0.000000  0.500000  1
  Zn  Zn17  1  0.000000  0.000000  0.000000  1
  Zn  Zn18  1  0.999929  0.336429  0.330825  1
  Zn  Zn19  1  0.330473  0.007668  0.330922  1
  Zn  Zn20  1  0.330950  0.330915  0.007669  1
  Zn  Zn21  1  0.332822  0.330813  0.336436  1
  Zn  Zn22  1  0.000071  0.663571  0.669175  1
  Zn  Zn23  1  0.669527  0.992332  0.669078  1
  Zn  Zn24  1  0.669050  0.669085  0.992331  1
  Zn  Zn25  1  0.667178  0.669187  0.663564  1
  As  As26  1  0.500000  0.500000  0.500000  1
  Rh  Rh27  1  0.500000  0.000000  0.000000  1
  Rh  Rh28  1  0.500000  0.000000  0.500000  1
  Rh  Rh29  1  0.000000  0.500000  0.000000  1
