# generated using pymatgen
data_BaTcMo5Se7
_symmetry_space_group_name_H-M   'P 1'
_cell_length_a   9.94741857
_cell_length_b   9.95425530
_cell_length_c   9.93006282
_cell_angle_alpha   57.90445546
_cell_angle_beta   57.89402696
_cell_angle_gamma   57.88569571
_symmetry_Int_Tables_number   1
_chemical_formula_structural   BaTcMo5Se7
_chemical_formula_sum   'Ba2 Tc2 Mo10 Se14'
_cell_volume   661.67868698
_cell_formula_units_Z   2
loop_
 _symmetry_equiv_pos_site_id
 _symmetry_equiv_pos_as_xyz
  1  'x, y, z'
loop_
 _atom_site_type_symbol
 _atom_site_label
 _atom_site_symmetry_multiplicity
 _atom_site_fract_x
 _atom_site_fract_y
 _atom_site_fract_z
 _atom_site_occupancy
  Ba  Ba0  1  0.367794  0.359542  0.361092  1
  Ba  Ba1  1  0.634414  0.625619  0.636574  1
  Tc  Tc2  1  0.301367  0.120717  0.984628  1
  Tc  Tc3  1  0.200408  0.879960  0.058404  1
  Mo  Mo4  1  0.877782  0.059118  0.200302  1
  Mo  Mo5  1  0.940774  0.799759  0.122683  1
  Mo  Mo6  1  0.797672  0.121346  0.941915  1
  Mo  Mo7  1  0.119882  0.940745  0.800925  1
  Mo  Mo8  1  0.984304  0.303389  0.118623  1
  Mo  Mo9  1  0.880044  0.012908  0.698449  1
  Mo  Mo10  1  0.118071  0.988952  0.300168  1
  Mo  Mo11  1  0.013131  0.698084  0.882699  1
  Mo  Mo12  1  0.698340  0.881204  0.012748  1
  Mo  Mo13  1  0.059431  0.199925  0.878953  1
  Se  Se14  1  0.981821  0.259820  0.624338  1
  Se  Se15  1  0.261291  0.627891  0.984650  1
  Se  Se16  1  0.624539  0.977859  0.262614  1
  Se  Se17  1  0.029031  0.741935  0.369718  1
  Se  Se18  1  0.740905  0.375931  0.019518  1
  Se  Se19  1  0.375812  0.017218  0.749729  1
  Se  Se20  1  0.178831  0.419152  0.796135  1
  Se  Se21  1  0.418678  0.802935  0.171248  1
  Se  Se22  1  0.794063  0.177152  0.421291  1
  Se  Se23  1  0.820578  0.579091  0.206931  1
  Se  Se24  1  0.575354  0.205769  0.823591  1
  Se  Se25  1  0.203193  0.824765  0.578454  1
  Se  Se26  1  0.784088  0.779970  0.780737  1
  Se  Se27  1  0.218401  0.219246  0.212880  1
