# generated using pymatgen
data_Yb4CrSi2Pd27
_symmetry_space_group_name_H-M   'P 1'
_cell_length_a   8.89756578
_cell_length_b   8.89756578
_cell_length_c   7.03381948
_cell_angle_alpha   90.10168267
_cell_angle_beta   90.10168267
_cell_angle_gamma   89.48663581
_symmetry_Int_Tables_number   1
_chemical_formula_structural   Yb4CrSi2Pd27
_chemical_formula_sum   'Yb4 Cr1 Si2 Pd27'
_cell_volume   556.82002382
_cell_formula_units_Z   1
loop_
 _symmetry_equiv_pos_site_id
 _symmetry_equiv_pos_as_xyz
  1  'x, y, z'
loop_
 _atom_site_type_symbol
 _atom_site_label
 _atom_site_symmetry_multiplicity
 _atom_site_fract_x
 _atom_site_fract_y
 _atom_site_fract_z
 _atom_site_occupancy
  Yb  Yb0  1  0.507472  0.007472  0.938309  1
  Yb  Yb1  1  0.992528  0.492528  0.061691  1
  Yb  Yb2  1  0.001137  0.998863  0.500000  1
  Yb  Yb3  1  0.498863  0.501137  0.500000  1
  Cr  Cr4  1  0.250000  0.750000  0.000000  1
  Si  Si5  1  0.500786  0.000786  0.446311  1
  Si  Si6  1  0.999214  0.499214  0.553689  1
  Pd  Pd7  1  0.333664  0.833664  0.614924  1
  Pd  Pd8  1  0.332782  0.166004  0.619486  1
  Pd  Pd9  1  0.666004  0.832782  0.619486  1
  Pd  Pd10  1  0.666173  0.166173  0.616457  1
  Pd  Pd11  1  0.166336  0.666336  0.385076  1
  Pd  Pd12  1  0.167218  0.333996  0.380514  1
  Pd  Pd13  1  0.833996  0.667218  0.380514  1
  Pd  Pd14  1  0.833827  0.333827  0.383543  1
  Pd  Pd15  1  0.497764  0.769936  0.254261  1
  Pd  Pd16  1  0.498124  0.231671  0.257054  1
  Pd  Pd17  1  0.269936  0.997764  0.254261  1
  Pd  Pd18  1  0.731671  0.998124  0.257054  1
  Pd  Pd19  1  0.002236  0.730064  0.745739  1
  Pd  Pd20  1  0.001876  0.268329  0.742946  1
  Pd  Pd21  1  0.230064  0.502236  0.745739  1
  Pd  Pd22  1  0.768329  0.501876  0.742946  1
  Pd  Pd23  1  0.499232  0.352247  0.852660  1
  Pd  Pd24  1  0.493478  0.659154  0.861501  1
  Pd  Pd25  1  0.852247  0.999232  0.852660  1
  Pd  Pd26  1  0.159154  0.993478  0.861501  1
  Pd  Pd27  1  0.000768  0.147753  0.147340  1
  Pd  Pd28  1  0.006522  0.840846  0.138499  1
  Pd  Pd29  1  0.647753  0.500768  0.147340  1
  Pd  Pd30  1  0.340846  0.506522  0.138499  1
  Pd  Pd31  1  0.250000  0.250000  0.000000  1
  Pd  Pd32  1  0.750000  0.750000  0.000000  1
  Pd  Pd33  1  0.750000  0.250000  0.000000  1
