# generated using pymatgen
data_Zr10Sb6C
_symmetry_space_group_name_H-M   'P 1'
_cell_length_a   8.45429300
_cell_length_b   8.45429281
_cell_length_c   5.81750300
_cell_angle_alpha   90.00000000
_cell_angle_beta   90.00000000
_cell_angle_gamma   120.00000466
_symmetry_Int_Tables_number   1
_chemical_formula_structural   Zr10Sb6C
_chemical_formula_sum   'Zr10 Sb6 C1'
_cell_volume   360.09891065
_cell_formula_units_Z   1
loop_
 _symmetry_equiv_pos_site_id
 _symmetry_equiv_pos_as_xyz
  1  'x, y, z'
loop_
 _atom_site_type_symbol
 _atom_site_label
 _atom_site_symmetry_multiplicity
 _atom_site_fract_x
 _atom_site_fract_y
 _atom_site_fract_z
 _atom_site_occupancy
  Zr  Zr0  1  0.000000  0.769525  0.265564  1
  Zr  Zr1  1  0.230475  0.230475  0.265564  1
  Zr  Zr2  1  0.769525  0.000000  0.265564  1
  Zr  Zr3  1  0.000000  0.230475  0.734436  1
  Zr  Zr4  1  0.769525  0.769525  0.734436  1
  Zr  Zr5  1  0.230475  0.000000  0.734436  1
  Zr  Zr6  1  0.333333  0.666667  0.000000  1
  Zr  Zr7  1  0.666667  0.333333  0.000000  1
  Zr  Zr8  1  0.666667  0.333333  0.500000  1
  Zr  Zr9  1  0.333333  0.666667  0.500000  1
  Sb  Sb10  1  0.000000  0.397104  0.244130  1
  Sb  Sb11  1  0.602896  0.602896  0.244130  1
  Sb  Sb12  1  0.397104  0.000000  0.244130  1
  Sb  Sb13  1  0.000000  0.602896  0.755870  1
  Sb  Sb14  1  0.397104  0.397104  0.755870  1
  Sb  Sb15  1  0.602896  0.000000  0.755870  1
  C  C16  1  0.000000  0.000000  0.500000  1
