# generated using pymatgen
data_NpUH6
_symmetry_space_group_name_H-M   'P 1'
_cell_length_a   6.62475200
_cell_length_b   6.60813700
_cell_length_c   6.62475200
_cell_angle_alpha   90.00000000
_cell_angle_beta   90.00000000
_cell_angle_gamma   90.00000000
_symmetry_Int_Tables_number   1
_chemical_formula_structural   NpUH6
_chemical_formula_sum   'Np4 U4 H24'
_cell_volume   290.01354908
_cell_formula_units_Z   4
loop_
 _symmetry_equiv_pos_site_id
 _symmetry_equiv_pos_as_xyz
  1  'x, y, z'
loop_
 _atom_site_type_symbol
 _atom_site_label
 _atom_site_symmetry_multiplicity
 _atom_site_fract_x
 _atom_site_fract_y
 _atom_site_fract_z
 _atom_site_occupancy
  Np  Np0  1  0.250388  0.000000  0.500000  1
  Np  Np1  1  0.749612  0.000000  0.500000  1
  Np  Np2  1  0.000000  0.500000  0.249612  1
  Np  Np3  1  0.000000  0.500000  0.750388  1
  U  U4  1  0.000000  0.000000  0.000000  1
  U  U5  1  0.500000  0.500000  0.500000  1
  U  U6  1  0.500000  0.750000  0.000000  1
  U  U7  1  0.500000  0.250000  0.000000  1
  H  H8  1  0.000000  0.154461  0.303361  1
  H  H9  1  0.500000  0.197472  0.655277  1
  H  H10  1  0.500000  0.802528  0.344723  1
  H  H11  1  0.803361  0.654461  0.500000  1
  H  H12  1  0.196639  0.654461  0.500000  1
  H  H13  1  0.345772  0.500000  0.804635  1
  H  H14  1  0.654228  0.500000  0.804635  1
  H  H15  1  0.304635  0.000000  0.154228  1
  H  H16  1  0.155277  0.302528  0.000000  1
  H  H17  1  0.844723  0.697472  0.000000  1
  H  H18  1  0.304635  0.000000  0.845772  1
  H  H19  1  0.844723  0.302528  0.000000  1
  H  H20  1  0.695365  0.000000  0.154228  1
  H  H21  1  0.695365  0.000000  0.845772  1
  H  H22  1  0.155277  0.697472  0.000000  1
  H  H23  1  0.000000  0.845539  0.696639  1
  H  H24  1  0.000000  0.154461  0.696639  1
  H  H25  1  0.000000  0.845539  0.303361  1
  H  H26  1  0.654228  0.500000  0.195365  1
  H  H27  1  0.345772  0.500000  0.195365  1
  H  H28  1  0.803361  0.345539  0.500000  1
  H  H29  1  0.196639  0.345539  0.500000  1
  H  H30  1  0.500000  0.802528  0.655277  1
  H  H31  1  0.500000  0.197472  0.344723  1
