# generated using pymatgen
data_Yb2YAl3Si2Pd
_symmetry_space_group_name_H-M   'P 1'
_cell_length_a   6.90175070
_cell_length_b   6.90175144
_cell_length_c   4.33419600
_cell_angle_alpha   90.00000000
_cell_angle_beta   90.00000000
_cell_angle_gamma   120.11866971
_symmetry_Int_Tables_number   1
_chemical_formula_structural   Yb2YAl3Si2Pd
_chemical_formula_sum   'Yb2 Y1 Al3 Si2 Pd1'
_cell_volume   178.58179801
_cell_formula_units_Z   1
loop_
 _symmetry_equiv_pos_site_id
 _symmetry_equiv_pos_as_xyz
  1  'x, y, z'
loop_
 _atom_site_type_symbol
 _atom_site_label
 _atom_site_symmetry_multiplicity
 _atom_site_fract_x
 _atom_site_fract_y
 _atom_site_fract_z
 _atom_site_occupancy
  Yb  Yb0  1  0.420729  0.000060  0.000000  1
  Yb  Yb1  1  0.000060  0.420728  0.000000  1
  Y  Y2  1  0.578002  0.578002  0.000000  1
  Al  Al3  1  0.761424  0.998628  0.500000  1
  Al  Al4  1  0.238684  0.238685  0.500000  1
  Al  Al5  1  0.998628  0.761425  0.500000  1
  Si  Si6  1  0.665682  0.337105  0.500000  1
  Si  Si7  1  0.337105  0.665682  0.500000  1
  Pd  Pd8  1  0.999687  0.999687  0.000000  1
