# generated using pymatgen
data_La8Bi2SbO8
_symmetry_space_group_name_H-M   'P 1'
_cell_length_a   7.38972648
_cell_length_b   7.38978240
_cell_length_c   15.94599230
_cell_angle_alpha   73.46532092
_cell_angle_beta   73.46538531
_cell_angle_gamma   31.76694609
_symmetry_Int_Tables_number   1
_chemical_formula_structural   La8Bi2SbO8
_chemical_formula_sum   'La8 Bi2 Sb1 O8'
_cell_volume   437.91056416
_cell_formula_units_Z   1
loop_
 _symmetry_equiv_pos_site_id
 _symmetry_equiv_pos_as_xyz
  1  'x, y, z'
loop_
 _atom_site_type_symbol
 _atom_site_label
 _atom_site_symmetry_multiplicity
 _atom_site_fract_x
 _atom_site_fract_y
 _atom_site_fract_z
 _atom_site_occupancy
  La  La0  1  0.450785  0.456476  0.831364  1
  La  La1  1  0.541644  0.547441  0.169483  1
  La  La2  1  0.640422  0.644719  0.567651  1
  La  La3  1  0.355852  0.360214  0.429594  1
  La  La4  1  0.877594  0.882438  0.652164  1
  La  La5  1  0.120215  0.125070  0.346164  1
  La  La6  1  0.716922  0.722912  0.911934  1
  La  La7  1  0.277029  0.283110  0.089939  1
  Bi  Bi8  1  0.169649  0.174756  0.733972  1
  Bi  Bi9  1  0.996736  0.003113  0.000029  1
  Sb  Sb10  1  0.824245  0.829579  0.267420  1
  O  O11  1  0.292822  0.298831  0.934208  1
  O  O12  1  0.700823  0.706863  0.066674  1
  O  O13  1  0.880144  0.885845  0.800157  1
  O  O14  1  0.113672  0.119463  0.199841  1
  O  O15  1  0.162624  0.166987  0.486981  1
  O  O16  1  0.832776  0.837173  0.512669  1
  O  O17  1  0.467024  0.471878  0.634940  1
  O  O18  1  0.528622  0.533530  0.364814  1
