# generated using pymatgen
data_Ho2ErNp7O20
_symmetry_space_group_name_H-M   'P 1'
_cell_length_a   6.57663378
_cell_length_b   7.58394409
_cell_length_c   8.47818800
_cell_angle_alpha   102.65008233
_cell_angle_beta   97.33635171
_cell_angle_gamma   106.86199922
_symmetry_Int_Tables_number   1
_chemical_formula_structural   Ho2ErNp7O20
_chemical_formula_sum   'Ho2 Er1 Np7 O20'
_cell_volume   386.49326683
_cell_formula_units_Z   1
loop_
 _symmetry_equiv_pos_site_id
 _symmetry_equiv_pos_as_xyz
  1  'x, y, z'
loop_
 _atom_site_type_symbol
 _atom_site_label
 _atom_site_symmetry_multiplicity
 _atom_site_fract_x
 _atom_site_fract_y
 _atom_site_fract_z
 _atom_site_occupancy
  Ho  Ho0  1  0.799991  0.600077  0.600250  1
  Ho  Ho1  1  0.600758  0.200379  0.200287  1
  Er  Er2  1  0.999244  0.999588  0.999660  1
  Np  Np3  1  0.998942  0.499605  0.999612  1
  Np  Np4  1  0.799947  0.099940  0.600233  1
  Np  Np5  1  0.199291  0.398626  0.397473  1
  Np  Np6  1  0.601516  0.700540  0.200367  1
  Np  Np7  1  0.399626  0.298590  0.801331  1
  Np  Np8  1  0.199990  0.901293  0.398441  1
  Np  Np9  1  0.400610  0.801331  0.802330  1
  O  O10  1  0.858008  0.320794  0.453508  1
  O  O11  1  0.644996  0.916024  0.050703  1
  O  O12  1  0.442187  0.521524  0.655022  1
  O  O13  1  0.950527  0.769643  0.152112  1
  O  O14  1  0.855494  0.831886  0.447822  1
  O  O15  1  0.744859  0.368327  0.752403  1
  O  O16  1  0.245984  0.124366  0.255966  1
  O  O17  1  0.650098  0.430618  0.047385  1
  O  O18  1  0.955839  0.283775  0.148733  1
  O  O19  1  0.447448  0.026716  0.647662  1
  O  O20  1  0.548627  0.969993  0.354623  1
  O  O21  1  0.055651  0.719666  0.851258  1
  O  O22  1  0.742175  0.879335  0.747057  1
  O  O23  1  0.250311  0.627811  0.246879  1
  O  O24  1  0.349205  0.571881  0.952795  1
  O  O25  1  0.051037  0.229457  0.845721  1
  O  O26  1  0.544528  0.481005  0.349162  1
  O  O27  1  0.152443  0.173482  0.552529  1
  O  O28  1  0.352755  0.075295  0.943389  1
  O  O29  1  0.157912  0.678435  0.545283  1
