# generated using pymatgen
data_CoMo12As(Rh3N2)2
_symmetry_space_group_name_H-M   'P 1'
_cell_length_a   6.81149722
_cell_length_b   6.81351563
_cell_length_c   6.82296413
_cell_angle_alpha   89.61823357
_cell_angle_beta   90.23978316
_cell_angle_gamma   90.23396755
_symmetry_Int_Tables_number   1
_chemical_formula_structural   CoMo12As(Rh3N2)2
_chemical_formula_sum   'Co1 Mo12 As1 Rh6 N4'
_cell_volume   316.64301557
_cell_formula_units_Z   1
loop_
 _symmetry_equiv_pos_site_id
 _symmetry_equiv_pos_as_xyz
  1  'x, y, z'
loop_
 _atom_site_type_symbol
 _atom_site_label
 _atom_site_symmetry_multiplicity
 _atom_site_fract_x
 _atom_site_fract_y
 _atom_site_fract_z
 _atom_site_occupancy
  Co  Co0  1  0.687879  0.183731  0.939307  1
  Mo  Mo1  1  0.623889  0.051010  0.553673  1
  Mo  Mo2  1  0.120869  0.957145  0.458003  1
  Mo  Mo3  1  0.860589  0.528854  0.944507  1
  Mo  Mo4  1  0.378777  0.443946  0.045952  1
  Mo  Mo5  1  0.205292  0.622623  0.693342  1
  Mo  Mo6  1  0.309287  0.134051  0.788344  1
  Mo  Mo7  1  0.790052  0.883473  0.206677  1
  Mo  Mo8  1  0.699331  0.373313  0.296962  1
  Mo  Mo9  1  0.038575  0.208060  0.128005  1
  Mo  Mo10  1  0.949246  0.298412  0.629554  1
  Mo  Mo11  1  0.557760  0.797550  0.871677  1
  Mo  Mo12  1  0.464295  0.694833  0.386539  1
  As  As13  1  0.188337  0.815288  0.060309  1
  Rh  Rh14  1  0.816341  0.689736  0.563297  1
  Rh  Rh15  1  0.308567  0.313043  0.433046  1
  Rh  Rh16  1  0.067700  0.579465  0.295467  1
  Rh  Rh17  1  0.428728  0.053578  0.176890  1
  Rh  Rh18  1  0.561132  0.433440  0.694947  1
  Rh  Rh19  1  0.943978  0.936159  0.829277  1
  N  N20  1  0.376811  0.874811  0.625598  1
  N  N21  1  0.872492  0.127817  0.379742  1
  N  N22  1  0.126468  0.375572  0.873168  1
  N  N23  1  0.623608  0.624089  0.125715  1
