# generated using pymatgen
data_Ti9Nb(ZnGa3)2
_symmetry_space_group_name_H-M   'P 1'
_cell_length_a   7.87361800
_cell_length_b   7.87361869
_cell_length_c   5.40081500
_cell_angle_alpha   90.00000000
_cell_angle_beta   90.00000000
_cell_angle_gamma   119.99999712
_symmetry_Int_Tables_number   1
_chemical_formula_structural   Ti9Nb(ZnGa3)2
_chemical_formula_sum   'Ti9 Nb1 Zn2 Ga6'
_cell_volume   289.96038279
_cell_formula_units_Z   1
loop_
 _symmetry_equiv_pos_site_id
 _symmetry_equiv_pos_as_xyz
  1  'x, y, z'
loop_
 _atom_site_type_symbol
 _atom_site_label
 _atom_site_symmetry_multiplicity
 _atom_site_fract_x
 _atom_site_fract_y
 _atom_site_fract_z
 _atom_site_occupancy
  Ti  Ti0  1  0.666667  0.333333  0.500000  1
  Ti  Ti1  1  0.666667  0.333333  0.000000  1
  Ti  Ti2  1  0.333333  0.666667  0.500000  1
  Ti  Ti3  1  0.301689  0.999465  0.246778  1
  Ti  Ti4  1  0.301689  0.302225  0.753222  1
  Ti  Ti5  1  0.000535  0.698311  0.753222  1
  Ti  Ti6  1  0.000535  0.302225  0.246778  1
  Ti  Ti7  1  0.697775  0.698311  0.246778  1
  Ti  Ti8  1  0.697775  0.999465  0.753222  1
  Nb  Nb9  1  0.333333  0.666667  0.000000  1
  Zn  Zn10  1  0.000000  0.000000  0.000000  1
  Zn  Zn11  1  0.000000  0.000000  0.500000  1
  Ga  Ga12  1  0.637006  0.002009  0.252807  1
  Ga  Ga13  1  0.637006  0.634997  0.747193  1
  Ga  Ga14  1  0.997991  0.362994  0.747193  1
  Ga  Ga15  1  0.997991  0.634997  0.252807  1
  Ga  Ga16  1  0.365003  0.362994  0.252807  1
  Ga  Ga17  1  0.365003  0.002009  0.747193  1
