# generated using pymatgen
data_Er2(AlPt3)3
_symmetry_space_group_name_H-M   'P 1'
_cell_length_a   7.68888424
_cell_length_b   7.68888495
_cell_length_c   10.20613465
_cell_angle_alpha   67.94768490
_cell_angle_beta   67.94768268
_cell_angle_gamma   59.77341532
_symmetry_Int_Tables_number   1
_chemical_formula_structural   Er2(AlPt3)3
_chemical_formula_sum   'Er4 Al6 Pt18'
_cell_volume   469.92366733
_cell_formula_units_Z   2
loop_
 _symmetry_equiv_pos_site_id
 _symmetry_equiv_pos_as_xyz
  1  'x, y, z'
loop_
 _atom_site_type_symbol
 _atom_site_label
 _atom_site_symmetry_multiplicity
 _atom_site_fract_x
 _atom_site_fract_y
 _atom_site_fract_z
 _atom_site_occupancy
  Er  Er0  1  0.413795  0.246775  0.250279  1
  Er  Er1  1  0.586205  0.753225  0.749721  1
  Er  Er2  1  0.753225  0.586205  0.249721  1
  Er  Er3  1  0.246775  0.413795  0.750279  1
  Al  Al4  1  0.500000  0.000000  0.000000  1
  Al  Al5  1  0.000000  0.500000  0.500000  1
  Al  Al6  1  0.646973  0.176620  0.500434  1
  Al  Al7  1  0.353027  0.823380  0.499566  1
  Al  Al8  1  0.823380  0.353027  0.999566  1
  Al  Al9  1  0.176620  0.646973  0.000434  1
  Pt  Pt10  1  0.297654  0.917171  0.251719  1
  Pt  Pt11  1  0.702346  0.082829  0.748281  1
  Pt  Pt12  1  0.082829  0.702346  0.248281  1
  Pt  Pt13  1  0.917171  0.297654  0.751719  1
  Pt  Pt14  1  0.473365  0.643172  0.076337  1
  Pt  Pt15  1  0.526635  0.356828  0.923663  1
  Pt  Pt16  1  0.356828  0.526635  0.423663  1
  Pt  Pt17  1  0.643172  0.473365  0.576337  1
  Pt  Pt18  1  0.861600  0.138400  0.250000  1
  Pt  Pt19  1  0.138400  0.861600  0.750000  1
  Pt  Pt20  1  0.807507  0.977220  0.074101  1
  Pt  Pt21  1  0.192493  0.022780  0.925899  1
  Pt  Pt22  1  0.022780  0.192493  0.425899  1
  Pt  Pt23  1  0.977220  0.807507  0.574101  1
  Pt  Pt24  1  0.694032  0.859117  0.424984  1
  Pt  Pt25  1  0.305968  0.140883  0.575016  1
  Pt  Pt26  1  0.140883  0.305968  0.075016  1
  Pt  Pt27  1  0.859117  0.694032  0.924984  1
