# generated using pymatgen
data_Dy7Er(SiPd)8
_symmetry_space_group_name_H-M   'P 1'
_cell_length_a   4.34499700
_cell_length_b   7.50939612
_cell_length_c   13.99695500
_cell_angle_alpha   89.98971492
_cell_angle_beta   90.00000000
_cell_angle_gamma   90.00000000
_symmetry_Int_Tables_number   1
_chemical_formula_structural   Dy7Er(SiPd)8
_chemical_formula_sum   'Dy7 Er1 Si8 Pd8'
_cell_volume   456.69689010
_cell_formula_units_Z   1
loop_
 _symmetry_equiv_pos_site_id
 _symmetry_equiv_pos_as_xyz
  1  'x, y, z'
loop_
 _atom_site_type_symbol
 _atom_site_label
 _atom_site_symmetry_multiplicity
 _atom_site_fract_x
 _atom_site_fract_y
 _atom_site_fract_z
 _atom_site_occupancy
  Dy  Dy0  1  0.000000  0.299138  0.999681  1
  Dy  Dy1  1  0.500000  0.700994  0.500407  1
  Dy  Dy2  1  0.000000  0.290157  0.500186  1
  Dy  Dy3  1  0.500000  0.710210  0.999667  1
  Dy  Dy4  1  0.000000  0.210244  0.248830  1
  Dy  Dy5  1  0.500000  0.789791  0.251101  1
  Dy  Dy6  1  0.000000  0.209428  0.751116  1
  Er  Er7  1  0.500000  0.788394  0.748884  1
  Si  Si8  1  0.000000  0.909629  0.593904  1
  Si  Si9  1  0.500000  0.090004  0.906247  1
  Si  Si10  1  0.000000  0.909729  0.406962  1
  Si  Si11  1  0.500000  0.090155  0.093118  1
  Si  Si12  1  0.000000  0.590723  0.144531  1
  Si  Si13  1  0.500000  0.409315  0.355474  1
  Si  Si14  1  0.000000  0.591607  0.855010  1
  Si  Si15  1  0.500000  0.409591  0.644616  1
  Pd  Pd16  1  0.500000  0.075565  0.609420  1
  Pd  Pd17  1  0.000000  0.923425  0.890632  1
  Pd  Pd18  1  0.500000  0.076547  0.391885  1
  Pd  Pd19  1  0.000000  0.923493  0.108118  1
  Pd  Pd20  1  0.500000  0.420694  0.156358  1
  Pd  Pd21  1  0.000000  0.579364  0.343576  1
  Pd  Pd22  1  0.500000  0.421423  0.842835  1
  Pd  Pd23  1  0.000000  0.580376  0.657442  1
