# generated using pymatgen
data_Tb3DyZnI6
_symmetry_space_group_name_H-M   'P 1'
_cell_length_a   4.19198500
_cell_length_b   14.20020847
_cell_length_c   14.93568050
_cell_angle_alpha   89.97038024
_cell_angle_beta   90.00000000
_cell_angle_gamma   90.00000000
_symmetry_Int_Tables_number   1
_chemical_formula_structural   Tb3DyZnI6
_chemical_formula_sum   'Tb6 Dy2 Zn2 I12'
_cell_volume   889.07704416
_cell_formula_units_Z   2
loop_
 _symmetry_equiv_pos_site_id
 _symmetry_equiv_pos_as_xyz
  1  'x, y, z'
loop_
 _atom_site_type_symbol
 _atom_site_label
 _atom_site_symmetry_multiplicity
 _atom_site_fract_x
 _atom_site_fract_y
 _atom_site_fract_z
 _atom_site_occupancy
  Tb  Tb0  1  0.500000  0.614276  0.153070  1
  Tb  Tb1  1  0.500000  0.385724  0.846930  1
  Tb  Tb2  1  0.000000  0.114417  0.577128  1
  Tb  Tb3  1  0.000000  0.885583  0.422872  1
  Tb  Tb4  1  0.000000  0.614541  0.922782  1
  Tb  Tb5  1  0.000000  0.385459  0.077218  1
  Dy  Dy6  1  0.500000  0.113980  0.347309  1
  Dy  Dy7  1  0.500000  0.886020  0.652691  1
  Zn  Zn8  1  0.500000  0.000000  0.500000  1
  Zn  Zn9  1  0.500000  0.500000  0.000000  1
  I  I10  1  0.500000  0.245004  0.163431  1
  I  I11  1  0.500000  0.754996  0.836569  1
  I  I12  1  0.500000  0.745281  0.336951  1
  I  I13  1  0.500000  0.254719  0.663049  1
  I  I14  1  0.000000  0.259459  0.413464  1
  I  I15  1  0.000000  0.740541  0.586536  1
  I  I16  1  0.000000  0.760159  0.086093  1
  I  I17  1  0.000000  0.239841  0.913907  1
  I  I18  1  0.000000  0.999425  0.238788  1
  I  I19  1  0.000000  0.000575  0.761212  1
  I  I20  1  0.000000  0.498743  0.261637  1
  I  I21  1  0.000000  0.501257  0.738363  1
