# generated using pymatgen
data_Ho8Zr12Si15Sn
_symmetry_space_group_name_H-M   'P 1'
_cell_length_a   7.16418087
_cell_length_b   7.32384406
_cell_length_c   14.01813885
_cell_angle_alpha   90.01270178
_cell_angle_beta   89.45074031
_cell_angle_gamma   90.03677086
_symmetry_Int_Tables_number   1
_chemical_formula_structural   Ho8Zr12Si15Sn
_chemical_formula_sum   'Ho8 Zr12 Si15 Sn1'
_cell_volume   735.48857801
_cell_formula_units_Z   1
loop_
 _symmetry_equiv_pos_site_id
 _symmetry_equiv_pos_as_xyz
  1  'x, y, z'
loop_
 _atom_site_type_symbol
 _atom_site_label
 _atom_site_symmetry_multiplicity
 _atom_site_fract_x
 _atom_site_fract_y
 _atom_site_fract_z
 _atom_site_occupancy
  Ho  Ho0  1  0.015698  0.178233  0.096785  1
  Ho  Ho1  1  0.982988  0.823477  0.904492  1
  Ho  Ho2  1  0.484450  0.676484  0.904701  1
  Ho  Ho3  1  0.985579  0.829237  0.598770  1
  Ho  Ho4  1  0.514671  0.322986  0.097013  1
  Ho  Ho5  1  0.008167  0.170477  0.398917  1
  Ho  Ho6  1  0.515586  0.322082  0.400193  1
  Ho  Ho7  1  0.499263  0.684444  0.600649  1
  Zr  Zr8  1  0.156051  0.497369  0.755475  1
  Zr  Zr9  1  0.842905  0.502222  0.248839  1
  Zr  Zr10  1  0.342915  0.000032  0.249267  1
  Zr  Zr11  1  0.657325  0.999865  0.751888  1
  Zr  Zr12  1  0.341270  0.163132  0.630870  1
  Zr  Zr13  1  0.668793  0.823654  0.372445  1
  Zr  Zr14  1  0.165503  0.686453  0.369030  1
  Zr  Zr15  1  0.670149  0.823044  0.123445  1
  Zr  Zr16  1  0.820931  0.321426  0.626230  1
  Zr  Zr17  1  0.326992  0.176664  0.876489  1
  Zr  Zr18  1  0.827736  0.322689  0.876654  1
  Zr  Zr19  1  0.171903  0.676829  0.124312  1
  Si  Si20  1  0.031895  0.117585  0.750893  1
  Si  Si21  1  0.964821  0.886071  0.246248  1
  Si  Si22  1  0.466922  0.616709  0.248414  1
  Si  Si23  1  0.531860  0.383943  0.752539  1
  Si  Si24  1  0.281700  0.868075  0.752735  1
  Si  Si25  1  0.716047  0.127987  0.247861  1
  Si  Si26  1  0.216461  0.373114  0.249258  1
  Si  Si27  1  0.785813  0.627032  0.751326  1
  Si  Si28  1  0.834705  0.534607  0.457540  1
  Si  Si29  1  0.343081  0.967744  0.459755  1
  Si  Si30  1  0.845217  0.530969  0.041361  1
  Si  Si31  1  0.659748  0.033720  0.536981  1
  Si  Si32  1  0.153588  0.468799  0.960399  1
  Si  Si33  1  0.651741  0.031462  0.959111  1
  Si  Si34  1  0.345149  0.968783  0.041174  1
  Sn  Sn35  1  0.172377  0.462602  0.537942  1
