# generated using pymatgen
data_Tb3ThAlRh
_symmetry_space_group_name_H-M   'P 1'
_cell_length_a   9.68475847
_cell_length_b   9.68475904
_cell_length_c   9.68476000
_cell_angle_alpha   60.00000354
_cell_angle_beta   60.00000160
_cell_angle_gamma   60.00000301
_symmetry_Int_Tables_number   1
_chemical_formula_structural   Tb3ThAlRh
_chemical_formula_sum   'Tb12 Th4 Al4 Rh4'
_cell_volume   642.32008986
_cell_formula_units_Z   4
loop_
 _symmetry_equiv_pos_site_id
 _symmetry_equiv_pos_as_xyz
  1  'x, y, z'
loop_
 _atom_site_type_symbol
 _atom_site_label
 _atom_site_symmetry_multiplicity
 _atom_site_fract_x
 _atom_site_fract_y
 _atom_site_fract_z
 _atom_site_occupancy
  Tb  Tb0  1  0.808387  0.191613  0.191613  1
  Tb  Tb1  1  0.191613  0.808387  0.808387  1
  Tb  Tb2  1  0.191613  0.808387  0.191613  1
  Tb  Tb3  1  0.808387  0.191613  0.808387  1
  Tb  Tb4  1  0.191613  0.191613  0.808387  1
  Tb  Tb5  1  0.808387  0.808387  0.191613  1
  Tb  Tb6  1  0.934995  0.565005  0.565005  1
  Tb  Tb7  1  0.565005  0.934995  0.934995  1
  Tb  Tb8  1  0.565005  0.934995  0.565005  1
  Tb  Tb9  1  0.934995  0.565005  0.934995  1
  Tb  Tb10  1  0.565005  0.565005  0.934995  1
  Tb  Tb11  1  0.934995  0.934995  0.565005  1
  Th  Th12  1  0.350952  0.350952  0.350952  1
  Th  Th13  1  0.350952  0.350952  0.947144  1
  Th  Th14  1  0.350952  0.947144  0.350952  1
  Th  Th15  1  0.947144  0.350952  0.350952  1
  Al  Al16  1  0.578427  0.578427  0.578427  1
  Al  Al17  1  0.578427  0.578427  0.264721  1
  Al  Al18  1  0.578427  0.264721  0.578427  1
  Al  Al19  1  0.264721  0.578427  0.578427  1
  Rh  Rh20  1  0.144291  0.144291  0.144291  1
  Rh  Rh21  1  0.144291  0.144291  0.567126  1
  Rh  Rh22  1  0.144291  0.567126  0.144291  1
  Rh  Rh23  1  0.567126  0.144291  0.144291  1
