# generated using pymatgen
data_DyTm5Lu10(CdIr)4
_symmetry_space_group_name_H-M   'P 1'
_cell_length_a   9.47844186
_cell_length_b   9.48053661
_cell_length_c   9.50003300
_cell_angle_alpha   59.93195282
_cell_angle_beta   59.92462183
_cell_angle_gamma   59.82154558
_symmetry_Int_Tables_number   1
_chemical_formula_structural   DyTm5Lu10(CdIr)4
_chemical_formula_sum   'Dy1 Tm5 Lu10 Cd4 Ir4'
_cell_volume   602.17193084
_cell_formula_units_Z   1
loop_
 _symmetry_equiv_pos_site_id
 _symmetry_equiv_pos_as_xyz
  1  'x, y, z'
loop_
 _atom_site_type_symbol
 _atom_site_label
 _atom_site_symmetry_multiplicity
 _atom_site_fract_x
 _atom_site_fract_y
 _atom_site_fract_z
 _atom_site_occupancy
  Dy  Dy0  1  0.189163  0.189189  0.810824  1
  Tm  Tm1  1  0.189555  0.810392  0.810868  1
  Tm  Tm2  1  0.810385  0.189556  0.189170  1
  Tm  Tm3  1  0.810385  0.189556  0.810889  1
  Tm  Tm4  1  0.189555  0.810392  0.189185  1
  Tm  Tm5  1  0.810951  0.810963  0.189043  1
  Lu  Lu6  1  0.599078  0.599049  0.597842  1
  Lu  Lu7  1  0.599078  0.599049  0.204031  1
  Lu  Lu8  1  0.599709  0.203799  0.598245  1
  Lu  Lu9  1  0.203792  0.599678  0.598265  1
  Lu  Lu10  1  0.061146  0.437789  0.438950  1
  Lu  Lu11  1  0.437827  0.061120  0.062061  1
  Lu  Lu12  1  0.437827  0.061120  0.438992  1
  Lu  Lu13  1  0.061146  0.437789  0.062114  1
  Lu  Lu14  1  0.438441  0.438493  0.061533  1
  Lu  Lu15  1  0.061671  0.061656  0.438336  1
  Cd  Cd16  1  0.830392  0.830394  0.830913  1
  Cd  Cd17  1  0.830392  0.830394  0.508301  1
  Cd  Cd18  1  0.830526  0.506770  0.831352  1
  Cd  Cd19  1  0.506768  0.830533  0.831350  1
  Ir  Ir20  1  0.392266  0.392269  0.390657  1
  Ir  Ir21  1  0.392266  0.392269  0.824808  1
  Ir  Ir22  1  0.392455  0.825275  0.391135  1
  Ir  Ir23  1  0.825225  0.392507  0.391134  1
