# generated using pymatgen
data_Ca3ErAs3
_symmetry_space_group_name_H-M   'P 1'
_cell_length_a   7.64654807
_cell_length_b   7.74160875
_cell_length_c   7.64654805
_cell_angle_alpha   109.62672787
_cell_angle_beta   108.84404322
_cell_angle_gamma   109.62673287
_symmetry_Int_Tables_number   1
_chemical_formula_structural   Ca3ErAs3
_chemical_formula_sum   'Ca6 Er2 As6'
_cell_volume   349.78643740
_cell_formula_units_Z   2
loop_
 _symmetry_equiv_pos_site_id
 _symmetry_equiv_pos_as_xyz
  1  'x, y, z'
loop_
 _atom_site_type_symbol
 _atom_site_label
 _atom_site_symmetry_multiplicity
 _atom_site_fract_x
 _atom_site_fract_y
 _atom_site_fract_z
 _atom_site_occupancy
  Ca  Ca0  1  0.365423  0.362180  0.367187  1
  Ca  Ca1  1  0.997894  0.132287  0.495099  1
  Ca  Ca2  1  0.867187  0.862180  0.865423  1
  Ca  Ca3  1  0.995099  0.632287  0.497894  1
  Ca  Ca4  1  0.634827  0.505408  0.003030  1
  Ca  Ca5  1  0.503030  0.005408  0.134827  1
  Er  Er6  1  0.135540  0.500238  0.000572  1
  Er  Er7  1  0.500572  0.000238  0.635540  1
  As  As8  1  0.876240  0.250323  0.112149  1
  As  As9  1  0.134684  0.868954  0.253768  1
  As  As10  1  0.371508  0.630609  0.752081  1
  As  As11  1  0.252081  0.130609  0.871508  1
  As  As12  1  0.753768  0.368954  0.634684  1
  As  As13  1  0.612149  0.750323  0.376240  1
