# generated using pymatgen
data_MgU3(PO4)6
_symmetry_space_group_name_H-M   'P 1'
_cell_length_a   9.08204605
_cell_length_b   9.08243364
_cell_length_c   9.39518500
_cell_angle_alpha   90.08911274
_cell_angle_beta   118.79524108
_cell_angle_gamma   119.99585765
_symmetry_Int_Tables_number   1
_chemical_formula_structural   MgU3(PO4)6
_chemical_formula_sum   'Mg1 U3 P6 O24'
_cell_volume   557.39139494
_cell_formula_units_Z   1
loop_
 _symmetry_equiv_pos_site_id
 _symmetry_equiv_pos_as_xyz
  1  'x, y, z'
loop_
 _atom_site_type_symbol
 _atom_site_label
 _atom_site_symmetry_multiplicity
 _atom_site_fract_x
 _atom_site_fract_y
 _atom_site_fract_z
 _atom_site_occupancy
  Mg  Mg0  1  0.212334  0.857421  0.069148  1
  U  U1  1  0.786060  0.641996  0.428727  1
  U  U2  1  0.208552  0.355208  0.563355  1
  U  U3  1  0.785736  0.141862  0.927925  1
  P  P4  1  0.011920  0.963203  0.244653  1
  P  P5  1  0.280925  0.548836  0.246127  1
  P  P6  1  0.280777  0.748274  0.759063  1
  P  P7  1  0.696394  0.231558  0.247087  1
  P  P8  1  0.727975  0.480408  0.760211  1
  P  P9  1  0.014755  0.034364  0.762174  1
  O  O10  1  0.283401  0.709968  0.219195  1
  O  O11  1  0.869042  0.992780  0.084614  1
  O  O12  1  0.868669  0.865622  0.596663  1
  O  O13  1  0.864183  0.804530  0.279185  1
  O  O14  1  0.149653  0.935761  0.225815  1
  O  O15  1  0.475817  0.562193  0.282405  1
  O  O16  1  0.094711  0.724890  0.588554  1
  O  O17  1  0.906544  0.640482  0.913073  1
  O  O18  1  0.275004  0.773662  0.911734  1
  O  O19  1  0.477460  0.906992  0.774492  1
  O  O20  1  0.727571  0.495333  0.592426  1
  O  O21  1  0.714109  0.411697  0.275781  1
  O  O22  1  0.273146  0.575023  0.721415  1
  O  O23  1  0.267862  0.508803  0.404960  1
  O  O24  1  0.511441  0.072976  0.224906  1
  O  O25  1  0.717180  0.214832  0.091468  1
  O  O26  1  0.092544  0.371227  0.090540  1
  O  O27  1  0.898270  0.265966  0.408210  1
  O  O28  1  0.520795  0.447317  0.714414  1
  O  O29  1  0.869922  0.072714  0.774122  1
  O  O30  1  0.145551  0.195229  0.717340  1
  O  O31  1  0.137026  0.135914  0.400523  1
  O  O32  1  0.146837  0.012042  0.919401  1
  O  O33  1  0.707832  0.300916  0.780296  1
