# generated using pymatgen
data_Er4(PbO4)3
_symmetry_space_group_name_H-M   'P 1'
_cell_length_a   6.44455929
_cell_length_b   6.51293617
_cell_length_c   6.69838684
_cell_angle_alpha   100.49207997
_cell_angle_beta   98.42925932
_cell_angle_gamma   99.58206777
_symmetry_Int_Tables_number   1
_chemical_formula_structural   Er4(PbO4)3
_chemical_formula_sum   'Er4 Pb3 O12'
_cell_volume   268.01794143
_cell_formula_units_Z   1
loop_
 _symmetry_equiv_pos_site_id
 _symmetry_equiv_pos_as_xyz
  1  'x, y, z'
loop_
 _atom_site_type_symbol
 _atom_site_label
 _atom_site_symmetry_multiplicity
 _atom_site_fract_x
 _atom_site_fract_y
 _atom_site_fract_z
 _atom_site_occupancy
  Er  Er0  1  0.395602  0.699965  0.861729  1
  Er  Er1  1  0.693168  0.868484  0.389473  1
  Er  Er2  1  0.604398  0.300035  0.138271  1
  Er  Er3  1  0.306832  0.131516  0.610527  1
  Pb  Pb4  1  0.000000  0.000000  0.000000  1
  Pb  Pb5  1  0.852448  0.398076  0.677689  1
  Pb  Pb6  1  0.147552  0.601924  0.322311  1
  O  O7  1  0.049067  0.675581  0.897008  1
  O  O8  1  0.679480  0.933185  0.063250  1
  O  O9  1  0.922488  0.072991  0.684186  1
  O  O10  1  0.950933  0.324419  0.102992  1
  O  O11  1  0.320520  0.066815  0.936750  1
  O  O12  1  0.077512  0.927009  0.315814  1
  O  O13  1  0.577455  0.182779  0.427590  1
  O  O14  1  0.177393  0.422911  0.580467  1
  O  O15  1  0.423759  0.583796  0.174585  1
  O  O16  1  0.422545  0.817221  0.572410  1
  O  O17  1  0.822607  0.577089  0.419533  1
  O  O18  1  0.576241  0.416204  0.825415  1
