# generated using pymatgen
data_In2Ni(RhSe)2
_symmetry_space_group_name_H-M   'P 1'
_cell_length_a   5.78576962
_cell_length_b   5.85831618
_cell_length_c   5.78576927
_cell_angle_alpha   57.34904106
_cell_angle_beta   59.77603436
_cell_angle_gamma   57.34902678
_symmetry_Int_Tables_number   1
_chemical_formula_structural   In2Ni(RhSe)2
_chemical_formula_sum   'In2 Ni1 Rh2 Se2'
_cell_volume   132.64403111
_cell_formula_units_Z   1
loop_
 _symmetry_equiv_pos_site_id
 _symmetry_equiv_pos_as_xyz
  1  'x, y, z'
loop_
 _atom_site_type_symbol
 _atom_site_label
 _atom_site_symmetry_multiplicity
 _atom_site_fract_x
 _atom_site_fract_y
 _atom_site_fract_z
 _atom_site_occupancy
  In  In0  1  0.000000  0.000000  0.000000  1
  In  In1  1  0.500000  0.500000  0.500000  1
  Ni  Ni2  1  0.000000  0.500000  0.000000  1
  Rh  Rh3  1  0.000000  0.000000  0.500000  1
  Rh  Rh4  1  0.500000  0.000000  0.000000  1
  Se  Se5  1  0.719917  0.700748  0.719917  1
  Se  Se6  1  0.280083  0.299252  0.280083  1
