# generated using pymatgen
data_Tb8Sc12Si15B
_symmetry_space_group_name_H-M   'P 1'
_cell_length_a   7.03762812
_cell_length_b   7.38674491
_cell_length_c   13.94401800
_cell_angle_alpha   90.00000000
_cell_angle_beta   90.00000000
_cell_angle_gamma   89.44422221
_symmetry_Int_Tables_number   1
_chemical_formula_structural   Tb8Sc12Si15B
_chemical_formula_sum   'Tb8 Sc12 Si15 B1'
_cell_volume   724.84795549
_cell_formula_units_Z   1
loop_
 _symmetry_equiv_pos_site_id
 _symmetry_equiv_pos_as_xyz
  1  'x, y, z'
loop_
 _atom_site_type_symbol
 _atom_site_label
 _atom_site_symmetry_multiplicity
 _atom_site_fract_x
 _atom_site_fract_y
 _atom_site_fract_z
 _atom_site_occupancy
  Tb  Tb0  1  0.009942  0.177887  0.096906  1
  Tb  Tb1  1  0.988554  0.829299  0.902689  1
  Tb  Tb2  1  0.489120  0.677762  0.901792  1
  Tb  Tb3  1  0.988554  0.829299  0.597311  1
  Tb  Tb4  1  0.511271  0.325046  0.095426  1
  Tb  Tb5  1  0.009942  0.177887  0.403094  1
  Tb  Tb6  1  0.511271  0.325046  0.404574  1
  Tb  Tb7  1  0.489120  0.677762  0.598208  1
  Sc  Sc8  1  0.166708  0.509441  0.750000  1
  Sc  Sc9  1  0.838573  0.498070  0.250000  1
  Sc  Sc10  1  0.338338  0.002783  0.250000  1
  Sc  Sc11  1  0.672679  0.998346  0.750000  1
  Sc  Sc12  1  0.314693  0.174320  0.629474  1
  Sc  Sc13  1  0.669108  0.823646  0.375458  1
  Sc  Sc14  1  0.168327  0.676825  0.375573  1
  Sc  Sc15  1  0.669108  0.823646  0.124542  1
  Sc  Sc16  1  0.849204  0.310419  0.632220  1
  Sc  Sc17  1  0.314693  0.174320  0.870526  1
  Sc  Sc18  1  0.849204  0.310419  0.867780  1
  Sc  Sc19  1  0.168327  0.676825  0.124427  1
  Si  Si20  1  0.966220  0.882060  0.250000  1
  Si  Si21  1  0.466814  0.617593  0.250000  1
  Si  Si22  1  0.538901  0.379190  0.750000  1
  Si  Si23  1  0.268317  0.887083  0.750000  1
  Si  Si24  1  0.711106  0.127450  0.250000  1
  Si  Si25  1  0.213948  0.374181  0.250000  1
  Si  Si26  1  0.788114  0.621108  0.750000  1
  Si  Si27  1  0.158037  0.466479  0.539919  1
  Si  Si28  1  0.841009  0.535183  0.464955  1
  Si  Si29  1  0.341006  0.964429  0.462991  1
  Si  Si30  1  0.841009  0.535183  0.035045  1
  Si  Si31  1  0.653452  0.037949  0.540770  1
  Si  Si32  1  0.158037  0.466479  0.960081  1
  Si  Si33  1  0.653452  0.037949  0.959230  1
  Si  Si34  1  0.341006  0.964429  0.037009  1
  B  B35  1  0.042841  0.104210  0.750000  1
