# generated using pymatgen
data_Li2CrSn(PO4)3
_symmetry_space_group_name_H-M   'P 1'
_cell_length_a   8.67531000
_cell_length_b   8.80770500
_cell_length_c   12.29150200
_cell_angle_alpha   90.00000000
_cell_angle_beta   90.00000000
_cell_angle_gamma   90.00000000
_symmetry_Int_Tables_number   1
_chemical_formula_structural   Li2CrSn(PO4)3
_chemical_formula_sum   'Li8 Cr4 Sn4 P12 O48'
_cell_volume   939.18839801
_cell_formula_units_Z   4
loop_
 _symmetry_equiv_pos_site_id
 _symmetry_equiv_pos_as_xyz
  1  'x, y, z'
loop_
 _atom_site_type_symbol
 _atom_site_label
 _atom_site_symmetry_multiplicity
 _atom_site_fract_x
 _atom_site_fract_y
 _atom_site_fract_z
 _atom_site_occupancy
  Li  Li0  1  0.469223  0.786244  0.684244  1
  Li  Li1  1  0.533822  0.276637  0.821459  1
  Li  Li2  1  0.530777  0.213756  0.184244  1
  Li  Li3  1  0.466178  0.723363  0.321459  1
  Li  Li4  1  0.033822  0.223363  0.321459  1
  Li  Li5  1  0.969223  0.713756  0.184244  1
  Li  Li6  1  0.966178  0.776637  0.821459  1
  Li  Li7  1  0.030777  0.286244  0.684244  1
  Cr  Cr8  1  0.497273  0.965079  0.886583  1
  Cr  Cr9  1  0.502727  0.034921  0.386583  1
  Cr  Cr10  1  0.997273  0.534921  0.386583  1
  Cr  Cr11  1  0.002727  0.465079  0.886583  1
  Sn  Sn12  1  0.501413  0.463002  0.612529  1
  Sn  Sn13  1  0.498587  0.536998  0.112529  1
  Sn  Sn14  1  0.001413  0.036998  0.112529  1
  Sn  Sn15  1  0.998587  0.963002  0.612529  1
  P  P16  1  0.709376  0.749698  0.497210  1
  P  P17  1  0.290624  0.250302  0.997210  1
  P  P18  1  0.790624  0.249698  0.497210  1
  P  P19  1  0.209376  0.750302  0.997210  1
  P  P20  1  0.647671  0.609060  0.851092  1
  P  P21  1  0.357431  0.104861  0.646215  1
  P  P22  1  0.352329  0.390940  0.351092  1
  P  P23  1  0.642569  0.895139  0.146215  1
  P  P24  1  0.857431  0.395139  0.146215  1
  P  P25  1  0.147671  0.890940  0.351092  1
  P  P26  1  0.142569  0.604861  0.646215  1
  P  P27  1  0.852329  0.109060  0.851092  1
  O  O28  1  0.422085  0.987393  0.727516  1
  O  O29  1  0.577422  0.484450  0.774025  1
  O  O30  1  0.577915  0.012607  0.227516  1
  O  O31  1  0.422578  0.515550  0.274025  1
  O  O32  1  0.077422  0.015550  0.274025  1
  O  O33  1  0.922085  0.512607  0.227516  1
  O  O34  1  0.922578  0.984450  0.774025  1
  O  O35  1  0.077915  0.487393  0.727516  1
  O  O36  1  0.585034  0.767477  0.820857  1
  O  O37  1  0.413189  0.267064  0.681989  1
  O  O38  1  0.414966  0.232523  0.320857  1
  O  O39  1  0.586811  0.732936  0.181989  1
  O  O40  1  0.913189  0.232936  0.181989  1
  O  O41  1  0.085034  0.732523  0.320857  1
  O  O42  1  0.086811  0.767064  0.681989  1
  O  O43  1  0.914966  0.267477  0.820857  1
  O  O44  1  0.599231  0.560529  0.966078  1
  O  O45  1  0.405355  0.065809  0.530977  1
  O  O46  1  0.400769  0.439471  0.466078  1
  O  O47  1  0.594645  0.934191  0.030977  1
  O  O48  1  0.905355  0.434191  0.030977  1
  O  O49  1  0.099231  0.939471  0.466078  1
  O  O50  1  0.094645  0.565809  0.530977  1
  O  O51  1  0.900769  0.060529  0.966078  1
  O  O52  1  0.601674  0.668933  0.582214  1
  O  O53  1  0.399906  0.165274  0.918723  1
  O  O54  1  0.398326  0.331067  0.082214  1
  O  O55  1  0.600094  0.834726  0.418723  1
  O  O56  1  0.899906  0.334726  0.418723  1
  O  O57  1  0.101674  0.831067  0.082214  1
  O  O58  1  0.100094  0.665274  0.918723  1
  O  O59  1  0.898326  0.168933  0.582214  1
  O  O60  1  0.322810  0.611203  0.656858  1
  O  O61  1  0.675101  0.107323  0.841183  1
  O  O62  1  0.677190  0.388797  0.156858  1
  O  O63  1  0.324899  0.892677  0.341183  1
  O  O64  1  0.175101  0.392677  0.341183  1
  O  O65  1  0.822810  0.888797  0.156858  1
  O  O66  1  0.824899  0.607323  0.841183  1
  O  O67  1  0.177190  0.111203  0.656858  1
  O  O68  1  0.304914  0.861525  0.931364  1
  O  O69  1  0.699416  0.361187  0.568885  1
  O  O70  1  0.695086  0.138475  0.431364  1
  O  O71  1  0.300584  0.638813  0.068885  1
  O  O72  1  0.199416  0.138813  0.068885  1
  O  O73  1  0.804914  0.638475  0.431364  1
  O  O74  1  0.800584  0.861187  0.568885  1
  O  O75  1  0.195086  0.361525  0.931364  1
