# generated using pymatgen
data_Tb16Al4FePd3
_symmetry_space_group_name_H-M   'P 1'
_cell_length_a   9.60151886
_cell_length_b   9.60151878
_cell_length_c   9.60151895
_cell_angle_alpha   59.94728244
_cell_angle_beta   59.94728281
_cell_angle_gamma   59.94727732
_symmetry_Int_Tables_number   1
_chemical_formula_structural   Tb16Al4FePd3
_chemical_formula_sum   'Tb16 Al4 Fe1 Pd3'
_cell_volume   625.15144174
_cell_formula_units_Z   1
loop_
 _symmetry_equiv_pos_site_id
 _symmetry_equiv_pos_as_xyz
  1  'x, y, z'
loop_
 _atom_site_type_symbol
 _atom_site_label
 _atom_site_symmetry_multiplicity
 _atom_site_fract_x
 _atom_site_fract_y
 _atom_site_fract_z
 _atom_site_occupancy
  Tb  Tb0  1  0.356141  0.356141  0.356141  1
  Tb  Tb1  1  0.348545  0.348545  0.942293  1
  Tb  Tb2  1  0.348545  0.942293  0.348545  1
  Tb  Tb3  1  0.942293  0.348545  0.348545  1
  Tb  Tb4  1  0.818496  0.190931  0.190931  1
  Tb  Tb5  1  0.192699  0.806322  0.806322  1
  Tb  Tb6  1  0.190931  0.818496  0.190931  1
  Tb  Tb7  1  0.806322  0.192699  0.806322  1
  Tb  Tb8  1  0.190931  0.190931  0.818496  1
  Tb  Tb9  1  0.806322  0.806322  0.192699  1
  Tb  Tb10  1  0.934608  0.563589  0.563589  1
  Tb  Tb11  1  0.560018  0.935864  0.935864  1
  Tb  Tb12  1  0.563589  0.934608  0.563589  1
  Tb  Tb13  1  0.935864  0.560018  0.935864  1
  Tb  Tb14  1  0.563589  0.563589  0.934608  1
  Tb  Tb15  1  0.935864  0.935864  0.560018  1
  Al  Al16  1  0.576941  0.576941  0.576941  1
  Al  Al17  1  0.578162  0.578162  0.268981  1
  Al  Al18  1  0.578162  0.268981  0.578162  1
  Al  Al19  1  0.268981  0.578162  0.578162  1
  Fe  Fe20  1  0.142851  0.142851  0.142851  1
  Pd  Pd21  1  0.145863  0.145863  0.568423  1
  Pd  Pd22  1  0.145863  0.568423  0.145863  1
  Pd  Pd23  1  0.568423  0.145863  0.145863  1
