# generated using pymatgen
data_TbLu7(BCl6)2
_symmetry_space_group_name_H-M   'P 1'
_cell_length_a   3.77600100
_cell_length_b   12.40737553
_cell_length_c   12.85494131
_cell_angle_alpha   90.39202650
_cell_angle_beta   90.00000000
_cell_angle_gamma   90.00000000
_symmetry_Int_Tables_number   1
_chemical_formula_structural   TbLu7(BCl6)2
_chemical_formula_sum   'Tb1 Lu7 B2 Cl12'
_cell_volume   602.24327607
_cell_formula_units_Z   1
loop_
 _symmetry_equiv_pos_site_id
 _symmetry_equiv_pos_as_xyz
  1  'x, y, z'
loop_
 _atom_site_type_symbol
 _atom_site_label
 _atom_site_symmetry_multiplicity
 _atom_site_fract_x
 _atom_site_fract_y
 _atom_site_fract_z
 _atom_site_occupancy
  Tb  Tb0  1  0.500000  0.127110  0.850490  1
  Lu  Lu1  1  0.000000  0.104414  0.083336  1
  Lu  Lu2  1  0.000000  0.895110  0.917219  1
  Lu  Lu3  1  0.000000  0.604810  0.416995  1
  Lu  Lu4  1  0.000000  0.396203  0.582131  1
  Lu  Lu5  1  0.500000  0.874115  0.148107  1
  Lu  Lu6  1  0.500000  0.625657  0.647569  1
  Lu  Lu7  1  0.500000  0.374527  0.352257  1
  B  B8  1  0.500000  0.998354  0.001940  1
  B  B9  1  0.500000  0.500495  0.499602  1
  Cl  Cl10  1  0.500000  0.271701  0.678308  1
  Cl  Cl11  1  0.500000  0.731447  0.317474  1
  Cl  Cl12  1  0.500000  0.767283  0.817116  1
  Cl  Cl13  1  0.500000  0.231903  0.183846  1
  Cl  Cl14  1  0.000000  0.262319  0.936092  1
  Cl  Cl15  1  0.000000  0.742614  0.071113  1
  Cl  Cl16  1  0.000000  0.477685  0.243258  1
  Cl  Cl17  1  0.000000  0.522421  0.756604  1
  Cl  Cl18  1  0.000000  0.977714  0.257650  1
  Cl  Cl19  1  0.000000  0.014092  0.739149  1
  Cl  Cl20  1  0.000000  0.243477  0.428779  1
  Cl  Cl21  1  0.000000  0.756549  0.570966  1
