# generated using pymatgen
data_Nd3CdHg2Pd3
_symmetry_space_group_name_H-M   'P 1'
_cell_length_a   7.86418494
_cell_length_b   7.86418482
_cell_length_c   3.96482800
_cell_angle_alpha   90.00000000
_cell_angle_beta   90.00000000
_cell_angle_gamma   120.66879595
_symmetry_Int_Tables_number   1
_chemical_formula_structural   Nd3CdHg2Pd3
_chemical_formula_sum   'Nd3 Cd1 Hg2 Pd3'
_cell_volume   210.90941836
_cell_formula_units_Z   1
loop_
 _symmetry_equiv_pos_site_id
 _symmetry_equiv_pos_as_xyz
  1  'x, y, z'
loop_
 _atom_site_type_symbol
 _atom_site_label
 _atom_site_symmetry_multiplicity
 _atom_site_fract_x
 _atom_site_fract_y
 _atom_site_fract_z
 _atom_site_occupancy
  Nd  Nd0  1  0.597987  0.004955  0.000000  1
  Nd  Nd1  1  0.004955  0.597987  0.000000  1
  Nd  Nd2  1  0.393857  0.393857  0.000000  1
  Cd  Cd3  1  0.740646  0.740646  0.500000  1
  Hg  Hg4  1  0.261715  0.996705  0.500000  1
  Hg  Hg5  1  0.996705  0.261715  0.500000  1
  Pd  Pd6  1  0.340600  0.667720  0.500000  1
  Pd  Pd7  1  0.667720  0.340600  0.500000  1
  Pd  Pd8  1  0.995815  0.995815  0.000000  1
