# generated using pymatgen
data_Ce12Al6Tc5Ru
_symmetry_space_group_name_H-M   'P 1'
_cell_length_a   7.91402594
_cell_length_b   7.91402534
_cell_length_c   9.68694128
_cell_angle_alpha   90.06113819
_cell_angle_beta   90.06114046
_cell_angle_gamma   119.88818444
_symmetry_Int_Tables_number   1
_chemical_formula_structural   Ce12Al6Tc5Ru
_chemical_formula_sum   'Ce12 Al6 Tc5 Ru1'
_cell_volume   526.01659907
_cell_formula_units_Z   1
loop_
 _symmetry_equiv_pos_site_id
 _symmetry_equiv_pos_as_xyz
  1  'x, y, z'
loop_
 _atom_site_type_symbol
 _atom_site_label
 _atom_site_symmetry_multiplicity
 _atom_site_fract_x
 _atom_site_fract_y
 _atom_site_fract_z
 _atom_site_occupancy
  Ce  Ce0  1  0.999776  0.574264  0.502046  1
  Ce  Ce1  1  0.574264  0.999776  0.502046  1
  Ce  Ce2  1  0.423941  0.423941  0.501000  1
  Ce  Ce3  1  0.998940  0.422827  0.001295  1
  Ce  Ce4  1  0.422827  0.998940  0.001295  1
  Ce  Ce5  1  0.582208  0.582208  0.002564  1
  Ce  Ce6  1  0.999481  0.739960  0.178104  1
  Ce  Ce7  1  0.739960  0.999481  0.178104  1
  Ce  Ce8  1  0.261984  0.261984  0.176290  1
  Ce  Ce9  1  0.999141  0.261948  0.677375  1
  Ce  Ce10  1  0.261948  0.999141  0.677375  1
  Ce  Ce11  1  0.739224  0.739224  0.677462  1
  Al  Al12  1  0.666703  0.333365  0.266512  1
  Al  Al13  1  0.333365  0.666703  0.266512  1
  Al  Al14  1  0.333331  0.664605  0.767635  1
  Al  Al15  1  0.664605  0.333331  0.767635  1
  Al  Al16  1  0.000867  0.000867  0.425326  1
  Al  Al17  1  0.999790  0.999790  0.924394  1
  Tc  Tc18  1  0.000140  0.343699  0.338709  1
  Tc  Tc19  1  0.343699  0.000140  0.338709  1
  Tc  Tc20  1  0.655974  0.655974  0.339905  1
  Tc  Tc21  1  0.999444  0.655524  0.839866  1
  Tc  Tc22  1  0.655524  0.999444  0.839866  1
  Ru  Ru23  1  0.342864  0.342864  0.839226  1
