# generated using pymatgen
data_Eu16In4CuIr3
_symmetry_space_group_name_H-M   'P 1'
_cell_length_a   10.21885112
_cell_length_b   10.21885168
_cell_length_c   10.21885157
_cell_angle_alpha   60.46872048
_cell_angle_beta   60.46872186
_cell_angle_gamma   60.46872243
_symmetry_Int_Tables_number   1
_chemical_formula_structural   Eu16In4CuIr3
_chemical_formula_sum   'Eu16 In4 Cu1 Ir3'
_cell_volume   762.55030729
_cell_formula_units_Z   1
loop_
 _symmetry_equiv_pos_site_id
 _symmetry_equiv_pos_as_xyz
  1  'x, y, z'
loop_
 _atom_site_type_symbol
 _atom_site_label
 _atom_site_symmetry_multiplicity
 _atom_site_fract_x
 _atom_site_fract_y
 _atom_site_fract_z
 _atom_site_occupancy
  Eu  Eu0  1  0.100443  0.707256  0.100443  1
  Eu  Eu1  1  0.944116  0.944116  0.550128  1
  Eu  Eu2  1  0.944116  0.550128  0.944116  1
  Eu  Eu3  1  0.305257  0.695048  0.305257  1
  Eu  Eu4  1  0.943383  0.557752  0.557752  1
  Eu  Eu5  1  0.305257  0.305257  0.695048  1
  Eu  Eu6  1  0.094382  0.094382  0.094382  1
  Eu  Eu7  1  0.557752  0.557752  0.943383  1
  Eu  Eu8  1  0.100443  0.100443  0.707256  1
  Eu  Eu9  1  0.693694  0.310405  0.693694  1
  Eu  Eu10  1  0.693694  0.693694  0.310405  1
  Eu  Eu11  1  0.695048  0.305257  0.305257  1
  Eu  Eu12  1  0.310405  0.693694  0.693694  1
  Eu  Eu13  1  0.557752  0.943383  0.557752  1
  Eu  Eu14  1  0.707256  0.100443  0.100443  1
  Eu  Eu15  1  0.550128  0.944116  0.944116  1
  In  In16  1  0.329134  0.329134  0.329134  1
  In  In17  1  0.014521  0.328406  0.328406  1
  In  In18  1  0.328406  0.014521  0.328406  1
  In  In19  1  0.328406  0.328406  0.014521  1
  Cu  Cu20  1  0.890367  0.890367  0.890367  1
  Ir  Ir21  1  0.887023  0.887023  0.331993  1
  Ir  Ir22  1  0.331993  0.887023  0.887023  1
  Ir  Ir23  1  0.887023  0.331993  0.887023  1
