# generated using pymatgen
data_Sc4Ge6Ru3Pt4
_symmetry_space_group_name_H-M   'P 1'
_cell_length_a   7.13167121
_cell_length_b   7.13573102
_cell_length_c   7.13167186
_cell_angle_alpha   109.40847774
_cell_angle_beta   109.57376827
_cell_angle_gamma   109.40847976
_symmetry_Int_Tables_number   1
_chemical_formula_structural   Sc4Ge6Ru3Pt4
_chemical_formula_sum   'Sc4 Ge6 Ru3 Pt4'
_cell_volume   279.46100266
_cell_formula_units_Z   1
loop_
 _symmetry_equiv_pos_site_id
 _symmetry_equiv_pos_as_xyz
  1  'x, y, z'
loop_
 _atom_site_type_symbol
 _atom_site_label
 _atom_site_symmetry_multiplicity
 _atom_site_fract_x
 _atom_site_fract_y
 _atom_site_fract_z
 _atom_site_occupancy
  Sc  Sc0  1  0.997452  0.994904  0.497452  1
  Sc  Sc1  1  0.007598  0.505382  0.007598  1
  Sc  Sc2  1  0.497452  0.994904  0.997452  1
  Sc  Sc3  1  0.497784  0.505382  0.497784  1
  Ge  Ge4  1  0.691098  0.695230  0.004132  1
  Ge  Ge5  1  0.305967  0.990889  0.305967  1
  Ge  Ge6  1  0.004506  0.313377  0.308871  1
  Ge  Ge7  1  0.308871  0.313377  0.004506  1
  Ge  Ge8  1  0.684920  0.990889  0.684921  1
  Ge  Ge9  1  0.004132  0.695230  0.691098  1
  Ru  Ru10  1  0.249298  0.749892  0.500594  1
  Ru  Ru11  1  0.500594  0.749892  0.249298  1
  Ru  Ru12  1  0.999540  0.999080  0.999540  1
  Pt  Pt13  1  0.749821  0.249734  0.499913  1
  Pt  Pt14  1  0.750526  0.501053  0.250526  1
  Pt  Pt15  1  0.499913  0.249734  0.749821  1
  Pt  Pt16  1  0.250526  0.501053  0.750526  1
