# generated using pymatgen
data_YbSmTm4Lu4(In2Pt)4
_symmetry_space_group_name_H-M   'P 1'
_cell_length_a   3.62395200
_cell_length_b   8.07425801
_cell_length_c   18.07744035
_cell_angle_alpha   90.01370836
_cell_angle_beta   90.00000000
_cell_angle_gamma   90.00000000
_symmetry_Int_Tables_number   1
_chemical_formula_structural   YbSmTm4Lu4(In2Pt)4
_chemical_formula_sum   'Yb1 Sm1 Tm4 Lu4 In8 Pt4'
_cell_volume   528.95896765
_cell_formula_units_Z   1
loop_
 _symmetry_equiv_pos_site_id
 _symmetry_equiv_pos_as_xyz
  1  'x, y, z'
loop_
 _atom_site_type_symbol
 _atom_site_label
 _atom_site_symmetry_multiplicity
 _atom_site_fract_x
 _atom_site_fract_y
 _atom_site_fract_z
 _atom_site_occupancy
  Yb  Yb0  1  0.000000  0.000000  0.000000  1
  Sm  Sm1  1  0.000000  0.500000  0.500000  1
  Tm  Tm2  1  0.000000  0.243254  0.220090  1
  Tm  Tm3  1  0.000000  0.756746  0.779910  1
  Tm  Tm4  1  0.000000  0.256204  0.721317  1
  Tm  Tm5  1  0.000000  0.743796  0.278683  1
  Lu  Lu6  1  0.000000  0.119302  0.412308  1
  Lu  Lu7  1  0.000000  0.880698  0.587692  1
  Lu  Lu8  1  0.000000  0.381047  0.913367  1
  Lu  Lu9  1  0.000000  0.618953  0.086633  1
  In  In10  1  0.500000  0.424139  0.349683  1
  In  In11  1  0.500000  0.575861  0.650317  1
  In  In12  1  0.500000  0.074011  0.851469  1
  In  In13  1  0.500000  0.925989  0.148531  1
  In  In14  1  0.500000  0.296841  0.065836  1
  In  In15  1  0.500000  0.703159  0.934164  1
  In  In16  1  0.500000  0.200437  0.566188  1
  In  In17  1  0.500000  0.799563  0.433812  1
  Pt  Pt18  1  0.500000  0.025394  0.304369  1
  Pt  Pt19  1  0.500000  0.974606  0.695631  1
  Pt  Pt20  1  0.500000  0.475783  0.804547  1
  Pt  Pt21  1  0.500000  0.524217  0.195453  1
