# generated using pymatgen
data_Tb3Y(TmBi)6
_symmetry_space_group_name_H-M   'P 1'
_cell_length_a   8.21797000
_cell_length_b   9.43538400
_cell_length_c   12.02509700
_cell_angle_alpha   90.00000000
_cell_angle_beta   90.00000000
_cell_angle_gamma   90.00000000
_symmetry_Int_Tables_number   1
_chemical_formula_structural   Tb3Y(TmBi)6
_chemical_formula_sum   'Tb6 Y2 Tm12 Bi12'
_cell_volume   932.42244572
_cell_formula_units_Z   2
loop_
 _symmetry_equiv_pos_site_id
 _symmetry_equiv_pos_as_xyz
  1  'x, y, z'
loop_
 _atom_site_type_symbol
 _atom_site_label
 _atom_site_symmetry_multiplicity
 _atom_site_fract_x
 _atom_site_fract_y
 _atom_site_fract_z
 _atom_site_occupancy
  Tb  Tb0  1  0.186369  0.750000  0.718779  1
  Tb  Tb1  1  0.686369  0.750000  0.781221  1
  Tb  Tb2  1  0.813613  0.250000  0.281276  1
  Tb  Tb3  1  0.313613  0.250000  0.218724  1
  Tb  Tb4  1  0.353670  0.750000  0.216199  1
  Tb  Tb5  1  0.853670  0.750000  0.283801  1
  Y  Y6  1  0.646286  0.250000  0.783931  1
  Y  Y7  1  0.146286  0.250000  0.716069  1
  Tm  Tm8  1  0.025029  0.750000  0.988858  1
  Tm  Tm9  1  0.525029  0.750000  0.511142  1
  Tm  Tm10  1  0.975054  0.250000  0.011054  1
  Tm  Tm11  1  0.475054  0.250000  0.488946  1
  Tm  Tm12  1  0.306904  0.434501  0.940580  1
  Tm  Tm13  1  0.806904  0.065499  0.559420  1
  Tm  Tm14  1  0.693044  0.934458  0.059441  1
  Tm  Tm15  1  0.193044  0.565542  0.440559  1
  Tm  Tm16  1  0.693044  0.565542  0.059441  1
  Tm  Tm17  1  0.193044  0.934458  0.440559  1
  Tm  Tm18  1  0.306904  0.065499  0.940580  1
  Tm  Tm19  1  0.806904  0.434501  0.559420  1
  Bi  Bi20  1  0.433900  0.004097  0.672405  1
  Bi  Bi21  1  0.933900  0.495903  0.827595  1
  Bi  Bi22  1  0.566146  0.503987  0.327644  1
  Bi  Bi23  1  0.066146  0.996013  0.172356  1
  Bi  Bi24  1  0.566146  0.996013  0.327644  1
  Bi  Bi25  1  0.066146  0.503987  0.172356  1
  Bi  Bi26  1  0.433900  0.495903  0.672405  1
  Bi  Bi27  1  0.933900  0.004097  0.827595  1
  Bi  Bi28  1  0.406581  0.750000  0.957683  1
  Bi  Bi29  1  0.906581  0.750000  0.542317  1
  Bi  Bi30  1  0.593410  0.250000  0.042003  1
  Bi  Bi31  1  0.093410  0.250000  0.457997  1
