# generated using pymatgen
data_Nd3PtI3
_symmetry_space_group_name_H-M   'P 1'
_cell_length_a   10.89777860
_cell_length_b   10.89759652
_cell_length_c   10.89759800
_cell_angle_alpha   109.47080036
_cell_angle_beta   109.47109232
_cell_angle_gamma   109.47109313
_symmetry_Int_Tables_number   1
_chemical_formula_structural   Nd3PtI3
_chemical_formula_sum   'Nd12 Pt4 I12'
_cell_volume   996.27956189
_cell_formula_units_Z   4
loop_
 _symmetry_equiv_pos_site_id
 _symmetry_equiv_pos_as_xyz
  1  'x, y, z'
loop_
 _atom_site_type_symbol
 _atom_site_label
 _atom_site_symmetry_multiplicity
 _atom_site_fract_x
 _atom_site_fract_y
 _atom_site_fract_z
 _atom_site_occupancy
  Nd  Nd0  1  0.458641  0.479321  0.229321  1
  Nd  Nd1  1  0.750000  0.229325  0.270675  1
  Nd  Nd2  1  0.750000  0.020675  0.479325  1
  Nd  Nd3  1  0.229325  0.458646  0.479321  1
  Nd  Nd4  1  0.270675  0.749996  0.229322  1
  Nd  Nd5  1  0.041359  0.270679  0.020679  1
  Nd  Nd6  1  0.020679  0.041354  0.270675  1
  Nd  Nd7  1  0.479321  0.749995  0.020674  1
  Nd  Nd8  1  0.479321  0.229325  0.458646  1
  Nd  Nd9  1  0.020679  0.479326  0.750005  1
  Nd  Nd10  1  0.270675  0.020679  0.041354  1
  Nd  Nd11  1  0.229325  0.270678  0.750004  1
  Pt  Pt12  1  0.250000  0.250000  0.250000  1
  Pt  Pt13  1  0.500000  0.000000  0.250000  1
  Pt  Pt14  1  0.000000  0.250000  0.500000  1
  Pt  Pt15  1  0.250000  0.500000  0.000000  1
  I  I16  1  0.250000  0.758236  0.741764  1
  I  I17  1  0.516472  0.508236  0.758236  1
  I  I18  1  0.983528  0.741764  0.991764  1
  I  I19  1  0.741764  0.250000  0.758235  1
  I  I20  1  0.991763  0.983526  0.741763  1
  I  I21  1  0.250000  0.991764  0.508236  1
  I  I22  1  0.758236  0.516471  0.508236  1
  I  I23  1  0.508237  0.249999  0.991763  1
  I  I24  1  0.758236  0.741765  0.250000  1
  I  I25  1  0.741764  0.991764  0.983529  1
  I  I26  1  0.991763  0.508237  0.250001  1
  I  I27  1  0.508237  0.758237  0.516474  1
