# generated using pymatgen
data_Hf16ReNi4Ru3
_symmetry_space_group_name_H-M   'P 1'
_cell_length_a   8.61391328
_cell_length_b   8.61391365
_cell_length_c   8.61391346
_cell_angle_alpha   59.91926891
_cell_angle_beta   59.91926576
_cell_angle_gamma   59.91926730
_symmetry_Int_Tables_number   1
_chemical_formula_structural   Hf16ReNi4Ru3
_chemical_formula_sum   'Hf16 Re1 Ni4 Ru3'
_cell_volume   451.11830134
_cell_formula_units_Z   1
loop_
 _symmetry_equiv_pos_site_id
 _symmetry_equiv_pos_as_xyz
  1  'x, y, z'
loop_
 _atom_site_type_symbol
 _atom_site_label
 _atom_site_symmetry_multiplicity
 _atom_site_fract_x
 _atom_site_fract_y
 _atom_site_fract_z
 _atom_site_occupancy
  Hf  Hf0  1  0.683824  0.105253  0.105253  1
  Hf  Hf1  1  0.105253  0.683824  0.105253  1
  Hf  Hf2  1  0.105253  0.105253  0.683824  1
  Hf  Hf3  1  0.107020  0.107020  0.107020  1
  Hf  Hf4  1  0.315150  0.315150  0.681991  1
  Hf  Hf5  1  0.684250  0.684250  0.315534  1
  Hf  Hf6  1  0.315150  0.681991  0.315150  1
  Hf  Hf7  1  0.684250  0.315534  0.684250  1
  Hf  Hf8  1  0.681991  0.315150  0.315150  1
  Hf  Hf9  1  0.315534  0.684250  0.684250  1
  Hf  Hf10  1  0.951270  0.951270  0.548637  1
  Hf  Hf11  1  0.548386  0.548386  0.953118  1
  Hf  Hf12  1  0.951270  0.548637  0.951270  1
  Hf  Hf13  1  0.548386  0.953118  0.548386  1
  Hf  Hf14  1  0.548637  0.951270  0.951270  1
  Hf  Hf15  1  0.953118  0.548386  0.548386  1
  Re  Re16  1  0.333454  0.333454  0.333454  1
  Ni  Ni17  1  0.321820  0.893440  0.893440  1
  Ni  Ni18  1  0.893440  0.321820  0.893440  1
  Ni  Ni19  1  0.893440  0.893440  0.321820  1
  Ni  Ni20  1  0.892088  0.892088  0.892088  1
  Ru  Ru21  1  0.996473  0.335268  0.335268  1
  Ru  Ru22  1  0.335268  0.996473  0.335268  1
  Ru  Ru23  1  0.335268  0.335268  0.996473  1
