# generated using pymatgen
data_PrNd11Nb8(WN4)12
_symmetry_space_group_name_H-M   'P 1'
_cell_length_a   11.34846390
_cell_length_b   11.34752810
_cell_length_c   11.34752908
_cell_angle_alpha   109.44040914
_cell_angle_beta   109.48495443
_cell_angle_gamma   109.48495855
_symmetry_Int_Tables_number   1
_chemical_formula_structural   PrNd11Nb8(WN4)12
_chemical_formula_sum   'Pr1 Nd11 Nb8 W12 N48'
_cell_volume   1124.95615102
_cell_formula_units_Z   1
loop_
 _symmetry_equiv_pos_site_id
 _symmetry_equiv_pos_as_xyz
  1  'x, y, z'
loop_
 _atom_site_type_symbol
 _atom_site_label
 _atom_site_symmetry_multiplicity
 _atom_site_fract_x
 _atom_site_fract_y
 _atom_site_fract_z
 _atom_site_occupancy
  Pr  Pr0  1  0.750000  0.625000  0.875000  1
  Nd  Nd1  1  0.250000  0.375000  0.125000  1
  Nd  Nd2  1  0.375070  0.750180  0.125060  1
  Nd  Nd3  1  0.375070  0.124890  0.250007  1
  Nd  Nd4  1  0.875153  0.625149  0.250290  1
  Nd  Nd5  1  0.750000  0.124999  0.375000  1
  Nd  Nd6  1  0.124930  0.249993  0.375110  1
  Nd  Nd7  1  0.875153  0.750005  0.624863  1
  Nd  Nd8  1  0.250000  0.875000  0.625000  1
  Nd  Nd9  1  0.124929  0.374939  0.749820  1
  Nd  Nd10  1  0.624847  0.875137  0.749995  1
  Nd  Nd11  1  0.624847  0.249710  0.874851  1
  Nb  Nb12  1  0.004043  0.004410  0.004169  1
  Nb  Nb13  1  0.500074  0.000180  0.003678  1
  Nb  Nb14  1  0.004043  0.499634  0.999875  1
  Nb  Nb15  1  0.495957  0.500125  0.000366  1
  Nb  Nb16  1  0.999926  0.003605  0.500107  1
  Nb  Nb17  1  0.500074  0.999893  0.496395  1
  Nb  Nb18  1  0.999926  0.496322  0.499820  1
  Nb  Nb19  1  0.495957  0.495831  0.495590  1
  W  W20  1  0.874142  0.250062  0.124202  1
  W  W21  1  0.750000  0.874717  0.124717  1
  W  W22  1  0.625858  0.375798  0.249939  1
  W  W23  1  0.124306  0.874263  0.250266  1
  W  W24  1  0.250000  0.625758  0.375758  1
  W  W25  1  0.625859  0.750060  0.375919  1
  W  W26  1  0.375694  0.249735  0.625737  1
  W  W27  1  0.750000  0.375283  0.625284  1
  W  W28  1  0.874142  0.124081  0.749940  1
  W  W29  1  0.375694  0.625960  0.749957  1
  W  W30  1  0.250001  0.124242  0.874242  1
  W  W31  1  0.124306  0.750043  0.874041  1
  N  N32  1  0.200544  0.115742  0.015829  1
  N  N33  1  0.315365  0.900091  0.015682  1
  N  N34  1  0.883181  0.399624  0.084460  1
  N  N35  1  0.700846  0.685417  0.085398  1
  N  N36  1  0.984372  0.684735  0.101111  1
  N  N37  1  0.616819  0.415540  0.100377  1
  N  N38  1  0.599784  0.915514  0.115899  1
  N  N39  1  0.015769  0.200638  0.115600  1
  N  N40  1  0.200543  0.584802  0.184716  1
  N  N41  1  0.484231  0.599831  0.184868  1
  N  N42  1  0.584776  0.184700  0.200407  1
  N  N43  1  0.115444  0.015524  0.200182  1
  N  N44  1  0.315365  0.915274  0.299681  1
  N  N45  1  0.484231  0.384401  0.299362  1
  N  N46  1  0.900215  0.016115  0.315730  1
  N  N47  1  0.915224  0.299592  0.315300  1
  N  N48  1  0.299456  0.484171  0.384259  1
  N  N49  1  0.584776  0.900078  0.384368  1
  N  N50  1  0.084422  0.883388  0.399854  1
  N  N51  1  0.815330  0.516364  0.399550  1
  N  N52  1  0.100375  0.616767  0.415535  1
  N  N53  1  0.815330  0.798966  0.415780  1
  N  N54  1  0.599785  0.184270  0.483884  1
  N  N55  1  0.384557  0.299818  0.484476  1
  N  N56  1  0.616819  0.701279  0.516443  1
  N  N57  1  0.399626  0.815161  0.516393  1
  N  N58  1  0.184635  0.200318  0.584726  1
  N  N59  1  0.900216  0.384100  0.584486  1
  N  N60  1  0.915224  0.115631  0.599922  1
  N  N61  1  0.184635  0.484317  0.599909  1
  N  N62  1  0.415578  0.100147  0.616612  1
  N  N63  1  0.700846  0.515428  0.615447  1
  N  N64  1  0.084421  0.701035  0.684568  1
  N  N65  1  0.100374  0.983607  0.684838  1
  N  N66  1  0.684669  0.084219  0.701034  1
  N  N67  1  0.515628  0.616738  0.700364  1
  N  N68  1  0.415578  0.815431  0.798965  1
  N  N69  1  0.883181  0.983557  0.798722  1
  N  N70  1  0.515628  0.398889  0.815264  1
  N  N71  1  0.799154  0.414601  0.814582  1
  N  N72  1  0.399626  0.084465  0.883233  1
  N  N73  1  0.984372  0.799637  0.883262  1
  N  N74  1  0.015768  0.315132  0.900169  1
  N  N75  1  0.384556  0.584739  0.900082  1
  N  N76  1  0.299456  0.315284  0.915198  1
  N  N77  1  0.115443  0.599918  0.915261  1
  N  N78  1  0.684669  0.100450  0.983636  1
  N  N79  1  0.799155  0.884553  0.984572  1
