# generated using pymatgen
data_Y4Er6Ir3Ru
_symmetry_space_group_name_H-M   'P 1'
_cell_length_a   6.40117467
_cell_length_b   7.24624065
_cell_length_c   8.46474114
_cell_angle_alpha   96.93390557
_cell_angle_beta   111.83975601
_cell_angle_gamma   90.02590165
_symmetry_Int_Tables_number   1
_chemical_formula_structural   Y4Er6Ir3Ru
_chemical_formula_sum   'Y4 Er6 Ir3 Ru1'
_cell_volume   361.34807334
_cell_formula_units_Z   1
loop_
 _symmetry_equiv_pos_site_id
 _symmetry_equiv_pos_as_xyz
  1  'x, y, z'
loop_
 _atom_site_type_symbol
 _atom_site_label
 _atom_site_symmetry_multiplicity
 _atom_site_fract_x
 _atom_site_fract_y
 _atom_site_fract_z
 _atom_site_occupancy
  Y  Y0  1  0.789375  0.581794  0.811758  1
  Y  Y1  1  0.975861  0.918140  0.187474  1
  Y  Y2  1  0.211191  0.418159  0.186233  1
  Y  Y3  1  0.024718  0.084099  0.811904  1
  Er  Er4  1  0.205796  0.683429  0.563555  1
  Er  Er5  1  0.644288  0.815961  0.438125  1
  Er  Er6  1  0.794208  0.315244  0.438128  1
  Er  Er7  1  0.354669  0.184295  0.562533  1
  Er  Er8  1  0.424654  0.749127  0.999346  1
  Er  Er9  1  0.574747  0.249514  0.000118  1
  Ir  Ir10  1  0.597638  0.924945  0.777414  1
  Ir  Ir11  1  0.818584  0.575543  0.222028  1
  Ir  Ir12  1  0.403705  0.074492  0.222509  1
  Ru  Ru13  1  0.180566  0.425258  0.778876  1
