# generated using pymatgen
data_Yb3Te2(BrO3)2
_symmetry_space_group_name_H-M   'P 1'
_cell_length_a   8.68812730
_cell_length_b   8.68812737
_cell_length_c   10.69715502
_cell_angle_alpha   74.46368917
_cell_angle_beta   74.46369091
_cell_angle_gamma   36.98504087
_symmetry_Int_Tables_number   1
_chemical_formula_structural   Yb3Te2(BrO3)2
_chemical_formula_sum   'Yb6 Te4 Br4 O12'
_cell_volume   465.99559532
_cell_formula_units_Z   2
loop_
 _symmetry_equiv_pos_site_id
 _symmetry_equiv_pos_as_xyz
  1  'x, y, z'
loop_
 _atom_site_type_symbol
 _atom_site_label
 _atom_site_symmetry_multiplicity
 _atom_site_fract_x
 _atom_site_fract_y
 _atom_site_fract_z
 _atom_site_occupancy
  Yb  Yb0  1  0.251837  0.251837  0.775283  1
  Yb  Yb1  1  0.748163  0.748163  0.224717  1
  Yb  Yb2  1  0.028805  0.028805  0.816040  1
  Yb  Yb3  1  0.971195  0.971195  0.183960  1
  Yb  Yb4  1  0.674154  0.674154  0.606004  1
  Yb  Yb5  1  0.325846  0.325846  0.393996  1
  Te  Te6  1  0.606393  0.606393  0.945828  1
  Te  Te7  1  0.393607  0.393607  0.054172  1
  Te  Te8  1  0.878452  0.878452  0.576456  1
  Te  Te9  1  0.121548  0.121548  0.423544  1
  Br  Br10  1  0.821903  0.821903  0.903160  1
  Br  Br11  1  0.178097  0.178097  0.096840  1
  Br  Br12  1  0.469517  0.469517  0.700031  1
  Br  Br13  1  0.530483  0.530483  0.299969  1
  O  O14  1  0.876950  0.402413  0.806570  1
  O  O15  1  0.402413  0.876950  0.806570  1
  O  O16  1  0.123050  0.597587  0.193430  1
  O  O17  1  0.597587  0.123050  0.193430  1
  O  O18  1  0.726728  0.273272  0.000000  1
  O  O19  1  0.273272  0.726728  0.000000  1
  O  O20  1  0.903622  0.903622  0.395305  1
  O  O21  1  0.096378  0.096378  0.604695  1
  O  O22  1  0.044228  0.546346  0.598383  1
  O  O23  1  0.546346  0.044228  0.598383  1
  O  O24  1  0.955772  0.453654  0.401617  1
  O  O25  1  0.453654  0.955772  0.401617  1
