# generated using pymatgen
data_La3Al9Re3Os4
_symmetry_space_group_name_H-M   'P 1'
_cell_length_a   8.96777700
_cell_length_b   8.96777838
_cell_length_c   9.75812100
_cell_angle_alpha   90.00000000
_cell_angle_beta   90.00000000
_cell_angle_gamma   119.99999861
_symmetry_Int_Tables_number   1
_chemical_formula_structural   La3Al9Re3Os4
_chemical_formula_sum   'La6 Al18 Re6 Os8'
_cell_volume   679.62055252
_cell_formula_units_Z   2
loop_
 _symmetry_equiv_pos_site_id
 _symmetry_equiv_pos_as_xyz
  1  'x, y, z'
loop_
 _atom_site_type_symbol
 _atom_site_label
 _atom_site_symmetry_multiplicity
 _atom_site_fract_x
 _atom_site_fract_y
 _atom_site_fract_z
 _atom_site_occupancy
  La  La0  1  0.194384  0.388770  0.250000  1
  La  La1  1  0.805616  0.611230  0.750000  1
  La  La2  1  0.611230  0.805616  0.250000  1
  La  La3  1  0.388770  0.194384  0.750000  1
  La  La4  1  0.194384  0.805616  0.250000  1
  La  La5  1  0.805616  0.194384  0.750000  1
  Al  Al6  1  0.333333  0.666667  0.002727  1
  Al  Al7  1  0.666667  0.333333  0.997273  1
  Al  Al8  1  0.666667  0.333333  0.502727  1
  Al  Al9  1  0.333333  0.666667  0.497273  1
  Al  Al10  1  0.166316  0.332631  0.575970  1
  Al  Al11  1  0.833684  0.667369  0.424030  1
  Al  Al12  1  0.667369  0.833684  0.575970  1
  Al  Al13  1  0.833684  0.667369  0.075970  1
  Al  Al14  1  0.332631  0.166316  0.424030  1
  Al  Al15  1  0.166316  0.332631  0.924030  1
  Al  Al16  1  0.166316  0.833684  0.575970  1
  Al  Al17  1  0.332631  0.166316  0.075970  1
  Al  Al18  1  0.833684  0.166316  0.424030  1
  Al  Al19  1  0.667369  0.833684  0.924030  1
  Al  Al20  1  0.833684  0.166316  0.075970  1
  Al  Al21  1  0.166316  0.833684  0.924030  1
  Al  Al22  1  0.000000  0.000000  0.250000  1
  Al  Al23  1  0.000000  0.000000  0.750000  1
  Re  Re24  1  0.572677  0.145355  0.250000  1
  Re  Re25  1  0.427323  0.854645  0.750000  1
  Re  Re26  1  0.854645  0.427323  0.250000  1
  Re  Re27  1  0.145355  0.572677  0.750000  1
  Re  Re28  1  0.572677  0.427323  0.250000  1
  Re  Re29  1  0.427323  0.572677  0.750000  1
  Os  Os30  1  0.500000  0.000000  0.000000  1
  Os  Os31  1  0.000000  0.500000  0.000000  1
  Os  Os32  1  0.500000  0.000000  0.500000  1
  Os  Os33  1  0.500000  0.500000  0.000000  1
  Os  Os34  1  0.000000  0.500000  0.500000  1
  Os  Os35  1  0.500000  0.500000  0.500000  1
  Os  Os36  1  0.000000  0.000000  0.000000  1
  Os  Os37  1  0.000000  0.000000  0.500000  1
