# generated using pymatgen
data_PrNd4SmRuBr10
_symmetry_space_group_name_H-M   'P 1'
_cell_length_a   7.67444555
_cell_length_b   9.42232524
_cell_length_c   9.76622650
_cell_angle_alpha   108.14093611
_cell_angle_beta   96.24694453
_cell_angle_gamma   105.29771727
_symmetry_Int_Tables_number   1
_chemical_formula_structural   PrNd4SmRuBr10
_chemical_formula_sum   'Pr1 Nd4 Sm1 Ru1 Br10'
_cell_volume   633.12189053
_cell_formula_units_Z   1
loop_
 _symmetry_equiv_pos_site_id
 _symmetry_equiv_pos_as_xyz
  1  'x, y, z'
loop_
 _atom_site_type_symbol
 _atom_site_label
 _atom_site_symmetry_multiplicity
 _atom_site_fract_x
 _atom_site_fract_y
 _atom_site_fract_z
 _atom_site_occupancy
  Pr  Pr0  1  0.967095  0.285703  0.088523  1
  Nd  Nd1  1  0.135478  0.056823  0.753155  1
  Nd  Nd2  1  0.633146  0.859489  0.815720  1
  Nd  Nd3  1  0.866745  0.946065  0.248162  1
  Nd  Nd4  1  0.034235  0.717391  0.913057  1
  Sm  Sm5  1  0.362667  0.136435  0.180953  1
  Ru  Ru6  1  0.999384  0.000581  0.999588  1
  Br  Br7  1  0.213049  0.752060  0.658458  1
  Br  Br8  1  0.657741  0.547360  0.731764  1
  Br  Br9  1  0.243439  0.078297  0.443928  1
  Br  Br10  1  0.777490  0.245703  0.340633  1
  Br  Br11  1  0.548608  0.175968  0.922342  1
  Br  Br12  1  0.760925  0.923341  0.554466  1
  Br  Br13  1  0.911364  0.630941  0.166966  1
  Br  Br14  1  0.348789  0.446944  0.270497  1
  Br  Br15  1  0.092259  0.373157  0.832578  1
  Br  Br16  1  0.447585  0.823744  0.079207  1
