# generated using pymatgen
data_Er5TmLu10(TlRh)4
_symmetry_space_group_name_H-M   'P 1'
_cell_length_a   9.52090390
_cell_length_b   9.51786892
_cell_length_c   9.51786729
_cell_angle_alpha   60.06969474
_cell_angle_beta   59.97327735
_cell_angle_gamma   59.97328121
_symmetry_Int_Tables_number   1
_chemical_formula_structural   Er5TmLu10(TlRh)4
_chemical_formula_sum   'Er5 Tm1 Lu10 Tl4 Rh4'
_cell_volume   609.95117021
_cell_formula_units_Z   1
loop_
 _symmetry_equiv_pos_site_id
 _symmetry_equiv_pos_as_xyz
  1  'x, y, z'
loop_
 _atom_site_type_symbol
 _atom_site_label
 _atom_site_symmetry_multiplicity
 _atom_site_fract_x
 _atom_site_fract_y
 _atom_site_fract_z
 _atom_site_occupancy
  Er  Er0  1  0.061809  0.062183  0.438014  1
  Er  Er1  1  0.438190  0.061942  0.438156  1
  Er  Er2  1  0.061809  0.438014  0.062183  1
  Er  Er3  1  0.049431  0.650171  0.650171  1
  Er  Er4  1  0.438190  0.438156  0.061942  1
  Tm  Tm5  1  0.650377  0.650245  0.650245  1
  Lu  Lu6  1  0.650458  0.048695  0.650452  1
  Lu  Lu7  1  0.187394  0.812885  0.186942  1
  Lu  Lu8  1  0.187394  0.186942  0.812885  1
  Lu  Lu9  1  0.812576  0.812786  0.187187  1
  Lu  Lu10  1  0.439670  0.060361  0.060361  1
  Lu  Lu11  1  0.812594  0.187356  0.187356  1
  Lu  Lu12  1  0.060923  0.438996  0.438996  1
  Lu  Lu13  1  0.812576  0.187187  0.812786  1
  Lu  Lu14  1  0.186863  0.813222  0.813222  1
  Lu  Lu15  1  0.650458  0.650452  0.048695  1
  Tl  Tl16  1  0.414810  0.414844  0.414844  1
  Tl  Tl17  1  0.755495  0.414913  0.414913  1
  Tl  Tl18  1  0.415208  0.755530  0.414308  1
  Tl  Tl19  1  0.415208  0.414308  0.755530  1
  Rh  Rh20  1  0.857569  0.858252  0.425967  1
  Rh  Rh21  1  0.856582  0.858474  0.858474  1
  Rh  Rh22  1  0.426850  0.858118  0.858118  1
  Rh  Rh23  1  0.857569  0.425967  0.858252  1
