# generated using pymatgen
data_TbDy3(CuP2)4
_symmetry_space_group_name_H-M   'P 1'
_cell_length_a   3.71447000
_cell_length_b   3.77518977
_cell_length_c   19.51029592
_cell_angle_alpha   90.00393515
_cell_angle_beta   90.00000000
_cell_angle_gamma   90.00000000
_symmetry_Int_Tables_number   1
_chemical_formula_structural   TbDy3(CuP2)4
_chemical_formula_sum   'Tb1 Dy3 Cu4 P8'
_cell_volume   273.58954585
_cell_formula_units_Z   1
loop_
 _symmetry_equiv_pos_site_id
 _symmetry_equiv_pos_as_xyz
  1  'x, y, z'
loop_
 _atom_site_type_symbol
 _atom_site_label
 _atom_site_symmetry_multiplicity
 _atom_site_fract_x
 _atom_site_fract_y
 _atom_site_fract_z
 _atom_site_occupancy
  Tb  Tb0  1  0.750000  0.217233  0.117488  1
  Dy  Dy1  1  0.250000  0.718069  0.382211  1
  Dy  Dy2  1  0.250000  0.781954  0.882506  1
  Dy  Dy3  1  0.750000  0.281804  0.617678  1
  Cu  Cu4  1  0.250000  0.219241  0.249721  1
  Cu  Cu5  1  0.750000  0.781698  0.750387  1
  Cu  Cu6  1  0.250000  0.281484  0.749842  1
  Cu  Cu7  1  0.750000  0.719133  0.250365  1
  P  P8  1  0.750000  0.807047  0.501920  1
  P  P9  1  0.750000  0.694149  0.001628  1
  P  P10  1  0.250000  0.193146  0.497836  1
  P  P11  1  0.250000  0.305275  0.997872  1
  P  P12  1  0.250000  0.718032  0.172597  1
  P  P13  1  0.750000  0.218679  0.327735  1
  P  P14  1  0.750000  0.281620  0.828081  1
  P  P15  1  0.250000  0.781436  0.672133  1
