# generated using pymatgen
data_Hf2Ta3GaSi3
_symmetry_space_group_name_H-M   'P 1'
_cell_length_a   6.68757700
_cell_length_b   6.82611000
_cell_length_c   13.21594700
_cell_angle_alpha   90.00000000
_cell_angle_beta   90.00000000
_cell_angle_gamma   90.00000000
_symmetry_Int_Tables_number   1
_chemical_formula_structural   Hf2Ta3GaSi3
_chemical_formula_sum   'Hf8 Ta12 Ga4 Si12'
_cell_volume   603.30978103
_cell_formula_units_Z   4
loop_
 _symmetry_equiv_pos_site_id
 _symmetry_equiv_pos_as_xyz
  1  'x, y, z'
loop_
 _atom_site_type_symbol
 _atom_site_label
 _atom_site_symmetry_multiplicity
 _atom_site_fract_x
 _atom_site_fract_y
 _atom_site_fract_z
 _atom_site_occupancy
  Hf  Hf0  1  0.488855  0.672270  0.594485  1
  Hf  Hf1  1  0.988855  0.827730  0.905515  1
  Hf  Hf2  1  0.511145  0.327730  0.094485  1
  Hf  Hf3  1  0.011145  0.172270  0.405515  1
  Hf  Hf4  1  0.500347  0.328794  0.405565  1
  Hf  Hf5  1  0.000347  0.171206  0.094435  1
  Hf  Hf6  1  0.499653  0.671206  0.905565  1
  Hf  Hf7  1  0.999653  0.828794  0.594435  1
  Ta  Ta8  1  0.658518  0.171428  0.627696  1
  Ta  Ta9  1  0.158518  0.328572  0.872304  1
  Ta  Ta10  1  0.341482  0.828572  0.127696  1
  Ta  Ta11  1  0.841482  0.671428  0.372304  1
  Ta  Ta12  1  0.332448  0.827725  0.375859  1
  Ta  Ta13  1  0.832448  0.672275  0.124141  1
  Ta  Ta14  1  0.667552  0.172275  0.875859  1
  Ta  Ta15  1  0.167552  0.327725  0.624141  1
  Ta  Ta16  1  0.836909  0.494475  0.751693  1
  Ta  Ta17  1  0.336909  0.005525  0.748307  1
  Ta  Ta18  1  0.163091  0.505525  0.251693  1
  Ta  Ta19  1  0.663091  0.994475  0.248307  1
  Ga  Ga20  1  0.677075  0.965326  0.462498  1
  Ga  Ga21  1  0.177075  0.534674  0.037502  1
  Ga  Ga22  1  0.322925  0.034674  0.962498  1
  Ga  Ga23  1  0.822925  0.465326  0.537502  1
  Si  Si24  1  0.328961  0.035427  0.536907  1
  Si  Si25  1  0.828961  0.464573  0.963093  1
  Si  Si26  1  0.671039  0.964573  0.036907  1
  Si  Si27  1  0.171039  0.535427  0.463093  1
  Si  Si28  1  0.460042  0.388909  0.750983  1
  Si  Si29  1  0.960042  0.111091  0.749017  1
  Si  Si30  1  0.539958  0.611091  0.250983  1
  Si  Si31  1  0.039958  0.888909  0.249017  1
  Si  Si32  1  0.701863  0.858869  0.749688  1
  Si  Si33  1  0.201863  0.641131  0.750312  1
  Si  Si34  1  0.298137  0.141131  0.249688  1
  Si  Si35  1  0.798137  0.358869  0.250312  1
