# generated using pymatgen
data_Ce2DyHo(SnRu)4
_symmetry_space_group_name_H-M   'P 1'
_cell_length_a   6.22452432
_cell_length_b   6.22452430
_cell_length_c   10.10036494
_cell_angle_alpha   78.50062864
_cell_angle_beta   78.50062865
_cell_angle_gamma   45.34932421
_symmetry_Int_Tables_number   1
_chemical_formula_structural   Ce2DyHo(SnRu)4
_chemical_formula_sum   'Ce2 Dy1 Ho1 Sn4 Ru4'
_cell_volume   271.82250896
_cell_formula_units_Z   1
loop_
 _symmetry_equiv_pos_site_id
 _symmetry_equiv_pos_as_xyz
  1  'x, y, z'
loop_
 _atom_site_type_symbol
 _atom_site_label
 _atom_site_symmetry_multiplicity
 _atom_site_fract_x
 _atom_site_fract_y
 _atom_site_fract_z
 _atom_site_occupancy
  Ce  Ce0  1  0.861287  0.861287  0.912154  1
  Ce  Ce1  1  0.139958  0.139958  0.087484  1
  Dy  Dy2  1  0.876296  0.876296  0.407053  1
  Ho  Ho3  1  0.121476  0.121476  0.593585  1
  Sn  Sn4  1  0.425919  0.425919  0.159777  1
  Sn  Sn5  1  0.404640  0.404640  0.642523  1
  Sn  Sn6  1  0.574982  0.574982  0.839873  1
  Sn  Sn7  1  0.594730  0.594730  0.358457  1
  Ru  Ru8  1  0.816883  0.816883  0.149928  1
  Ru  Ru9  1  0.196807  0.196807  0.308213  1
  Ru  Ru10  1  0.183439  0.183439  0.849226  1
  Ru  Ru11  1  0.803583  0.803583  0.691727  1
