# generated using pymatgen
data_La4Yb5TmRu4
_symmetry_space_group_name_H-M   'P 1'
_cell_length_a   6.50256194
_cell_length_b   7.36773104
_cell_length_c   8.82453374
_cell_angle_alpha   96.01923459
_cell_angle_beta   111.61922794
_cell_angle_gamma   90.00000009
_symmetry_Int_Tables_number   1
_chemical_formula_structural   La4Yb5TmRu4
_chemical_formula_sum   'La4 Yb5 Tm1 Ru4'
_cell_volume   390.52632475
_cell_formula_units_Z   1
loop_
 _symmetry_equiv_pos_site_id
 _symmetry_equiv_pos_as_xyz
  1  'x, y, z'
loop_
 _atom_site_type_symbol
 _atom_site_label
 _atom_site_symmetry_multiplicity
 _atom_site_fract_x
 _atom_site_fract_y
 _atom_site_fract_z
 _atom_site_occupancy
  La  La0  1  0.787897  0.092251  0.813400  1
  La  La1  1  0.974498  0.407749  0.186600  1
  La  La2  1  0.207999  0.909694  0.187178  1
  La  La3  1  0.020821  0.590306  0.812822  1
  Yb  Yb4  1  0.199508  0.182968  0.573588  1
  Yb  Yb5  1  0.625920  0.317032  0.426412  1
  Yb  Yb6  1  0.799691  0.816428  0.426254  1
  Yb  Yb7  1  0.373438  0.683572  0.573746  1
  Yb  Yb8  1  0.422836  0.250000  0.000000  1
  Tm  Tm9  1  0.569778  0.750000  0.000000  1
  Ru  Ru10  1  0.628803  0.414748  0.788227  1
  Ru  Ru11  1  0.840575  0.085252  0.211773  1
  Ru  Ru12  1  0.380922  0.596877  0.213611  1
  Ru  Ru13  1  0.167312  0.903123  0.786389  1
