# generated using pymatgen
data_CaDy3Al15(SiRh2)3
_symmetry_space_group_name_H-M   'P 1'
_cell_length_a   7.53077380
_cell_length_b   7.48478244
_cell_length_c   9.44372499
_cell_angle_alpha   89.94080944
_cell_angle_beta   89.94160029
_cell_angle_gamma   119.73439497
_symmetry_Int_Tables_number   1
_chemical_formula_structural   CaDy3Al15(SiRh2)3
_chemical_formula_sum   'Ca1 Dy3 Al15 Si3 Rh6'
_cell_volume   462.21919882
_cell_formula_units_Z   1
loop_
 _symmetry_equiv_pos_site_id
 _symmetry_equiv_pos_as_xyz
  1  'x, y, z'
loop_
 _atom_site_type_symbol
 _atom_site_label
 _atom_site_symmetry_multiplicity
 _atom_site_fract_x
 _atom_site_fract_y
 _atom_site_fract_z
 _atom_site_occupancy
  Ca  Ca0  1  0.994247  0.664155  0.747175  1
  Dy  Dy1  1  0.005980  0.343079  0.254656  1
  Dy  Dy2  1  0.675802  0.001917  0.747033  1
  Dy  Dy3  1  0.318596  0.990484  0.250178  1
  Al  Al4  1  0.128558  0.126935  0.749695  1
  Al  Al5  1  0.871635  0.871834  0.249395  1
  Al  Al6  1  0.338654  0.002700  0.922928  1
  Al  Al7  1  0.001830  0.331007  0.929267  1
  Al  Al8  1  0.666087  0.001749  0.075271  1
  Al  Al9  1  0.662266  0.997831  0.422419  1
  Al  Al10  1  0.338323  0.002749  0.577262  1
  Al  Al11  1  0.333234  0.331126  0.055398  1
  Al  Al12  1  0.664211  0.668039  0.945738  1
  Al  Al13  1  0.663562  0.667351  0.555785  1
  Al  Al14  1  0.335694  0.331834  0.445079  1
  Al  Al15  1  0.339534  0.551032  0.750010  1
  Al  Al16  1  0.661753  0.450494  0.250628  1
  Al  Al17  1  0.547687  0.342208  0.749802  1
  Al  Al18  1  0.456056  0.658457  0.249836  1
  Si  Si19  1  0.002593  0.328145  0.576589  1
  Si  Si20  1  0.996007  0.671512  0.429912  1
  Si  Si21  1  0.997327  0.665363  0.065509  1
  Rh  Rh22  1  0.688621  0.336787  0.500345  1
  Rh  Rh23  1  0.310763  0.662333  0.495834  1
  Rh  Rh24  1  0.319615  0.670053  0.004300  1
  Rh  Rh25  1  0.679458  0.335842  0.000903  1
  Rh  Rh26  1  0.000618  0.001019  0.497909  1
  Rh  Rh27  1  0.001288  0.993964  0.001149  1
