# generated using pymatgen
data_CeMn3As12Pt
_symmetry_space_group_name_H-M   'P 1'
_cell_length_a   7.35281583
_cell_length_b   7.35281604
_cell_length_c   7.35281637
_cell_angle_alpha   109.44952166
_cell_angle_beta   109.44952408
_cell_angle_gamma   109.44952529
_symmetry_Int_Tables_number   1
_chemical_formula_structural   CeMn3As12Pt
_chemical_formula_sum   'Ce1 Mn3 As12 Pt1'
_cell_volume   306.25811147
_cell_formula_units_Z   1
loop_
 _symmetry_equiv_pos_site_id
 _symmetry_equiv_pos_as_xyz
  1  'x, y, z'
loop_
 _atom_site_type_symbol
 _atom_site_label
 _atom_site_symmetry_multiplicity
 _atom_site_fract_x
 _atom_site_fract_y
 _atom_site_fract_z
 _atom_site_occupancy
  Ce  Ce0  1  0.000000  0.000000  0.000000  1
  Mn  Mn1  1  0.500000  0.000000  0.000000  1
  Mn  Mn2  1  0.000000  0.500000  0.000000  1
  Mn  Mn3  1  0.000000  0.000000  0.500000  1
  As  As4  1  0.862973  0.664746  0.504665  1
  As  As5  1  0.137027  0.335254  0.495335  1
  As  As6  1  0.157351  0.661333  0.817395  1
  As  As7  1  0.842649  0.338667  0.182605  1
  As  As8  1  0.664746  0.504665  0.862973  1
  As  As9  1  0.335254  0.495335  0.137027  1
  As  As10  1  0.661333  0.817395  0.157351  1
  As  As11  1  0.338667  0.182605  0.842649  1
  As  As12  1  0.504665  0.862973  0.664746  1
  As  As13  1  0.495335  0.137027  0.335254  1
  As  As14  1  0.817395  0.157351  0.661333  1
  As  As15  1  0.182605  0.842649  0.338667  1
  Pt  Pt16  1  0.500000  0.500000  0.500000  1
