# generated using pymatgen
data_Zr5Sc3(Ni4P3)4
_symmetry_space_group_name_H-M   'P 1'
_cell_length_a   12.18744100
_cell_length_b   12.18744204
_cell_length_c   3.68489000
_cell_angle_alpha   90.00000000
_cell_angle_beta   90.00000000
_cell_angle_gamma   119.99999447
_symmetry_Int_Tables_number   1
_chemical_formula_structural   Zr5Sc3(Ni4P3)4
_chemical_formula_sum   'Zr5 Sc3 Ni16 P12'
_cell_volume   474.00210835
_cell_formula_units_Z   1
loop_
 _symmetry_equiv_pos_site_id
 _symmetry_equiv_pos_as_xyz
  1  'x, y, z'
loop_
 _atom_site_type_symbol
 _atom_site_label
 _atom_site_symmetry_multiplicity
 _atom_site_fract_x
 _atom_site_fract_y
 _atom_site_fract_z
 _atom_site_occupancy
  Zr  Zr0  1  0.666667  0.333333  0.000000  1
  Zr  Zr1  1  0.333333  0.666667  0.000000  1
  Zr  Zr2  1  0.820086  0.820086  0.500000  1
  Zr  Zr3  1  0.179914  0.000000  0.500000  1
  Zr  Zr4  1  0.000000  0.179914  0.500000  1
  Sc  Sc5  1  0.441999  0.441999  0.000000  1
  Sc  Sc6  1  0.558001  0.000000  0.000000  1
  Sc  Sc7  1  0.000000  0.558001  0.000000  1
  Ni  Ni8  1  0.191329  0.373158  0.000000  1
  Ni  Ni9  1  0.181829  0.808671  0.000000  1
  Ni  Ni10  1  0.818171  0.626842  0.000000  1
  Ni  Ni11  1  0.808671  0.181829  0.000000  1
  Ni  Ni12  1  0.373158  0.191329  0.000000  1
  Ni  Ni13  1  0.122499  0.479565  0.500000  1
  Ni  Ni14  1  0.357066  0.877501  0.500000  1
  Ni  Ni15  1  0.520435  0.642934  0.500000  1
  Ni  Ni16  1  0.642934  0.520435  0.500000  1
  Ni  Ni17  1  0.877501  0.357066  0.500000  1
  Ni  Ni18  1  0.479565  0.122499  0.500000  1
  Ni  Ni19  1  0.000000  0.000000  0.000000  1
  Ni  Ni20  1  0.725147  0.000000  0.500000  1
  Ni  Ni21  1  0.000000  0.725147  0.500000  1
  Ni  Ni22  1  0.626842  0.818171  0.000000  1
  Ni  Ni23  1  0.274853  0.274853  0.500000  1
  P  P24  1  0.649896  0.649896  0.000000  1
  P  P25  1  0.350104  0.000000  0.000000  1
  P  P26  1  0.000000  0.350104  0.000000  1
  P  P27  1  0.483126  0.310501  0.500000  1
  P  P28  1  0.689499  0.172626  0.500000  1
  P  P29  1  0.827374  0.516874  0.500000  1
  P  P30  1  0.516874  0.827374  0.500000  1
  P  P31  1  0.172626  0.689499  0.500000  1
  P  P32  1  0.823102  0.000000  0.000000  1
  P  P33  1  0.000000  0.823102  0.000000  1
  P  P34  1  0.310501  0.483126  0.500000  1
  P  P35  1  0.176898  0.176898  0.000000  1
