# generated using pymatgen
data_Ho8Tm12Co3Bi8Os
_symmetry_space_group_name_H-M   'P 1'
_cell_length_a   7.86875088
_cell_length_b   8.88950100
_cell_length_c   12.33522609
_cell_angle_alpha   90.00000000
_cell_angle_beta   89.76219294
_cell_angle_gamma   90.00000000
_symmetry_Int_Tables_number   1
_chemical_formula_structural   Ho8Tm12Co3Bi8Os
_chemical_formula_sum   'Ho8 Tm12 Co3 Bi8 Os1'
_cell_volume   862.83261431
_cell_formula_units_Z   1
loop_
 _symmetry_equiv_pos_site_id
 _symmetry_equiv_pos_as_xyz
  1  'x, y, z'
loop_
 _atom_site_type_symbol
 _atom_site_label
 _atom_site_symmetry_multiplicity
 _atom_site_fract_x
 _atom_site_fract_y
 _atom_site_fract_z
 _atom_site_occupancy
  Ho  Ho0  1  0.881204  0.750000  0.805898  1
  Ho  Ho1  1  0.114168  0.250000  0.188561  1
  Ho  Ho2  1  0.385411  0.250000  0.687563  1
  Ho  Ho3  1  0.614604  0.750000  0.313522  1
  Ho  Ho4  1  0.054581  0.750000  0.498021  1
  Ho  Ho5  1  0.945154  0.250000  0.502464  1
  Ho  Ho6  1  0.556792  0.250000  0.002935  1
  Ho  Ho7  1  0.443269  0.750000  0.996669  1
  Tm  Tm8  1  0.346948  0.750000  0.700494  1
  Tm  Tm9  1  0.652105  0.250000  0.301222  1
  Tm  Tm10  1  0.848184  0.250000  0.800227  1
  Tm  Tm11  1  0.154346  0.750000  0.206250  1
  Tm  Tm12  1  0.672539  0.537426  0.563026  1
  Tm  Tm13  1  0.326614  0.461041  0.436968  1
  Tm  Tm14  1  0.173970  0.456862  0.935381  1
  Tm  Tm15  1  0.326614  0.038959  0.436968  1
  Tm  Tm16  1  0.826624  0.538124  0.063610  1
  Tm  Tm17  1  0.672539  0.962574  0.563026  1
  Tm  Tm18  1  0.826624  0.961876  0.063610  1
  Tm  Tm19  1  0.173970  0.043138  0.935381  1
  Co  Co20  1  0.931107  0.250000  0.007941  1
  Co  Co21  1  0.564622  0.250000  0.507007  1
  Co  Co22  1  0.433843  0.750000  0.493405  1
  Bi  Bi23  1  0.571121  0.508671  0.825854  1
  Bi  Bi24  1  0.430241  0.490847  0.173813  1
  Bi  Bi25  1  0.071248  0.490203  0.672544  1
  Bi  Bi26  1  0.430241  0.009153  0.173813  1
  Bi  Bi27  1  0.928522  0.509005  0.327116  1
  Bi  Bi28  1  0.571121  0.991329  0.825854  1
  Bi  Bi29  1  0.928522  0.990995  0.327116  1
  Bi  Bi30  1  0.071248  0.009797  0.672544  1
  Os  Os31  1  0.071902  0.750000  0.991199  1
