# generated using pymatgen
data_Ag2SnF6
_symmetry_space_group_name_H-M   'P 1'
_cell_length_a   5.38772700
_cell_length_b   5.38772700
_cell_length_c   10.74303400
_cell_angle_alpha   90.00000000
_cell_angle_beta   90.00000000
_cell_angle_gamma   90.00000000
_symmetry_Int_Tables_number   1
_chemical_formula_structural   Ag2SnF6
_chemical_formula_sum   'Ag4 Sn2 F12'
_cell_volume   311.84451766
_cell_formula_units_Z   2
loop_
 _symmetry_equiv_pos_site_id
 _symmetry_equiv_pos_as_xyz
  1  'x, y, z'
loop_
 _atom_site_type_symbol
 _atom_site_label
 _atom_site_symmetry_multiplicity
 _atom_site_fract_x
 _atom_site_fract_y
 _atom_site_fract_z
 _atom_site_occupancy
  Ag  Ag0  1  0.000000  0.000000  0.336953  1
  Ag  Ag1  1  0.500000  0.500000  0.836953  1
  Ag  Ag2  1  0.000000  0.000000  0.663047  1
  Ag  Ag3  1  0.500000  0.500000  0.163047  1
  Sn  Sn4  1  0.000000  0.000000  0.000000  1
  Sn  Sn5  1  0.500000  0.500000  0.500000  1
  F  F6  1  0.736003  0.736003  0.000000  1
  F  F7  1  0.763997  0.236003  0.500000  1
  F  F8  1  0.236003  0.763997  0.500000  1
  F  F9  1  0.263997  0.263997  0.000000  1
  F  F10  1  0.680036  0.680036  0.362529  1
  F  F11  1  0.319964  0.319964  0.362529  1
  F  F12  1  0.319964  0.319964  0.637471  1
  F  F13  1  0.180036  0.819964  0.137471  1
  F  F14  1  0.819964  0.180036  0.137471  1
  F  F15  1  0.819964  0.180036  0.862529  1
  F  F16  1  0.180036  0.819964  0.862529  1
  F  F17  1  0.680036  0.680036  0.637471  1
