# generated using pymatgen
data_MoBr35
_symmetry_space_group_name_H-M   'P 1'
_cell_length_a   15.98197694
_cell_length_b   11.40028128
_cell_length_c   10.79188300
_cell_angle_alpha   88.81408278
_cell_angle_beta   66.02770512
_cell_angle_gamma   92.31545406
_symmetry_Int_Tables_number   1
_chemical_formula_structural   MoBr35
_chemical_formula_sum   'Mo1 Br35'
_cell_volume   1793.71352310
_cell_formula_units_Z   1
loop_
 _symmetry_equiv_pos_site_id
 _symmetry_equiv_pos_as_xyz
  1  'x, y, z'
loop_
 _atom_site_type_symbol
 _atom_site_label
 _atom_site_symmetry_multiplicity
 _atom_site_fract_x
 _atom_site_fract_y
 _atom_site_fract_z
 _atom_site_occupancy
  Mo  Mo0  1  0.230039  0.434489  0.462725  1
  Br  Br1  1  0.515276  0.265255  0.516941  1
  Br  Br2  1  0.759758  0.579545  0.568244  1
  Br  Br3  1  0.480425  0.686731  0.744264  1
  Br  Br4  1  0.056835  0.889131  0.853022  1
  Br  Br5  1  0.895041  0.161172  0.015789  1
  Br  Br6  1  0.647097  0.322485  0.290812  1
  Br  Br7  1  0.608781  0.333027  0.843261  1
  Br  Br8  1  0.338234  0.762425  0.718140  1
  Br  Br9  1  0.332143  0.576987  0.228381  1
  Br  Br10  1  0.653169  0.135294  0.806652  1
  Br  Br11  1  0.909523  0.544521  0.375448  1
  Br  Br12  1  0.066699  0.952020  0.620982  1
  Br  Br13  1  0.895372  0.114259  0.256309  1
  Br  Br14  1  0.895383  0.214275  0.791728  1
  Br  Br15  1  0.648562  0.049774  0.204527  1
  Br  Br16  1  0.026001  0.821786  0.099496  1
  Br  Br17  1  0.360480  0.983548  0.728551  1
  Br  Br18  1  0.900584  0.324030  0.320567  1
  Br  Br19  1  0.882737  0.928754  0.697702  1
  Br  Br20  1  0.897413  0.663893  0.797343  1
  Br  Br21  1  0.305044  0.016425  0.304076  1
  Br  Br22  1  0.336245  0.302300  0.303115  1
  Br  Br23  1  0.613621  0.612157  0.787160  1
  Br  Br24  1  0.126437  0.399951  0.348781  1
  Br  Br25  1  0.715645  0.905477  0.782557  1
  Br  Br26  1  0.882516  0.453896  0.801832  1
  Br  Br27  1  0.486163  0.036166  0.253471  1
  Br  Br28  1  0.150522  0.300384  0.651266  1
  Br  Br29  1  0.676887  0.772968  0.265928  1
  Br  Br30  1  0.851118  0.799670  0.185105  1
  Br  Br31  1  0.380988  0.205782  0.744013  1
  Br  Br32  1  0.352036  0.493821  0.534142  1
  Br  Br33  1  0.657197  0.547682  0.276906  1
  Br  Br34  1  0.154122  0.614252  0.549993  1
  Br  Br35  1  0.311908  0.795669  0.270771  1
