# generated using pymatgen
data_Ti2Be(NbGe)3
_symmetry_space_group_name_H-M   'P 1'
_cell_length_a   7.77930100
_cell_length_b   7.77930137
_cell_length_c   5.28931300
_cell_angle_alpha   90.00000000
_cell_angle_beta   90.00000000
_cell_angle_gamma   119.99999420
_symmetry_Int_Tables_number   1
_chemical_formula_structural   Ti2Be(NbGe)3
_chemical_formula_sum   'Ti4 Be2 Nb6 Ge6'
_cell_volume   277.21140658
_cell_formula_units_Z   2
loop_
 _symmetry_equiv_pos_site_id
 _symmetry_equiv_pos_as_xyz
  1  'x, y, z'
loop_
 _atom_site_type_symbol
 _atom_site_label
 _atom_site_symmetry_multiplicity
 _atom_site_fract_x
 _atom_site_fract_y
 _atom_site_fract_z
 _atom_site_occupancy
  Ti  Ti0  1  0.666667  0.333333  0.500000  1
  Ti  Ti1  1  0.333333  0.666667  0.500000  1
  Ti  Ti2  1  0.333333  0.666667  0.000000  1
  Ti  Ti3  1  0.666667  0.333333  0.000000  1
  Be  Be4  1  0.000000  0.000000  0.500000  1
  Be  Be5  1  0.000000  0.000000  0.000000  1
  Nb  Nb6  1  0.742170  0.742170  0.250000  1
  Nb  Nb7  1  0.257830  0.000000  0.250000  1
  Nb  Nb8  1  0.000000  0.257830  0.250000  1
  Nb  Nb9  1  0.257830  0.257830  0.750000  1
  Nb  Nb10  1  0.742170  0.000000  0.750000  1
  Nb  Nb11  1  0.000000  0.742170  0.750000  1
  Ge  Ge12  1  0.394491  0.394491  0.250000  1
  Ge  Ge13  1  0.605509  0.000000  0.250000  1
  Ge  Ge14  1  0.000000  0.605509  0.250000  1
  Ge  Ge15  1  0.605509  0.605509  0.750000  1
  Ge  Ge16  1  0.394491  0.000000  0.750000  1
  Ge  Ge17  1  0.000000  0.394491  0.750000  1
