# generated using pymatgen
data_ScZn2B2Rh5
_symmetry_space_group_name_H-M   'P 1'
_cell_length_a   9.41929400
_cell_length_b   9.37306900
_cell_length_c   2.95592500
_cell_angle_alpha   90.00000000
_cell_angle_beta   90.00000000
_cell_angle_gamma   90.00000000
_symmetry_Int_Tables_number   1
_chemical_formula_structural   ScZn2B2Rh5
_chemical_formula_sum   'Sc2 Zn4 B4 Rh10'
_cell_volume   260.97179773
_cell_formula_units_Z   2
loop_
 _symmetry_equiv_pos_site_id
 _symmetry_equiv_pos_as_xyz
  1  'x, y, z'
loop_
 _atom_site_type_symbol
 _atom_site_label
 _atom_site_symmetry_multiplicity
 _atom_site_fract_x
 _atom_site_fract_y
 _atom_site_fract_z
 _atom_site_occupancy
  Sc  Sc0  1  0.673738  0.827049  0.000000  1
  Sc  Sc1  1  0.173738  0.672951  0.000000  1
  Zn  Zn2  1  0.820538  0.319256  0.000000  1
  Zn  Zn3  1  0.320538  0.180744  0.000000  1
  Zn  Zn4  1  0.999775  0.996972  0.000000  1
  Zn  Zn5  1  0.499775  0.503028  0.000000  1
  B  B6  1  0.629894  0.128879  0.000000  1
  B  B7  1  0.129894  0.371121  0.000000  1
  B  B8  1  0.875154  0.625224  0.000000  1
  B  B9  1  0.375154  0.874776  0.000000  1
  Rh  Rh10  1  0.073546  0.212699  0.500000  1
  Rh  Rh11  1  0.217269  0.930249  0.500000  1
  Rh  Rh12  1  0.784373  0.071430  0.500000  1
  Rh  Rh13  1  0.929667  0.781410  0.500000  1
  Rh  Rh14  1  0.429667  0.718590  0.500000  1
  Rh  Rh15  1  0.573546  0.287301  0.500000  1
  Rh  Rh16  1  0.717269  0.569751  0.500000  1
  Rh  Rh17  1  0.284373  0.428570  0.500000  1
  Rh  Rh18  1  0.496048  0.007630  0.500000  1
  Rh  Rh19  1  0.996048  0.492370  0.500000  1
