# generated using pymatgen
data_Lu5Co2Au
_symmetry_space_group_name_H-M   'P 1'
_cell_length_a   8.34676925
_cell_length_b   8.34677113
_cell_length_c   8.34677087
_cell_angle_alpha   128.26448208
_cell_angle_beta   128.26448238
_cell_angle_gamma   76.19696392
_symmetry_Int_Tables_number   1
_chemical_formula_structural   Lu5Co2Au
_chemical_formula_sum   'Lu10 Co4 Au2'
_cell_volume   348.43743671
_cell_formula_units_Z   2
loop_
 _symmetry_equiv_pos_site_id
 _symmetry_equiv_pos_as_xyz
  1  'x, y, z'
loop_
 _atom_site_type_symbol
 _atom_site_label
 _atom_site_symmetry_multiplicity
 _atom_site_fract_x
 _atom_site_fract_y
 _atom_site_fract_z
 _atom_site_occupancy
  Lu  Lu0  1  0.000000  0.000000  0.000000  1
  Lu  Lu1  1  0.500000  0.500000  0.000000  1
  Lu  Lu2  1  0.803942  0.303942  0.834015  1
  Lu  Lu3  1  0.196058  0.696058  0.165986  1
  Lu  Lu4  1  0.469928  0.969928  0.165986  1
  Lu  Lu5  1  0.303942  0.469928  0.500000  1
  Lu  Lu6  1  0.030072  0.196058  0.500000  1
  Lu  Lu7  1  0.530072  0.030072  0.834014  1
  Lu  Lu8  1  0.696058  0.530072  0.500000  1
  Lu  Lu9  1  0.969928  0.803942  0.500000  1
  Co  Co10  1  0.124263  0.624263  0.748528  1
  Co  Co11  1  0.875737  0.375737  0.251472  1
  Co  Co12  1  0.624263  0.875737  0.500000  1
  Co  Co13  1  0.375737  0.124263  0.500000  1
  Au  Au14  1  0.250000  0.250000  0.000000  1
  Au  Au15  1  0.750000  0.750000  0.000000  1
