# generated using pymatgen
data_Pr16Tm4Si15Sn
_symmetry_space_group_name_H-M   'P 1'
_cell_length_a   7.89615957
_cell_length_b   7.87689481
_cell_length_c   15.18372773
_cell_angle_alpha   90.12861704
_cell_angle_beta   89.68798476
_cell_angle_gamma   89.73739694
_symmetry_Int_Tables_number   1
_chemical_formula_structural   Pr16Tm4Si15Sn
_chemical_formula_sum   'Pr16 Tm4 Si15 Sn1'
_cell_volume   944.35927313
_cell_formula_units_Z   1
loop_
 _symmetry_equiv_pos_site_id
 _symmetry_equiv_pos_as_xyz
  1  'x, y, z'
loop_
 _atom_site_type_symbol
 _atom_site_label
 _atom_site_symmetry_multiplicity
 _atom_site_fract_x
 _atom_site_fract_y
 _atom_site_fract_z
 _atom_site_occupancy
  Pr  Pr0  1  0.373571  0.015476  0.448998  1
  Pr  Pr1  1  0.494433  0.870087  0.697898  1
  Pr  Pr2  1  0.510801  0.122611  0.197372  1
  Pr  Pr3  1  0.876932  0.488620  0.301259  1
  Pr  Pr4  1  0.121457  0.516170  0.806030  1
  Pr  Pr5  1  0.625328  0.985894  0.949816  1
  Pr  Pr6  1  0.005636  0.383096  0.546436  1
  Pr  Pr7  1  0.988631  0.622880  0.053976  1
  Pr  Pr8  1  0.128713  0.977521  0.880653  1
  Pr  Pr9  1  0.521716  0.626872  0.128838  1
  Pr  Pr10  1  0.487739  0.383685  0.627165  1
  Pr  Pr11  1  0.628325  0.523758  0.874673  1
  Pr  Pr12  1  0.373836  0.478856  0.370468  1
  Pr  Pr13  1  0.871751  0.021853  0.377462  1
  Pr  Pr14  1  0.978735  0.127867  0.123309  1
  Pr  Pr15  1  0.010594  0.858265  0.618658  1
  Tm  Tm16  1  0.311411  0.310438  0.000621  1
  Tm  Tm17  1  0.189038  0.812057  0.249960  1
  Tm  Tm18  1  0.800995  0.187351  0.752305  1
  Tm  Tm19  1  0.684982  0.690511  0.496763  1
  Si  Si20  1  0.328593  0.688612  0.957355  1
  Si  Si21  1  0.668375  0.309932  0.454107  1
  Si  Si22  1  0.690212  0.328411  0.045847  1
  Si  Si23  1  0.311480  0.673559  0.542483  1
  Si  Si24  1  0.810499  0.828996  0.205361  1
  Si  Si25  1  0.170435  0.190002  0.295285  1
  Si  Si26  1  0.832001  0.810405  0.795897  1
  Si  Si27  1  0.286933  0.922964  0.064876  1
  Si  Si28  1  0.576941  0.788695  0.313642  1
  Si  Si29  1  0.434749  0.212002  0.817666  1
  Si  Si30  1  0.789396  0.574680  0.688409  1
  Si  Si31  1  0.213338  0.421966  0.186252  1
  Si  Si32  1  0.710815  0.079049  0.563873  1
  Si  Si33  1  0.923894  0.287170  0.937094  1
  Si  Si34  1  0.078508  0.714160  0.433730  1
  Sn  Sn35  1  0.189211  0.165532  0.695466  1
