# generated using pymatgen
data_Ti6Ga3PdO2
_symmetry_space_group_name_H-M   'P 1'
_cell_length_a   6.88999720
_cell_length_b   6.88118825
_cell_length_c   6.88624700
_cell_angle_alpha   90.00000000
_cell_angle_beta   90.00000000
_cell_angle_gamma   90.44203530
_symmetry_Int_Tables_number   1
_chemical_formula_structural   Ti6Ga3PdO2
_chemical_formula_sum   'Ti12 Ga6 Pd2 O4'
_cell_volume   326.47667321
_cell_formula_units_Z   2
loop_
 _symmetry_equiv_pos_site_id
 _symmetry_equiv_pos_as_xyz
  1  'x, y, z'
loop_
 _atom_site_type_symbol
 _atom_site_label
 _atom_site_symmetry_multiplicity
 _atom_site_fract_x
 _atom_site_fract_y
 _atom_site_fract_z
 _atom_site_occupancy
  Ti  Ti0  1  0.791133  0.959464  0.373264  1
  Ti  Ti1  1  0.708867  0.040536  0.873264  1
  Ti  Ti2  1  0.211329  0.457025  0.121827  1
  Ti  Ti3  1  0.288671  0.542975  0.621827  1
  Ti  Ti4  1  0.957145  0.374903  0.791470  1
  Ti  Ti5  1  0.042187  0.877450  0.711738  1
  Ti  Ti6  1  0.457813  0.122550  0.211738  1
  Ti  Ti7  1  0.542855  0.625097  0.291470  1
  Ti  Ti8  1  0.375843  0.788477  0.959420  1
  Ti  Ti9  1  0.875058  0.708877  0.042434  1
  Ti  Ti10  1  0.124157  0.211523  0.459420  1
  Ti  Ti11  1  0.624942  0.291123  0.542434  1
  Ga  Ga12  1  0.820474  0.319549  0.179998  1
  Ga  Ga13  1  0.679526  0.680451  0.679998  1
  Ga  Ga14  1  0.567430  0.428463  0.930126  1
  Ga  Ga15  1  0.427281  0.931262  0.570065  1
  Ga  Ga16  1  0.932570  0.571537  0.430126  1
  Ga  Ga17  1  0.072719  0.068738  0.070065  1
  Pd  Pd18  1  0.179803  0.820573  0.320176  1
  Pd  Pd19  1  0.320197  0.179427  0.820176  1
  O  O20  1  0.876853  0.124143  0.624865  1
  O  O21  1  0.623147  0.875857  0.124865  1
  O  O22  1  0.126706  0.625905  0.874617  1
  O  O23  1  0.373294  0.374095  0.374617  1
