# generated using pymatgen
data_NiCN8
_symmetry_space_group_name_H-M   'P 1'
_cell_length_a   7.13563079
_cell_length_b   6.04736981
_cell_length_c   5.81513155
_cell_angle_alpha   83.21650192
_cell_angle_beta   94.19813074
_cell_angle_gamma   71.13315165
_symmetry_Int_Tables_number   1
_chemical_formula_structural   NiCN8
_chemical_formula_sum   'Ni1 C1 N8'
_cell_volume   234.12617846
_cell_formula_units_Z   1
loop_
 _symmetry_equiv_pos_site_id
 _symmetry_equiv_pos_as_xyz
  1  'x, y, z'
loop_
 _atom_site_type_symbol
 _atom_site_label
 _atom_site_symmetry_multiplicity
 _atom_site_fract_x
 _atom_site_fract_y
 _atom_site_fract_z
 _atom_site_occupancy
  Ni  Ni0  1  0.662001  0.012238  0.159808  1
  C  C1  1  0.685987  0.079423  0.656441  1
  N  N2  1  0.505977  0.623192  0.145789  1
  N  N3  1  0.024712  0.444019  0.857313  1
  N  N4  1  0.569939  0.769586  0.155813  1
  N  N5  1  0.182359  0.984030  0.499367  1
  N  N6  1  0.691857  0.094549  0.865193  1
  N  N7  1  0.138179  0.276257  0.946932  1
  N  N8  1  0.249352  0.809755  0.612903  1
  N  N9  1  0.686986  0.080881  0.445823  1
