# generated using pymatgen
data_Nd3ZrCdSnIr3
_symmetry_space_group_name_H-M   'P 1'
_cell_length_a   7.30250312
_cell_length_b   7.58625461
_cell_length_c   4.31297300
_cell_angle_alpha   90.00000000
_cell_angle_beta   90.00000000
_cell_angle_gamma   119.91329755
_symmetry_Int_Tables_number   1
_chemical_formula_structural   Nd3ZrCdSnIr3
_chemical_formula_sum   'Nd3 Zr1 Cd1 Sn1 Ir3'
_cell_volume   207.10248258
_cell_formula_units_Z   1
loop_
 _symmetry_equiv_pos_site_id
 _symmetry_equiv_pos_as_xyz
  1  'x, y, z'
loop_
 _atom_site_type_symbol
 _atom_site_label
 _atom_site_symmetry_multiplicity
 _atom_site_fract_x
 _atom_site_fract_y
 _atom_site_fract_z
 _atom_site_occupancy
  Nd  Nd0  1  0.604408  0.998588  0.000000  1
  Nd  Nd1  1  0.992599  0.576438  0.000000  1
  Nd  Nd2  1  0.414259  0.419835  0.000000  1
  Zr  Zr3  1  0.245145  0.003345  0.500000  1
  Cd  Cd4  1  0.002036  0.249774  0.500000  1
  Sn  Sn5  1  0.750460  0.750295  0.500000  1
  Ir  Ir6  1  0.330665  0.689235  0.500000  1
  Ir  Ir7  1  0.643559  0.324879  0.500000  1
  Ir  Ir8  1  0.016869  0.987610  0.000000  1
