# generated using pymatgen
data_YbCe9(Si3H)2
_symmetry_space_group_name_H-M   'P 1'
_cell_length_a   8.59024101
_cell_length_b   8.59024007
_cell_length_c   8.59024100
_cell_angle_alpha   126.23655435
_cell_angle_beta   126.23655804
_cell_angle_gamma   79.49969523
_symmetry_Int_Tables_number   1
_chemical_formula_structural   YbCe9(Si3H)2
_chemical_formula_sum   'Yb1 Ce9 Si6 H2'
_cell_volume   398.54686069
_cell_formula_units_Z   1
loop_
 _symmetry_equiv_pos_site_id
 _symmetry_equiv_pos_as_xyz
  1  'x, y, z'
loop_
 _atom_site_type_symbol
 _atom_site_label
 _atom_site_symmetry_multiplicity
 _atom_site_fract_x
 _atom_site_fract_y
 _atom_site_fract_z
 _atom_site_occupancy
  Yb  Yb0  1  0.500000  0.500000  0.000000  1
  Ce  Ce1  1  0.000000  0.000000  0.000000  1
  Ce  Ce2  1  0.528177  0.021930  0.858200  1
  Ce  Ce3  1  0.163730  0.669978  0.141800  1
  Ce  Ce4  1  0.021930  0.163730  0.493753  1
  Ce  Ce5  1  0.669978  0.528177  0.506247  1
  Ce  Ce6  1  0.471823  0.978070  0.141800  1
  Ce  Ce7  1  0.836270  0.330022  0.858200  1
  Ce  Ce8  1  0.978070  0.836270  0.506247  1
  Ce  Ce9  1  0.330022  0.471823  0.493753  1
  Si  Si10  1  0.250513  0.250513  0.000000  1
  Si  Si11  1  0.749487  0.749487  0.000000  1
  Si  Si12  1  0.889680  0.385747  0.275429  1
  Si  Si13  1  0.110320  0.614253  0.724571  1
  Si  Si14  1  0.385747  0.110320  0.496067  1
  Si  Si15  1  0.614253  0.889680  0.503933  1
  H  H16  1  0.250000  0.750000  0.500000  1
  H  H17  1  0.750000  0.250000  0.500000  1
