# generated using pymatgen
data_Y7Lu3(Sn3Cl)2
_symmetry_space_group_name_H-M   'P 1'
_cell_length_a   9.07429500
_cell_length_b   9.07429476
_cell_length_c   6.47087500
_cell_angle_alpha   90.00000000
_cell_angle_beta   90.00000000
_cell_angle_gamma   119.99999724
_symmetry_Int_Tables_number   1
_chemical_formula_structural   Y7Lu3(Sn3Cl)2
_chemical_formula_sum   'Y7 Lu3 Sn6 Cl2'
_cell_volume   461.44445361
_cell_formula_units_Z   1
loop_
 _symmetry_equiv_pos_site_id
 _symmetry_equiv_pos_as_xyz
  1  'x, y, z'
loop_
 _atom_site_type_symbol
 _atom_site_label
 _atom_site_symmetry_multiplicity
 _atom_site_fract_x
 _atom_site_fract_y
 _atom_site_fract_z
 _atom_site_occupancy
  Y  Y0  1  0.261912  0.000100  0.249365  1
  Y  Y1  1  0.738189  0.000100  0.750635  1
  Y  Y2  1  0.999900  0.261811  0.249365  1
  Y  Y3  1  0.999900  0.738088  0.750635  1
  Y  Y4  1  0.738189  0.738088  0.249365  1
  Y  Y5  1  0.261912  0.261811  0.750635  1
  Y  Y6  1  0.333333  0.666667  0.500000  1
  Lu  Lu7  1  0.333333  0.666667  0.000000  1
  Lu  Lu8  1  0.666667  0.333333  0.000000  1
  Lu  Lu9  1  0.666667  0.333333  0.500000  1
  Sn  Sn10  1  0.609294  0.002048  0.248467  1
  Sn  Sn11  1  0.392754  0.002048  0.751533  1
  Sn  Sn12  1  0.997952  0.607246  0.248467  1
  Sn  Sn13  1  0.997952  0.390706  0.751533  1
  Sn  Sn14  1  0.392754  0.390706  0.248467  1
  Sn  Sn15  1  0.609294  0.607246  0.751533  1
  Cl  Cl16  1  0.000000  0.000000  0.000000  1
  Cl  Cl17  1  0.000000  0.000000  0.500000  1
