# generated using pymatgen
data_Ho2Sc3(Cd2Pt)2
_symmetry_space_group_name_H-M   'P 1'
_cell_length_a   3.56260800
_cell_length_b   7.79813800
_cell_length_c   17.60136100
_cell_angle_alpha   90.00000000
_cell_angle_beta   90.00000000
_cell_angle_gamma   90.00000000
_symmetry_Int_Tables_number   1
_chemical_formula_structural   Ho2Sc3(Cd2Pt)2
_chemical_formula_sum   'Ho4 Sc6 Cd8 Pt4'
_cell_volume   488.99588621
_cell_formula_units_Z   2
loop_
 _symmetry_equiv_pos_site_id
 _symmetry_equiv_pos_as_xyz
  1  'x, y, z'
loop_
 _atom_site_type_symbol
 _atom_site_label
 _atom_site_symmetry_multiplicity
 _atom_site_fract_x
 _atom_site_fract_y
 _atom_site_fract_z
 _atom_site_occupancy
  Ho  Ho0  1  0.000000  0.242773  0.217383  1
  Ho  Ho1  1  0.000000  0.757227  0.782617  1
  Ho  Ho2  1  0.000000  0.257227  0.717383  1
  Ho  Ho3  1  0.000000  0.742773  0.282617  1
  Sc  Sc4  1  0.000000  0.114387  0.417170  1
  Sc  Sc5  1  0.000000  0.885613  0.582830  1
  Sc  Sc6  1  0.000000  0.385613  0.917170  1
  Sc  Sc7  1  0.000000  0.614387  0.082830  1
  Sc  Sc8  1  0.000000  0.000000  0.000000  1
  Sc  Sc9  1  0.000000  0.500000  0.500000  1
  Cd  Cd10  1  0.500000  0.422530  0.358568  1
  Cd  Cd11  1  0.500000  0.577470  0.641432  1
  Cd  Cd12  1  0.500000  0.077470  0.858568  1
  Cd  Cd13  1  0.500000  0.922530  0.141432  1
  Cd  Cd14  1  0.500000  0.287608  0.058956  1
  Cd  Cd15  1  0.500000  0.712392  0.941044  1
  Cd  Cd16  1  0.500000  0.212392  0.558956  1
  Cd  Cd17  1  0.500000  0.787608  0.441044  1
  Pt  Pt18  1  0.500000  0.033316  0.309348  1
  Pt  Pt19  1  0.500000  0.966684  0.690652  1
  Pt  Pt20  1  0.500000  0.466684  0.809348  1
  Pt  Pt21  1  0.500000  0.533316  0.190652  1
