# generated using pymatgen
data_Tb3Er13(Tl3Co)2
_symmetry_space_group_name_H-M   'P 1'
_cell_length_a   10.25660357
_cell_length_b   10.25660281
_cell_length_c   7.11830305
_cell_angle_alpha   89.98577313
_cell_angle_beta   90.01422563
_cell_angle_gamma   120.01705822
_symmetry_Int_Tables_number   1
_chemical_formula_structural   Tb3Er13(Tl3Co)2
_chemical_formula_sum   'Tb3 Er13 Tl6 Co2'
_cell_volume   648.39479301
_cell_formula_units_Z   1
loop_
 _symmetry_equiv_pos_site_id
 _symmetry_equiv_pos_as_xyz
  1  'x, y, z'
loop_
 _atom_site_type_symbol
 _atom_site_label
 _atom_site_symmetry_multiplicity
 _atom_site_fract_x
 _atom_site_fract_y
 _atom_site_fract_z
 _atom_site_occupancy
  Tb  Tb0  1  0.537125  0.074343  0.791938  1
  Tb  Tb1  1  0.925657  0.462875  0.791938  1
  Tb  Tb2  1  0.537139  0.462861  0.792036  1
  Er  Er3  1  0.461394  0.922753  0.293338  1
  Er  Er4  1  0.077247  0.538606  0.293338  1
  Er  Er5  1  0.461295  0.538705  0.293362  1
  Er  Er6  1  0.821702  0.643568  0.491751  1
  Er  Er7  1  0.356432  0.178298  0.491751  1
  Er  Er8  1  0.821814  0.178186  0.491761  1
  Er  Er9  1  0.178362  0.356663  0.995168  1
  Er  Er10  1  0.643337  0.821638  0.995168  1
  Er  Er11  1  0.178361  0.821639  0.995319  1
  Er  Er12  1  0.666709  0.333291  0.185709  1
  Er  Er13  1  0.333273  0.666727  0.685708  1
  Er  Er14  1  0.000096  0.999904  0.775766  1
  Er  Er15  1  0.000029  0.999971  0.276119  1
  Tl  Tl16  1  0.837363  0.674561  0.045114  1
  Tl  Tl17  1  0.325439  0.162637  0.045114  1
  Tl  Tl18  1  0.837402  0.162598  0.044714  1
  Tl  Tl19  1  0.162951  0.326033  0.545197  1
  Tl  Tl20  1  0.673967  0.837049  0.545197  1
  Tl  Tl21  1  0.162932  0.837068  0.545032  1
  Co  Co22  1  0.666667  0.333333  0.561034  1
  Co  Co23  1  0.333308  0.666692  0.064333  1
