# generated using pymatgen
data_Li2DyHo2MgSi2Au
_symmetry_space_group_name_H-M   'P 1'
_cell_length_a   7.04998900
_cell_length_b   7.04998933
_cell_length_c   4.18067000
_cell_angle_alpha   90.00000000
_cell_angle_beta   90.00000000
_cell_angle_gamma   120.05472891
_symmetry_Int_Tables_number   1
_chemical_formula_structural   Li2DyHo2MgSi2Au
_chemical_formula_sum   'Li2 Dy1 Ho2 Mg1 Si2 Au1'
_cell_volume   179.85132755
_cell_formula_units_Z   1
loop_
 _symmetry_equiv_pos_site_id
 _symmetry_equiv_pos_as_xyz
  1  'x, y, z'
loop_
 _atom_site_type_symbol
 _atom_site_label
 _atom_site_symmetry_multiplicity
 _atom_site_fract_x
 _atom_site_fract_y
 _atom_site_fract_z
 _atom_site_occupancy
  Li  Li0  1  0.248031  0.000696  0.500000  1
  Li  Li1  1  0.000696  0.248031  0.500000  1
  Dy  Dy2  1  0.416168  0.416168  0.000000  1
  Ho  Ho3  1  0.576842  0.002013  0.000000  1
  Ho  Ho4  1  0.002013  0.576842  0.000000  1
  Mg  Mg5  1  0.756958  0.756958  0.500000  1
  Si  Si6  1  0.330877  0.666884  0.500000  1
  Si  Si7  1  0.666884  0.330877  0.500000  1
  Au  Au8  1  0.001529  0.001529  0.000000  1
