# generated using pymatgen
data_Sr2LaU3Se10
_symmetry_space_group_name_H-M   'P 1'
_cell_length_a   7.87441200
_cell_length_b   8.60301921
_cell_length_c   12.41117210
_cell_angle_alpha   89.70896343
_cell_angle_beta   90.00000000
_cell_angle_gamma   90.00000000
_symmetry_Int_Tables_number   1
_chemical_formula_structural   Sr2LaU3Se10
_chemical_formula_sum   'Sr4 La2 U6 Se20'
_cell_volume   840.76809182
_cell_formula_units_Z   2
loop_
 _symmetry_equiv_pos_site_id
 _symmetry_equiv_pos_as_xyz
  1  'x, y, z'
loop_
 _atom_site_type_symbol
 _atom_site_label
 _atom_site_symmetry_multiplicity
 _atom_site_fract_x
 _atom_site_fract_y
 _atom_site_fract_z
 _atom_site_occupancy
  Sr  Sr0  1  0.044765  0.495520  0.328238  1
  Sr  Sr1  1  0.544765  0.504480  0.171762  1
  Sr  Sr2  1  0.950592  0.505377  0.672760  1
  Sr  Sr3  1  0.450592  0.494623  0.827240  1
  La  La4  1  0.034445  0.000632  0.322006  1
  La  La5  1  0.534445  0.999368  0.177994  1
  U  U6  1  0.972093  0.001230  0.677459  1
  U  U7  1  0.472093  0.998770  0.822541  1
  U  U8  1  0.065317  0.750241  0.005191  1
  U  U9  1  0.565317  0.249759  0.494809  1
  U  U10  1  0.934308  0.249250  0.991758  1
  U  U11  1  0.434308  0.750750  0.508242  1
  Se  Se12  1  0.665402  0.957140  0.412070  1
  Se  Se13  1  0.165402  0.042860  0.087930  1
  Se  Se14  1  0.331215  0.043420  0.597457  1
  Se  Se15  1  0.831215  0.956580  0.902543  1
  Se  Se16  1  0.448730  0.772183  0.995339  1
  Se  Se17  1  0.948730  0.227817  0.504661  1
  Se  Se18  1  0.548871  0.225321  0.988916  1
  Se  Se19  1  0.048871  0.774679  0.511084  1
  Se  Se20  1  0.843443  0.757705  0.186457  1
  Se  Se21  1  0.343443  0.242295  0.313543  1
  Se  Se22  1  0.156434  0.226973  0.808424  1
  Se  Se23  1  0.656434  0.773027  0.691576  1
  Se  Se24  1  0.318664  0.753279  0.290024  1
  Se  Se25  1  0.818664  0.246721  0.209976  1
  Se  Se26  1  0.682290  0.230253  0.714306  1
  Se  Se27  1  0.182290  0.769747  0.785694  1
  Se  Se28  1  0.178642  0.457088  0.072715  1
  Se  Se29  1  0.678642  0.542912  0.427285  1
  Se  Se30  1  0.824790  0.538432  0.917055  1
  Se  Se31  1  0.324790  0.461568  0.582945  1
