# generated using pymatgen
data_TbPr3Zn2Rh3
_symmetry_space_group_name_H-M   'P 1'
_cell_length_a   7.58628780
_cell_length_b   7.58628726
_cell_length_c   4.03892600
_cell_angle_alpha   90.00000000
_cell_angle_beta   90.00000000
_cell_angle_gamma   120.16996798
_symmetry_Int_Tables_number   1
_chemical_formula_structural   TbPr3Zn2Rh3
_chemical_formula_sum   'Tb1 Pr3 Zn2 Rh3'
_cell_volume   200.95959868
_cell_formula_units_Z   1
loop_
 _symmetry_equiv_pos_site_id
 _symmetry_equiv_pos_as_xyz
  1  'x, y, z'
loop_
 _atom_site_type_symbol
 _atom_site_label
 _atom_site_symmetry_multiplicity
 _atom_site_fract_x
 _atom_site_fract_y
 _atom_site_fract_z
 _atom_site_occupancy
  Tb  Tb0  1  0.765239  0.765239  0.000000  1
  Pr  Pr1  1  0.024784  0.576148  0.500000  1
  Pr  Pr2  1  0.382784  0.382784  0.500000  1
  Pr  Pr3  1  0.576148  0.024784  0.500000  1
  Zn  Zn4  1  0.992284  0.241426  0.000000  1
  Zn  Zn5  1  0.241426  0.992284  0.000000  1
  Rh  Rh6  1  0.341075  0.667503  0.000000  1
  Rh  Rh7  1  0.008756  0.008756  0.500000  1
  Rh  Rh8  1  0.667503  0.341075  0.000000  1
