# generated using pymatgen
data_TmIO4
_symmetry_space_group_name_H-M   'P 1'
_cell_length_a   4.95931514
_cell_length_b   4.95931575
_cell_length_c   7.13678200
_cell_angle_alpha   90.00000000
_cell_angle_beta   90.00000000
_cell_angle_gamma   86.11785684
_symmetry_Int_Tables_number   1
_chemical_formula_structural   TmIO4
_chemical_formula_sum   'Tm2 I2 O8'
_cell_volume   175.12503385
_cell_formula_units_Z   2
loop_
 _symmetry_equiv_pos_site_id
 _symmetry_equiv_pos_as_xyz
  1  'x, y, z'
loop_
 _atom_site_type_symbol
 _atom_site_label
 _atom_site_symmetry_multiplicity
 _atom_site_fract_x
 _atom_site_fract_y
 _atom_site_fract_z
 _atom_site_occupancy
  Tm  Tm0  1  0.000000  0.000000  0.000000  1
  Tm  Tm1  1  0.000000  0.000000  0.500000  1
  I  I2  1  0.527431  0.527431  0.250001  1
  I  I3  1  0.472569  0.472569  0.750001  1
  O  O4  1  0.832017  0.232528  0.250001  1
  O  O5  1  0.232528  0.832017  0.250001  1
  O  O6  1  0.767471  0.167982  0.750001  1
  O  O7  1  0.167982  0.767471  0.750001  1
  O  O8  1  0.692209  0.692209  0.049687  1
  O  O9  1  0.692209  0.692209  0.450313  1
  O  O10  1  0.307791  0.307791  0.549687  1
  O  O11  1  0.307791  0.307791  0.950313  1
