# generated using pymatgen
data_Tm10Ir2OsRh
_symmetry_space_group_name_H-M   'P 1'
_cell_length_a   6.40735280
_cell_length_b   7.18418108
_cell_length_c   8.32602045
_cell_angle_alpha   96.42813800
_cell_angle_beta   112.40395573
_cell_angle_gamma   89.93982913
_symmetry_Int_Tables_number   1
_chemical_formula_structural   Tm10Ir2OsRh
_chemical_formula_sum   'Tm10 Ir2 Os1 Rh1'
_cell_volume   351.74216299
_cell_formula_units_Z   1
loop_
 _symmetry_equiv_pos_site_id
 _symmetry_equiv_pos_as_xyz
  1  'x, y, z'
loop_
 _atom_site_type_symbol
 _atom_site_label
 _atom_site_symmetry_multiplicity
 _atom_site_fract_x
 _atom_site_fract_y
 _atom_site_fract_z
 _atom_site_occupancy
  Tm  Tm0  1  0.972061  0.917512  0.184356  1
  Tm  Tm1  1  0.790117  0.581169  0.821978  1
  Tm  Tm2  1  0.029708  0.082106  0.818662  1
  Tm  Tm3  1  0.211450  0.419037  0.183284  1
  Tm  Tm4  1  0.656958  0.816311  0.438819  1
  Tm  Tm5  1  0.208662  0.680835  0.556034  1
  Tm  Tm6  1  0.345843  0.182399  0.558648  1
  Tm  Tm7  1  0.786941  0.319300  0.440462  1
  Tm  Tm8  1  0.426011  0.748952  0.000809  1
  Tm  Tm9  1  0.575044  0.251948  0.001145  1
  Ir  Ir10  1  0.173403  0.425374  0.781489  1
  Ir  Ir11  1  0.390853  0.073325  0.218709  1
  Os  Os12  1  0.825408  0.573953  0.215272  1
  Rh  Rh13  1  0.607540  0.927779  0.780332  1
