# generated using pymatgen
data_Sc7Sn23Ir6
_symmetry_space_group_name_H-M   'P 1'
_cell_length_a   9.71499900
_cell_length_b   9.71499918
_cell_length_c   9.99083900
_cell_angle_alpha   90.00000000
_cell_angle_beta   90.00000000
_cell_angle_gamma   119.99998919
_symmetry_Int_Tables_number   1
_chemical_formula_structural   Sc7Sn23Ir6
_chemical_formula_sum   'Sc7 Sn23 Ir6'
_cell_volume   816.61653205
_cell_formula_units_Z   1
loop_
 _symmetry_equiv_pos_site_id
 _symmetry_equiv_pos_as_xyz
  1  'x, y, z'
loop_
 _atom_site_type_symbol
 _atom_site_label
 _atom_site_symmetry_multiplicity
 _atom_site_fract_x
 _atom_site_fract_y
 _atom_site_fract_z
 _atom_site_occupancy
  Sc  Sc0  1  0.000000  0.000000  0.000000  1
  Sc  Sc1  1  0.482576  0.517424  0.307955  1
  Sc  Sc2  1  0.517424  0.482576  0.692045  1
  Sc  Sc3  1  0.482576  0.965151  0.307955  1
  Sc  Sc4  1  0.517424  0.034849  0.692045  1
  Sc  Sc5  1  0.034849  0.517424  0.307955  1
  Sc  Sc6  1  0.965151  0.482576  0.692045  1
  Sn  Sn7  1  0.351474  0.000000  0.000000  1
  Sn  Sn8  1  0.648526  0.000000  0.000000  1
  Sn  Sn9  1  0.000000  0.351474  0.000000  1
  Sn  Sn10  1  0.000000  0.648526  0.000000  1
  Sn  Sn11  1  0.648526  0.648526  0.000000  1
  Sn  Sn12  1  0.351474  0.351474  0.000000  1
  Sn  Sn13  1  0.333333  0.666667  0.827412  1
  Sn  Sn14  1  0.666667  0.333333  0.172588  1
  Sn  Sn15  1  0.000000  0.000000  0.500000  1
  Sn  Sn16  1  0.775779  0.224221  0.459018  1
  Sn  Sn17  1  0.224221  0.775779  0.540982  1
  Sn  Sn18  1  0.775779  0.551559  0.459018  1
  Sn  Sn19  1  0.224221  0.448441  0.540982  1
  Sn  Sn20  1  0.448441  0.224221  0.459018  1
  Sn  Sn21  1  0.551559  0.775779  0.540982  1
  Sn  Sn22  1  0.333333  0.666667  0.135489  1
  Sn  Sn23  1  0.666667  0.333333  0.864511  1
  Sn  Sn24  1  0.122434  0.877566  0.284291  1
  Sn  Sn25  1  0.877566  0.122434  0.715709  1
  Sn  Sn26  1  0.122434  0.244867  0.284291  1
  Sn  Sn27  1  0.877566  0.755133  0.715709  1
  Sn  Sn28  1  0.755133  0.877566  0.284291  1
  Sn  Sn29  1  0.244867  0.122434  0.715709  1
  Ir  Ir30  1  0.829998  0.170002  0.201131  1
  Ir  Ir31  1  0.170002  0.829998  0.798869  1
  Ir  Ir32  1  0.829998  0.659996  0.201131  1
  Ir  Ir33  1  0.170002  0.340004  0.798869  1
  Ir  Ir34  1  0.340004  0.170002  0.201131  1
  Ir  Ir35  1  0.659996  0.829998  0.798869  1
