# generated using pymatgen
data_Ac7Nd12HoPb16
_symmetry_space_group_name_H-M   'P 1'
_cell_length_a   8.62310797
_cell_length_b   16.56003568
_cell_length_c   8.69854071
_cell_angle_alpha   90.08878879
_cell_angle_beta   89.77339308
_cell_angle_gamma   90.14144481
_symmetry_Int_Tables_number   1
_chemical_formula_structural   Ac7Nd12HoPb16
_chemical_formula_sum   'Ac7 Nd12 Ho1 Pb16'
_cell_volume   1242.12773035
_cell_formula_units_Z   1
loop_
 _symmetry_equiv_pos_site_id
 _symmetry_equiv_pos_as_xyz
  1  'x, y, z'
loop_
 _atom_site_type_symbol
 _atom_site_label
 _atom_site_symmetry_multiplicity
 _atom_site_fract_x
 _atom_site_fract_y
 _atom_site_fract_z
 _atom_site_occupancy
  Ac  Ac0  1  0.972087  0.900848  0.820609  1
  Ac  Ac1  1  0.528469  0.098843  0.320843  1
  Ac  Ac2  1  0.029350  0.401637  0.178219  1
  Ac  Ac3  1  0.529102  0.401591  0.322810  1
  Ac  Ac4  1  0.027439  0.098748  0.177811  1
  Ac  Ac5  1  0.472645  0.901472  0.678183  1
  Ac  Ac6  1  0.971809  0.597781  0.819731  1
  Nd  Nd7  1  0.625847  0.618773  0.156967  1
  Nd  Nd8  1  0.127775  0.879969  0.343559  1
  Nd  Nd9  1  0.373211  0.120563  0.843698  1
  Nd  Nd10  1  0.873192  0.380794  0.656235  1
  Nd  Nd11  1  0.375887  0.380711  0.843219  1
  Nd  Nd12  1  0.871931  0.120394  0.656313  1
  Nd  Nd13  1  0.627379  0.879344  0.156536  1
  Nd  Nd14  1  0.127137  0.618521  0.343483  1
  Nd  Nd15  1  0.467948  0.601587  0.676389  1
  Nd  Nd16  1  0.790550  0.748865  0.496839  1
  Nd  Nd17  1  0.290193  0.748972  0.003227  1
  Nd  Nd18  1  0.209301  0.250773  0.503748  1
  Ho  Ho19  1  0.710354  0.250164  0.995208  1
  Pb  Pb20  1  0.710351  0.452429  0.962270  1
  Pb  Pb21  1  0.209355  0.045613  0.541113  1
  Pb  Pb22  1  0.291632  0.954321  0.039562  1
  Pb  Pb23  1  0.782696  0.546822  0.466931  1
  Pb  Pb24  1  0.292681  0.546332  0.033583  1
  Pb  Pb25  1  0.790944  0.954887  0.459036  1
  Pb  Pb26  1  0.709408  0.047305  0.960757  1
  Pb  Pb27  1  0.214898  0.457931  0.544336  1
  Pb  Pb28  1  0.428358  0.748435  0.369937  1
  Pb  Pb29  1  0.928484  0.749275  0.132194  1
  Pb  Pb30  1  0.572234  0.249908  0.636626  1
  Pb  Pb31  1  0.067682  0.250618  0.868133  1
  Pb  Pb32  1  0.656785  0.746524  0.854673  1
  Pb  Pb33  1  0.166673  0.748367  0.642038  1
  Pb  Pb34  1  0.339363  0.250245  0.141201  1
  Pb  Pb35  1  0.836848  0.250636  0.353986  1
