# generated using pymatgen
data_Dy2ErTm3(RuI3)2
_symmetry_space_group_name_H-M   'P 1'
_cell_length_a   4.18065700
_cell_length_b   8.84740017
_cell_length_c   12.31454133
_cell_angle_alpha   94.36953142
_cell_angle_beta   90.00000000
_cell_angle_gamma   90.00000000
_symmetry_Int_Tables_number   1
_chemical_formula_structural   Dy2ErTm3(RuI3)2
_chemical_formula_sum   'Dy2 Er1 Tm3 Ru2 I6'
_cell_volume   454.16566124
_cell_formula_units_Z   1
loop_
 _symmetry_equiv_pos_site_id
 _symmetry_equiv_pos_as_xyz
  1  'x, y, z'
loop_
 _atom_site_type_symbol
 _atom_site_label
 _atom_site_symmetry_multiplicity
 _atom_site_fract_x
 _atom_site_fract_y
 _atom_site_fract_z
 _atom_site_occupancy
  Dy  Dy0  1  0.750000  0.264988  0.603488  1
  Dy  Dy1  1  0.250000  0.734963  0.396184  1
  Er  Er2  1  0.250000  0.103773  0.813238  1
  Tm  Tm3  1  0.750000  0.875263  0.626005  1
  Tm  Tm4  1  0.250000  0.124717  0.373793  1
  Tm  Tm5  1  0.750000  0.896114  0.187875  1
  Ru  Ru6  1  0.750000  0.943020  0.407836  1
  Ru  Ru7  1  0.250000  0.057002  0.591977  1
  I  I8  1  0.750000  0.421647  0.365984  1
  I  I9  1  0.250000  0.578504  0.633804  1
  I  I10  1  0.750000  0.864013  0.889862  1
  I  I11  1  0.250000  0.134646  0.110169  1
  I  I12  1  0.750000  0.357229  0.866308  1
  I  I13  1  0.250000  0.644120  0.133479  1
