# generated using pymatgen
data_Er6Tm3Lu7(In3Co)2
_symmetry_space_group_name_H-M   'P 1'
_cell_length_a   10.19792100
_cell_length_b   10.19792105
_cell_length_c   6.91784400
_cell_angle_alpha   90.00000000
_cell_angle_beta   90.00000000
_cell_angle_gamma   119.99999659
_symmetry_Int_Tables_number   1
_chemical_formula_structural   Er6Tm3Lu7(In3Co)2
_chemical_formula_sum   'Er6 Tm3 Lu7 In6 Co2'
_cell_volume   623.05258141
_cell_formula_units_Z   1
loop_
 _symmetry_equiv_pos_site_id
 _symmetry_equiv_pos_as_xyz
  1  'x, y, z'
loop_
 _atom_site_type_symbol
 _atom_site_label
 _atom_site_symmetry_multiplicity
 _atom_site_fract_x
 _atom_site_fract_y
 _atom_site_fract_z
 _atom_site_occupancy
  Er  Er0  1  0.534156  0.068312  0.513139  1
  Er  Er1  1  0.931688  0.465844  0.513139  1
  Er  Er2  1  0.534156  0.465844  0.513139  1
  Er  Er3  1  0.466014  0.932028  0.012953  1
  Er  Er4  1  0.067972  0.533986  0.012953  1
  Er  Er5  1  0.466014  0.533986  0.012953  1
  Tm  Tm6  1  0.333333  0.666667  0.403919  1
  Tm  Tm7  1  0.000000  0.000000  0.500974  1
  Tm  Tm8  1  0.000000  0.000000  0.001167  1
  Lu  Lu9  1  0.178643  0.357286  0.720841  1
  Lu  Lu10  1  0.642714  0.821357  0.720841  1
  Lu  Lu11  1  0.178643  0.821357  0.720841  1
  Lu  Lu12  1  0.821230  0.642461  0.220571  1
  Lu  Lu13  1  0.357539  0.178770  0.220571  1
  Lu  Lu14  1  0.821230  0.178770  0.220571  1
  Lu  Lu15  1  0.666667  0.333333  0.904674  1
  In  In16  1  0.837108  0.674215  0.761522  1
  In  In17  1  0.325785  0.162892  0.761522  1
  In  In18  1  0.837108  0.162892  0.761522  1
  In  In19  1  0.162563  0.325128  0.261101  1
  In  In20  1  0.674872  0.837437  0.261101  1
  In  In21  1  0.162563  0.837437  0.261101  1
  Co  Co22  1  0.666667  0.333333  0.288347  1
  Co  Co23  1  0.333333  0.666667  0.788536  1
