# generated using pymatgen
data_Sm3Dy2Mn2O12
_symmetry_space_group_name_H-M   'P 1'
_cell_length_a   6.91797889
_cell_length_b   6.91797861
_cell_length_c   7.36514937
_cell_angle_alpha   74.18689478
_cell_angle_beta   74.18689591
_cell_angle_gamma   49.76834906
_symmetry_Int_Tables_number   1
_chemical_formula_structural   Sm3Dy2Mn2O12
_chemical_formula_sum   'Sm3 Dy2 Mn2 O12'
_cell_volume   256.67265893
_cell_formula_units_Z   1
loop_
 _symmetry_equiv_pos_site_id
 _symmetry_equiv_pos_as_xyz
  1  'x, y, z'
loop_
 _atom_site_type_symbol
 _atom_site_label
 _atom_site_symmetry_multiplicity
 _atom_site_fract_x
 _atom_site_fract_y
 _atom_site_fract_z
 _atom_site_occupancy
  Sm  Sm0  1  0.693239  0.693239  0.165613  1
  Sm  Sm1  1  0.306761  0.306761  0.834387  1
  Sm  Sm2  1  0.000000  0.000000  0.500000  1
  Dy  Dy3  1  0.305844  0.305844  0.356898  1
  Dy  Dy4  1  0.694156  0.694156  0.643102  1
  Mn  Mn5  1  0.754071  0.245929  0.000000  1
  Mn  Mn6  1  0.245929  0.754071  0.000000  1
  O  O7  1  0.093596  0.595716  0.572117  1
  O  O8  1  0.000738  0.000738  0.174134  1
  O  O9  1  0.404284  0.906404  0.427883  1
  O  O10  1  0.498683  0.498683  0.178531  1
  O  O11  1  0.102858  0.578604  0.082876  1
  O  O12  1  0.906404  0.404284  0.427883  1
  O  O13  1  0.999262  0.999262  0.825866  1
  O  O14  1  0.595716  0.093595  0.572117  1
  O  O15  1  0.501317  0.501317  0.821469  1
  O  O16  1  0.578604  0.102858  0.082876  1
  O  O17  1  0.421396  0.897142  0.917124  1
  O  O18  1  0.897142  0.421396  0.917124  1
