# generated using pymatgen
data_Dy4Y12MgHg3Pt4
_symmetry_space_group_name_H-M   'P 1'
_cell_length_a   9.70523321
_cell_length_b   9.70724451
_cell_length_c   9.70724500
_cell_angle_alpha   60.00000174
_cell_angle_beta   59.99314611
_cell_angle_gamma   59.99313284
_symmetry_Int_Tables_number   1
_chemical_formula_structural   Dy4Y12MgHg3Pt4
_chemical_formula_sum   'Dy4 Y12 Mg1 Hg3 Pt4'
_cell_volume   646.60327614
_cell_formula_units_Z   1
loop_
 _symmetry_equiv_pos_site_id
 _symmetry_equiv_pos_as_xyz
  1  'x, y, z'
loop_
 _atom_site_type_symbol
 _atom_site_label
 _atom_site_symmetry_multiplicity
 _atom_site_fract_x
 _atom_site_fract_y
 _atom_site_fract_z
 _atom_site_occupancy
  Dy  Dy0  1  0.603842  0.601330  0.601330  1
  Dy  Dy1  1  0.603842  0.601330  0.193499  1
  Dy  Dy2  1  0.603842  0.193499  0.601330  1
  Dy  Dy3  1  0.184213  0.605263  0.605263  1
  Y  Y4  1  0.058820  0.440685  0.440685  1
  Y  Y5  1  0.436684  0.062013  0.062013  1
  Y  Y6  1  0.436684  0.062013  0.439290  1
  Y  Y7  1  0.058820  0.440685  0.059811  1
  Y  Y8  1  0.436684  0.439290  0.062013  1
  Y  Y9  1  0.058820  0.059811  0.440685  1
  Y  Y10  1  0.183290  0.815415  0.815415  1
  Y  Y11  1  0.813399  0.185905  0.185905  1
  Y  Y12  1  0.813399  0.185905  0.814791  1
  Y  Y13  1  0.183290  0.815415  0.185880  1
  Y  Y14  1  0.813399  0.814791  0.185905  1
  Y  Y15  1  0.183290  0.185880  0.815415  1
  Mg  Mg16  1  0.531554  0.822815  0.822815  1
  Hg  Hg17  1  0.833492  0.838432  0.838432  1
  Hg  Hg18  1  0.833492  0.838432  0.489643  1
  Hg  Hg19  1  0.833492  0.489643  0.838432  1
  Pt  Pt20  1  0.392189  0.394974  0.394974  1
  Pt  Pt21  1  0.392189  0.394974  0.817864  1
  Pt  Pt22  1  0.392189  0.817864  0.394974  1
  Pt  Pt23  1  0.819091  0.393637  0.393637  1
