# generated using pymatgen
data_DyHoAl20Ru3Rh
_symmetry_space_group_name_H-M   'P 1'
_cell_length_a   6.84141759
_cell_length_b   6.85000705
_cell_length_c   9.13728300
_cell_angle_alpha   90.13874236
_cell_angle_beta   90.16340046
_cell_angle_gamma   96.79115975
_symmetry_Int_Tables_number   1
_chemical_formula_structural   DyHoAl20Ru3Rh
_chemical_formula_sum   'Dy1 Ho1 Al20 Ru3 Rh1'
_cell_volume   425.19965154
_cell_formula_units_Z   1
loop_
 _symmetry_equiv_pos_site_id
 _symmetry_equiv_pos_as_xyz
  1  'x, y, z'
loop_
 _atom_site_type_symbol
 _atom_site_label
 _atom_site_symmetry_multiplicity
 _atom_site_fract_x
 _atom_site_fract_y
 _atom_site_fract_z
 _atom_site_occupancy
  Dy  Dy0  1  0.871303  0.126953  0.750658  1
  Ho  Ho1  1  0.128762  0.872979  0.249346  1
  Al  Al2  1  0.620991  0.376112  0.551000  1
  Al  Al3  1  0.378971  0.623925  0.448984  1
  Al  Al4  1  0.377255  0.623321  0.049755  1
  Al  Al5  1  0.622707  0.376719  0.950257  1
  Al  Al6  1  0.226872  0.225415  0.499218  1
  Al  Al7  1  0.773149  0.774565  0.500729  1
  Al  Al8  1  0.774224  0.774690  0.999901  1
  Al  Al9  1  0.225798  0.225287  0.000150  1
  Al  Al10  1  0.844548  0.156060  0.099705  1
  Al  Al11  1  0.155497  0.843899  0.900326  1
  Al  Al12  1  0.157036  0.845016  0.601095  1
  Al  Al13  1  0.843008  0.154938  0.398874  1
  Al  Al14  1  0.858019  0.587098  0.750771  1
  Al  Al15  1  0.142004  0.412977  0.249227  1
  Al  Al16  1  0.412947  0.141094  0.750490  1
  Al  Al17  1  0.586978  0.858888  0.249508  1
  Al  Al18  1  0.222687  0.480510  0.752408  1
  Al  Al19  1  0.777361  0.519574  0.247590  1
  Al  Al20  1  0.519332  0.779132  0.749813  1
  Al  Al21  1  0.480584  0.220820  0.250182  1
  Ru  Ru22  1  0.000008  0.500023  0.000052  1
  Ru  Ru23  1  0.499983  0.999998  0.000057  1
  Ru  Ru24  1  0.499979  0.999998  0.499938  1
  Rh  Rh25  1  0.999996  0.500008  0.499964  1
