# generated using pymatgen
data_EuZnAu5
_symmetry_space_group_name_H-M   'P 1'
_cell_length_a   5.79549864
_cell_length_b   5.79549803
_cell_length_c   5.79549772
_cell_angle_alpha   102.80299659
_cell_angle_beta   102.80300005
_cell_angle_gamma   123.83483531
_symmetry_Int_Tables_number   1
_chemical_formula_structural   EuZnAu5
_chemical_formula_sum   'Eu1 Zn1 Au5'
_cell_volume   142.65595674
_cell_formula_units_Z   1
loop_
 _symmetry_equiv_pos_site_id
 _symmetry_equiv_pos_as_xyz
  1  'x, y, z'
loop_
 _atom_site_type_symbol
 _atom_site_label
 _atom_site_symmetry_multiplicity
 _atom_site_fract_x
 _atom_site_fract_y
 _atom_site_fract_z
 _atom_site_occupancy
  Eu  Eu0  1  0.000000  0.000000  0.000000  1
  Zn  Zn1  1  0.750000  0.250000  0.500000  1
  Au  Au2  1  0.696866  0.303134  0.000000  1
  Au  Au3  1  0.303134  0.696866  0.000000  1
  Au  Au4  1  0.303134  0.303134  0.606269  1
  Au  Au5  1  0.696866  0.696866  0.393731  1
  Au  Au6  1  0.250000  0.750000  0.500000  1
