# generated using pymatgen
data_Ca2DyTaN4
_symmetry_space_group_name_H-M   'P 1'
_cell_length_a   5.88692602
_cell_length_b   5.89945428
_cell_length_c   4.91599323
_cell_angle_alpha   65.22919700
_cell_angle_beta   65.48004139
_cell_angle_gamma   49.17368945
_symmetry_Int_Tables_number   1
_chemical_formula_structural   Ca2DyTaN4
_chemical_formula_sum   'Ca2 Dy1 Ta1 N4'
_cell_volume   114.80450084
_cell_formula_units_Z   1
loop_
 _symmetry_equiv_pos_site_id
 _symmetry_equiv_pos_as_xyz
  1  'x, y, z'
loop_
 _atom_site_type_symbol
 _atom_site_label
 _atom_site_symmetry_multiplicity
 _atom_site_fract_x
 _atom_site_fract_y
 _atom_site_fract_z
 _atom_site_occupancy
  Ca  Ca0  1  0.250334  0.249516  0.249439  1
  Ca  Ca1  1  0.505278  0.494222  0.493977  1
  Dy  Dy2  1  0.754467  0.745358  0.744613  1
  Ta  Ta3  1  0.044501  0.955564  0.955177  1
  N  N4  1  0.001679  0.987664  0.565952  1
  N  N5  1  0.198771  0.231527  0.795183  1
  N  N6  1  0.445493  0.565388  0.986003  1
  N  N7  1  0.775412  0.794828  0.233721  1
