# generated using pymatgen
data_Dy5Y2(HoIn4)5
_symmetry_space_group_name_H-M   'P 1'
_cell_length_a   6.51355721
_cell_length_b   10.43009359
_cell_length_c   12.28393609
_cell_angle_alpha   90.05872311
_cell_angle_beta   89.98749367
_cell_angle_gamma   90.01139624
_symmetry_Int_Tables_number   1
_chemical_formula_structural   Dy5Y2(HoIn4)5
_chemical_formula_sum   'Dy5 Y2 Ho5 In20'
_cell_volume   834.53343040
_cell_formula_units_Z   1
loop_
 _symmetry_equiv_pos_site_id
 _symmetry_equiv_pos_as_xyz
  1  'x, y, z'
loop_
 _atom_site_type_symbol
 _atom_site_label
 _atom_site_symmetry_multiplicity
 _atom_site_fract_x
 _atom_site_fract_y
 _atom_site_fract_z
 _atom_site_occupancy
  Dy  Dy0  1  0.609709  0.006605  0.641998  1
  Dy  Dy1  1  0.109781  0.993217  0.857967  1
  Dy  Dy2  1  0.390291  0.506749  0.358023  1
  Dy  Dy3  1  0.109612  0.506709  0.858423  1
  Dy  Dy4  1  0.390332  0.993273  0.357922  1
  Y  Y5  1  0.890048  0.006778  0.142186  1
  Y  Y6  1  0.609841  0.493295  0.642017  1
  Ho  Ho7  1  0.349730  0.750093  0.055984  1
  Ho  Ho8  1  0.149618  0.750140  0.555951  1
  Ho  Ho9  1  0.649749  0.250220  0.943991  1
  Ho  Ho10  1  0.850154  0.249677  0.443979  1
  Ho  Ho11  1  0.890689  0.493233  0.141478  1
  In  In12  1  0.615891  0.750016  0.504915  1
  In  In13  1  0.883619  0.749401  0.005608  1
  In  In14  1  0.383913  0.249988  0.494781  1
  In  In15  1  0.115731  0.250168  0.994931  1
  In  In16  1  0.650978  0.749242  0.245550  1
  In  In17  1  0.849295  0.750058  0.745889  1
  In  In18  1  0.348964  0.249935  0.754347  1
  In  In19  1  0.150971  0.250568  0.254259  1
  In  In20  1  0.125457  0.749795  0.284428  1
  In  In21  1  0.374668  0.749944  0.784446  1
  In  In22  1  0.874892  0.249906  0.715606  1
  In  In23  1  0.625970  0.250913  0.215401  1
  In  In24  1  0.875457  0.543588  0.400611  1
  In  In25  1  0.624979  0.956103  0.901330  1
  In  In26  1  0.124840  0.043869  0.598717  1
  In  In27  1  0.375266  0.456359  0.098889  1
  In  In28  1  0.124573  0.456218  0.598667  1
  In  In29  1  0.375216  0.044110  0.098703  1
  In  In30  1  0.875044  0.956015  0.401457  1
  In  In31  1  0.624726  0.543815  0.901548  1
