# generated using pymatgen
data_Ho4Er3Th(ReB6)4
_symmetry_space_group_name_H-M   'P 1'
_cell_length_a   3.69176400
_cell_length_b   9.16692379
_cell_length_c   11.56262608
_cell_angle_alpha   90.04244184
_cell_angle_beta   90.00000000
_cell_angle_gamma   90.00000000
_symmetry_Int_Tables_number   1
_chemical_formula_structural   Ho4Er3Th(ReB6)4
_chemical_formula_sum   'Ho4 Er3 Th1 Re4 B24'
_cell_volume   391.30366315
_cell_formula_units_Z   1
loop_
 _symmetry_equiv_pos_site_id
 _symmetry_equiv_pos_as_xyz
  1  'x, y, z'
loop_
 _atom_site_type_symbol
 _atom_site_label
 _atom_site_symmetry_multiplicity
 _atom_site_fract_x
 _atom_site_fract_y
 _atom_site_fract_z
 _atom_site_occupancy
  Ho  Ho0  1  0.000000  0.677874  0.587427  1
  Ho  Ho1  1  0.000000  0.823173  0.085045  1
  Ho  Ho2  1  0.000000  0.176034  0.913946  1
  Ho  Ho3  1  0.000000  0.942069  0.369592  1
  Er  Er4  1  0.000000  0.055910  0.631497  1
  Er  Er5  1  0.000000  0.443597  0.128104  1
  Er  Er6  1  0.000000  0.557369  0.870723  1
  Th  Th7  1  0.000000  0.322383  0.414111  1
  Re  Re8  1  0.000000  0.639271  0.320152  1
  Re  Re9  1  0.000000  0.361654  0.680769  1
  Re  Re10  1  0.000000  0.138494  0.177979  1
  Re  Re11  1  0.000000  0.861306  0.820917  1
  B  B12  1  0.500000  0.556028  0.432301  1
  B  B13  1  0.500000  0.447080  0.569815  1
  B  B14  1  0.500000  0.052984  0.066134  1
  B  B15  1  0.500000  0.946467  0.932920  1
  B  B16  1  0.500000  0.750318  0.418353  1
  B  B17  1  0.500000  0.250346  0.585202  1
  B  B18  1  0.500000  0.249124  0.079875  1
  B  B19  1  0.500000  0.750507  0.918521  1
  B  B20  1  0.500000  0.792233  0.264836  1
  B  B21  1  0.500000  0.207788  0.736344  1
  B  B22  1  0.500000  0.290727  0.231886  1
  B  B23  1  0.500000  0.707836  0.765725  1
  B  B24  1  0.500000  0.631924  0.184097  1
  B  B25  1  0.500000  0.369814  0.815607  1
  B  B26  1  0.500000  0.129101  0.312104  1
  B  B27  1  0.500000  0.869025  0.685916  1
  B  B28  1  0.500000  0.981814  0.210768  1
  B  B29  1  0.500000  0.017240  0.788517  1
  B  B30  1  0.500000  0.485500  0.285879  1
  B  B31  1  0.500000  0.518350  0.713813  1
  B  B32  1  0.500000  0.600920  0.027513  1
  B  B33  1  0.500000  0.399851  0.971654  1
  B  B34  1  0.500000  0.096747  0.473377  1
  B  B35  1  0.500000  0.899140  0.528579  1
