# generated using pymatgen
data_LiLaCeZn3Ru
_symmetry_space_group_name_H-M   'P 1'
_cell_length_a   7.23769600
_cell_length_b   7.30654165
_cell_length_c   5.17116246
_cell_angle_alpha   90.13091575
_cell_angle_beta   90.00000000
_cell_angle_gamma   90.00000000
_symmetry_Int_Tables_number   1
_chemical_formula_structural   LiLaCeZn3Ru
_chemical_formula_sum   'Li2 La2 Ce2 Zn6 Ru2'
_cell_volume   273.46342595
_cell_formula_units_Z   2
loop_
 _symmetry_equiv_pos_site_id
 _symmetry_equiv_pos_as_xyz
  1  'x, y, z'
loop_
 _atom_site_type_symbol
 _atom_site_label
 _atom_site_symmetry_multiplicity
 _atom_site_fract_x
 _atom_site_fract_y
 _atom_site_fract_z
 _atom_site_occupancy
  Li  Li0  1  0.190123  0.686096  0.295590  1
  Li  Li1  1  0.809877  0.686096  0.295590  1
  La  La2  1  0.000000  0.497740  0.758245  1
  La  La3  1  0.500000  0.003029  0.233367  1
  Ce  Ce4  1  0.000000  0.998651  0.011725  1
  Ce  Ce5  1  0.500000  0.502447  0.005997  1
  Zn  Zn6  1  0.815185  0.316979  0.286428  1
  Zn  Zn7  1  0.312704  0.185878  0.711252  1
  Zn  Zn8  1  0.184815  0.316979  0.286428  1
  Zn  Zn9  1  0.687296  0.185878  0.711252  1
  Zn  Zn10  1  0.690627  0.809811  0.711519  1
  Zn  Zn11  1  0.309373  0.809811  0.711519  1
  Ru  Ru12  1  0.500000  0.493927  0.491469  1
  Ru  Ru13  1  0.000000  0.006680  0.489617  1
