# generated using pymatgen
data_Er12Co2SnRu3
_symmetry_space_group_name_H-M   'P 1'
_cell_length_a   8.28140961
_cell_length_b   8.28187133
_cell_length_c   8.28141052
_cell_angle_alpha   109.91945198
_cell_angle_beta   112.90590916
_cell_angle_gamma   105.66713647
_symmetry_Int_Tables_number   1
_chemical_formula_structural   Er12Co2SnRu3
_chemical_formula_sum   'Er12 Co2 Sn1 Ru3'
_cell_volume   435.49569146
_cell_formula_units_Z   1
loop_
 _symmetry_equiv_pos_site_id
 _symmetry_equiv_pos_as_xyz
  1  'x, y, z'
loop_
 _atom_site_type_symbol
 _atom_site_label
 _atom_site_symmetry_multiplicity
 _atom_site_fract_x
 _atom_site_fract_y
 _atom_site_fract_z
 _atom_site_occupancy
  Er  Er0  1  0.276824  0.178897  0.455713  1
  Er  Er1  1  0.723176  0.821103  0.544287  1
  Er  Er2  1  0.276817  0.821103  0.097927  1
  Er  Er3  1  0.723183  0.178897  0.902073  1
  Er  Er4  1  0.637547  0.321359  0.316220  1
  Er  Er5  1  0.362453  0.678641  0.683780  1
  Er  Er6  1  0.005140  0.321359  0.683812  1
  Er  Er7  1  0.994860  0.678641  0.316188  1
  Er  Er8  1  0.229977  0.417967  0.187989  1
  Er  Er9  1  0.770023  0.582033  0.812011  1
  Er  Er10  1  0.229999  0.042016  0.812017  1
  Er  Er11  1  0.770001  0.957984  0.187983  1
  Co  Co12  1  0.389268  0.889286  0.500018  1
  Co  Co13  1  0.610732  0.110714  0.499982  1
  Sn  Sn14  1  0.500000  0.500000  0.000000  1
  Ru  Ru15  1  0.999956  0.337889  0.337933  1
  Ru  Ru16  1  0.000044  0.662111  0.662067  1
  Ru  Ru17  1  0.000000  0.000000  0.000000  1
