# generated using pymatgen
data_Dy12Er3Tm5(CoSb2)4
_symmetry_space_group_name_H-M   'P 1'
_cell_length_a   7.83638803
_cell_length_b   8.77872404
_cell_length_c   12.18612205
_cell_angle_alpha   89.99204132
_cell_angle_beta   90.00688719
_cell_angle_gamma   89.99185588
_symmetry_Int_Tables_number   1
_chemical_formula_structural   Dy12Er3Tm5(CoSb2)4
_chemical_formula_sum   'Dy12 Er3 Tm5 Co4 Sb8'
_cell_volume   838.32581906
_cell_formula_units_Z   1
loop_
 _symmetry_equiv_pos_site_id
 _symmetry_equiv_pos_as_xyz
  1  'x, y, z'
loop_
 _atom_site_type_symbol
 _atom_site_label
 _atom_site_symmetry_multiplicity
 _atom_site_fract_x
 _atom_site_fract_y
 _atom_site_fract_z
 _atom_site_occupancy
  Dy  Dy0  1  0.153881  0.750038  0.203432  1
  Dy  Dy1  1  0.346140  0.749913  0.703368  1
  Dy  Dy2  1  0.846107  0.250079  0.796492  1
  Dy  Dy3  1  0.653717  0.250004  0.296625  1
  Dy  Dy4  1  0.452976  0.749957  0.997940  1
  Dy  Dy5  1  0.047216  0.749945  0.497915  1
  Dy  Dy6  1  0.546947  0.249972  0.002066  1
  Dy  Dy7  1  0.953077  0.250110  0.502065  1
  Dy  Dy8  1  0.622058  0.749881  0.307943  1
  Dy  Dy9  1  0.877816  0.750036  0.807886  1
  Dy  Dy10  1  0.377745  0.250064  0.692023  1
  Dy  Dy11  1  0.122296  0.250048  0.192226  1
  Er  Er12  1  0.823163  0.535850  0.065157  1
  Er  Er13  1  0.676791  0.964300  0.565151  1
  Er  Er14  1  0.176890  0.035594  0.934811  1
  Tm  Tm15  1  0.323818  0.464224  0.434978  1
  Tm  Tm16  1  0.176416  0.464344  0.934916  1
  Tm  Tm17  1  0.323660  0.035779  0.434924  1
  Tm  Tm18  1  0.823607  0.964172  0.065074  1
  Tm  Tm19  1  0.676185  0.535690  0.564991  1
  Co  Co20  1  0.435280  0.749806  0.491431  1
  Co  Co21  1  0.064544  0.750042  0.991428  1
  Co  Co22  1  0.564232  0.250155  0.508476  1
  Co  Co23  1  0.935443  0.250042  0.008548  1
  Sb  Sb24  1  0.929675  0.508026  0.327179  1
  Sb  Sb25  1  0.570513  0.991932  0.827094  1
  Sb  Sb26  1  0.070512  0.008092  0.672896  1
  Sb  Sb27  1  0.429396  0.491910  0.172966  1
  Sb  Sb28  1  0.070347  0.491942  0.672934  1
  Sb  Sb29  1  0.429567  0.008060  0.172924  1
  Sb  Sb30  1  0.929574  0.991963  0.327072  1
  Sb  Sb31  1  0.570408  0.508032  0.827068  1
