# generated using pymatgen
data_SmLu11(Si3Rh)4
_symmetry_space_group_name_H-M   'P 1'
_cell_length_a   4.19912300
_cell_length_b   10.59149289
_cell_length_c   12.23965700
_cell_angle_alpha   90.17935570
_cell_angle_beta   90.00000000
_cell_angle_gamma   90.00000000
_symmetry_Int_Tables_number   1
_chemical_formula_structural   SmLu11(Si3Rh)4
_chemical_formula_sum   'Sm1 Lu11 Si12 Rh4'
_cell_volume   544.35585047
_cell_formula_units_Z   1
loop_
 _symmetry_equiv_pos_site_id
 _symmetry_equiv_pos_as_xyz
  1  'x, y, z'
loop_
 _atom_site_type_symbol
 _atom_site_label
 _atom_site_symmetry_multiplicity
 _atom_site_fract_x
 _atom_site_fract_y
 _atom_site_fract_z
 _atom_site_occupancy
  Sm  Sm0  1  0.750000  0.158335  0.697212  1
  Lu  Lu1  1  0.250000  0.878182  0.021881  1
  Lu  Lu2  1  0.250000  0.621338  0.521149  1
  Lu  Lu3  1  0.750000  0.120533  0.980884  1
  Lu  Lu4  1  0.750000  0.380719  0.477565  1
  Lu  Lu5  1  0.250000  0.919319  0.603015  1
  Lu  Lu6  1  0.250000  0.579403  0.104169  1
  Lu  Lu7  1  0.750000  0.080189  0.394639  1
  Lu  Lu8  1  0.750000  0.421436  0.896615  1
  Lu  Lu9  1  0.250000  0.661560  0.800544  1
  Lu  Lu10  1  0.250000  0.838544  0.300791  1
  Lu  Lu11  1  0.750000  0.339542  0.199438  1
  Si  Si12  1  0.250000  0.011525  0.825387  1
  Si  Si13  1  0.250000  0.485782  0.322724  1
  Si  Si14  1  0.750000  0.984842  0.177208  1
  Si  Si15  1  0.750000  0.515128  0.677248  1
  Si  Si16  1  0.250000  0.248939  0.844023  1
  Si  Si17  1  0.250000  0.252922  0.339733  1
  Si  Si18  1  0.750000  0.751952  0.158719  1
  Si  Si19  1  0.750000  0.748329  0.658465  1
  Si  Si20  1  0.250000  0.200272  0.536952  1
  Si  Si21  1  0.250000  0.302569  0.043105  1
  Si  Si22  1  0.750000  0.802310  0.457294  1
  Si  Si23  1  0.750000  0.697037  0.958281  1
  Rh  Rh24  1  0.250000  0.394154  0.682458  1
  Rh  Rh25  1  0.250000  0.109046  0.180689  1
  Rh  Rh26  1  0.750000  0.608637  0.318030  1
  Rh  Rh27  1  0.750000  0.887458  0.821784  1
