# generated using pymatgen
data_HfSn(As2O7)2
_symmetry_space_group_name_H-M   'P 1'
_cell_length_a   5.51600400
_cell_length_b   5.49876421
_cell_length_c   9.82172403
_cell_angle_alpha   82.08836711
_cell_angle_beta   80.45099359
_cell_angle_gamma   99.01032662
_symmetry_Int_Tables_number   1
_chemical_formula_structural   HfSn(As2O7)2
_chemical_formula_sum   'Hf1 Sn1 As4 O14'
_cell_volume   286.02796269
_cell_formula_units_Z   1
loop_
 _symmetry_equiv_pos_site_id
 _symmetry_equiv_pos_as_xyz
  1  'x, y, z'
loop_
 _atom_site_type_symbol
 _atom_site_label
 _atom_site_symmetry_multiplicity
 _atom_site_fract_x
 _atom_site_fract_y
 _atom_site_fract_z
 _atom_site_occupancy
  Hf  Hf0  1  0.000000  0.000000  0.500000  1
  Sn  Sn1  1  0.000000  0.000000  0.000000  1
  As  As2  1  0.171083  0.447138  0.196460  1
  As  As3  1  0.440717  0.174670  0.702727  1
  As  As4  1  0.559283  0.825330  0.297273  1
  As  As5  1  0.828917  0.552862  0.803540  1
  O  O6  1  0.067755  0.709729  0.140085  1
  O  O7  1  0.762214  0.737610  0.925511  1
  O  O8  1  0.300082  0.966577  0.852253  1
  O  O9  1  0.017326  0.704875  0.651227  1
  O  O10  1  0.468973  0.533291  0.243784  1
  O  O11  1  0.703706  0.082117  0.630313  1
  O  O12  1  0.744766  0.771749  0.414891  1
  O  O13  1  0.255234  0.228251  0.585109  1
  O  O14  1  0.237786  0.262390  0.074489  1
  O  O15  1  0.699918  0.033423  0.147747  1
  O  O16  1  0.932245  0.290271  0.859915  1
  O  O17  1  0.982674  0.295125  0.348773  1
  O  O18  1  0.296294  0.917883  0.369687  1
  O  O19  1  0.531027  0.466709  0.756216  1
