# generated using pymatgen
data_Pr3Mg3CuPb2
_symmetry_space_group_name_H-M   'P 1'
_cell_length_a   7.64042600
_cell_length_b   7.64042562
_cell_length_c   4.75555300
_cell_angle_alpha   90.00000000
_cell_angle_beta   90.00000000
_cell_angle_gamma   120.00001029
_symmetry_Int_Tables_number   1
_chemical_formula_structural   Pr3Mg3CuPb2
_chemical_formula_sum   'Pr3 Mg3 Cu1 Pb2'
_cell_volume   240.41786663
_cell_formula_units_Z   1
loop_
 _symmetry_equiv_pos_site_id
 _symmetry_equiv_pos_as_xyz
  1  'x, y, z'
loop_
 _atom_site_type_symbol
 _atom_site_label
 _atom_site_symmetry_multiplicity
 _atom_site_fract_x
 _atom_site_fract_y
 _atom_site_fract_z
 _atom_site_occupancy
  Pr  Pr0  1  0.398473  0.398473  0.000000  1
  Pr  Pr1  1  0.601527  0.000000  0.000000  1
  Pr  Pr2  1  0.000000  0.601527  0.000000  1
  Mg  Mg3  1  0.000000  0.230179  0.500000  1
  Mg  Mg4  1  0.769821  0.769821  0.500000  1
  Mg  Mg5  1  0.230179  0.000000  0.500000  1
  Cu  Cu6  1  0.000000  0.000000  0.000000  1
  Pb  Pb7  1  0.666667  0.333333  0.500000  1
  Pb  Pb8  1  0.333333  0.666667  0.500000  1
