# generated using pymatgen
data_Pr2Al9Pt2Rh
_symmetry_space_group_name_H-M   'P 1'
_cell_length_a   7.67819869
_cell_length_b   7.67819965
_cell_length_c   9.60851000
_cell_angle_alpha   90.00000000
_cell_angle_beta   90.00000000
_cell_angle_gamma   119.57459482
_symmetry_Int_Tables_number   1
_chemical_formula_structural   Pr2Al9Pt2Rh
_chemical_formula_sum   'Pr4 Al18 Pt4 Rh2'
_cell_volume   492.66440345
_cell_formula_units_Z   2
loop_
 _symmetry_equiv_pos_site_id
 _symmetry_equiv_pos_as_xyz
  1  'x, y, z'
loop_
 _atom_site_type_symbol
 _atom_site_label
 _atom_site_symmetry_multiplicity
 _atom_site_fract_x
 _atom_site_fract_y
 _atom_site_fract_z
 _atom_site_occupancy
  Pr  Pr0  1  0.993520  0.666733  0.750000  1
  Pr  Pr1  1  0.006480  0.333267  0.250000  1
  Pr  Pr2  1  0.666733  0.993520  0.750000  1
  Pr  Pr3  1  0.333267  0.006480  0.250000  1
  Al  Al4  1  0.128420  0.128420  0.750000  1
  Al  Al5  1  0.871580  0.871580  0.250000  1
  Al  Al6  1  0.001529  0.330355  0.573464  1
  Al  Al7  1  0.998471  0.669645  0.426536  1
  Al  Al8  1  0.998471  0.669645  0.073464  1
  Al  Al9  1  0.330355  0.001529  0.926536  1
  Al  Al10  1  0.001529  0.330355  0.926536  1
  Al  Al11  1  0.669645  0.998471  0.073464  1
  Al  Al12  1  0.669645  0.998471  0.426536  1
  Al  Al13  1  0.330355  0.001529  0.573464  1
  Al  Al14  1  0.330601  0.330601  0.049955  1
  Al  Al15  1  0.669399  0.669399  0.950045  1
  Al  Al16  1  0.669399  0.669399  0.549955  1
  Al  Al17  1  0.330601  0.330601  0.450045  1
  Al  Al18  1  0.340947  0.544111  0.750000  1
  Al  Al19  1  0.659053  0.455889  0.250000  1
  Al  Al20  1  0.544111  0.340947  0.750000  1
  Al  Al21  1  0.455889  0.659053  0.250000  1
  Pt  Pt22  1  0.671061  0.328939  0.500000  1
  Pt  Pt23  1  0.328939  0.671061  0.500000  1
  Pt  Pt24  1  0.328939  0.671061  0.000000  1
  Pt  Pt25  1  0.671061  0.328939  0.000000  1
  Rh  Rh26  1  0.000000  0.000000  0.500000  1
  Rh  Rh27  1  0.000000  0.000000  0.000000  1
