# generated using pymatgen
data_Sm8Tm12Si15P
_symmetry_space_group_name_H-M   'P 1'
_cell_length_a   7.69990733
_cell_length_b   7.70457212
_cell_length_c   14.17313600
_cell_angle_alpha   89.80435025
_cell_angle_beta   89.95547245
_cell_angle_gamma   90.01289173
_symmetry_Int_Tables_number   1
_chemical_formula_structural   Sm8Tm12Si15P
_chemical_formula_sum   'Sm8 Tm12 Si15 P1'
_cell_volume   840.80890545
_cell_formula_units_Z   1
loop_
 _symmetry_equiv_pos_site_id
 _symmetry_equiv_pos_as_xyz
  1  'x, y, z'
loop_
 _atom_site_type_symbol
 _atom_site_label
 _atom_site_symmetry_multiplicity
 _atom_site_fract_x
 _atom_site_fract_y
 _atom_site_fract_z
 _atom_site_occupancy
  Sm  Sm0  1  0.001123  0.350410  0.211508  1
  Sm  Sm1  1  0.003700  0.649165  0.710490  1
  Sm  Sm2  1  0.147766  0.501437  0.462006  1
  Sm  Sm3  1  0.505060  0.846301  0.037740  1
  Sm  Sm4  1  0.852530  0.501159  0.960317  1
  Sm  Sm5  1  0.499661  0.149853  0.539382  1
  Sm  Sm6  1  0.352140  0.997955  0.789649  1
  Sm  Sm7  1  0.642701  0.003173  0.289425  1
  Tm  Tm8  1  0.175929  0.174322  0.999946  1
  Tm  Tm9  1  0.824350  0.825790  0.499606  1
  Tm  Tm10  1  0.321851  0.677070  0.250447  1
  Tm  Tm11  1  0.677426  0.323346  0.749911  1
  Tm  Tm12  1  0.154238  0.014972  0.372021  1
  Tm  Tm13  1  0.853014  0.994641  0.875983  1
  Tm  Tm14  1  0.494545  0.647619  0.626544  1
  Tm  Tm15  1  0.352968  0.505191  0.873868  1
  Tm  Tm16  1  0.497707  0.345000  0.131070  1
  Tm  Tm17  1  0.646452  0.497102  0.375670  1
  Tm  Tm18  1  0.005234  0.147840  0.623058  1
  Tm  Tm19  1  0.992484  0.847924  0.121914  1
  Si  Si20  1  0.645306  0.705677  0.814796  1
  Si  Si21  1  0.206902  0.857848  0.563492  1
  Si  Si22  1  0.143593  0.793702  0.931453  1
  Si  Si23  1  0.792113  0.144488  0.066352  1
  Si  Si24  1  0.856376  0.206482  0.432637  1
  Si  Si25  1  0.293459  0.355849  0.684265  1
  Si  Si26  1  0.703889  0.639488  0.185948  1
  Si  Si27  1  0.291679  0.033865  0.178166  1
  Si  Si28  1  0.707085  0.946777  0.687664  1
  Si  Si29  1  0.445915  0.798060  0.438276  1
  Si  Si30  1  0.206819  0.548135  0.063411  1
  Si  Si31  1  0.555602  0.206962  0.938865  1
  Si  Si32  1  0.793166  0.448184  0.562865  1
  Si  Si33  1  0.054696  0.294011  0.812017  1
  Si  Si34  1  0.945872  0.707827  0.312504  1
  P  P35  1  0.356650  0.312378  0.326732  1
