# generated using pymatgen
data_Yb2Cu2NiPt
_symmetry_space_group_name_H-M   'P 1'
_cell_length_a   5.11202054
_cell_length_b   5.23664670
_cell_length_c   5.03561300
_cell_angle_alpha   61.26199547
_cell_angle_beta   60.49320497
_cell_angle_gamma   61.81385693
_symmetry_Int_Tables_number   1
_chemical_formula_structural   Yb2Cu2NiPt
_chemical_formula_sum   'Yb2 Cu2 Ni1 Pt1'
_cell_volume   97.84559023
_cell_formula_units_Z   1
loop_
 _symmetry_equiv_pos_site_id
 _symmetry_equiv_pos_as_xyz
  1  'x, y, z'
loop_
 _atom_site_type_symbol
 _atom_site_label
 _atom_site_symmetry_multiplicity
 _atom_site_fract_x
 _atom_site_fract_y
 _atom_site_fract_z
 _atom_site_occupancy
  Yb  Yb0  1  0.503718  0.496491  0.499895  1
  Yb  Yb1  1  0.746282  0.753509  0.750105  1
  Cu  Cu2  1  0.125000  0.125000  0.125000  1
  Cu  Cu3  1  0.125000  0.125000  0.625000  1
  Ni  Ni4  1  0.625000  0.125000  0.125000  1
  Pt  Pt5  1  0.125000  0.625000  0.125000  1
