# generated using pymatgen
data_EuBeF4
_symmetry_space_group_name_H-M   'P 1'
_cell_length_a   8.26889200
_cell_length_b   5.47847833
_cell_length_c   8.68290600
_cell_angle_alpha   52.55944624
_cell_angle_beta   90.00000000
_cell_angle_gamma   90.00000000
_symmetry_Int_Tables_number   1
_chemical_formula_structural   EuBeF4
_chemical_formula_sum   'Eu4 Be4 F16'
_cell_volume   312.30893097
_cell_formula_units_Z   4
loop_
 _symmetry_equiv_pos_site_id
 _symmetry_equiv_pos_as_xyz
  1  'x, y, z'
loop_
 _atom_site_type_symbol
 _atom_site_label
 _atom_site_symmetry_multiplicity
 _atom_site_fract_x
 _atom_site_fract_y
 _atom_site_fract_z
 _atom_site_occupancy
  Eu  Eu0  1  0.306232  0.020357  0.672226  1
  Eu  Eu1  1  0.806232  0.979643  0.827774  1
  Eu  Eu2  1  0.693768  0.979643  0.327774  1
  Eu  Eu3  1  0.193768  0.020357  0.172226  1
  Be  Be4  1  0.956676  0.426362  0.318218  1
  Be  Be5  1  0.456676  0.573638  0.181782  1
  Be  Be6  1  0.043324  0.573638  0.681782  1
  Be  Be7  1  0.543324  0.426362  0.818218  1
  F  F8  1  0.084640  0.219594  0.821194  1
  F  F9  1  0.584640  0.780406  0.678806  1
  F  F10  1  0.915360  0.780406  0.178806  1
  F  F11  1  0.415360  0.219594  0.321194  1
  F  F12  1  0.376192  0.406656  0.906333  1
  F  F13  1  0.876192  0.593344  0.593667  1
  F  F14  1  0.623808  0.593344  0.093667  1
  F  F15  1  0.123808  0.406656  0.406333  1
  F  F16  1  0.180289  0.761261  0.530104  1
  F  F17  1  0.680289  0.238739  0.969896  1
  F  F18  1  0.819711  0.238739  0.469896  1
  F  F19  1  0.319711  0.761261  0.030104  1
  F  F20  1  0.036520  0.709552  0.797478  1
  F  F21  1  0.536520  0.290448  0.702522  1
  F  F22  1  0.963480  0.290448  0.202522  1
  F  F23  1  0.463480  0.709552  0.297478  1
