# generated using pymatgen
data_Na2Li3Ni9As7
_symmetry_space_group_name_H-M   'P 1'
_cell_length_a   9.45514000
_cell_length_b   9.45513962
_cell_length_c   3.86629600
_cell_angle_alpha   90.00000000
_cell_angle_beta   90.00000000
_cell_angle_gamma   120.00000132
_symmetry_Int_Tables_number   1
_chemical_formula_structural   Na2Li3Ni9As7
_chemical_formula_sum   'Na2 Li3 Ni9 As7'
_cell_volume   299.33785078
_cell_formula_units_Z   1
loop_
 _symmetry_equiv_pos_site_id
 _symmetry_equiv_pos_as_xyz
  1  'x, y, z'
loop_
 _atom_site_type_symbol
 _atom_site_label
 _atom_site_symmetry_multiplicity
 _atom_site_fract_x
 _atom_site_fract_y
 _atom_site_fract_z
 _atom_site_occupancy
  Na  Na0  1  0.333333  0.666667  0.000000  1
  Na  Na1  1  0.666667  0.333333  0.500000  1
  Li  Li2  1  0.212475  0.106324  0.500000  1
  Li  Li3  1  0.893676  0.106151  0.500000  1
  Li  Li4  1  0.893849  0.787525  0.500000  1
  Ni  Ni5  1  0.121064  0.287866  0.000000  1
  Ni  Ni6  1  0.712134  0.833198  0.000000  1
  Ni  Ni7  1  0.166802  0.878936  0.000000  1
  Ni  Ni8  1  0.426401  0.378331  0.000000  1
  Ni  Ni9  1  0.621669  0.048072  0.000000  1
  Ni  Ni10  1  0.951928  0.573599  0.000000  1
  Ni  Ni11  1  0.044950  0.433702  0.500000  1
  Ni  Ni12  1  0.566298  0.611248  0.500000  1
  Ni  Ni13  1  0.388752  0.955050  0.500000  1
  As  As14  1  0.288067  0.408019  0.500000  1
  As  As15  1  0.591981  0.880047  0.500000  1
  As  As16  1  0.119953  0.711933  0.500000  1
  As  As17  1  0.418054  0.119576  0.000000  1
  As  As18  1  0.880424  0.298478  0.000000  1
  As  As19  1  0.701522  0.581946  0.000000  1
  As  As20  1  0.000000  0.000000  0.000000  1
