# generated using pymatgen
data_YbU3(Si5Ru3)2
_symmetry_space_group_name_H-M   'P 1'
_cell_length_a   8.13929164
_cell_length_b   8.12703000
_cell_length_c   5.70171723
_cell_angle_alpha   70.28490433
_cell_angle_beta   70.38340812
_cell_angle_gamma   93.54158279
_symmetry_Int_Tables_number   1
_chemical_formula_structural   YbU3(Si5Ru3)2
_chemical_formula_sum   'Yb1 U3 Si10 Ru6'
_cell_volume   327.86367275
_cell_formula_units_Z   1
loop_
 _symmetry_equiv_pos_site_id
 _symmetry_equiv_pos_as_xyz
  1  'x, y, z'
loop_
 _atom_site_type_symbol
 _atom_site_label
 _atom_site_symmetry_multiplicity
 _atom_site_fract_x
 _atom_site_fract_y
 _atom_site_fract_z
 _atom_site_occupancy
  Yb  Yb0  1  0.865404  0.599293  0.762671  1
  U  U1  1  0.409379  0.126577  0.737823  1
  U  U2  1  0.129822  0.409160  0.236767  1
  U  U3  1  0.596220  0.866007  0.267498  1
  Si  Si4  1  0.070583  0.261563  0.834337  1
  Si  Si5  1  0.738461  0.936692  0.666309  1
  Si  Si6  1  0.933683  0.737420  0.164630  1
  Si  Si7  1  0.262524  0.065491  0.334025  1
  Si  Si8  1  0.202018  0.793336  0.748057  1
  Si  Si9  1  0.793489  0.204257  0.258140  1
  Si  Si10  1  0.511241  0.487358  0.748602  1
  Si  Si11  1  0.488536  0.510384  0.248704  1
  Si  Si12  1  0.777296  0.217895  0.747655  1
  Si  Si13  1  0.218491  0.779975  0.250957  1
  Ru  Ru14  1  0.256726  0.543285  0.629842  1
  Ru  Ru15  1  0.453690  0.746790  0.864448  1
  Ru  Ru16  1  0.741538  0.454803  0.373907  1
  Ru  Ru17  1  0.544889  0.251873  0.134833  1
  Ru  Ru18  1  0.003332  0.003924  0.746872  1
  Ru  Ru19  1  0.002677  0.003918  0.243922  1
