# generated using pymatgen
data_RbVTeO6
_symmetry_space_group_name_H-M   'P 1'
_cell_length_a   7.16068419
_cell_length_b   7.16068400
_cell_length_c   7.16068404
_cell_angle_alpha   120.79357330
_cell_angle_beta   119.30099118
_cell_angle_gamma   89.92299686
_symmetry_Int_Tables_number   1
_chemical_formula_structural   RbVTeO6
_chemical_formula_sum   'Rb2 V2 Te2 O12'
_cell_volume   259.38528814
_cell_formula_units_Z   2
loop_
 _symmetry_equiv_pos_site_id
 _symmetry_equiv_pos_as_xyz
  1  'x, y, z'
loop_
 _atom_site_type_symbol
 _atom_site_label
 _atom_site_symmetry_multiplicity
 _atom_site_fract_x
 _atom_site_fract_y
 _atom_site_fract_z
 _atom_site_occupancy
  Rb  Rb0  1  0.869220  0.619220  0.250000  1
  Rb  Rb1  1  0.130780  0.380780  0.750000  1
  V  V2  1  0.500000  0.000000  0.000000  1
  V  V3  1  0.500000  0.500000  0.500000  1
  Te  Te4  1  0.500000  0.000000  0.500000  1
  Te  Te5  1  0.000000  0.000000  0.000000  1
  O  O6  1  0.830168  0.080168  0.750000  1
  O  O7  1  0.449392  0.699392  0.750000  1
  O  O8  1  0.816490  0.677538  0.740111  1
  O  O9  1  0.437426  0.076380  0.759889  1
  O  O10  1  0.816490  0.076380  0.138954  1
  O  O11  1  0.437426  0.677538  0.361046  1
  O  O12  1  0.169832  0.919832  0.250000  1
  O  O13  1  0.550608  0.300608  0.250000  1
  O  O14  1  0.183510  0.322462  0.259889  1
  O  O15  1  0.562574  0.923620  0.240111  1
  O  O16  1  0.183510  0.923620  0.861046  1
  O  O17  1  0.562574  0.322462  0.638954  1
