# generated using pymatgen
data_Tm3Lu5Re2(B12Rh)2
_symmetry_space_group_name_H-M   'P 1'
_cell_length_a   3.62317700
_cell_length_b   9.04887961
_cell_length_c   11.43393902
_cell_angle_alpha   90.38019082
_cell_angle_beta   90.00000000
_cell_angle_gamma   90.00000000
_symmetry_Int_Tables_number   1
_chemical_formula_structural   Tm3Lu5Re2(B12Rh)2
_chemical_formula_sum   'Tm3 Lu5 Re2 B24 Rh2'
_cell_volume   374.86135538
_cell_formula_units_Z   1
loop_
 _symmetry_equiv_pos_site_id
 _symmetry_equiv_pos_as_xyz
  1  'x, y, z'
loop_
 _atom_site_type_symbol
 _atom_site_label
 _atom_site_symmetry_multiplicity
 _atom_site_fract_x
 _atom_site_fract_y
 _atom_site_fract_z
 _atom_site_occupancy
  Tm  Tm0  1  0.000000  0.317305  0.410943  1
  Tm  Tm1  1  0.000000  0.682701  0.589086  1
  Tm  Tm2  1  0.000000  0.825505  0.082633  1
  Lu  Lu3  1  0.000000  0.174351  0.917599  1
  Lu  Lu4  1  0.000000  0.945613  0.372013  1
  Lu  Lu5  1  0.000000  0.054521  0.628012  1
  Lu  Lu6  1  0.000000  0.442347  0.126308  1
  Lu  Lu7  1  0.000000  0.557488  0.873534  1
  Re  Re8  1  0.000000  0.139052  0.179776  1
  Re  Re9  1  0.000000  0.861316  0.820103  1
  B  B10  1  0.500000  0.554478  0.434710  1
  B  B11  1  0.500000  0.445473  0.565348  1
  B  B12  1  0.500000  0.053033  0.066739  1
  B  B13  1  0.500000  0.947415  0.933011  1
  B  B14  1  0.500000  0.750160  0.421582  1
  B  B15  1  0.500000  0.249899  0.578489  1
  B  B16  1  0.500000  0.249778  0.080508  1
  B  B17  1  0.500000  0.750241  0.919079  1
  B  B18  1  0.500000  0.792119  0.264706  1
  B  B19  1  0.500000  0.207755  0.735554  1
  B  B20  1  0.500000  0.293895  0.235195  1
  B  B21  1  0.500000  0.706135  0.764696  1
  B  B22  1  0.500000  0.631821  0.182642  1
  B  B23  1  0.500000  0.367782  0.817530  1
  B  B24  1  0.500000  0.131378  0.315669  1
  B  B25  1  0.500000  0.868763  0.684337  1
  B  B26  1  0.500000  0.981861  0.213294  1
  B  B27  1  0.500000  0.018582  0.786781  1
  B  B28  1  0.500000  0.482630  0.287511  1
  B  B29  1  0.500000  0.517247  0.712485  1
  B  B30  1  0.500000  0.603797  0.028791  1
  B  B31  1  0.500000  0.395699  0.971041  1
  B  B32  1  0.500000  0.105018  0.471761  1
  B  B33  1  0.500000  0.895035  0.528257  1
  Rh  Rh34  1  0.000000  0.638271  0.320763  1
  Rh  Rh35  1  0.000000  0.361535  0.679515  1
