# generated using pymatgen
data_Nd5YNiCl10
_symmetry_space_group_name_H-M   'P 1'
_cell_length_a   7.27689209
_cell_length_b   9.17543057
_cell_length_c   9.19706618
_cell_angle_alpha   109.80397891
_cell_angle_beta   95.53093981
_cell_angle_gamma   106.37890920
_symmetry_Int_Tables_number   1
_chemical_formula_structural   Nd5YNiCl10
_chemical_formula_sum   'Nd5 Y1 Ni1 Cl10'
_cell_volume   541.63698247
_cell_formula_units_Z   1
loop_
 _symmetry_equiv_pos_site_id
 _symmetry_equiv_pos_as_xyz
  1  'x, y, z'
loop_
 _atom_site_type_symbol
 _atom_site_label
 _atom_site_symmetry_multiplicity
 _atom_site_fract_x
 _atom_site_fract_y
 _atom_site_fract_z
 _atom_site_occupancy
  Nd  Nd0  1  0.859972  0.946593  0.245984  1
  Nd  Nd1  1  0.145895  0.057112  0.754915  1
  Nd  Nd2  1  0.032324  0.693367  0.895236  1
  Nd  Nd3  1  0.971965  0.307883  0.107734  1
  Nd  Nd4  1  0.635297  0.858245  0.808802  1
  Y  Y5  1  0.357970  0.135643  0.183833  1
  Ni  Ni6  1  0.999624  0.000634  0.998413  1
  Cl  Cl7  1  0.647807  0.544828  0.731975  1
  Cl  Cl8  1  0.357860  0.442915  0.273437  1
  Cl  Cl9  1  0.767136  0.928780  0.554462  1
  Cl  Cl10  1  0.243122  0.079669  0.440477  1
  Cl  Cl11  1  0.915640  0.636306  0.164213  1
  Cl  Cl12  1  0.090402  0.367663  0.841161  1
  Cl  Cl13  1  0.550640  0.172982  0.932550  1
  Cl  Cl14  1  0.447202  0.833371  0.076851  1
  Cl  Cl15  1  0.213644  0.749372  0.649746  1
  Cl  Cl16  1  0.763500  0.244635  0.340215  1
