# generated using pymatgen
data_Sm4Y12Cd4TcNi3
_symmetry_space_group_name_H-M   'P 1'
_cell_length_a   9.70123097
_cell_length_b   9.70123171
_cell_length_c   9.70123051
_cell_angle_alpha   59.32458241
_cell_angle_beta   59.32457606
_cell_angle_gamma   59.32457500
_symmetry_Int_Tables_number   1
_chemical_formula_structural   Sm4Y12Cd4TcNi3
_chemical_formula_sum   'Sm4 Y12 Cd4 Tc1 Ni3'
_cell_volume   635.67547165
_cell_formula_units_Z   1
loop_
 _symmetry_equiv_pos_site_id
 _symmetry_equiv_pos_as_xyz
  1  'x, y, z'
loop_
 _atom_site_type_symbol
 _atom_site_label
 _atom_site_symmetry_multiplicity
 _atom_site_fract_x
 _atom_site_fract_y
 _atom_site_fract_z
 _atom_site_occupancy
  Sm  Sm0  1  0.598204  0.598204  0.598204  1
  Sm  Sm1  1  0.601677  0.601677  0.202221  1
  Sm  Sm2  1  0.601677  0.202221  0.601677  1
  Sm  Sm3  1  0.202221  0.601677  0.601677  1
  Y  Y4  1  0.062174  0.437318  0.437318  1
  Y  Y5  1  0.437237  0.061029  0.061029  1
  Y  Y6  1  0.437318  0.062174  0.437318  1
  Y  Y7  1  0.061029  0.437237  0.061029  1
  Y  Y8  1  0.437318  0.437318  0.062174  1
  Y  Y9  1  0.061029  0.061029  0.437237  1
  Y  Y10  1  0.186225  0.815315  0.815315  1
  Y  Y11  1  0.805915  0.188783  0.188783  1
  Y  Y12  1  0.815315  0.186225  0.815315  1
  Y  Y13  1  0.188783  0.805915  0.188783  1
  Y  Y14  1  0.815315  0.815315  0.186225  1
  Y  Y15  1  0.188783  0.188783  0.805915  1
  Cd  Cd16  1  0.829839  0.829839  0.829839  1
  Cd  Cd17  1  0.829706  0.829706  0.505363  1
  Cd  Cd18  1  0.829706  0.505363  0.829706  1
  Cd  Cd19  1  0.505363  0.829706  0.829706  1
  Tc  Tc20  1  0.394048  0.394048  0.394048  1
  Ni  Ni21  1  0.392169  0.392169  0.826776  1
  Ni  Ni22  1  0.392169  0.826776  0.392169  1
  Ni  Ni23  1  0.826776  0.392169  0.392169  1
