# generated using pymatgen
data_Tb8Y2Si6C
_symmetry_space_group_name_H-M   'P 1'
_cell_length_a   8.51066506
_cell_length_b   8.50927045
_cell_length_c   6.41796306
_cell_angle_alpha   89.98483764
_cell_angle_beta   90.00757704
_cell_angle_gamma   119.99457153
_symmetry_Int_Tables_number   1
_chemical_formula_structural   Tb8Y2Si6C
_chemical_formula_sum   'Tb8 Y2 Si6 C1'
_cell_volume   402.53848616
_cell_formula_units_Z   1
loop_
 _symmetry_equiv_pos_site_id
 _symmetry_equiv_pos_as_xyz
  1  'x, y, z'
loop_
 _atom_site_type_symbol
 _atom_site_label
 _atom_site_symmetry_multiplicity
 _atom_site_fract_x
 _atom_site_fract_y
 _atom_site_fract_z
 _atom_site_occupancy
  Tb  Tb0  1  0.333374  0.666746  0.500081  1
  Tb  Tb1  1  0.666626  0.333371  0.500081  1
  Tb  Tb2  1  0.666635  0.333385  0.999950  1
  Tb  Tb3  1  0.333365  0.666751  0.999950  1
  Tb  Tb4  1  0.000000  0.764287  0.270934  1
  Tb  Tb5  1  0.235692  0.235648  0.271091  1
  Tb  Tb6  1  0.764308  0.999955  0.271091  1
  Tb  Tb7  1  0.000000  0.235635  0.729068  1
  Y  Y8  1  0.764320  0.764255  0.728755  1
  Y  Y9  1  0.235680  0.999935  0.728755  1
  Si  Si10  1  0.000000  0.398771  0.253572  1
  Si  Si11  1  0.601150  0.601111  0.253552  1
  Si  Si12  1  0.398850  0.999961  0.253552  1
  Si  Si13  1  0.000000  0.601651  0.746423  1
  Si  Si14  1  0.398829  0.398644  0.746419  1
  Si  Si15  1  0.601171  0.999816  0.746419  1
  C  C16  1  0.000000  0.000077  0.500305  1
