# generated using pymatgen
data_Ce5Ho11MgCd3Co4
_symmetry_space_group_name_H-M   'P 1'
_cell_length_a   9.38834697
_cell_length_b   9.49542520
_cell_length_c   9.49542450
_cell_angle_alpha   59.77302419
_cell_angle_beta   60.30576321
_cell_angle_gamma   60.30576310
_symmetry_Int_Tables_number   1
_chemical_formula_structural   Ce5Ho11MgCd3Co4
_chemical_formula_sum   'Ce5 Ho11 Mg1 Cd3 Co4'
_cell_volume   600.25723347
_cell_formula_units_Z   1
loop_
 _symmetry_equiv_pos_site_id
 _symmetry_equiv_pos_as_xyz
  1  'x, y, z'
loop_
 _atom_site_type_symbol
 _atom_site_label
 _atom_site_symmetry_multiplicity
 _atom_site_fract_x
 _atom_site_fract_y
 _atom_site_fract_z
 _atom_site_occupancy
  Ce  Ce0  1  0.338465  0.347485  0.347485  1
  Ce  Ce1  1  0.344725  0.341336  0.970063  1
  Ce  Ce2  1  0.344725  0.970063  0.341336  1
  Ce  Ce3  1  0.962578  0.348695  0.348695  1
  Ce  Ce4  1  0.815407  0.185175  0.185175  1
  Ho  Ho5  1  0.185606  0.812832  0.812832  1
  Ho  Ho6  1  0.190945  0.809548  0.185587  1
  Ho  Ho7  1  0.813283  0.185824  0.809436  1
  Ho  Ho8  1  0.190945  0.185587  0.809548  1
  Ho  Ho9  1  0.813283  0.809436  0.185824  1
  Ho  Ho10  1  0.934574  0.565761  0.565761  1
  Ho  Ho11  1  0.566419  0.932877  0.932877  1
  Ho  Ho12  1  0.562855  0.937745  0.561372  1
  Ho  Ho13  1  0.938648  0.560442  0.936979  1
  Ho  Ho14  1  0.562855  0.561372  0.937745  1
  Ho  Ho15  1  0.938648  0.936979  0.560442  1
  Mg  Mg16  1  0.268596  0.576866  0.576866  1
  Cd  Cd17  1  0.580523  0.581226  0.581226  1
  Cd  Cd18  1  0.579577  0.583805  0.256015  1
  Cd  Cd19  1  0.579577  0.256015  0.583805  1
  Co  Co20  1  0.115382  0.153849  0.153849  1
  Co  Co21  1  0.148233  0.142687  0.560453  1
  Co  Co22  1  0.148233  0.560453  0.142687  1
  Co  Co23  1  0.575915  0.153941  0.153941  1
