# generated using pymatgen
data_CeTa6CdS12
_symmetry_space_group_name_H-M   'P 1'
_cell_length_a   5.77311900
_cell_length_b   5.77311863
_cell_length_c   14.19619500
_cell_angle_alpha   90.00000000
_cell_angle_beta   90.00000000
_cell_angle_gamma   120.00000784
_symmetry_Int_Tables_number   1
_chemical_formula_structural   CeTa6CdS12
_chemical_formula_sum   'Ce1 Ta6 Cd1 S12'
_cell_volume   409.75432396
_cell_formula_units_Z   1
loop_
 _symmetry_equiv_pos_site_id
 _symmetry_equiv_pos_as_xyz
  1  'x, y, z'
loop_
 _atom_site_type_symbol
 _atom_site_label
 _atom_site_symmetry_multiplicity
 _atom_site_fract_x
 _atom_site_fract_y
 _atom_site_fract_z
 _atom_site_occupancy
  Ce  Ce0  1  0.000000  0.000000  0.500000  1
  Ta  Ta1  1  0.333333  0.666667  0.246677  1
  Ta  Ta2  1  0.666667  0.333333  0.753323  1
  Ta  Ta3  1  0.666667  0.333333  0.246677  1
  Ta  Ta4  1  0.333333  0.666667  0.753323  1
  Ta  Ta5  1  0.000000  0.000000  0.250150  1
  Ta  Ta6  1  0.000000  0.000000  0.749850  1
  Cd  Cd7  1  0.000000  0.000000  0.000000  1
  S  S8  1  0.333686  0.000000  0.136763  1
  S  S9  1  0.000000  0.333686  0.136763  1
  S  S10  1  0.666314  0.666314  0.136763  1
  S  S11  1  0.339794  0.339794  0.640901  1
  S  S12  1  0.660206  0.660206  0.359099  1
  S  S13  1  0.660206  0.000000  0.640901  1
  S  S14  1  0.000000  0.660206  0.640901  1
  S  S15  1  0.000000  0.666314  0.863237  1
  S  S16  1  0.333686  0.333686  0.863237  1
  S  S17  1  0.000000  0.339794  0.359099  1
  S  S18  1  0.339794  0.000000  0.359099  1
  S  S19  1  0.666314  0.000000  0.863237  1
