# generated using pymatgen
data_Tm6Mn14Co3TcP12
_symmetry_space_group_name_H-M   'P 1'
_cell_length_a   3.65985100
_cell_length_b   10.76538800
_cell_length_c   12.45625000
_cell_angle_alpha   90.00000000
_cell_angle_beta   90.00000000
_cell_angle_gamma   90.00000000
_symmetry_Int_Tables_number   1
_chemical_formula_structural   Tm6Mn14Co3TcP12
_chemical_formula_sum   'Tm6 Mn14 Co3 Tc1 P12'
_cell_volume   490.77271289
_cell_formula_units_Z   1
loop_
 _symmetry_equiv_pos_site_id
 _symmetry_equiv_pos_as_xyz
  1  'x, y, z'
loop_
 _atom_site_type_symbol
 _atom_site_label
 _atom_site_symmetry_multiplicity
 _atom_site_fract_x
 _atom_site_fract_y
 _atom_site_fract_z
 _atom_site_occupancy
  Tm  Tm0  1  0.000000  0.500000  0.533087  1
  Tm  Tm1  1  0.500000  0.000000  0.466773  1
  Tm  Tm2  1  0.500000  0.821294  0.206227  1
  Tm  Tm3  1  0.500000  0.178706  0.206227  1
  Tm  Tm4  1  0.000000  0.675388  0.795965  1
  Tm  Tm5  1  0.000000  0.324612  0.795965  1
  Mn  Mn6  1  0.000000  0.000000  0.833644  1
  Mn  Mn7  1  0.500000  0.000000  0.008035  1
  Mn  Mn8  1  0.500000  0.328051  0.995775  1
  Mn  Mn9  1  0.500000  0.671949  0.995775  1
  Mn  Mn10  1  0.000000  0.167129  0.002935  1
  Mn  Mn11  1  0.000000  0.832871  0.002935  1
  Mn  Mn12  1  0.500000  0.297316  0.433366  1
  Mn  Mn13  1  0.500000  0.702684  0.433366  1
  Mn  Mn14  1  0.000000  0.203147  0.568339  1
  Mn  Mn15  1  0.000000  0.796853  0.568339  1
  Mn  Mn16  1  0.500000  0.881655  0.700909  1
  Mn  Mn17  1  0.500000  0.118345  0.700909  1
  Mn  Mn18  1  0.000000  0.620453  0.299400  1
  Mn  Mn19  1  0.000000  0.379547  0.299400  1
  Co  Co20  1  0.500000  0.500000  0.707959  1
  Co  Co21  1  0.000000  0.000000  0.295501  1
  Co  Co22  1  0.000000  0.500000  0.991660  1
  Tc  Tc23  1  0.500000  0.500000  0.160474  1
  P  P24  1  0.500000  0.500000  0.885169  1
  P  P25  1  0.000000  0.000000  0.120337  1
  P  P26  1  0.500000  0.500000  0.357675  1
  P  P27  1  0.000000  0.000000  0.639364  1
  P  P28  1  0.500000  0.319079  0.620772  1
  P  P29  1  0.500000  0.680921  0.620772  1
  P  P30  1  0.000000  0.181315  0.381655  1
  P  P31  1  0.000000  0.818685  0.381655  1
  P  P32  1  0.500000  0.845853  0.882843  1
  P  P33  1  0.500000  0.154147  0.882843  1
  P  P34  1  0.000000  0.654455  0.111972  1
  P  P35  1  0.000000  0.345545  0.111972  1
