# generated using pymatgen
data_Sc12Mn(Si4Ir)3
_symmetry_space_group_name_H-M   'P 1'
_cell_length_a   4.02703000
_cell_length_b   10.23690737
_cell_length_c   11.67973957
_cell_angle_alpha   89.94065516
_cell_angle_beta   90.00000000
_cell_angle_gamma   90.00000000
_symmetry_Int_Tables_number   1
_chemical_formula_structural   Sc12Mn(Si4Ir)3
_chemical_formula_sum   'Sc12 Mn1 Si12 Ir3'
_cell_volume   481.48921610
_cell_formula_units_Z   1
loop_
 _symmetry_equiv_pos_site_id
 _symmetry_equiv_pos_as_xyz
  1  'x, y, z'
loop_
 _atom_site_type_symbol
 _atom_site_label
 _atom_site_symmetry_multiplicity
 _atom_site_fract_x
 _atom_site_fract_y
 _atom_site_fract_z
 _atom_site_occupancy
  Sc  Sc0  1  0.250000  0.876872  0.019543  1
  Sc  Sc1  1  0.250000  0.621203  0.521560  1
  Sc  Sc2  1  0.750000  0.122457  0.980553  1
  Sc  Sc3  1  0.750000  0.376734  0.480282  1
  Sc  Sc4  1  0.250000  0.920494  0.602198  1
  Sc  Sc5  1  0.250000  0.580123  0.102766  1
  Sc  Sc6  1  0.750000  0.079131  0.397116  1
  Sc  Sc7  1  0.750000  0.420426  0.898131  1
  Sc  Sc8  1  0.250000  0.657594  0.798584  1
  Sc  Sc9  1  0.250000  0.841632  0.299369  1
  Sc  Sc10  1  0.750000  0.342168  0.200690  1
  Sc  Sc11  1  0.750000  0.160018  0.700247  1
  Mn  Mn12  1  0.250000  0.387786  0.675971  1
  Si  Si13  1  0.250000  0.014686  0.821472  1
  Si  Si14  1  0.250000  0.485723  0.322099  1
  Si  Si15  1  0.750000  0.985676  0.178555  1
  Si  Si16  1  0.750000  0.513894  0.678866  1
  Si  Si17  1  0.250000  0.251713  0.840851  1
  Si  Si18  1  0.250000  0.250154  0.342499  1
  Si  Si19  1  0.750000  0.750725  0.157758  1
  Si  Si20  1  0.750000  0.750478  0.657654  1
  Si  Si21  1  0.250000  0.193349  0.545307  1
  Si  Si22  1  0.250000  0.306205  0.044907  1
  Si  Si23  1  0.750000  0.806414  0.454695  1
  Si  Si24  1  0.750000  0.693406  0.954954  1
  Ir  Ir25  1  0.250000  0.110637  0.176419  1
  Ir  Ir26  1  0.750000  0.611110  0.323364  1
  Ir  Ir27  1  0.750000  0.889193  0.823589  1
