# generated using pymatgen
data_Tb4Fe4P12Ru13Rh3
_symmetry_space_group_name_H-M   'P 1'
_cell_length_a   3.87100000
_cell_length_b   10.61798249
_cell_length_c   12.33906961
_cell_angle_alpha   90.03533794
_cell_angle_beta   90.00000000
_cell_angle_gamma   90.00000000
_symmetry_Int_Tables_number   1
_chemical_formula_structural   Tb4Fe4P12Ru13Rh3
_chemical_formula_sum   'Tb4 Fe4 P12 Ru13 Rh3'
_cell_volume   507.16293632
_cell_formula_units_Z   1
loop_
 _symmetry_equiv_pos_site_id
 _symmetry_equiv_pos_as_xyz
  1  'x, y, z'
loop_
 _atom_site_type_symbol
 _atom_site_label
 _atom_site_symmetry_multiplicity
 _atom_site_fract_x
 _atom_site_fract_y
 _atom_site_fract_z
 _atom_site_occupancy
  Tb  Tb0  1  0.250000  0.584459  0.708155  1
  Tb  Tb1  1  0.250000  0.915204  0.208102  1
  Tb  Tb2  1  0.750000  0.415755  0.292465  1
  Tb  Tb3  1  0.750000  0.083902  0.791255  1
  Fe  Fe4  1  0.250000  0.462727  0.936031  1
  Fe  Fe5  1  0.250000  0.038419  0.435529  1
  Fe  Fe6  1  0.750000  0.536270  0.064593  1
  Fe  Fe7  1  0.750000  0.964188  0.562390  1
  P  P8  1  0.250000  0.423769  0.106576  1
  P  P9  1  0.250000  0.073082  0.607873  1
  P  P10  1  0.750000  0.575381  0.894069  1
  P  P11  1  0.750000  0.924537  0.392497  1
  P  P12  1  0.250000  0.269622  0.869634  1
  P  P13  1  0.250000  0.230663  0.370085  1
  P  P14  1  0.750000  0.729396  0.129729  1
  P  P15  1  0.750000  0.773067  0.632809  1
  P  P16  1  0.250000  0.603908  0.395085  1
  P  P17  1  0.250000  0.896108  0.892860  1
  P  P18  1  0.750000  0.397210  0.605187  1
  P  P19  1  0.750000  0.103094  0.104938  1
  Ru  Ru20  1  0.250000  0.705004  0.988678  1
  Ru  Ru21  1  0.250000  0.797130  0.485312  1
  Ru  Ru22  1  0.750000  0.294482  0.012537  1
  Ru  Ru23  1  0.750000  0.205450  0.512334  1
  Ru  Ru24  1  0.250000  0.405739  0.485866  1
  Ru  Ru25  1  0.250000  0.094570  0.985504  1
  Ru  Ru26  1  0.750000  0.597204  0.515481  1
  Ru  Ru27  1  0.750000  0.904673  0.015082  1
  Ru  Ru28  1  0.250000  0.227551  0.176401  1
  Ru  Ru29  1  0.250000  0.271574  0.676133  1
  Ru  Ru30  1  0.750000  0.772341  0.825590  1
  Ru  Ru31  1  0.750000  0.727747  0.323167  1
  Ru  Ru32  1  0.250000  0.883677  0.699978  1
  Rh  Rh33  1  0.250000  0.611664  0.201801  1
  Rh  Rh34  1  0.750000  0.112662  0.297930  1
  Rh  Rh35  1  0.750000  0.387771  0.798346  1
