# generated using pymatgen
data_Tb3Al9Re3Os4
_symmetry_space_group_name_H-M   'P 1'
_cell_length_a   8.87584200
_cell_length_b   8.87584317
_cell_length_c   9.57542700
_cell_angle_alpha   90.00000000
_cell_angle_beta   90.00000000
_cell_angle_gamma   119.99999565
_symmetry_Int_Tables_number   1
_chemical_formula_structural   Tb3Al9Re3Os4
_chemical_formula_sum   'Tb6 Al18 Re6 Os8'
_cell_volume   653.29296718
_cell_formula_units_Z   2
loop_
 _symmetry_equiv_pos_site_id
 _symmetry_equiv_pos_as_xyz
  1  'x, y, z'
loop_
 _atom_site_type_symbol
 _atom_site_label
 _atom_site_symmetry_multiplicity
 _atom_site_fract_x
 _atom_site_fract_y
 _atom_site_fract_z
 _atom_site_occupancy
  Tb  Tb0  1  0.196846  0.393693  0.250000  1
  Tb  Tb1  1  0.803154  0.606307  0.750000  1
  Tb  Tb2  1  0.606307  0.803154  0.250000  1
  Tb  Tb3  1  0.393693  0.196846  0.750000  1
  Tb  Tb4  1  0.196846  0.803154  0.250000  1
  Tb  Tb5  1  0.803154  0.196846  0.750000  1
  Al  Al6  1  0.333333  0.666667  0.009830  1
  Al  Al7  1  0.666667  0.333333  0.990170  1
  Al  Al8  1  0.666667  0.333333  0.509830  1
  Al  Al9  1  0.333333  0.666667  0.490170  1
  Al  Al10  1  0.165106  0.330211  0.576987  1
  Al  Al11  1  0.834894  0.669789  0.423013  1
  Al  Al12  1  0.669789  0.834894  0.576987  1
  Al  Al13  1  0.834894  0.669789  0.076987  1
  Al  Al14  1  0.330211  0.165106  0.423013  1
  Al  Al15  1  0.165106  0.330211  0.923013  1
  Al  Al16  1  0.165106  0.834894  0.576987  1
  Al  Al17  1  0.330211  0.165106  0.076987  1
  Al  Al18  1  0.834894  0.165106  0.423013  1
  Al  Al19  1  0.669789  0.834894  0.923013  1
  Al  Al20  1  0.834894  0.165106  0.076987  1
  Al  Al21  1  0.165106  0.834894  0.923013  1
  Al  Al22  1  0.000000  0.000000  0.250000  1
  Al  Al23  1  0.000000  0.000000  0.750000  1
  Re  Re24  1  0.571295  0.142591  0.250000  1
  Re  Re25  1  0.428705  0.857409  0.750000  1
  Re  Re26  1  0.857409  0.428705  0.250000  1
  Re  Re27  1  0.142591  0.571295  0.750000  1
  Re  Re28  1  0.571295  0.428705  0.250000  1
  Re  Re29  1  0.428705  0.571295  0.750000  1
  Os  Os30  1  0.500000  0.000000  0.000000  1
  Os  Os31  1  0.000000  0.500000  0.000000  1
  Os  Os32  1  0.500000  0.000000  0.500000  1
  Os  Os33  1  0.500000  0.500000  0.000000  1
  Os  Os34  1  0.000000  0.500000  0.500000  1
  Os  Os35  1  0.500000  0.500000  0.500000  1
  Os  Os36  1  0.000000  0.000000  0.000000  1
  Os  Os37  1  0.000000  0.000000  0.500000  1
