# generated using pymatgen
data_Tb16Ho4(Ir3Ru)3
_symmetry_space_group_name_H-M   'P 1'
_cell_length_a   10.86947200
_cell_length_b   10.86947200
_cell_length_c   6.44067400
_cell_angle_alpha   90.00000000
_cell_angle_beta   90.00000000
_cell_angle_gamma   90.00000000
_symmetry_Int_Tables_number   1
_chemical_formula_structural   Tb16Ho4(Ir3Ru)3
_chemical_formula_sum   'Tb16 Ho4 Ir9 Ru3'
_cell_volume   760.93614485
_cell_formula_units_Z   1
loop_
 _symmetry_equiv_pos_site_id
 _symmetry_equiv_pos_as_xyz
  1  'x, y, z'
loop_
 _atom_site_type_symbol
 _atom_site_label
 _atom_site_symmetry_multiplicity
 _atom_site_fract_x
 _atom_site_fract_y
 _atom_site_fract_z
 _atom_site_occupancy
  Tb  Tb0  1  0.293192  0.086633  0.378091  1
  Tb  Tb1  1  0.293232  0.913598  0.878381  1
  Tb  Tb2  1  0.706768  0.086402  0.878381  1
  Tb  Tb3  1  0.706808  0.913367  0.378091  1
  Tb  Tb4  1  0.586402  0.793232  0.878381  1
  Tb  Tb5  1  0.586633  0.206808  0.378091  1
  Tb  Tb6  1  0.413367  0.793192  0.378091  1
  Tb  Tb7  1  0.413598  0.206768  0.878381  1
  Tb  Tb8  1  0.208414  0.412806  0.623147  1
  Tb  Tb9  1  0.208270  0.587162  0.120512  1
  Tb  Tb10  1  0.791730  0.412838  0.120512  1
  Tb  Tb11  1  0.791586  0.587194  0.623147  1
  Tb  Tb12  1  0.912838  0.708270  0.120512  1
  Tb  Tb13  1  0.912806  0.291586  0.623147  1
  Tb  Tb14  1  0.087194  0.708414  0.623147  1
  Tb  Tb15  1  0.087162  0.291730  0.120512  1
  Ho  Ho16  1  0.000000  0.000000  0.499660  1
  Ho  Ho17  1  0.000000  0.000000  0.999712  1
  Ho  Ho18  1  0.500000  0.500000  0.999712  1
  Ho  Ho19  1  0.500000  0.500000  0.499660  1
  Ir  Ir20  1  0.848729  0.151911  0.250125  1
  Ir  Ir21  1  0.848509  0.848104  0.749787  1
  Ir  Ir22  1  0.151491  0.151896  0.749787  1
  Ir  Ir23  1  0.151271  0.848089  0.250125  1
  Ir  Ir24  1  0.651896  0.348509  0.749787  1
  Ir  Ir25  1  0.651911  0.651271  0.250125  1
  Ir  Ir26  1  0.348089  0.348729  0.250125  1
  Ir  Ir27  1  0.348104  0.651491  0.749787  1
  Ir  Ir28  1  0.000000  0.500000  0.378795  1
  Ru  Ru29  1  0.500000  0.000000  0.121603  1
  Ru  Ru30  1  0.500000  0.000000  0.621477  1
  Ru  Ru31  1  0.000000  0.500000  0.879206  1
