# generated using pymatgen
data_Gd9Cd(Ni2Au)2
_symmetry_space_group_name_H-M   'P 1'
_cell_length_a   8.74149007
_cell_length_b   8.74149155
_cell_length_c   8.74149200
_cell_angle_alpha   128.89334886
_cell_angle_beta   128.89334821
_cell_angle_gamma   75.18223903
_symmetry_Int_Tables_number   1
_chemical_formula_structural   Gd9Cd(Ni2Au)2
_chemical_formula_sum   'Gd9 Cd1 Ni4 Au2'
_cell_volume   393.92532579
_cell_formula_units_Z   1
loop_
 _symmetry_equiv_pos_site_id
 _symmetry_equiv_pos_as_xyz
  1  'x, y, z'
loop_
 _atom_site_type_symbol
 _atom_site_label
 _atom_site_symmetry_multiplicity
 _atom_site_fract_x
 _atom_site_fract_y
 _atom_site_fract_z
 _atom_site_occupancy
  Gd  Gd0  1  0.000000  0.000000  0.000000  1
  Gd  Gd1  1  0.790569  0.316563  0.841296  1
  Gd  Gd2  1  0.209431  0.683437  0.158705  1
  Gd  Gd3  1  0.472156  0.946874  0.156062  1
  Gd  Gd4  1  0.316191  0.474490  0.525245  1
  Gd  Gd5  1  0.051475  0.208055  0.524807  1
  Gd  Gd6  1  0.527844  0.053126  0.843938  1
  Gd  Gd7  1  0.683809  0.525510  0.474755  1
  Gd  Gd8  1  0.948525  0.791945  0.475193  1
  Cd  Cd9  1  0.500000  0.500000  0.000000  1
  Ni  Ni10  1  0.118663  0.627434  0.745855  1
  Ni  Ni11  1  0.881337  0.372566  0.254145  1
  Ni  Ni12  1  0.628038  0.882054  0.510189  1
  Ni  Ni13  1  0.371962  0.117946  0.489811  1
  Au  Au14  1  0.241272  0.238589  0.999668  1
  Au  Au15  1  0.758728  0.761411  0.000332  1
