# generated using pymatgen
data_Er8CdHg3Au8
_symmetry_space_group_name_H-M   'P 1'
_cell_length_a   7.90275600
_cell_length_b   7.90275600
_cell_length_c   7.38117300
_cell_angle_alpha   90.00000000
_cell_angle_beta   90.00000000
_cell_angle_gamma   90.00000000
_symmetry_Int_Tables_number   1
_chemical_formula_structural   Er8CdHg3Au8
_chemical_formula_sum   'Er8 Cd1 Hg3 Au8'
_cell_volume   460.98047470
_cell_formula_units_Z   1
loop_
 _symmetry_equiv_pos_site_id
 _symmetry_equiv_pos_as_xyz
  1  'x, y, z'
loop_
 _atom_site_type_symbol
 _atom_site_label
 _atom_site_symmetry_multiplicity
 _atom_site_fract_x
 _atom_site_fract_y
 _atom_site_fract_z
 _atom_site_occupancy
  Er  Er0  1  0.184396  0.184812  0.999803  1
  Er  Er1  1  0.315188  0.684396  0.500197  1
  Er  Er2  1  0.684812  0.315604  0.500197  1
  Er  Er3  1  0.815604  0.815188  0.999803  1
  Er  Er4  1  0.341693  0.658734  0.000020  1
  Er  Er5  1  0.658307  0.341266  0.000020  1
  Er  Er6  1  0.841266  0.841693  0.499980  1
  Er  Er7  1  0.158734  0.158307  0.499980  1
  Cd  Cd8  1  0.500000  0.000000  0.750000  1
  Hg  Hg9  1  0.000000  0.500000  0.750000  1
  Hg  Hg10  1  0.500000  0.000000  0.250000  1
  Hg  Hg11  1  0.000000  0.500000  0.250000  1
  Au  Au12  1  0.129420  0.872968  0.775948  1
  Au  Au13  1  0.872459  0.128119  0.224217  1
  Au  Au14  1  0.371881  0.372459  0.275783  1
  Au  Au15  1  0.627032  0.629420  0.724052  1
  Au  Au16  1  0.628119  0.627541  0.275783  1
  Au  Au17  1  0.870580  0.127032  0.775948  1
  Au  Au18  1  0.372968  0.370580  0.724052  1
  Au  Au19  1  0.127541  0.871881  0.224217  1
