# generated using pymatgen
data_NbAgSeO5
_symmetry_space_group_name_H-M   'P 1'
_cell_length_a   4.05215500
_cell_length_b   5.57526200
_cell_length_c   21.69701600
_cell_angle_alpha   90.00000000
_cell_angle_beta   90.00000000
_cell_angle_gamma   90.00000000
_symmetry_Int_Tables_number   1
_chemical_formula_structural   NbAgSeO5
_chemical_formula_sum   'Nb4 Ag4 Se4 O20'
_cell_volume   490.17520563
_cell_formula_units_Z   4
loop_
 _symmetry_equiv_pos_site_id
 _symmetry_equiv_pos_as_xyz
  1  'x, y, z'
loop_
 _atom_site_type_symbol
 _atom_site_label
 _atom_site_symmetry_multiplicity
 _atom_site_fract_x
 _atom_site_fract_y
 _atom_site_fract_z
 _atom_site_occupancy
  Nb  Nb0  1  0.541240  0.750000  0.688976  1
  Nb  Nb1  1  0.458760  0.250000  0.311024  1
  Nb  Nb2  1  0.458760  0.750000  0.188976  1
  Nb  Nb3  1  0.541240  0.250000  0.811024  1
  Ag  Ag4  1  0.634785  0.250000  0.479383  1
  Ag  Ag5  1  0.365215  0.250000  0.979383  1
  Ag  Ag6  1  0.365215  0.750000  0.520617  1
  Ag  Ag7  1  0.634785  0.750000  0.020617  1
  Se  Se8  1  0.202022  0.250000  0.612910  1
  Se  Se9  1  0.797978  0.250000  0.112910  1
  Se  Se10  1  0.202022  0.750000  0.887090  1
  Se  Se11  1  0.797978  0.750000  0.387090  1
  O  O12  1  0.516456  0.008980  0.115946  1
  O  O13  1  0.483544  0.991020  0.884054  1
  O  O14  1  0.869727  0.750000  0.464751  1
  O  O15  1  0.011303  0.250000  0.319902  1
  O  O16  1  0.130273  0.250000  0.535249  1
  O  O17  1  0.510926  0.500000  0.250000  1
  O  O18  1  0.489074  0.000000  0.750000  1
  O  O19  1  0.483544  0.491020  0.615946  1
  O  O20  1  0.483544  0.508980  0.884054  1
  O  O21  1  0.011303  0.750000  0.180098  1
  O  O22  1  0.516456  0.491020  0.115946  1
  O  O23  1  0.489074  0.500000  0.750000  1
  O  O24  1  0.516456  0.991020  0.384054  1
  O  O25  1  0.130273  0.750000  0.964751  1
  O  O26  1  0.510926  0.000000  0.250000  1
  O  O27  1  0.988697  0.750000  0.680098  1
  O  O28  1  0.516456  0.508980  0.384054  1
  O  O29  1  0.869727  0.250000  0.035249  1
  O  O30  1  0.483544  0.008980  0.615946  1
  O  O31  1  0.988697  0.250000  0.819902  1
