# generated using pymatgen
data_NaAsOF4
_symmetry_space_group_name_H-M   'P 1'
_cell_length_a   5.78391900
_cell_length_b   5.08960526
_cell_length_c   13.58766552
_cell_angle_alpha   71.23689292
_cell_angle_beta   90.00000000
_cell_angle_gamma   90.00000000
_symmetry_Int_Tables_number   1
_chemical_formula_structural   NaAsOF4
_chemical_formula_sum   'Na4 As4 O4 F16'
_cell_volume   378.73491843
_cell_formula_units_Z   4
loop_
 _symmetry_equiv_pos_site_id
 _symmetry_equiv_pos_as_xyz
  1  'x, y, z'
loop_
 _atom_site_type_symbol
 _atom_site_label
 _atom_site_symmetry_multiplicity
 _atom_site_fract_x
 _atom_site_fract_y
 _atom_site_fract_z
 _atom_site_occupancy
  Na  Na0  1  0.642616  0.625779  0.870609  1
  Na  Na1  1  0.142616  0.374221  0.629391  1
  Na  Na2  1  0.357384  0.374221  0.129391  1
  Na  Na3  1  0.857384  0.625779  0.370609  1
  As  As4  1  0.129865  0.069885  0.911371  1
  As  As5  1  0.629865  0.930115  0.588629  1
  As  As6  1  0.870135  0.930115  0.088629  1
  As  As7  1  0.370135  0.069885  0.411371  1
  O  O8  1  0.630380  0.868120  0.462829  1
  O  O9  1  0.130380  0.131880  0.037171  1
  O  O10  1  0.369620  0.131880  0.537171  1
  O  O11  1  0.869620  0.868120  0.962829  1
  F  F12  1  0.181489  0.768251  0.456467  1
  F  F13  1  0.681489  0.231749  0.043533  1
  F  F14  1  0.818511  0.231749  0.543533  1
  F  F15  1  0.318511  0.768251  0.956467  1
  F  F16  1  0.966797  0.380090  0.847132  1
  F  F17  1  0.466797  0.619910  0.652868  1
  F  F18  1  0.033203  0.619910  0.152868  1
  F  F19  1  0.533203  0.380090  0.347132  1
  F  F20  1  0.112228  0.998734  0.790977  1
  F  F21  1  0.612228  0.001266  0.709023  1
  F  F22  1  0.887772  0.001266  0.209023  1
  F  F23  1  0.387772  0.998734  0.290977  1
  F  F24  1  0.384444  0.270644  0.868746  1
  F  F25  1  0.884444  0.729356  0.631254  1
  F  F26  1  0.615556  0.729356  0.131254  1
  F  F27  1  0.115556  0.270644  0.368746  1
