# generated using pymatgen
data_Er3Lu2Ga2Sb
_symmetry_space_group_name_H-M   'P 1'
_cell_length_a   8.56441123
_cell_length_b   8.58647672
_cell_length_c   6.41941800
_cell_angle_alpha   90.00000000
_cell_angle_beta   90.00000000
_cell_angle_gamma   120.08527420
_symmetry_Int_Tables_number   1
_chemical_formula_structural   Er3Lu2Ga2Sb
_chemical_formula_sum   'Er6 Lu4 Ga4 Sb2'
_cell_volume   408.47452311
_cell_formula_units_Z   2
loop_
 _symmetry_equiv_pos_site_id
 _symmetry_equiv_pos_as_xyz
  1  'x, y, z'
loop_
 _atom_site_type_symbol
 _atom_site_label
 _atom_site_symmetry_multiplicity
 _atom_site_fract_x
 _atom_site_fract_y
 _atom_site_fract_z
 _atom_site_occupancy
  Er  Er0  1  0.986491  0.750356  0.750000  1
  Er  Er1  1  0.986491  0.236135  0.250000  1
  Er  Er2  1  0.765787  0.765996  0.250000  1
  Er  Er3  1  0.765787  0.999792  0.750000  1
  Er  Er4  1  0.236301  0.249510  0.750000  1
  Er  Er5  1  0.236301  0.986790  0.250000  1
  Lu  Lu6  1  0.331646  0.665824  0.500000  1
  Lu  Lu7  1  0.685026  0.342513  0.000000  1
  Lu  Lu8  1  0.685026  0.342513  0.500000  1
  Lu  Lu9  1  0.331646  0.665824  0.000000  1
  Ga  Ga10  1  0.001688  0.600792  0.250000  1
  Ga  Ga11  1  0.001688  0.400896  0.750000  1
  Ga  Ga12  1  0.597438  0.601152  0.750000  1
  Ga  Ga13  1  0.597438  0.996285  0.250000  1
  Sb  Sb14  1  0.395622  0.004400  0.750000  1
  Sb  Sb15  1  0.395622  0.391222  0.250000  1
