# generated using pymatgen
data_Yb3ErTaOs7
_symmetry_space_group_name_H-M   'P 1'
_cell_length_a   5.42570900
_cell_length_b   5.42570753
_cell_length_c   8.56115200
_cell_angle_alpha   90.00000000
_cell_angle_beta   90.00000000
_cell_angle_gamma   119.99999065
_symmetry_Int_Tables_number   1
_chemical_formula_structural   Yb3ErTaOs7
_chemical_formula_sum   'Yb3 Er1 Ta1 Os7'
_cell_volume   218.26080751
_cell_formula_units_Z   1
loop_
 _symmetry_equiv_pos_site_id
 _symmetry_equiv_pos_as_xyz
  1  'x, y, z'
loop_
 _atom_site_type_symbol
 _atom_site_label
 _atom_site_symmetry_multiplicity
 _atom_site_fract_x
 _atom_site_fract_y
 _atom_site_fract_z
 _atom_site_occupancy
  Yb  Yb0  1  0.666667  0.333333  0.575545  1
  Yb  Yb1  1  0.666667  0.333333  0.934605  1
  Yb  Yb2  1  0.333333  0.666667  0.059736  1
  Er  Er3  1  0.333333  0.666667  0.426117  1
  Ta  Ta4  1  0.000000  0.000000  0.500171  1
  Os  Os5  1  0.000000  0.000000  0.001718  1
  Os  Os6  1  0.826925  0.173075  0.250333  1
  Os  Os7  1  0.826925  0.653851  0.250333  1
  Os  Os8  1  0.346149  0.173075  0.250333  1
  Os  Os9  1  0.172786  0.827214  0.750369  1
  Os  Os10  1  0.172786  0.345572  0.750369  1
  Os  Os11  1  0.654428  0.827214  0.750369  1
