# generated using pymatgen
data_Mg3Mn(BrO3)8
_symmetry_space_group_name_H-M   'P 1'
_cell_length_a   5.65911404
_cell_length_b   10.59122105
_cell_length_c   10.63287700
_cell_angle_alpha   119.15240050
_cell_angle_beta   90.00651006
_cell_angle_gamma   89.98985016
_symmetry_Int_Tables_number   1
_chemical_formula_structural   Mg3Mn(BrO3)8
_chemical_formula_sum   'Mg3 Mn1 Br8 O24'
_cell_volume   556.57306453
_cell_formula_units_Z   1
loop_
 _symmetry_equiv_pos_site_id
 _symmetry_equiv_pos_as_xyz
  1  'x, y, z'
loop_
 _atom_site_type_symbol
 _atom_site_label
 _atom_site_symmetry_multiplicity
 _atom_site_fract_x
 _atom_site_fract_y
 _atom_site_fract_z
 _atom_site_occupancy
  Mg  Mg0  1  0.641189  0.236937  0.493131  1
  Mg  Mg1  1  0.138902  0.261654  0.005715  1
  Mg  Mg2  1  0.639962  0.738431  0.993445  1
  Mn  Mn3  1  0.142217  0.763269  0.506531  1
  Br  Br4  1  0.264060  0.412353  0.347162  1
  Br  Br5  1  0.757965  0.581356  0.650923  1
  Br  Br6  1  0.261469  0.915802  0.853090  1
  Br  Br7  1  0.760125  0.085074  0.150372  1
  Br  Br8  1  0.781380  0.090198  0.692548  1
  Br  Br9  1  0.288040  0.916972  0.309528  1
  Br  Br10  1  0.284594  0.413786  0.810841  1
  Br  Br11  1  0.783588  0.584489  0.185185  1
  O  O12  1  0.428663  0.885514  0.966440  1
  O  O13  1  0.931169  0.117544  0.039939  1
  O  O14  1  0.374690  0.804002  0.688105  1
  O  O15  1  0.867117  0.195903  0.317319  1
  O  O16  1  0.366525  0.299229  0.179764  1
  O  O17  1  0.863949  0.694753  0.817398  1
  O  O18  1  0.931182  0.227638  0.827051  1
  O  O19  1  0.431836  0.777314  0.174081  1
  O  O20  1  0.922113  0.937911  0.664278  1
  O  O21  1  0.430077  0.068605  0.337809  1
  O  O22  1  0.355062  0.080369  0.884488  1
  O  O23  1  0.855760  0.919954  0.116612  1
  O  O24  1  0.430101  0.276318  0.673898  1
  O  O25  1  0.926050  0.724798  0.321631  1
  O  O26  1  0.351520  0.392369  0.954267  1
  O  O27  1  0.849075  0.604181  0.040614  1
  O  O28  1  0.428104  0.565873  0.842110  1
  O  O29  1  0.932791  0.435339  0.157826  1
  O  O30  1  0.365688  0.575738  0.378495  1
  O  O31  1  0.853771  0.417084  0.619614  1
  O  O32  1  0.432772  0.380325  0.458661  1
  O  O33  1  0.930604  0.612196  0.539512  1
  O  O34  1  0.849164  0.106445  0.546220  1
  O  O35  1  0.358327  0.900281  0.455395  1
