# generated using pymatgen
data_DyY(HfIr)2
_symmetry_space_group_name_H-M   'P 1'
_cell_length_a   4.53766900
_cell_length_b   7.08107100
_cell_length_c   8.31678800
_cell_angle_alpha   90.00000000
_cell_angle_beta   90.00000000
_cell_angle_gamma   90.00000000
_symmetry_Int_Tables_number   1
_chemical_formula_structural   DyY(HfIr)2
_chemical_formula_sum   'Dy2 Y2 Hf4 Ir4'
_cell_volume   267.23134239
_cell_formula_units_Z   2
loop_
 _symmetry_equiv_pos_site_id
 _symmetry_equiv_pos_as_xyz
  1  'x, y, z'
loop_
 _atom_site_type_symbol
 _atom_site_label
 _atom_site_symmetry_multiplicity
 _atom_site_fract_x
 _atom_site_fract_y
 _atom_site_fract_z
 _atom_site_occupancy
  Dy  Dy0  1  0.250000  0.984367  0.323579  1
  Dy  Dy1  1  0.250000  0.484367  0.176421  1
  Y  Y2  1  0.750000  0.015336  0.677204  1
  Y  Y3  1  0.750000  0.515336  0.822796  1
  Hf  Hf4  1  0.250000  0.359635  0.572178  1
  Hf  Hf5  1  0.250000  0.859635  0.927822  1
  Hf  Hf6  1  0.750000  0.640326  0.427081  1
  Hf  Hf7  1  0.750000  0.140326  0.072919  1
  Ir  Ir8  1  0.250000  0.230969  0.908430  1
  Ir  Ir9  1  0.250000  0.730969  0.591570  1
  Ir  Ir10  1  0.750000  0.769365  0.093105  1
  Ir  Ir11  1  0.750000  0.269365  0.406895  1
