# generated using pymatgen
data_CeNd(MnAl5)4
_symmetry_space_group_name_H-M   'P 1'
_cell_length_a   6.80192152
_cell_length_b   6.80192204
_cell_length_c   9.06564400
_cell_angle_alpha   90.00000000
_cell_angle_beta   90.00000000
_cell_angle_gamma   97.42447795
_symmetry_Int_Tables_number   1
_chemical_formula_structural   CeNd(MnAl5)4
_chemical_formula_sum   'Ce1 Nd1 Mn4 Al20'
_cell_volume   415.91585260
_cell_formula_units_Z   1
loop_
 _symmetry_equiv_pos_site_id
 _symmetry_equiv_pos_as_xyz
  1  'x, y, z'
loop_
 _atom_site_type_symbol
 _atom_site_label
 _atom_site_symmetry_multiplicity
 _atom_site_fract_x
 _atom_site_fract_y
 _atom_site_fract_z
 _atom_site_occupancy
  Ce  Ce0  1  0.124192  0.875808  0.250000  1
  Nd  Nd1  1  0.877920  0.122080  0.750000  1
  Mn  Mn2  1  0.498091  0.999558  0.000869  1
  Mn  Mn3  1  0.000442  0.501909  0.000869  1
  Mn  Mn4  1  0.498091  0.999558  0.499131  1
  Mn  Mn5  1  0.000442  0.501909  0.499131  1
  Al  Al6  1  0.408525  0.129760  0.750000  1
  Al  Al7  1  0.130854  0.409324  0.250000  1
  Al  Al8  1  0.590676  0.869146  0.250000  1
  Al  Al9  1  0.870240  0.591475  0.750000  1
  Al  Al10  1  0.523535  0.779380  0.750000  1
  Al  Al11  1  0.780192  0.524190  0.250000  1
  Al  Al12  1  0.475810  0.219808  0.250000  1
  Al  Al13  1  0.220620  0.476465  0.750000  1
  Al  Al14  1  0.839449  0.160551  0.401398  1
  Al  Al15  1  0.160903  0.839097  0.597075  1
  Al  Al16  1  0.839449  0.160551  0.098602  1
  Al  Al17  1  0.160903  0.839097  0.902925  1
  Al  Al18  1  0.624413  0.375587  0.953203  1
  Al  Al19  1  0.375495  0.624505  0.049265  1
  Al  Al20  1  0.624413  0.375587  0.546797  1
  Al  Al21  1  0.375495  0.624505  0.450735  1
  Al  Al22  1  0.770487  0.770562  0.000375  1
  Al  Al23  1  0.770487  0.770562  0.499625  1
  Al  Al24  1  0.229438  0.229513  0.000375  1
  Al  Al25  1  0.229438  0.229513  0.499625  1
