# generated using pymatgen
data_Be8Co3Ni(W6C)2
_symmetry_space_group_name_H-M   'P 1'
_cell_length_a   7.55811783
_cell_length_b   7.56000389
_cell_length_c   7.55811800
_cell_angle_alpha   60.00825160
_cell_angle_beta   59.99999927
_cell_angle_gamma   60.00824932
_symmetry_Int_Tables_number   1
_chemical_formula_structural   Be8Co3Ni(W6C)2
_chemical_formula_sum   'Be8 Co3 Ni1 W12 C2'
_cell_volume   305.41368485
_cell_formula_units_Z   1
loop_
 _symmetry_equiv_pos_site_id
 _symmetry_equiv_pos_as_xyz
  1  'x, y, z'
loop_
 _atom_site_type_symbol
 _atom_site_label
 _atom_site_symmetry_multiplicity
 _atom_site_fract_x
 _atom_site_fract_y
 _atom_site_fract_z
 _atom_site_occupancy
  Be  Be0  1  0.421159  0.422746  0.734935  1
  Be  Be1  1  0.422035  0.733894  0.422035  1
  Be  Be2  1  0.734935  0.422746  0.421159  1
  Be  Be3  1  0.421159  0.422746  0.421159  1
  Be  Be4  1  0.828841  0.827254  0.515065  1
  Be  Be5  1  0.827965  0.516106  0.827965  1
  Be  Be6  1  0.515065  0.827254  0.828841  1
  Be  Be7  1  0.828841  0.827254  0.828841  1
  Co  Co8  1  0.625000  0.625000  0.125000  1
  Co  Co9  1  0.125000  0.625000  0.625000  1
  Co  Co10  1  0.625000  0.625000  0.625000  1
  Ni  Ni11  1  0.625000  0.125000  0.625000  1
  W  W12  1  0.049998  0.049104  0.450449  1
  W  W13  1  0.450449  0.049104  0.450449  1
  W  W14  1  0.048949  0.451260  0.450841  1
  W  W15  1  0.450841  0.451260  0.048949  1
  W  W16  1  0.048949  0.451260  0.048949  1
  W  W17  1  0.450449  0.049104  0.049998  1
  W  W18  1  0.200002  0.200896  0.799551  1
  W  W19  1  0.799551  0.200896  0.799551  1
  W  W20  1  0.201051  0.798740  0.799159  1
  W  W21  1  0.799159  0.798740  0.201051  1
  W  W22  1  0.201051  0.798740  0.201051  1
  W  W23  1  0.799551  0.200896  0.200002  1
  C  C24  1  0.249882  0.250353  0.249882  1
  C  C25  1  0.000118  0.999647  0.000118  1
