# generated using pymatgen
data_Dy(Tc2Ge)2
_symmetry_space_group_name_H-M   'P 1'
_cell_length_a   7.43157100
_cell_length_b   7.43157100
_cell_length_c   4.21587100
_cell_angle_alpha   90.00000000
_cell_angle_beta   90.00000000
_cell_angle_gamma   90.00000000
_symmetry_Int_Tables_number   1
_chemical_formula_structural   Dy(Tc2Ge)2
_chemical_formula_sum   'Dy2 Tc8 Ge4'
_cell_volume   232.83516713
_cell_formula_units_Z   2
loop_
 _symmetry_equiv_pos_site_id
 _symmetry_equiv_pos_as_xyz
  1  'x, y, z'
loop_
 _atom_site_type_symbol
 _atom_site_label
 _atom_site_symmetry_multiplicity
 _atom_site_fract_x
 _atom_site_fract_y
 _atom_site_fract_z
 _atom_site_occupancy
  Dy  Dy0  1  0.500000  0.500000  0.000000  1
  Dy  Dy1  1  0.000000  0.000000  0.500000  1
  Tc  Tc2  1  0.848829  0.403806  0.500000  1
  Tc  Tc3  1  0.903806  0.651171  0.000000  1
  Tc  Tc4  1  0.348829  0.096194  0.000000  1
  Tc  Tc5  1  0.596194  0.151171  0.500000  1
  Tc  Tc6  1  0.403806  0.848829  0.500000  1
  Tc  Tc7  1  0.096194  0.348829  0.000000  1
  Tc  Tc8  1  0.151171  0.596194  0.500000  1
  Tc  Tc9  1  0.651171  0.903806  0.000000  1
  Ge  Ge10  1  0.706220  0.706220  0.500000  1
  Ge  Ge11  1  0.293780  0.293780  0.500000  1
  Ge  Ge12  1  0.793780  0.206220  0.000000  1
  Ge  Ge13  1  0.206220  0.793780  0.000000  1
