# generated using pymatgen
data_Tb3Y(AuBr6)4
_symmetry_space_group_name_H-M   'P 1'
_cell_length_a   8.45005380
_cell_length_b   10.50251073
_cell_length_c   14.97119400
_cell_angle_alpha   102.85419675
_cell_angle_beta   97.23333562
_cell_angle_gamma   113.01207437
_symmetry_Int_Tables_number   1
_chemical_formula_structural   Tb3Y(AuBr6)4
_chemical_formula_sum   'Tb3 Y1 Au4 Br24'
_cell_volume   1158.23286310
_cell_formula_units_Z   1
loop_
 _symmetry_equiv_pos_site_id
 _symmetry_equiv_pos_as_xyz
  1  'x, y, z'
loop_
 _atom_site_type_symbol
 _atom_site_label
 _atom_site_symmetry_multiplicity
 _atom_site_fract_x
 _atom_site_fract_y
 _atom_site_fract_z
 _atom_site_occupancy
  Tb  Tb0  1  0.576756  0.925124  0.623429  1
  Tb  Tb1  1  0.423022  0.074724  0.376306  1
  Tb  Tb2  1  0.970828  0.314692  0.872279  1
  Y  Y3  1  0.029481  0.685582  0.128047  1
  Au  Au4  1  0.288957  0.633601  0.763629  1
  Au  Au5  1  0.711194  0.366629  0.236203  1
  Au  Au6  1  0.499778  0.499792  0.499861  1
  Au  Au7  1  0.000079  0.999897  0.000297  1
  Br  Br8  1  0.600104  0.735789  0.750317  1
  Br  Br9  1  0.400154  0.264621  0.249658  1
  Br  Br10  1  0.277867  0.851188  0.731314  1
  Br  Br11  1  0.722416  0.149211  0.268601  1
  Br  Br12  1  0.975168  0.533339  0.772894  1
  Br  Br13  1  0.024922  0.467091  0.226812  1
  Br  Br14  1  0.298764  0.412543  0.791482  1
  Br  Br15  1  0.701596  0.587905  0.208647  1
  Br  Br16  1  0.688259  0.368518  0.501364  1
  Br  Br17  1  0.311453  0.631210  0.498468  1
  Br  Br18  1  0.757620  0.736810  0.533721  1
  Br  Br19  1  0.242021  0.262762  0.466010  1
  Br  Br20  1  0.788797  0.106548  0.975578  1
  Br  Br21  1  0.210797  0.892621  0.024838  1
  Br  Br22  1  0.775160  0.787715  0.030659  1
  Br  Br23  1  0.224693  0.211811  0.969619  1
  Br  Br24  1  0.620953  0.195083  0.745560  1
  Br  Br25  1  0.379073  0.805009  0.254593  1
  Br  Br26  1  0.938009  0.058543  0.731075  1
  Br  Br27  1  0.061764  0.941077  0.268565  1
  Br  Br28  1  0.718198  0.047675  0.482855  1
  Br  Br29  1  0.281246  0.952028  0.516755  1
  Br  Br30  1  0.770157  0.435609  0.977594  1
  Br  Br31  1  0.230715  0.565255  0.022968  1
