# generated using pymatgen
data_Tb16Cd4OsRh3
_symmetry_space_group_name_H-M   'P 1'
_cell_length_a   9.62518685
_cell_length_b   9.62518698
_cell_length_c   9.70476146
_cell_angle_alpha   60.27086796
_cell_angle_beta   60.27086830
_cell_angle_gamma   59.99999781
_symmetry_Int_Tables_number   1
_chemical_formula_structural   Tb16Cd4OsRh3
_chemical_formula_sum   'Tb16 Cd4 Os1 Rh3'
_cell_volume   638.34314541
_cell_formula_units_Z   1
loop_
 _symmetry_equiv_pos_site_id
 _symmetry_equiv_pos_as_xyz
  1  'x, y, z'
loop_
 _atom_site_type_symbol
 _atom_site_label
 _atom_site_symmetry_multiplicity
 _atom_site_fract_x
 _atom_site_fract_y
 _atom_site_fract_z
 _atom_site_occupancy
  Tb  Tb0  1  0.297597  0.901260  0.899883  1
  Tb  Tb1  1  0.690752  0.312079  0.685091  1
  Tb  Tb2  1  0.314099  0.686281  0.313338  1
  Tb  Tb3  1  0.061561  0.436388  0.440490  1
  Tb  Tb4  1  0.686281  0.314099  0.313338  1
  Tb  Tb5  1  0.436388  0.061561  0.440490  1
  Tb  Tb6  1  0.438855  0.061218  0.061071  1
  Tb  Tb7  1  0.901260  0.901260  0.899883  1
  Tb  Tb8  1  0.061218  0.438855  0.061071  1
  Tb  Tb9  1  0.901260  0.297597  0.899883  1
  Tb  Tb10  1  0.312079  0.690752  0.685091  1
  Tb  Tb11  1  0.900226  0.900226  0.299322  1
  Tb  Tb12  1  0.438855  0.438855  0.061071  1
  Tb  Tb13  1  0.312079  0.312079  0.685091  1
  Tb  Tb14  1  0.686281  0.686281  0.313338  1
  Tb  Tb15  1  0.061561  0.061561  0.440490  1
  Cd  Cd16  1  0.991360  0.669639  0.669362  1
  Cd  Cd17  1  0.669639  0.991360  0.669362  1
  Cd  Cd18  1  0.669548  0.669548  0.991355  1
  Cd  Cd19  1  0.669639  0.669639  0.669362  1
  Os  Os20  1  0.107849  0.107849  0.676452  1
  Rh  Rh21  1  0.107729  0.676154  0.108388  1
  Rh  Rh22  1  0.107729  0.107729  0.108388  1
  Rh  Rh23  1  0.676154  0.107729  0.108388  1
