# generated using pymatgen
data_YHo3Tm16(CoSb2)4
_symmetry_space_group_name_H-M   'P 1'
_cell_length_a   7.79271023
_cell_length_b   8.74413900
_cell_length_c   12.09024736
_cell_angle_alpha   90.00000000
_cell_angle_beta   90.02792397
_cell_angle_gamma   90.00000000
_symmetry_Int_Tables_number   1
_chemical_formula_structural   YHo3Tm16(CoSb2)4
_chemical_formula_sum   'Y1 Ho3 Tm16 Co4 Sb8'
_cell_volume   823.83590346
_cell_formula_units_Z   1
loop_
 _symmetry_equiv_pos_site_id
 _symmetry_equiv_pos_as_xyz
  1  'x, y, z'
loop_
 _atom_site_type_symbol
 _atom_site_label
 _atom_site_symmetry_multiplicity
 _atom_site_fract_x
 _atom_site_fract_y
 _atom_site_fract_z
 _atom_site_occupancy
  Y  Y0  1  0.623309  0.750000  0.307204  1
  Ho  Ho1  1  0.122554  0.250000  0.192057  1
  Ho  Ho2  1  0.377430  0.250000  0.692095  1
  Ho  Ho3  1  0.877400  0.750000  0.807825  1
  Tm  Tm4  1  0.156356  0.750000  0.203741  1
  Tm  Tm5  1  0.656486  0.250000  0.296305  1
  Tm  Tm6  1  0.843383  0.250000  0.796203  1
  Tm  Tm7  1  0.343424  0.750000  0.703804  1
  Tm  Tm8  1  0.450021  0.750000  0.997846  1
  Tm  Tm9  1  0.949900  0.250000  0.502179  1
  Tm  Tm10  1  0.550016  0.250000  0.001987  1
  Tm  Tm11  1  0.050056  0.750000  0.497968  1
  Tm  Tm12  1  0.823819  0.963525  0.065362  1
  Tm  Tm13  1  0.323557  0.036918  0.434605  1
  Tm  Tm14  1  0.176321  0.463158  0.934434  1
  Tm  Tm15  1  0.676236  0.536530  0.565760  1
  Tm  Tm16  1  0.176321  0.036842  0.934434  1
  Tm  Tm17  1  0.676236  0.963470  0.565760  1
  Tm  Tm18  1  0.823819  0.536475  0.065362  1
  Tm  Tm19  1  0.323557  0.463082  0.434605  1
  Co  Co20  1  0.431316  0.750000  0.491926  1
  Co  Co21  1  0.932136  0.250000  0.008846  1
  Co  Co22  1  0.567981  0.250000  0.508832  1
  Co  Co23  1  0.067872  0.750000  0.991141  1
  Sb  Sb24  1  0.931520  0.991786  0.327769  1
  Sb  Sb25  1  0.430940  0.008725  0.172030  1
  Sb  Sb26  1  0.068868  0.491491  0.672194  1
  Sb  Sb27  1  0.568919  0.508445  0.827868  1
  Sb  Sb28  1  0.068868  0.008509  0.672194  1
  Sb  Sb29  1  0.568919  0.991555  0.827868  1
  Sb  Sb30  1  0.931520  0.508214  0.327769  1
  Sb  Sb31  1  0.430940  0.491275  0.172030  1
