# generated using pymatgen
data_Tb10Pr6Cd4IrPt3
_symmetry_space_group_name_H-M   'P 1'
_cell_length_a   9.84638464
_cell_length_b   9.82383877
_cell_length_c   9.82383900
_cell_angle_alpha   60.00000260
_cell_angle_beta   60.07571841
_cell_angle_gamma   60.07571760
_symmetry_Int_Tables_number   1
_chemical_formula_structural   Tb10Pr6Cd4IrPt3
_chemical_formula_sum   'Tb10 Pr6 Cd4 Ir1 Pt3'
_cell_volume   672.69835185
_cell_formula_units_Z   1
loop_
 _symmetry_equiv_pos_site_id
 _symmetry_equiv_pos_as_xyz
  1  'x, y, z'
loop_
 _atom_site_type_symbol
 _atom_site_label
 _atom_site_symmetry_multiplicity
 _atom_site_fract_x
 _atom_site_fract_y
 _atom_site_fract_z
 _atom_site_occupancy
  Tb  Tb0  1  0.351326  0.347003  0.347003  1
  Tb  Tb1  1  0.351326  0.347003  0.954668  1
  Tb  Tb2  1  0.351326  0.954668  0.347003  1
  Tb  Tb3  1  0.949599  0.350133  0.350133  1
  Tb  Tb4  1  0.808709  0.187737  0.187737  1
  Tb  Tb5  1  0.188745  0.811652  0.811652  1
  Tb  Tb6  1  0.188745  0.811652  0.187950  1
  Tb  Tb7  1  0.808709  0.187737  0.815817  1
  Tb  Tb8  1  0.188745  0.187950  0.811652  1
  Tb  Tb9  1  0.808709  0.815817  0.187737  1
  Pr  Pr10  1  0.938236  0.562179  0.562179  1
  Pr  Pr11  1  0.563269  0.938140  0.938140  1
  Pr  Pr12  1  0.563269  0.938140  0.560450  1
  Pr  Pr13  1  0.938236  0.562179  0.937406  1
  Pr  Pr14  1  0.563269  0.560450  0.938140  1
  Pr  Pr15  1  0.938236  0.937406  0.562179  1
  Cd  Cd16  1  0.579502  0.579473  0.579473  1
  Cd  Cd17  1  0.579502  0.579473  0.261550  1
  Cd  Cd18  1  0.579502  0.261550  0.579473  1
  Cd  Cd19  1  0.262019  0.579326  0.579326  1
  Ir  Ir20  1  0.574355  0.141881  0.141881  1
  Pt  Pt21  1  0.141554  0.142506  0.142506  1
  Pt  Pt22  1  0.141554  0.142506  0.573433  1
  Pt  Pt23  1  0.141554  0.573433  0.142506  1
