# generated using pymatgen
data_Ca12La7DySi16
_symmetry_space_group_name_H-M   'P 1'
_cell_length_a   7.57984766
_cell_length_b   8.00162374
_cell_length_c   15.32294388
_cell_angle_alpha   89.93448107
_cell_angle_beta   89.92999082
_cell_angle_gamma   89.86563899
_symmetry_Int_Tables_number   1
_chemical_formula_structural   Ca12La7DySi16
_chemical_formula_sum   'Ca12 La7 Dy1 Si16'
_cell_volume   929.34937918
_cell_formula_units_Z   1
loop_
 _symmetry_equiv_pos_site_id
 _symmetry_equiv_pos_as_xyz
  1  'x, y, z'
loop_
 _atom_site_type_symbol
 _atom_site_label
 _atom_site_symmetry_multiplicity
 _atom_site_fract_x
 _atom_site_fract_y
 _atom_site_fract_z
 _atom_site_occupancy
  Ca  Ca0  1  0.648856  0.996312  0.251984  1
  Ca  Ca1  1  0.143575  0.503494  0.252304  1
  Ca  Ca2  1  0.856655  0.495777  0.750084  1
  Ca  Ca3  1  0.352450  0.004499  0.750127  1
  Ca  Ca4  1  0.971408  0.814203  0.400217  1
  Ca  Ca5  1  0.680148  0.818888  0.877912  1
  Ca  Ca6  1  0.180000  0.684105  0.619351  1
  Ca  Ca7  1  0.819789  0.317829  0.123320  1
  Ca  Ca8  1  0.316766  0.177993  0.378792  1
  Ca  Ca9  1  0.318651  0.180305  0.123862  1
  Ca  Ca10  1  0.819617  0.319160  0.378445  1
  Ca  Ca11  1  0.181110  0.681048  0.877606  1
  La  La12  1  0.972631  0.814406  0.098958  1
  La  La13  1  0.471763  0.685768  0.400198  1
  La  La14  1  0.525657  0.317388  0.902988  1
  La  La15  1  0.025969  0.184502  0.594639  1
  La  La16  1  0.026195  0.183613  0.902396  1
  La  La17  1  0.527396  0.317861  0.597624  1
  La  La18  1  0.471362  0.685096  0.100822  1
  Dy  Dy19  1  0.680972  0.817046  0.622958  1
  Si  Si20  1  0.753274  0.622374  0.247820  1
  Si  Si21  1  0.257422  0.876405  0.248794  1
  Si  Si22  1  0.741849  0.120626  0.746619  1
  Si  Si23  1  0.247417  0.379216  0.749812  1
  Si  Si24  1  0.028918  0.090911  0.250036  1
  Si  Si25  1  0.526474  0.407698  0.251680  1
  Si  Si26  1  0.474898  0.596278  0.745951  1
  Si  Si27  1  0.967557  0.905728  0.745439  1
  Si  Si28  1  0.858862  0.525518  0.962352  1
  Si  Si29  1  0.367460  0.973408  0.541080  1
  Si  Si30  1  0.641775  0.027501  0.036539  1
  Si  Si31  1  0.140494  0.471581  0.463908  1
  Si  Si32  1  0.142754  0.472045  0.036300  1
  Si  Si33  1  0.647824  0.025507  0.466897  1
  Si  Si34  1  0.357848  0.974787  0.962524  1
  Si  Si35  1  0.854203  0.531122  0.539662  1
