# generated using pymatgen
data_K6Li4TiVAs6
_symmetry_space_group_name_H-M   'P 1'
_cell_length_a   10.09843110
_cell_length_b   10.09842983
_cell_length_c   15.07156600
_cell_angle_alpha   90.00000000
_cell_angle_beta   90.00000000
_cell_angle_gamma   142.98235244
_symmetry_Int_Tables_number   1
_chemical_formula_structural   K6Li4TiVAs6
_chemical_formula_sum   'K12 Li8 Ti2 V2 As12'
_cell_volume   925.35125901
_cell_formula_units_Z   2
loop_
 _symmetry_equiv_pos_site_id
 _symmetry_equiv_pos_as_xyz
  1  'x, y, z'
loop_
 _atom_site_type_symbol
 _atom_site_label
 _atom_site_symmetry_multiplicity
 _atom_site_fract_x
 _atom_site_fract_y
 _atom_site_fract_z
 _atom_site_occupancy
  K  K0  1  0.105771  0.445535  0.671308  1
  K  K1  1  0.716843  0.717703  0.679718  1
  K  K2  1  0.217703  0.216843  0.820282  1
  K  K3  1  0.783157  0.782297  0.179718  1
  K  K4  1  0.945535  0.605771  0.828692  1
  K  K5  1  0.554465  0.894229  0.328692  1
  K  K6  1  0.394229  0.054465  0.171308  1
  K  K7  1  0.054274  0.393904  0.171533  1
  K  K8  1  0.893904  0.554274  0.328467  1
  K  K9  1  0.445726  0.106096  0.671533  1
  K  K10  1  0.606096  0.945727  0.828467  1
  K  K11  1  0.282297  0.283157  0.320282  1
  Li  Li12  1  0.919066  0.080934  0.000000  1
  Li  Li13  1  0.580934  0.419066  0.500000  1
  Li  Li14  1  0.082244  0.917756  0.000000  1
  Li  Li15  1  0.417756  0.582244  0.500000  1
  Li  Li16  1  0.749508  0.250492  0.000000  1
  Li  Li17  1  0.750492  0.249508  0.500000  1
  Li  Li18  1  0.249082  0.750918  0.000000  1
  Li  Li19  1  0.250918  0.749082  0.500000  1
  Ti  Ti20  1  0.915431  0.084569  0.500000  1
  Ti  Ti21  1  0.584569  0.415431  0.000000  1
  V  V22  1  0.085874  0.914126  0.500000  1
  V  V23  1  0.414126  0.585874  0.000000  1
  As  As24  1  0.889219  0.567571  0.091982  1
  As  As25  1  0.432429  0.110781  0.908018  1
  As  As26  1  0.610781  0.932429  0.591982  1
  As  As27  1  0.936448  0.620076  0.588465  1
  As  As28  1  0.120076  0.436448  0.911535  1
  As  As29  1  0.563552  0.879924  0.088465  1
  As  As30  1  0.379924  0.063552  0.411535  1
  As  As31  1  0.221088  0.216066  0.586794  1
  As  As32  1  0.716066  0.721088  0.913206  1
  As  As33  1  0.278912  0.283934  0.086794  1
  As  As34  1  0.067571  0.389219  0.408018  1
  As  As35  1  0.783934  0.778912  0.413206  1
