# generated using pymatgen
data_Nd2Er4MgCo17P12
_symmetry_space_group_name_H-M   'P 1'
_cell_length_a   3.73049500
_cell_length_b   10.61140100
_cell_length_c   12.27459600
_cell_angle_alpha   90.00000000
_cell_angle_beta   90.00000000
_cell_angle_gamma   90.00000000
_symmetry_Int_Tables_number   1
_chemical_formula_structural   Nd2Er4MgCo17P12
_chemical_formula_sum   'Nd2 Er4 Mg1 Co17 P12'
_cell_volume   485.89943688
_cell_formula_units_Z   1
loop_
 _symmetry_equiv_pos_site_id
 _symmetry_equiv_pos_as_xyz
  1  'x, y, z'
loop_
 _atom_site_type_symbol
 _atom_site_label
 _atom_site_symmetry_multiplicity
 _atom_site_fract_x
 _atom_site_fract_y
 _atom_site_fract_z
 _atom_site_occupancy
  Nd  Nd0  1  0.750000  0.250000  0.474050  1
  Nd  Nd1  1  0.250000  0.750000  0.522652  1
  Er  Er2  1  0.250000  0.928122  0.793734  1
  Er  Er3  1  0.250000  0.571878  0.793734  1
  Er  Er4  1  0.750000  0.067358  0.204369  1
  Er  Er5  1  0.750000  0.432642  0.204369  1
  Mg  Mg6  1  0.250000  0.250000  0.849316  1
  Co  Co7  1  0.750000  0.750000  0.159233  1
  Co  Co8  1  0.250000  0.250000  0.291555  1
  Co  Co9  1  0.750000  0.750000  0.707708  1
  Co  Co10  1  0.750000  0.250000  0.013622  1
  Co  Co11  1  0.250000  0.750000  0.988449  1
  Co  Co12  1  0.250000  0.421080  0.006906  1
  Co  Co13  1  0.250000  0.078920  0.006906  1
  Co  Co14  1  0.750000  0.586622  0.998405  1
  Co  Co15  1  0.750000  0.913378  0.998405  1
  Co  Co16  1  0.250000  0.454698  0.568543  1
  Co  Co17  1  0.250000  0.045302  0.568543  1
  Co  Co18  1  0.750000  0.547033  0.427853  1
  Co  Co19  1  0.750000  0.952967  0.427853  1
  Co  Co20  1  0.250000  0.869841  0.288510  1
  Co  Co21  1  0.250000  0.630159  0.288510  1
  Co  Co22  1  0.750000  0.127020  0.709929  1
  Co  Co23  1  0.750000  0.372980  0.709929  1
  P  P24  1  0.250000  0.250000  0.115279  1
  P  P25  1  0.750000  0.750000  0.884861  1
  P  P26  1  0.250000  0.250000  0.650175  1
  P  P27  1  0.750000  0.750000  0.340778  1
  P  P28  1  0.250000  0.443374  0.380654  1
  P  P29  1  0.250000  0.056626  0.380654  1
  P  P30  1  0.750000  0.557681  0.616254  1
  P  P31  1  0.750000  0.942319  0.616254  1
  P  P32  1  0.250000  0.901296  0.109147  1
  P  P33  1  0.250000  0.598704  0.109147  1
  P  P34  1  0.750000  0.086302  0.896857  1
  P  P35  1  0.750000  0.413698  0.896857  1
