# generated using pymatgen
data_HoBeOs2C
_symmetry_space_group_name_H-M   'P 1'
_cell_length_a   5.61830946
_cell_length_b   5.61830822
_cell_length_c   7.03684600
_cell_angle_alpha   90.00000000
_cell_angle_beta   90.00000000
_cell_angle_gamma   140.04942860
_symmetry_Int_Tables_number   1
_chemical_formula_structural   HoBeOs2C
_chemical_formula_sum   'Ho2 Be2 Os4 C2'
_cell_volume   142.62966561
_cell_formula_units_Z   2
loop_
 _symmetry_equiv_pos_site_id
 _symmetry_equiv_pos_as_xyz
  1  'x, y, z'
loop_
 _atom_site_type_symbol
 _atom_site_label
 _atom_site_symmetry_multiplicity
 _atom_site_fract_x
 _atom_site_fract_y
 _atom_site_fract_z
 _atom_site_occupancy
  Ho  Ho0  1  0.544792  0.455208  0.250000  1
  Ho  Ho1  1  0.455208  0.544792  0.750000  1
  Be  Be2  1  0.269966  0.730034  0.250000  1
  Be  Be3  1  0.730034  0.269966  0.750000  1
  Os  Os4  1  0.823580  0.176420  0.058782  1
  Os  Os5  1  0.176420  0.823580  0.941218  1
  Os  Os6  1  0.176420  0.823580  0.558782  1
  Os  Os7  1  0.823580  0.176420  0.441218  1
  C  C8  1  0.000000  0.000000  0.000000  1
  C  C9  1  0.000000  0.000000  0.500000  1
