# generated using pymatgen
data_Pr8Sc12Ga15Si
_symmetry_space_group_name_H-M   'P 1'
_cell_length_a   7.44861200
_cell_length_b   7.67220316
_cell_length_c   14.71812200
_cell_angle_alpha   90.00000000
_cell_angle_beta   90.00000000
_cell_angle_gamma   90.12504707
_symmetry_Int_Tables_number   1
_chemical_formula_structural   Pr8Sc12Ga15Si
_chemical_formula_sum   'Pr8 Sc12 Ga15 Si1'
_cell_volume   841.09840856
_cell_formula_units_Z   1
loop_
 _symmetry_equiv_pos_site_id
 _symmetry_equiv_pos_as_xyz
  1  'x, y, z'
loop_
 _atom_site_type_symbol
 _atom_site_label
 _atom_site_symmetry_multiplicity
 _atom_site_fract_x
 _atom_site_fract_y
 _atom_site_fract_z
 _atom_site_occupancy
  Pr  Pr0  1  0.012180  0.174271  0.095319  1
  Pr  Pr1  1  0.986430  0.822610  0.902899  1
  Pr  Pr2  1  0.487751  0.675071  0.903863  1
  Pr  Pr3  1  0.986430  0.822610  0.597101  1
  Pr  Pr4  1  0.511632  0.324401  0.094923  1
  Pr  Pr5  1  0.012180  0.174271  0.404681  1
  Pr  Pr6  1  0.511632  0.324401  0.405077  1
  Pr  Pr7  1  0.487751  0.675071  0.596137  1
  Sc  Sc8  1  0.157499  0.498964  0.750000  1
  Sc  Sc9  1  0.837642  0.501085  0.250000  1
  Sc  Sc10  1  0.338338  0.998422  0.250000  1
  Sc  Sc11  1  0.663154  0.997421  0.750000  1
  Sc  Sc12  1  0.332489  0.173867  0.624519  1
  Sc  Sc13  1  0.669363  0.827655  0.374991  1
  Sc  Sc14  1  0.169999  0.673353  0.374780  1
  Sc  Sc15  1  0.669363  0.827655  0.125009  1
  Sc  Sc16  1  0.829690  0.330436  0.624815  1
  Sc  Sc17  1  0.332489  0.173867  0.875481  1
  Sc  Sc18  1  0.829690  0.330436  0.875185  1
  Sc  Sc19  1  0.169999  0.673353  0.125220  1
  Ga  Ga20  1  0.032100  0.124536  0.750000  1
  Ga  Ga21  1  0.967867  0.876983  0.250000  1
  Ga  Ga22  1  0.468113  0.622883  0.250000  1
  Ga  Ga23  1  0.532621  0.381614  0.750000  1
  Ga  Ga24  1  0.288154  0.880948  0.750000  1
  Ga  Ga25  1  0.713573  0.121225  0.250000  1
  Ga  Ga26  1  0.213417  0.379037  0.250000  1
  Ga  Ga27  1  0.156008  0.461519  0.540792  1
  Ga  Ga28  1  0.844102  0.538615  0.459033  1
  Ga  Ga29  1  0.343802  0.959929  0.460042  1
  Ga  Ga30  1  0.844102  0.538615  0.040967  1
  Ga  Ga31  1  0.657538  0.038529  0.541215  1
  Ga  Ga32  1  0.156008  0.461519  0.959208  1
  Ga  Ga33  1  0.657538  0.038529  0.958785  1
  Ga  Ga34  1  0.343802  0.959929  0.039958  1
  Si  Si35  1  0.785553  0.616365  0.750000  1
