# generated using pymatgen
data_Er2ZnRu2
_symmetry_space_group_name_H-M   'P 1'
_cell_length_a   5.42580416
_cell_length_b   5.42580473
_cell_length_c   5.42580410
_cell_angle_alpha   133.65909242
_cell_angle_beta   117.98910826
_cell_angle_gamma   80.81227407
_symmetry_Int_Tables_number   1
_chemical_formula_structural   Er2ZnRu2
_chemical_formula_sum   'Er2 Zn1 Ru2'
_cell_volume   98.61020172
_cell_formula_units_Z   1
loop_
 _symmetry_equiv_pos_site_id
 _symmetry_equiv_pos_as_xyz
  1  'x, y, z'
loop_
 _atom_site_type_symbol
 _atom_site_label
 _atom_site_symmetry_multiplicity
 _atom_site_fract_x
 _atom_site_fract_y
 _atom_site_fract_z
 _atom_site_occupancy
  Er  Er0  1  0.705562  0.205563  0.499999  1
  Er  Er1  1  0.294437  0.794437  0.500000  1
  Zn  Zn2  1  0.000000  0.000000  0.000000  1
  Ru  Ru3  1  0.724675  0.500000  0.224676  1
  Ru  Ru4  1  0.275324  0.500000  0.775324  1
