# generated using pymatgen
data_Pr6Ir13Rh5
_symmetry_space_group_name_H-M   'P 1'
_cell_length_a   5.38565300
_cell_length_b   5.38565161
_cell_length_c   17.69688300
_cell_angle_alpha   90.00000000
_cell_angle_beta   90.00000000
_cell_angle_gamma   120.00000238
_symmetry_Int_Tables_number   1
_chemical_formula_structural   Pr6Ir13Rh5
_chemical_formula_sum   'Pr6 Ir13 Rh5'
_cell_volume   444.53301936
_cell_formula_units_Z   1
loop_
 _symmetry_equiv_pos_site_id
 _symmetry_equiv_pos_as_xyz
  1  'x, y, z'
loop_
 _atom_site_type_symbol
 _atom_site_label
 _atom_site_symmetry_multiplicity
 _atom_site_fract_x
 _atom_site_fract_y
 _atom_site_fract_z
 _atom_site_occupancy
  Pr  Pr0  1  0.333333  0.666667  0.541107  1
  Pr  Pr1  1  0.666667  0.333333  0.040806  1
  Pr  Pr2  1  0.666667  0.333333  0.458893  1
  Pr  Pr3  1  0.333333  0.666667  0.959194  1
  Pr  Pr4  1  0.333333  0.666667  0.750375  1
  Pr  Pr5  1  0.666667  0.333333  0.249625  1
  Ir  Ir6  1  0.166519  0.333037  0.127540  1
  Ir  Ir7  1  0.833431  0.666862  0.628295  1
  Ir  Ir8  1  0.666963  0.833481  0.127540  1
  Ir  Ir9  1  0.166519  0.833481  0.127540  1
  Ir  Ir10  1  0.833431  0.166569  0.628295  1
  Ir  Ir11  1  0.333138  0.166569  0.628295  1
  Ir  Ir12  1  0.833481  0.666963  0.872460  1
  Ir  Ir13  1  0.833481  0.166519  0.872460  1
  Ir  Ir14  1  0.333037  0.166519  0.872460  1
  Ir  Ir15  1  0.666862  0.833431  0.371705  1
  Ir  Ir16  1  0.166569  0.833431  0.371705  1
  Ir  Ir17  1  0.166569  0.333138  0.371705  1
  Ir  Ir18  1  0.000000  0.000000  0.000000  1
  Rh  Rh19  1  0.000000  0.000000  0.249738  1
  Rh  Rh20  1  0.000000  0.000000  0.750262  1
  Rh  Rh21  1  0.333333  0.666667  0.249854  1
  Rh  Rh22  1  0.666667  0.333333  0.750146  1
  Rh  Rh23  1  0.000000  0.000000  0.500000  1
