# generated using pymatgen
data_La10Tc2Br15
_symmetry_space_group_name_H-M   'P 1'
_cell_length_a   9.65891664
_cell_length_b   10.92880107
_cell_length_c   11.49118019
_cell_angle_alpha   90.43088240
_cell_angle_beta   114.27106263
_cell_angle_gamma   110.79701883
_symmetry_Int_Tables_number   1
_chemical_formula_structural   La10Tc2Br15
_chemical_formula_sum   'La10 Tc2 Br15'
_cell_volume   1016.84709517
_cell_formula_units_Z   1
loop_
 _symmetry_equiv_pos_site_id
 _symmetry_equiv_pos_as_xyz
  1  'x, y, z'
loop_
 _atom_site_type_symbol
 _atom_site_label
 _atom_site_symmetry_multiplicity
 _atom_site_fract_x
 _atom_site_fract_y
 _atom_site_fract_z
 _atom_site_occupancy
  La  La0  1  0.237228  0.584001  0.053155  1
  La  La1  1  0.762772  0.415999  0.946845  1
  La  La2  1  0.314793  0.914653  0.276588  1
  La  La3  1  0.685207  0.085347  0.723412  1
  La  La4  1  0.099819  0.552031  0.341091  1
  La  La5  1  0.900181  0.447969  0.658909  1
  La  La6  1  0.830530  0.750873  0.177958  1
  La  La7  1  0.169470  0.249127  0.822042  1
  La  La8  1  0.974072  0.799352  0.897543  1
  La  La9  1  0.025928  0.200648  0.102457  1
  Tc  Tc10  1  0.027505  0.682410  0.122385  1
  Tc  Tc11  1  0.972495  0.317590  0.877615  1
  Br  Br12  1  0.325185  0.439892  0.294185  1
  Br  Br13  1  0.674815  0.560108  0.705815  1
  Br  Br14  1  0.192031  0.723443  0.810515  1
  Br  Br15  1  0.807969  0.276557  0.189485  1
  Br  Br16  1  0.138238  0.388828  0.586341  1
  Br  Br17  1  0.861762  0.611172  0.413659  1
  Br  Br18  1  0.390048  0.803430  0.523582  1
  Br  Br19  1  0.609952  0.196570  0.476418  1
  Br  Br20  1  0.253649  0.083833  0.051236  1
  Br  Br21  1  0.746351  0.916167  0.948764  1
  Br  Br22  1  0.561816  0.839569  0.221280  1
  Br  Br23  1  0.438184  0.160431  0.778720  1
  Br  Br24  1  0.094660  0.028420  0.330616  1
  Br  Br25  1  0.905340  0.971580  0.669384  1
  Br  Br26  1  0.500000  0.500000  0.000000  1
