# generated using pymatgen
data_Ce6MnSi3Ru2
_symmetry_space_group_name_H-M   'P 1'
_cell_length_a   7.58502806
_cell_length_b   7.58502850
_cell_length_c   9.85073700
_cell_angle_alpha   89.77391421
_cell_angle_beta   89.77389909
_cell_angle_gamma   120.18156517
_symmetry_Int_Tables_number   1
_chemical_formula_structural   Ce6MnSi3Ru2
_chemical_formula_sum   'Ce12 Mn2 Si6 Ru4'
_cell_volume   489.89463227
_cell_formula_units_Z   2
loop_
 _symmetry_equiv_pos_site_id
 _symmetry_equiv_pos_as_xyz
  1  'x, y, z'
loop_
 _atom_site_type_symbol
 _atom_site_label
 _atom_site_symmetry_multiplicity
 _atom_site_fract_x
 _atom_site_fract_y
 _atom_site_fract_z
 _atom_site_occupancy
  Ce  Ce0  1  0.001491  0.571101  0.489766  1
  Ce  Ce1  1  0.571101  0.001491  0.489766  1
  Ce  Ce2  1  0.403675  0.403675  0.501695  1
  Ce  Ce3  1  0.000324  0.408347  0.007355  1
  Ce  Ce4  1  0.408347  0.000324  0.007355  1
  Ce  Ce5  1  0.593649  0.593649  0.004501  1
  Ce  Ce6  1  0.009281  0.746725  0.175621  1
  Ce  Ce7  1  0.746725  0.009281  0.175621  1
  Ce  Ce8  1  0.258867  0.258867  0.177501  1
  Ce  Ce9  1  0.997959  0.263066  0.671183  1
  Ce  Ce10  1  0.263066  0.997959  0.671183  1
  Ce  Ce11  1  0.733197  0.733197  0.669720  1
  Mn  Mn12  1  0.999293  0.351550  0.342257  1
  Mn  Mn13  1  0.351550  0.999293  0.342257  1
  Si  Si14  1  0.666613  0.334004  0.273329  1
  Si  Si15  1  0.334004  0.666613  0.273329  1
  Si  Si16  1  0.332995  0.665778  0.778520  1
  Si  Si17  1  0.665778  0.332995  0.778520  1
  Si  Si18  1  0.001442  0.001442  0.419274  1
  Si  Si19  1  0.000648  0.000648  0.917186  1
  Ru  Ru20  1  0.659596  0.659596  0.339680  1
  Ru  Ru21  1  0.000251  0.660212  0.840443  1
  Ru  Ru22  1  0.660212  0.000251  0.840443  1
  Ru  Ru23  1  0.339933  0.339933  0.842736  1
