# generated using pymatgen
data_Sc10Al2SnSb3
_symmetry_space_group_name_H-M   'P 1'
_cell_length_a   8.39588000
_cell_length_b   8.35932718
_cell_length_c   6.01246800
_cell_angle_alpha   90.00000000
_cell_angle_beta   90.00000000
_cell_angle_gamma   120.14475344
_symmetry_Int_Tables_number   1
_chemical_formula_structural   Sc10Al2SnSb3
_chemical_formula_sum   'Sc10 Al2 Sn1 Sb3'
_cell_volume   364.90988699
_cell_formula_units_Z   1
loop_
 _symmetry_equiv_pos_site_id
 _symmetry_equiv_pos_as_xyz
  1  'x, y, z'
loop_
 _atom_site_type_symbol
 _atom_site_label
 _atom_site_symmetry_multiplicity
 _atom_site_fract_x
 _atom_site_fract_y
 _atom_site_fract_z
 _atom_site_occupancy
  Sc  Sc0  1  0.332551  0.661153  0.505029  1
  Sc  Sc1  1  0.671400  0.338847  0.994971  1
  Sc  Sc2  1  0.671400  0.338847  0.505029  1
  Sc  Sc3  1  0.332551  0.661153  0.994971  1
  Sc  Sc4  1  0.766154  0.000000  0.750000  1
  Sc  Sc5  1  0.763263  0.763111  0.250000  1
  Sc  Sc6  1  0.239129  0.000000  0.250000  1
  Sc  Sc7  1  0.234480  0.244588  0.750000  1
  Sc  Sc8  1  0.989892  0.755412  0.750000  1
  Sc  Sc9  1  0.000153  0.236889  0.250000  1
  Al  Al10  1  0.000107  0.395934  0.750000  1
  Al  Al11  1  0.604174  0.604066  0.750000  1
  Sn  Sn12  1  0.606041  0.000000  0.250000  1
  Sb  Sb13  1  0.388546  0.000000  0.750000  1
  Sb  Sb14  1  0.397353  0.394550  0.250000  1
  Sb  Sb15  1  0.002805  0.605450  0.250000  1
