# generated using pymatgen
data_Y16In6FeIr
_symmetry_space_group_name_H-M   'P 1'
_cell_length_a   10.42902500
_cell_length_b   10.42903590
_cell_length_c   7.12064100
_cell_angle_alpha   90.00003994
_cell_angle_beta   89.99998097
_cell_angle_gamma   119.99996735
_symmetry_Int_Tables_number   1
_chemical_formula_structural   Y16In6FeIr
_chemical_formula_sum   'Y16 In6 Fe1 Ir1'
_cell_volume   670.71456315
_cell_formula_units_Z   1
loop_
 _symmetry_equiv_pos_site_id
 _symmetry_equiv_pos_as_xyz
  1  'x, y, z'
loop_
 _atom_site_type_symbol
 _atom_site_label
 _atom_site_symmetry_multiplicity
 _atom_site_fract_x
 _atom_site_fract_y
 _atom_site_fract_z
 _atom_site_occupancy
  Y  Y0  1  0.466343  0.533657  0.479763  1
  Y  Y1  1  0.067314  0.533657  0.479763  1
  Y  Y2  1  0.466343  0.932686  0.479762  1
  Y  Y3  1  0.536974  0.463026  0.981595  1
  Y  Y4  1  0.926052  0.463026  0.981595  1
  Y  Y5  1  0.536974  0.073948  0.981594  1
  Y  Y6  1  0.821778  0.178223  0.275977  1
  Y  Y7  1  0.356445  0.178222  0.275977  1
  Y  Y8  1  0.821777  0.643555  0.275977  1
  Y  Y9  1  0.176242  0.823758  0.777732  1
  Y  Y10  1  0.647515  0.823758  0.777732  1
  Y  Y11  1  0.176242  0.352484  0.777733  1
  Y  Y12  1  0.333333  0.666667  0.100892  1
  Y  Y13  1  0.666667  0.333333  0.593510  1
  Y  Y14  1  0.000000  0.000000  0.496214  1
  Y  Y15  1  0.000000  0.000000  0.997889  1
  In  In16  1  0.162367  0.837634  0.233159  1
  In  In17  1  0.675267  0.837634  0.233160  1
  In  In18  1  0.162367  0.324733  0.233160  1
  In  In19  1  0.836998  0.163002  0.732664  1
  In  In20  1  0.326004  0.163002  0.732665  1
  In  In21  1  0.836998  0.673996  0.732663  1
  Fe  Fe22  1  0.666667  0.333333  0.207036  1
  Ir  Ir23  1  0.333333  0.666667  0.706341  1
