# generated using pymatgen
data_Sc8Zn(Si5Tc4)3
_symmetry_space_group_name_H-M   'P 1'
_cell_length_a   6.65772712
_cell_length_b   6.65109391
_cell_length_c   12.35117668
_cell_angle_alpha   90.09219885
_cell_angle_beta   89.88398969
_cell_angle_gamma   90.15807845
_symmetry_Int_Tables_number   1
_chemical_formula_structural   Sc8Zn(Si5Tc4)3
_chemical_formula_sum   'Sc8 Zn1 Si15 Tc12'
_cell_volume   546.92062737
_cell_formula_units_Z   1
loop_
 _symmetry_equiv_pos_site_id
 _symmetry_equiv_pos_as_xyz
  1  'x, y, z'
loop_
 _atom_site_type_symbol
 _atom_site_label
 _atom_site_symmetry_multiplicity
 _atom_site_fract_x
 _atom_site_fract_y
 _atom_site_fract_z
 _atom_site_occupancy
  Sc  Sc0  1  0.003624  0.659036  0.030352  1
  Sc  Sc1  1  0.997332  0.343602  0.530419  1
  Sc  Sc2  1  0.345345  0.998119  0.470070  1
  Sc  Sc3  1  0.159376  0.496810  0.779903  1
  Sc  Sc4  1  0.839899  0.503683  0.279025  1
  Sc  Sc5  1  0.496201  0.159804  0.220412  1
  Sc  Sc6  1  0.504742  0.842337  0.718599  1
  Sc  Sc7  1  0.657581  0.003774  0.969632  1
  Zn  Zn8  1  0.030003  0.719844  0.432834  1
  Si  Si9  1  0.628200  0.308087  0.434109  1
  Si  Si10  1  0.376386  0.693710  0.934072  1
  Si  Si11  1  0.194538  0.122064  0.683829  1
  Si  Si12  1  0.302191  0.622668  0.565462  1
  Si  Si13  1  0.694075  0.375458  0.066157  1
  Si  Si14  1  0.806022  0.875062  0.183585  1
  Si  Si15  1  0.123340  0.192996  0.317325  1
  Si  Si16  1  0.970749  0.282863  0.934289  1
  Si  Si17  1  0.724798  0.025476  0.563994  1
  Si  Si18  1  0.215387  0.470883  0.184886  1
  Si  Si19  1  0.780637  0.527812  0.685783  1
  Si  Si20  1  0.470913  0.217351  0.815117  1
  Si  Si21  1  0.527805  0.784574  0.315762  1
  Si  Si22  1  0.283507  0.971428  0.065152  1
  Si  Si23  1  0.875253  0.804875  0.818665  1
  Tc  Tc24  1  0.657975  0.670984  0.504321  1
  Tc  Tc25  1  0.171166  0.835685  0.242750  1
  Tc  Tc26  1  0.330497  0.331047  0.999629  1
  Tc  Tc27  1  0.017513  0.819074  0.637055  1
  Tc  Tc28  1  0.979012  0.177811  0.128163  1
  Tc  Tc29  1  0.817670  0.022090  0.367816  1
  Tc  Tc30  1  0.333356  0.477406  0.375217  1
  Tc  Tc31  1  0.676681  0.520406  0.880668  1
  Tc  Tc32  1  0.479839  0.320951  0.621045  1
  Tc  Tc33  1  0.520538  0.673840  0.121059  1
  Tc  Tc34  1  0.175880  0.978885  0.872153  1
  Tc  Tc35  1  0.831965  0.169502  0.750691  1
