# generated using pymatgen
data_Zr4GaRe6Os
_symmetry_space_group_name_H-M   'P 1'
_cell_length_a   5.25404200
_cell_length_b   5.25404263
_cell_length_c   8.76605700
_cell_angle_alpha   90.00000000
_cell_angle_beta   90.00000000
_cell_angle_gamma   120.00000860
_symmetry_Int_Tables_number   1
_chemical_formula_structural   Zr4GaRe6Os
_chemical_formula_sum   'Zr4 Ga1 Re6 Os1'
_cell_volume   209.56657569
_cell_formula_units_Z   1
loop_
 _symmetry_equiv_pos_site_id
 _symmetry_equiv_pos_as_xyz
  1  'x, y, z'
loop_
 _atom_site_type_symbol
 _atom_site_label
 _atom_site_symmetry_multiplicity
 _atom_site_fract_x
 _atom_site_fract_y
 _atom_site_fract_z
 _atom_site_occupancy
  Zr  Zr0  1  0.333333  0.666667  0.429558  1
  Zr  Zr1  1  0.666667  0.333333  0.570442  1
  Zr  Zr2  1  0.666667  0.333333  0.939615  1
  Zr  Zr3  1  0.333333  0.666667  0.060385  1
  Ga  Ga4  1  0.000000  0.000000  0.500000  1
  Re  Re5  1  0.829075  0.170925  0.250826  1
  Re  Re6  1  0.829075  0.658152  0.250826  1
  Re  Re7  1  0.341848  0.170925  0.250826  1
  Re  Re8  1  0.170925  0.829075  0.749174  1
  Re  Re9  1  0.170925  0.341848  0.749174  1
  Re  Re10  1  0.658152  0.829075  0.749174  1
  Os  Os11  1  0.000000  0.000000  0.000000  1
