# generated using pymatgen
data_Yb5Cd3(GeO4)4
_symmetry_space_group_name_H-M   'P 1'
_cell_length_a   5.26166887
_cell_length_b   6.68982148
_cell_length_c   11.42337555
_cell_angle_alpha   90.03729014
_cell_angle_beta   90.08279035
_cell_angle_gamma   89.88896413
_symmetry_Int_Tables_number   1
_chemical_formula_structural   Yb5Cd3(GeO4)4
_chemical_formula_sum   'Yb5 Cd3 Ge4 O16'
_cell_volume   402.09728106
_cell_formula_units_Z   1
loop_
 _symmetry_equiv_pos_site_id
 _symmetry_equiv_pos_as_xyz
  1  'x, y, z'
loop_
 _atom_site_type_symbol
 _atom_site_label
 _atom_site_symmetry_multiplicity
 _atom_site_fract_x
 _atom_site_fract_y
 _atom_site_fract_z
 _atom_site_occupancy
  Yb  Yb0  1  0.493751  0.750768  0.777362  1
  Yb  Yb1  1  0.993285  0.250514  0.722046  1
  Yb  Yb2  1  0.506249  0.249232  0.222638  1
  Yb  Yb3  1  0.006715  0.749486  0.277954  1
  Yb  Yb4  1  0.500000  0.500000  0.500000  1
  Cd  Cd5  1  0.000000  0.500000  0.000000  1
  Cd  Cd6  1  0.500000  0.000000  0.500000  1
  Cd  Cd7  1  0.000000  0.000000  0.000000  1
  Ge  Ge8  1  0.928850  0.749903  0.596828  1
  Ge  Ge9  1  0.429333  0.249994  0.902717  1
  Ge  Ge10  1  0.071150  0.250097  0.403172  1
  Ge  Ge11  1  0.570667  0.750006  0.097283  1
  O  O12  1  0.223346  0.460292  0.336651  1
  O  O13  1  0.718603  0.539725  0.166366  1
  O  O14  1  0.779774  0.960114  0.665810  1
  O  O15  1  0.280573  0.039814  0.834217  1
  O  O16  1  0.776654  0.539708  0.663349  1
  O  O17  1  0.281397  0.460275  0.833634  1
  O  O18  1  0.220226  0.039886  0.334190  1
  O  O19  1  0.719427  0.960186  0.165783  1
  O  O20  1  0.788279  0.750727  0.452148  1
  O  O21  1  0.288794  0.250283  0.047490  1
  O  O22  1  0.211721  0.249273  0.547852  1
  O  O23  1  0.711206  0.749717  0.952510  1
  O  O24  1  0.235269  0.750106  0.097990  1
  O  O25  1  0.735970  0.256338  0.403402  1
  O  O26  1  0.764731  0.249894  0.902010  1
  O  O27  1  0.264030  0.743662  0.596598  1
