# generated using pymatgen
data_LaNdFe5(PIr)7
_symmetry_space_group_name_H-M   'P 1'
_cell_length_a   9.41054002
_cell_length_b   9.40744672
_cell_length_c   3.88984200
_cell_angle_alpha   90.00000000
_cell_angle_beta   90.00000000
_cell_angle_gamma   119.82093655
_symmetry_Int_Tables_number   1
_chemical_formula_structural   LaNdFe5(PIr)7
_chemical_formula_sum   'La1 Nd1 Fe5 P7 Ir7'
_cell_volume   298.76499127
_cell_formula_units_Z   1
loop_
 _symmetry_equiv_pos_site_id
 _symmetry_equiv_pos_as_xyz
  1  'x, y, z'
loop_
 _atom_site_type_symbol
 _atom_site_label
 _atom_site_symmetry_multiplicity
 _atom_site_fract_x
 _atom_site_fract_y
 _atom_site_fract_z
 _atom_site_occupancy
  La  La0  1  0.663698  0.329252  0.000000  1
  Nd  Nd1  1  0.333388  0.666353  0.500000  1
  Fe  Fe2  1  0.261143  0.102608  0.000000  1
  Fe  Fe3  1  0.844268  0.736713  0.000000  1
  Fe  Fe4  1  0.893300  0.160603  0.000000  1
  Fe  Fe5  1  0.790429  0.912229  0.500000  1
  Fe  Fe6  1  0.124050  0.214288  0.500000  1
  P  P7  1  0.300614  0.893237  0.000000  1
  P  P8  1  0.597154  0.704485  0.000000  1
  P  P9  1  0.109203  0.402582  0.000000  1
  P  P10  1  0.385595  0.277859  0.500000  1
  P  P11  1  0.881878  0.603924  0.500000  1
  P  P12  1  0.726079  0.110623  0.500000  1
  P  P13  1  0.997419  0.003075  0.000000  1
  Ir  Ir14  1  0.063165  0.637317  0.000000  1
  Ir  Ir15  1  0.573952  0.937547  0.000000  1
  Ir  Ir16  1  0.365417  0.426337  0.000000  1
  Ir  Ir17  1  0.436322  0.053566  0.500000  1
  Ir  Ir18  1  0.616537  0.566159  0.500000  1
  Ir  Ir19  1  0.950198  0.386437  0.500000  1
  Ir  Ir20  1  0.086195  0.874804  0.500000  1
