# generated using pymatgen
data_Ta8Al6W2C
_symmetry_space_group_name_H-M   'P 1'
_cell_length_a   7.77656600
_cell_length_b   7.77656538
_cell_length_c   5.21215800
_cell_angle_alpha   90.00000000
_cell_angle_beta   90.00000000
_cell_angle_gamma   120.00000262
_symmetry_Int_Tables_number   1
_chemical_formula_structural   Ta8Al6W2C
_chemical_formula_sum   'Ta8 Al6 W2 C1'
_cell_volume   272.97563358
_cell_formula_units_Z   1
loop_
 _symmetry_equiv_pos_site_id
 _symmetry_equiv_pos_as_xyz
  1  'x, y, z'
loop_
 _atom_site_type_symbol
 _atom_site_label
 _atom_site_symmetry_multiplicity
 _atom_site_fract_x
 _atom_site_fract_y
 _atom_site_fract_z
 _atom_site_occupancy
  Ta  Ta0  1  0.666667  0.333333  0.000000  1
  Ta  Ta1  1  0.333333  0.666667  0.000000  1
  Ta  Ta2  1  0.000000  0.768164  0.245169  1
  Ta  Ta3  1  0.231836  0.231836  0.245169  1
  Ta  Ta4  1  0.768164  0.000000  0.245169  1
  Ta  Ta5  1  0.000000  0.231836  0.754831  1
  Ta  Ta6  1  0.768164  0.768164  0.754831  1
  Ta  Ta7  1  0.231836  0.000000  0.754831  1
  Al  Al8  1  0.000000  0.407174  0.258269  1
  Al  Al9  1  0.592826  0.592826  0.258269  1
  Al  Al10  1  0.407174  0.000000  0.258269  1
  Al  Al11  1  0.000000  0.592826  0.741731  1
  Al  Al12  1  0.407174  0.407174  0.741731  1
  Al  Al13  1  0.592826  0.000000  0.741731  1
  W  W14  1  0.333333  0.666667  0.500000  1
  W  W15  1  0.666667  0.333333  0.500000  1
  C  C16  1  0.000000  0.000000  0.500000  1
