# generated using pymatgen
data_Hf2Fe2Si4Tc
_symmetry_space_group_name_H-M   'P 1'
_cell_length_a   9.75332832
_cell_length_b   9.73927608
_cell_length_c   13.04383188
_cell_angle_alpha   53.67757100
_cell_angle_beta   53.70019194
_cell_angle_gamma   31.09490812
_symmetry_Int_Tables_number   1
_chemical_formula_structural   Hf2Fe2Si4Tc
_chemical_formula_sum   'Hf8 Fe8 Si16 Tc4'
_cell_volume   504.75569521
_cell_formula_units_Z   4
loop_
 _symmetry_equiv_pos_site_id
 _symmetry_equiv_pos_as_xyz
  1  'x, y, z'
loop_
 _atom_site_type_symbol
 _atom_site_label
 _atom_site_symmetry_multiplicity
 _atom_site_fract_x
 _atom_site_fract_y
 _atom_site_fract_z
 _atom_site_occupancy
  Hf  Hf0  1  0.289947  0.568588  0.643124  1
  Hf  Hf1  1  0.429520  0.714895  0.854321  1
  Hf  Hf2  1  0.708492  0.433264  0.357692  1
  Hf  Hf3  1  0.566698  0.292412  0.142160  1
  Hf  Hf4  1  0.040040  0.296186  0.636005  1
  Hf  Hf5  1  0.702645  0.961156  0.861158  1
  Hf  Hf6  1  0.962146  0.707411  0.358893  1
  Hf  Hf7  1  0.294595  0.039476  0.140738  1
  Fe  Fe8  1  0.653013  0.825604  0.276039  1
  Fe  Fe9  1  0.173850  0.348561  0.221474  1
  Fe  Fe10  1  0.764557  0.475660  0.069509  1
  Fe  Fe11  1  0.824792  0.647004  0.785268  1
  Fe  Fe12  1  0.898021  0.147587  0.581777  1
  Fe  Fe13  1  0.851174  0.106321  0.919011  1
  Fe  Fe14  1  0.103879  0.857967  0.414620  1
  Fe  Fe15  1  0.139872  0.896450  0.085390  1
  Si  Si16  1  0.887124  0.119142  0.245656  1
  Si  Si17  1  0.110873  0.888975  0.750676  1
  Si  Si18  1  0.381594  0.625613  0.244947  1
  Si  Si19  1  0.622827  0.376385  0.750609  1
  Si  Si20  1  0.962196  0.260157  0.897734  1
  Si  Si21  1  0.750037  0.035493  0.602566  1
  Si  Si22  1  0.031518  0.741110  0.107480  1
  Si  Si23  1  0.259064  0.968414  0.391567  1
  Si  Si24  1  0.580904  0.075935  0.068584  1
  Si  Si25  1  0.923842  0.422005  0.429268  1
  Si  Si26  1  0.431480  0.899878  0.943090  1
  Si  Si27  1  0.071334  0.588178  0.567159  1
  Si  Si28  1  0.392282  0.138874  0.390344  1
  Si  Si29  1  0.858052  0.607013  0.108592  1
  Si  Si30  1  0.611376  0.856561  0.602337  1
  Si  Si31  1  0.132738  0.389843  0.898596  1
  Tc  Tc32  1  0.240326  0.513499  0.938372  1
  Tc  Tc33  1  0.484007  0.755511  0.561323  1
  Tc  Tc34  1  0.514934  0.247563  0.430943  1
  Tc  Tc35  1  0.350250  0.171312  0.722981  1
