# generated using pymatgen
data_Ac8Dy11ErPb16
_symmetry_space_group_name_H-M   'P 1'
_cell_length_a   8.51519400
_cell_length_b   8.55960664
_cell_length_c   16.26245800
_cell_angle_alpha   90.00000000
_cell_angle_beta   90.00000000
_cell_angle_gamma   90.06579948
_symmetry_Int_Tables_number   1
_chemical_formula_structural   Ac8Dy11ErPb16
_chemical_formula_sum   'Ac8 Dy11 Er1 Pb16'
_cell_volume   1185.31629706
_cell_formula_units_Z   1
loop_
 _symmetry_equiv_pos_site_id
 _symmetry_equiv_pos_as_xyz
  1  'x, y, z'
loop_
 _atom_site_type_symbol
 _atom_site_label
 _atom_site_symmetry_multiplicity
 _atom_site_fract_x
 _atom_site_fract_y
 _atom_site_fract_z
 _atom_site_occupancy
  Ac  Ac0  1  0.521791  0.322822  0.903821  1
  Ac  Ac1  1  0.022075  0.177037  0.596089  1
  Ac  Ac2  1  0.478070  0.677182  0.403586  1
  Ac  Ac3  1  0.978018  0.823149  0.096329  1
  Ac  Ac4  1  0.478070  0.677182  0.096414  1
  Ac  Ac5  1  0.978018  0.823149  0.403671  1
  Ac  Ac6  1  0.521791  0.322822  0.596179  1
  Ac  Ac7  1  0.022075  0.177037  0.903911  1
  Dy  Dy8  1  0.362191  0.843168  0.876752  1
  Dy  Dy9  1  0.862233  0.656910  0.623470  1
  Dy  Dy10  1  0.637518  0.156560  0.376437  1
  Dy  Dy11  1  0.137983  0.343091  0.123670  1
  Dy  Dy12  1  0.637518  0.156560  0.123563  1
  Dy  Dy13  1  0.137983  0.343091  0.376330  1
  Dy  Dy14  1  0.362191  0.843168  0.623248  1
  Dy  Dy15  1  0.862233  0.656910  0.876530  1
  Dy  Dy16  1  0.197527  0.505163  0.750000  1
  Dy  Dy17  1  0.697531  0.994872  0.750000  1
  Dy  Dy18  1  0.802504  0.494840  0.250000  1
  Er  Er19  1  0.302401  0.005462  0.250000  1
  Pb  Pb20  1  0.303459  0.045634  0.046212  1
  Pb  Pb21  1  0.803648  0.454198  0.454109  1
  Pb  Pb22  1  0.696405  0.954276  0.545723  1
  Pb  Pb23  1  0.196409  0.545675  0.954289  1
  Pb  Pb24  1  0.696405  0.954276  0.954277  1
  Pb  Pb25  1  0.196409  0.545675  0.545711  1
  Pb  Pb26  1  0.303459  0.045634  0.453788  1
  Pb  Pb27  1  0.803648  0.454198  0.045891  1
  Pb  Pb28  1  0.557285  0.635432  0.750000  1
  Pb  Pb29  1  0.057604  0.865005  0.750000  1
  Pb  Pb30  1  0.442486  0.364341  0.250000  1
  Pb  Pb31  1  0.943390  0.134664  0.250000  1
  Pb  Pb32  1  0.333569  0.144973  0.750000  1
  Pb  Pb33  1  0.833835  0.354708  0.750000  1
  Pb  Pb34  1  0.665831  0.854957  0.250000  1
  Pb  Pb35  1  0.166433  0.646181  0.250000  1
