# generated using pymatgen
data_Tb4Ge3Bi3Rh7
_symmetry_space_group_name_H-M   'P 1'
_cell_length_a   7.53051367
_cell_length_b   7.53051415
_cell_length_c   7.63269600
_cell_angle_alpha   109.74632483
_cell_angle_beta   109.74632615
_cell_angle_gamma   109.19472592
_symmetry_Int_Tables_number   1
_chemical_formula_structural   Tb4Ge3Bi3Rh7
_chemical_formula_sum   'Tb4 Ge3 Bi3 Rh7'
_cell_volume   332.06224291
_cell_formula_units_Z   1
loop_
 _symmetry_equiv_pos_site_id
 _symmetry_equiv_pos_as_xyz
  1  'x, y, z'
loop_
 _atom_site_type_symbol
 _atom_site_label
 _atom_site_symmetry_multiplicity
 _atom_site_fract_x
 _atom_site_fract_y
 _atom_site_fract_z
 _atom_site_occupancy
  Tb  Tb0  1  0.000000  0.000000  0.554736  1
  Tb  Tb1  1  0.000000  0.471960  0.983222  1
  Tb  Tb2  1  0.471960  0.000000  0.983222  1
  Tb  Tb3  1  0.528040  0.528040  0.511263  1
  Ge  Ge4  1  0.339831  0.339831  0.007993  1
  Ge  Ge5  1  0.660169  0.000000  0.668162  1
  Ge  Ge6  1  0.000000  0.660169  0.668162  1
  Bi  Bi7  1  0.705277  0.705277  0.013727  1
  Bi  Bi8  1  0.294723  0.000000  0.308450  1
  Bi  Bi9  1  0.000000  0.294723  0.308450  1
  Rh  Rh10  1  0.750316  0.251404  0.510061  1
  Rh  Rh11  1  0.748596  0.498912  0.258658  1
  Rh  Rh12  1  0.501088  0.249684  0.759746  1
  Rh  Rh13  1  0.249684  0.501088  0.759746  1
  Rh  Rh14  1  0.251404  0.750316  0.510061  1
  Rh  Rh15  1  0.498912  0.748596  0.258658  1
  Rh  Rh16  1  0.000000  0.000000  0.935687  1
