# generated using pymatgen
data_La5Nd7(Si7Br3)2
_symmetry_space_group_name_H-M   'P 1'
_cell_length_a   4.10269000
_cell_length_b   11.86188900
_cell_length_c   16.63840200
_cell_angle_alpha   90.00000000
_cell_angle_beta   90.00000000
_cell_angle_gamma   90.00000000
_symmetry_Int_Tables_number   1
_chemical_formula_structural   La5Nd7(Si7Br3)2
_chemical_formula_sum   'La5 Nd7 Si14 Br6'
_cell_volume   809.71870455
_cell_formula_units_Z   1
loop_
 _symmetry_equiv_pos_site_id
 _symmetry_equiv_pos_as_xyz
  1  'x, y, z'
loop_
 _atom_site_type_symbol
 _atom_site_label
 _atom_site_symmetry_multiplicity
 _atom_site_fract_x
 _atom_site_fract_y
 _atom_site_fract_z
 _atom_site_occupancy
  La  La0  1  0.000000  0.662362  0.000000  1
  La  La1  1  0.500000  0.066833  0.878905  1
  La  La2  1  0.000000  0.933630  0.620720  1
  La  La3  1  0.500000  0.066833  0.121095  1
  La  La4  1  0.000000  0.933630  0.379280  1
  Nd  Nd5  1  0.500000  0.341147  0.500000  1
  Nd  Nd6  1  0.500000  0.360696  0.757146  1
  Nd  Nd7  1  0.000000  0.637859  0.741347  1
  Nd  Nd8  1  0.500000  0.360696  0.242854  1
  Nd  Nd9  1  0.000000  0.637859  0.258653  1
  Nd  Nd10  1  0.500000  0.359692  0.000000  1
  Nd  Nd11  1  0.000000  0.640750  0.500000  1
  Si  Si12  1  0.000000  0.156372  0.000000  1
  Si  Si13  1  0.500000  0.844103  0.500000  1
  Si  Si14  1  0.500000  0.567839  0.875980  1
  Si  Si15  1  0.000000  0.430307  0.623079  1
  Si  Si16  1  0.500000  0.567839  0.124020  1
  Si  Si17  1  0.000000  0.430307  0.376921  1
  Si  Si18  1  0.000000  0.257169  0.874197  1
  Si  Si19  1  0.500000  0.742845  0.625490  1
  Si  Si20  1  0.000000  0.257169  0.125803  1
  Si  Si21  1  0.500000  0.742845  0.374510  1
  Si  Si22  1  0.000000  0.460003  0.876809  1
  Si  Si23  1  0.500000  0.539567  0.622263  1
  Si  Si24  1  0.500000  0.539567  0.377737  1
  Si  Si25  1  0.000000  0.460003  0.123191  1
  Br  Br26  1  0.500000  0.113022  0.691717  1
  Br  Br27  1  0.000000  0.885905  0.808409  1
  Br  Br28  1  0.000000  0.139502  0.500000  1
  Br  Br29  1  0.500000  0.864719  0.000000  1
  Br  Br30  1  0.500000  0.113022  0.308283  1
  Br  Br31  1  0.000000  0.885905  0.191591  1
