# generated using pymatgen
data_TbNp3O8
_symmetry_space_group_name_H-M   'P 1'
_cell_length_a   6.58610260
_cell_length_b   6.58610296
_cell_length_c   6.58610235
_cell_angle_alpha   131.80267125
_cell_angle_beta   131.80266880
_cell_angle_gamma   70.54086763
_symmetry_Int_Tables_number   1
_chemical_formula_structural   TbNp3O8
_chemical_formula_sum   'Tb1 Np3 O8'
_cell_volume   155.54131197
_cell_formula_units_Z   1
loop_
 _symmetry_equiv_pos_site_id
 _symmetry_equiv_pos_as_xyz
  1  'x, y, z'
loop_
 _atom_site_type_symbol
 _atom_site_label
 _atom_site_symmetry_multiplicity
 _atom_site_fract_x
 _atom_site_fract_y
 _atom_site_fract_z
 _atom_site_occupancy
  Tb  Tb0  1  0.000000  0.000000  0.000000  1
  Np  Np1  1  0.250000  0.750000  0.500000  1
  Np  Np2  1  0.500000  0.500000  0.000000  1
  Np  Np3  1  0.750000  0.250000  0.500000  1
  O  O4  1  0.618397  0.618397  0.491243  1
  O  O5  1  0.872846  0.381603  0.000000  1
  O  O6  1  0.127154  0.127154  0.508757  1
  O  O7  1  0.381603  0.872846  0.000000  1
  O  O8  1  0.381603  0.381603  0.508757  1
  O  O9  1  0.618397  0.127154  0.000000  1
  O  O10  1  0.872846  0.872846  0.491243  1
  O  O11  1  0.127154  0.618397  0.000000  1
