# generated using pymatgen
data_Sc(S8I)3
_symmetry_space_group_name_H-M   'P 1'
_cell_length_a   16.48432168
_cell_length_b   16.48432167
_cell_length_c   16.48432144
_cell_angle_alpha   119.36651315
_cell_angle_beta   119.36651359
_cell_angle_gamma   119.36651316
_symmetry_Int_Tables_number   1
_chemical_formula_structural   Sc(S8I)3
_chemical_formula_sum   'Sc1 S24 I3'
_cell_volume   925.31536074
_cell_formula_units_Z   1
loop_
 _symmetry_equiv_pos_site_id
 _symmetry_equiv_pos_as_xyz
  1  'x, y, z'
loop_
 _atom_site_type_symbol
 _atom_site_label
 _atom_site_symmetry_multiplicity
 _atom_site_fract_x
 _atom_site_fract_y
 _atom_site_fract_z
 _atom_site_occupancy
  Sc  Sc0  1  0.563670  0.563670  0.563670  1
  S  S1  1  0.811627  0.522946  0.522946  1
  S  S2  1  0.522946  0.522946  0.811627  1
  S  S3  1  0.522946  0.811627  0.522946  1
  S  S4  1  0.206797  0.326202  0.597110  1
  S  S5  1  0.410454  0.991714  0.410454  1
  S  S6  1  0.410454  0.410454  0.991714  1
  S  S7  1  0.991714  0.410454  0.410454  1
  S  S8  1  0.127539  0.724479  0.246610  1
  S  S9  1  0.246610  0.127539  0.724479  1
  S  S10  1  0.724479  0.246610  0.127539  1
  S  S11  1  0.724479  0.127539  0.246610  1
  S  S12  1  0.246610  0.724479  0.127539  1
  S  S13  1  0.127539  0.246610  0.724479  1
  S  S14  1  0.382396  0.901351  0.550857  1
  S  S15  1  0.550857  0.382396  0.901351  1
  S  S16  1  0.901351  0.550857  0.382396  1
  S  S17  1  0.901351  0.382396  0.550857  1
  S  S18  1  0.550857  0.901351  0.382396  1
  S  S19  1  0.382396  0.550857  0.901351  1
  S  S20  1  0.206797  0.597110  0.326202  1
  S  S21  1  0.326202  0.206797  0.597110  1
  S  S22  1  0.597110  0.326202  0.206797  1
  S  S23  1  0.597110  0.206797  0.326202  1
  S  S24  1  0.326202  0.597110  0.206797  1
  I  I25  1  0.965079  0.099862  0.099862  1
  I  I26  1  0.099862  0.099862  0.965079  1
  I  I27  1  0.099862  0.965079  0.099862  1
