# generated using pymatgen
data_Pr8Cd2CoOs
_symmetry_space_group_name_H-M   'P 1'
_cell_length_a   9.94495429
_cell_length_b   9.94495493
_cell_length_c   9.88373300
_cell_angle_alpha   60.20343669
_cell_angle_beta   60.20343459
_cell_angle_gamma   60.48501741
_symmetry_Int_Tables_number   1
_chemical_formula_structural   Pr8Cd2CoOs
_chemical_formula_sum   'Pr16 Cd4 Co2 Os2'
_cell_volume   695.85169919
_cell_formula_units_Z   2
loop_
 _symmetry_equiv_pos_site_id
 _symmetry_equiv_pos_as_xyz
  1  'x, y, z'
loop_
 _atom_site_type_symbol
 _atom_site_label
 _atom_site_symmetry_multiplicity
 _atom_site_fract_x
 _atom_site_fract_y
 _atom_site_fract_z
 _atom_site_occupancy
  Pr  Pr0  1  0.344569  0.344569  0.350163  1
  Pr  Pr1  1  0.344569  0.344569  0.960699  1
  Pr  Pr2  1  0.342779  0.960618  0.348301  1
  Pr  Pr3  1  0.960618  0.342779  0.348301  1
  Pr  Pr4  1  0.812556  0.191306  0.190117  1
  Pr  Pr5  1  0.191306  0.812556  0.806021  1
  Pr  Pr6  1  0.191306  0.812556  0.190117  1
  Pr  Pr7  1  0.812556  0.191306  0.806021  1
  Pr  Pr8  1  0.190777  0.190777  0.809223  1
  Pr  Pr9  1  0.808988  0.808988  0.191012  1
  Pr  Pr10  1  0.940948  0.562710  0.557087  1
  Pr  Pr11  1  0.562710  0.940948  0.939254  1
  Pr  Pr12  1  0.562710  0.940948  0.557087  1
  Pr  Pr13  1  0.940948  0.562710  0.939254  1
  Pr  Pr14  1  0.558841  0.558841  0.941159  1
  Pr  Pr15  1  0.938547  0.938547  0.561453  1
  Cd  Cd16  1  0.578877  0.578877  0.578999  1
  Cd  Cd17  1  0.578877  0.578877  0.263244  1
  Cd  Cd18  1  0.579513  0.261926  0.579280  1
  Cd  Cd19  1  0.261926  0.579513  0.579280  1
  Co  Co20  1  0.138335  0.138335  0.140783  1
  Co  Co21  1  0.138335  0.138335  0.582544  1
  Os  Os22  1  0.137651  0.581749  0.140299  1
  Os  Os23  1  0.581749  0.137651  0.140299  1
