# generated using pymatgen
data_LaCu3NiPt
_symmetry_space_group_name_H-M   'P 1'
_cell_length_a   5.27867526
_cell_length_b   5.27867528
_cell_length_c   4.12803700
_cell_angle_alpha   90.00000000
_cell_angle_beta   90.00000000
_cell_angle_gamma   123.65229622
_symmetry_Int_Tables_number   1
_chemical_formula_structural   LaCu3NiPt
_chemical_formula_sum   'La1 Cu3 Ni1 Pt1'
_cell_volume   95.74889788
_cell_formula_units_Z   1
loop_
 _symmetry_equiv_pos_site_id
 _symmetry_equiv_pos_as_xyz
  1  'x, y, z'
loop_
 _atom_site_type_symbol
 _atom_site_label
 _atom_site_symmetry_multiplicity
 _atom_site_fract_x
 _atom_site_fract_y
 _atom_site_fract_z
 _atom_site_occupancy
  La  La0  1  0.502463  0.497537  0.000000  1
  Cu  Cu1  1  0.180938  0.819062  0.000000  1
  Cu  Cu2  1  0.998525  0.499792  0.500000  1
  Cu  Cu3  1  0.500208  0.001475  0.500000  1
  Ni  Ni4  1  0.819952  0.180048  0.000000  1
  Pt  Pt5  1  0.997913  0.002087  0.500000  1
