# generated using pymatgen
data_YbDyTm2Ni13C4
_symmetry_space_group_name_H-M   'P 1'
_cell_length_a   3.84779000
_cell_length_b   8.34552762
_cell_length_c   8.34552701
_cell_angle_alpha   90.99891233
_cell_angle_beta   90.00000000
_cell_angle_gamma   90.00000000
_symmetry_Int_Tables_number   1
_chemical_formula_structural   YbDyTm2Ni13C4
_chemical_formula_sum   'Yb1 Dy1 Tm2 Ni13 C4'
_cell_volume   267.94948136
_cell_formula_units_Z   1
loop_
 _symmetry_equiv_pos_site_id
 _symmetry_equiv_pos_as_xyz
  1  'x, y, z'
loop_
 _atom_site_type_symbol
 _atom_site_label
 _atom_site_symmetry_multiplicity
 _atom_site_fract_x
 _atom_site_fract_y
 _atom_site_fract_z
 _atom_site_occupancy
  Yb  Yb0  1  0.500000  0.652662  0.652662  1
  Dy  Dy1  1  0.500000  0.350110  0.350110  1
  Tm  Tm2  1  0.500000  0.187396  0.812639  1
  Tm  Tm3  1  0.500000  0.812639  0.187396  1
  Ni  Ni4  1  0.500000  0.001165  0.500186  1
  Ni  Ni5  1  0.500000  0.500186  0.001165  1
  Ni  Ni6  1  0.000000  0.000934  0.000934  1
  Ni  Ni7  1  0.000000  0.782903  0.427683  1
  Ni  Ni8  1  0.000000  0.214074  0.570570  1
  Ni  Ni9  1  0.000000  0.570570  0.214074  1
  Ni  Ni10  1  0.000000  0.427683  0.782903  1
  Ni  Ni11  1  0.000000  0.928146  0.711223  1
  Ni  Ni12  1  0.000000  0.073198  0.291440  1
  Ni  Ni13  1  0.000000  0.291440  0.073198  1
  Ni  Ni14  1  0.000000  0.711223  0.928146  1
  Ni  Ni15  1  0.500000  0.875960  0.875960  1
  Ni  Ni16  1  0.500000  0.123422  0.123422  1
  C  C17  1  0.000000  0.555749  0.442525  1
  C  C18  1  0.000000  0.442525  0.555749  1
  C  C19  1  0.000000  0.997332  0.500682  1
  C  C20  1  0.000000  0.500682  0.997332  1
