# generated using pymatgen
data_Ta4Si4IrRh3
_symmetry_space_group_name_H-M   'P 1'
_cell_length_a   3.78254000
_cell_length_b   6.42750108
_cell_length_c   7.34104253
_cell_angle_alpha   90.11223942
_cell_angle_beta   90.00000000
_cell_angle_gamma   90.00000000
_symmetry_Int_Tables_number   1
_chemical_formula_structural   Ta4Si4IrRh3
_chemical_formula_sum   'Ta4 Si4 Ir1 Rh3'
_cell_volume   178.47713843
_cell_formula_units_Z   1
loop_
 _symmetry_equiv_pos_site_id
 _symmetry_equiv_pos_as_xyz
  1  'x, y, z'
loop_
 _atom_site_type_symbol
 _atom_site_label
 _atom_site_symmetry_multiplicity
 _atom_site_fract_x
 _atom_site_fract_y
 _atom_site_fract_z
 _atom_site_occupancy
  Ta  Ta0  1  0.250000  0.525692  0.671930  1
  Ta  Ta1  1  0.750000  0.474019  0.327915  1
  Ta  Ta2  1  0.250000  0.025044  0.826635  1
  Ta  Ta3  1  0.750000  0.975016  0.173435  1
  Si  Si4  1  0.250000  0.267338  0.124637  1
  Si  Si5  1  0.750000  0.732149  0.876619  1
  Si  Si6  1  0.250000  0.766594  0.374173  1
  Si  Si7  1  0.750000  0.233370  0.624859  1
  Ir  Ir8  1  0.750000  0.854880  0.563671  1
  Rh  Rh9  1  0.250000  0.145301  0.435880  1
  Rh  Rh10  1  0.750000  0.355283  0.936189  1
  Rh  Rh11  1  0.250000  0.645314  0.064058  1
