# generated using pymatgen
data_La2Mg3InIr18
_symmetry_space_group_name_H-M   'P 1'
_cell_length_a   8.94733795
_cell_length_b   8.94733795
_cell_length_c   5.11843900
_cell_angle_alpha   90.00000000
_cell_angle_beta   90.00000000
_cell_angle_gamma   89.89227749
_symmetry_Int_Tables_number   1
_chemical_formula_structural   La2Mg3InIr18
_chemical_formula_sum   'La2 Mg3 In1 Ir18'
_cell_volume   409.75517520
_cell_formula_units_Z   1
loop_
 _symmetry_equiv_pos_site_id
 _symmetry_equiv_pos_as_xyz
  1  'x, y, z'
loop_
 _atom_site_type_symbol
 _atom_site_label
 _atom_site_symmetry_multiplicity
 _atom_site_fract_x
 _atom_site_fract_y
 _atom_site_fract_z
 _atom_site_occupancy
  La  La0  1  0.499402  0.499758  0.000000  1
  La  La1  1  0.000242  0.000598  0.000000  1
  Mg  Mg2  1  0.616922  0.117119  0.000000  1
  Mg  Mg3  1  0.382881  0.883078  0.000000  1
  Mg  Mg4  1  0.119351  0.380649  0.000000  1
  In  In5  1  0.882603  0.617397  0.000000  1
  Ir  Ir6  1  0.500157  0.999843  0.500000  1
  Ir  Ir7  1  0.999832  0.500168  0.500000  1
  Ir  Ir8  1  0.702569  0.555702  0.500000  1
  Ir  Ir9  1  0.294391  0.442524  0.500000  1
  Ir  Ir10  1  0.206655  0.943121  0.500000  1
  Ir  Ir11  1  0.793803  0.058166  0.500000  1
  Ir  Ir12  1  0.441834  0.706197  0.500000  1
  Ir  Ir13  1  0.556879  0.293345  0.500000  1
  Ir  Ir14  1  0.057476  0.205609  0.500000  1
  Ir  Ir15  1  0.944298  0.797431  0.500000  1
  Ir  Ir16  1  0.818726  0.317605  0.760070  1
  Ir  Ir17  1  0.182395  0.681274  0.760070  1
  Ir  Ir18  1  0.318936  0.181064  0.760638  1
  Ir  Ir19  1  0.680297  0.819703  0.759306  1
  Ir  Ir20  1  0.182395  0.681274  0.239930  1
  Ir  Ir21  1  0.818726  0.317605  0.239930  1
  Ir  Ir22  1  0.680297  0.819703  0.240694  1
  Ir  Ir23  1  0.318936  0.181064  0.239362  1
