# generated using pymatgen
data_Yb3Th5(Pt2Pb)4
_symmetry_space_group_name_H-M   'P 1'
_cell_length_a   8.09350770
_cell_length_b   8.09350770
_cell_length_c   7.37123900
_cell_angle_alpha   90.00000000
_cell_angle_beta   90.00000000
_cell_angle_gamma   90.46172260
_symmetry_Int_Tables_number   1
_chemical_formula_structural   Yb3Th5(Pt2Pb)4
_chemical_formula_sum   'Yb3 Th5 Pt8 Pb4'
_cell_volume   482.83635118
_cell_formula_units_Z   1
loop_
 _symmetry_equiv_pos_site_id
 _symmetry_equiv_pos_as_xyz
  1  'x, y, z'
loop_
 _atom_site_type_symbol
 _atom_site_label
 _atom_site_symmetry_multiplicity
 _atom_site_fract_x
 _atom_site_fract_y
 _atom_site_fract_z
 _atom_site_occupancy
  Yb  Yb0  1  0.662501  0.662501  0.500000  1
  Yb  Yb1  1  0.840703  0.158087  0.000000  1
  Yb  Yb2  1  0.158087  0.840703  0.000000  1
  Th  Th3  1  0.677042  0.677042  0.000000  1
  Th  Th4  1  0.342886  0.342886  0.500000  1
  Th  Th5  1  0.824569  0.173124  0.500000  1
  Th  Th6  1  0.324745  0.324745  0.000000  1
  Th  Th7  1  0.173124  0.824569  0.500000  1
  Pt  Pt8  1  0.873360  0.873360  0.733383  1
  Pt  Pt9  1  0.132114  0.132114  0.733287  1
  Pt  Pt10  1  0.627385  0.369146  0.766441  1
  Pt  Pt11  1  0.627385  0.369146  0.233559  1
  Pt  Pt12  1  0.369146  0.627385  0.233559  1
  Pt  Pt13  1  0.132114  0.132114  0.266713  1
  Pt  Pt14  1  0.873360  0.873360  0.266617  1
  Pt  Pt15  1  0.369146  0.627385  0.766441  1
  Pb  Pb16  1  0.502012  0.994155  0.751430  1
  Pb  Pb17  1  0.502012  0.994155  0.248570  1
  Pb  Pb18  1  0.994155  0.502012  0.751430  1
  Pb  Pb19  1  0.994155  0.502012  0.248570  1
