# generated using pymatgen
data_RbTm10(C2I9)2
_symmetry_space_group_name_H-M   'P 1'
_cell_length_a   11.38521142
_cell_length_b   11.38710714
_cell_length_c   11.42648156
_cell_angle_alpha   113.54459533
_cell_angle_beta   86.71629985
_cell_angle_gamma   119.97832401
_symmetry_Int_Tables_number   1
_chemical_formula_structural   RbTm10(C2I9)2
_chemical_formula_sum   'Rb1 Tm10 C4 I18'
_cell_volume   1157.32083948
_cell_formula_units_Z   1
loop_
 _symmetry_equiv_pos_site_id
 _symmetry_equiv_pos_as_xyz
  1  'x, y, z'
loop_
 _atom_site_type_symbol
 _atom_site_label
 _atom_site_symmetry_multiplicity
 _atom_site_fract_x
 _atom_site_fract_y
 _atom_site_fract_z
 _atom_site_occupancy
  Rb  Rb0  1  0.500000  0.000000  0.500000  1
  Tm  Tm1  1  0.683930  0.727902  0.715934  1
  Tm  Tm2  1  0.275386  0.350450  0.015444  1
  Tm  Tm3  1  0.092982  0.384525  0.287671  1
  Tm  Tm4  1  0.964629  0.036907  0.321147  1
  Tm  Tm5  1  0.907018  0.615475  0.712329  1
  Tm  Tm6  1  0.102491  0.945244  0.000567  1
  Tm  Tm7  1  0.035371  0.963093  0.678853  1
  Tm  Tm8  1  0.316070  0.272098  0.284066  1
  Tm  Tm9  1  0.724614  0.649550  0.984556  1
  Tm  Tm10  1  0.897509  0.054756  0.999433  1
  C  C11  1  0.150713  0.217475  0.117483  1
  C  C12  1  0.849287  0.782525  0.882517  1
  C  C13  1  0.926491  0.860090  0.805522  1
  C  C14  1  0.073509  0.139910  0.194478  1
  I  I15  1  0.451859  0.531003  0.832909  1
  I  I16  1  0.381745  0.041676  0.157986  1
  I  I17  1  0.779550  0.857273  0.503547  1
  I  I18  1  0.840263  0.308913  0.152921  1
  I  I19  1  0.548141  0.468997  0.167091  1
  I  I20  1  0.220450  0.142727  0.496453  1
  I  I21  1  0.316704  0.096915  0.828903  1
  I  I22  1  0.683296  0.903085  0.171097  1
  I  I23  1  0.972772  0.755134  0.168821  1
  I  I24  1  0.934792  0.296927  0.498169  1
  I  I25  1  0.027228  0.244866  0.831179  1
  I  I26  1  0.065208  0.703073  0.501831  1
  I  I27  1  0.261179  0.620544  0.184791  1
  I  I28  1  0.738821  0.379456  0.815209  1
  I  I29  1  0.645552  0.439124  0.504211  1
  I  I30  1  0.159737  0.691087  0.847079  1
  I  I31  1  0.618255  0.958324  0.842014  1
  I  I32  1  0.354448  0.560876  0.495789  1
