# generated using pymatgen
data_Tb20FeBi8Pt3
_symmetry_space_group_name_H-M   'P 1'
_cell_length_a   8.08937801
_cell_length_b   9.06334800
_cell_length_c   12.49099448
_cell_angle_alpha   90.00000000
_cell_angle_beta   89.98110384
_cell_angle_gamma   90.00000000
_symmetry_Int_Tables_number   1
_chemical_formula_structural   Tb20FeBi8Pt3
_chemical_formula_sum   'Tb20 Fe1 Bi8 Pt3'
_cell_volume   915.80029422
_cell_formula_units_Z   1
loop_
 _symmetry_equiv_pos_site_id
 _symmetry_equiv_pos_as_xyz
  1  'x, y, z'
loop_
 _atom_site_type_symbol
 _atom_site_label
 _atom_site_symmetry_multiplicity
 _atom_site_fract_x
 _atom_site_fract_y
 _atom_site_fract_z
 _atom_site_occupancy
  Tb  Tb0  1  0.837846  0.750000  0.786567  1
  Tb  Tb1  1  0.159628  0.250000  0.211757  1
  Tb  Tb2  1  0.342232  0.250000  0.708595  1
  Tb  Tb3  1  0.651550  0.750000  0.300475  1
  Tb  Tb4  1  0.379462  0.750000  0.693083  1
  Tb  Tb5  1  0.628094  0.250000  0.300338  1
  Tb  Tb6  1  0.870817  0.250000  0.800014  1
  Tb  Tb7  1  0.127673  0.750000  0.198700  1
  Tb  Tb8  1  0.947523  0.750000  0.500167  1
  Tb  Tb9  1  0.050792  0.250000  0.499342  1
  Tb  Tb10  1  0.450158  0.250000  0.001802  1
  Tb  Tb11  1  0.551811  0.750000  0.000946  1
  Tb  Tb12  1  0.676167  0.031462  0.563685  1
  Tb  Tb13  1  0.322884  0.948890  0.436608  1
  Tb  Tb14  1  0.181609  0.955363  0.931233  1
  Tb  Tb15  1  0.322884  0.551110  0.436608  1
  Tb  Tb16  1  0.821263  0.044962  0.067277  1
  Tb  Tb17  1  0.676167  0.468538  0.563685  1
  Tb  Tb18  1  0.821263  0.455038  0.067277  1
  Tb  Tb19  1  0.181609  0.544637  0.931233  1
  Fe  Fe20  1  0.573080  0.750000  0.513074  1
  Bi  Bi21  1  0.569957  0.490224  0.828196  1
  Bi  Bi22  1  0.429441  0.509753  0.173146  1
  Bi  Bi23  1  0.070051  0.508353  0.672447  1
  Bi  Bi24  1  0.429441  0.990247  0.173146  1
  Bi  Bi25  1  0.929305  0.491738  0.327473  1
  Bi  Bi26  1  0.569957  0.009776  0.828196  1
  Bi  Bi27  1  0.929305  0.008262  0.327473  1
  Bi  Bi28  1  0.070051  0.991647  0.672447  1
  Pt  Pt29  1  0.425734  0.250000  0.487449  1
  Pt  Pt30  1  0.073780  0.250000  0.988319  1
  Pt  Pt31  1  0.928464  0.750000  0.009241  1
