# generated using pymatgen
data_Zn11Co(Mo3N)4
_symmetry_space_group_name_H-M   'P 1'
_cell_length_a   8.01493571
_cell_length_b   8.01493581
_cell_length_c   8.01920057
_cell_angle_alpha   60.01765012
_cell_angle_beta   60.01762807
_cell_angle_gamma   60.00001436
_symmetry_Int_Tables_number   1
_chemical_formula_structural   Zn11Co(Mo3N)4
_chemical_formula_sum   'Zn11 Co1 Mo12 N4'
_cell_volume   364.36105810
_cell_formula_units_Z   1
loop_
 _symmetry_equiv_pos_site_id
 _symmetry_equiv_pos_as_xyz
  1  'x, y, z'
loop_
 _atom_site_type_symbol
 _atom_site_label
 _atom_site_symmetry_multiplicity
 _atom_site_fract_x
 _atom_site_fract_y
 _atom_site_fract_z
 _atom_site_occupancy
  Zn  Zn0  1  0.415581  0.415581  0.418098  1
  Zn  Zn1  1  0.750737  0.415582  0.418099  1
  Zn  Zn2  1  0.415582  0.750737  0.418099  1
  Zn  Zn3  1  0.834259  0.834259  0.497223  1
  Zn  Zn4  1  0.835118  0.835118  0.833468  1
  Zn  Zn5  1  0.496299  0.835117  0.833466  1
  Zn  Zn6  1  0.835117  0.496299  0.833466  1
  Zn  Zn7  1  0.624996  0.624996  0.125013  1
  Zn  Zn8  1  0.620759  0.620759  0.628895  1
  Zn  Zn9  1  0.129586  0.620759  0.628896  1
  Zn  Zn10  1  0.620759  0.129586  0.628896  1
  Co  Co11  1  0.414267  0.414267  0.757200  1
  Mo  Mo12  1  0.811077  0.189669  0.188176  1
  Mo  Mo13  1  0.189669  0.811077  0.188176  1
  Mo  Mo14  1  0.811078  0.811078  0.188176  1
  Mo  Mo15  1  0.193107  0.806044  0.807742  1
  Mo  Mo16  1  0.806044  0.193107  0.807742  1
  Mo  Mo17  1  0.193107  0.193107  0.807742  1
  Mo  Mo18  1  0.437700  0.066324  0.058277  1
  Mo  Mo19  1  0.066324  0.437700  0.058277  1
  Mo  Mo20  1  0.437700  0.437700  0.058276  1
  Mo  Mo21  1  0.061016  0.440031  0.437936  1
  Mo  Mo22  1  0.440031  0.061016  0.437936  1
  Mo  Mo23  1  0.061016  0.061016  0.437936  1
  N  N24  1  0.123613  0.123613  0.629162  1
  N  N25  1  0.124569  0.124569  0.124543  1
  N  N26  1  0.626319  0.124569  0.124543  1
  N  N27  1  0.124569  0.626319  0.124543  1
