# generated using pymatgen
data_Y4Tm2NbCo17P12
_symmetry_space_group_name_H-M   'P 1'
_cell_length_a   3.69804100
_cell_length_b   10.56790000
_cell_length_c   12.26085100
_cell_angle_alpha   90.00000000
_cell_angle_beta   90.00000000
_cell_angle_gamma   90.00000000
_symmetry_Int_Tables_number   1
_chemical_formula_structural   Y4Tm2NbCo17P12
_chemical_formula_sum   'Y4 Tm2 Nb1 Co17 P12'
_cell_volume   479.16052448
_cell_formula_units_Z   1
loop_
 _symmetry_equiv_pos_site_id
 _symmetry_equiv_pos_as_xyz
  1  'x, y, z'
loop_
 _atom_site_type_symbol
 _atom_site_label
 _atom_site_symmetry_multiplicity
 _atom_site_fract_x
 _atom_site_fract_y
 _atom_site_fract_z
 _atom_site_occupancy
  Y  Y0  1  0.000000  0.500000  0.527240  1
  Y  Y1  1  0.500000  0.000000  0.477970  1
  Y  Y2  1  0.500000  0.819395  0.206842  1
  Y  Y3  1  0.500000  0.180605  0.206842  1
  Tm  Tm4  1  0.000000  0.682386  0.796095  1
  Tm  Tm5  1  0.000000  0.317614  0.796095  1
  Nb  Nb6  1  0.500000  0.500000  0.154563  1
  Co  Co7  1  0.000000  0.000000  0.838399  1
  Co  Co8  1  0.500000  0.500000  0.703139  1
  Co  Co9  1  0.000000  0.000000  0.296294  1
  Co  Co10  1  0.000000  0.500000  0.983156  1
  Co  Co11  1  0.500000  0.000000  0.012806  1
  Co  Co12  1  0.500000  0.330086  0.988025  1
  Co  Co13  1  0.500000  0.669914  0.988025  1
  Co  Co14  1  0.000000  0.164220  0.002858  1
  Co  Co15  1  0.000000  0.835780  0.002858  1
  Co  Co16  1  0.500000  0.295288  0.434017  1
  Co  Co17  1  0.500000  0.704712  0.434017  1
  Co  Co18  1  0.000000  0.202669  0.570971  1
  Co  Co19  1  0.000000  0.797331  0.570971  1
  Co  Co20  1  0.500000  0.879094  0.708936  1
  Co  Co21  1  0.500000  0.120906  0.708936  1
  Co  Co22  1  0.000000  0.622619  0.295010  1
  Co  Co23  1  0.000000  0.377381  0.295010  1
  P  P24  1  0.500000  0.500000  0.879999  1
  P  P25  1  0.000000  0.000000  0.116017  1
  P  P26  1  0.500000  0.500000  0.355625  1
  P  P27  1  0.000000  0.000000  0.656197  1
  P  P28  1  0.500000  0.309888  0.618944  1
  P  P29  1  0.500000  0.690112  0.618944  1
  P  P30  1  0.000000  0.188709  0.386340  1
  P  P31  1  0.000000  0.811291  0.386340  1
  P  P32  1  0.500000  0.850281  0.889341  1
  P  P33  1  0.500000  0.149719  0.889341  1
  P  P34  1  0.000000  0.660516  0.101918  1
  P  P35  1  0.000000  0.339484  0.101918  1
