# generated using pymatgen
data_Tb12GaGe7Ru8
_symmetry_space_group_name_H-M   'P 1'
_cell_length_a   5.59743100
_cell_length_b   7.74583646
_cell_length_c   13.59063888
_cell_angle_alpha   89.84157266
_cell_angle_beta   90.00000000
_cell_angle_gamma   90.00000000
_symmetry_Int_Tables_number   1
_chemical_formula_structural   Tb12GaGe7Ru8
_chemical_formula_sum   'Tb12 Ga1 Ge7 Ru8'
_cell_volume   589.24415738
_cell_formula_units_Z   1
loop_
 _symmetry_equiv_pos_site_id
 _symmetry_equiv_pos_as_xyz
  1  'x, y, z'
loop_
 _atom_site_type_symbol
 _atom_site_label
 _atom_site_symmetry_multiplicity
 _atom_site_fract_x
 _atom_site_fract_y
 _atom_site_fract_z
 _atom_site_occupancy
  Tb  Tb0  1  0.847066  0.904604  0.598794  1
  Tb  Tb1  1  0.151264  0.402301  0.901548  1
  Tb  Tb2  1  0.848919  0.597325  0.098354  1
  Tb  Tb3  1  0.628519  0.266756  0.749470  1
  Tb  Tb4  1  0.628519  0.233244  0.250530  1
  Tb  Tb5  1  0.847066  0.595396  0.401206  1
  Tb  Tb6  1  0.371550  0.733855  0.249908  1
  Tb  Tb7  1  0.151264  0.097699  0.098452  1
  Tb  Tb8  1  0.152106  0.097250  0.401441  1
  Tb  Tb9  1  0.371550  0.766145  0.750092  1
  Tb  Tb10  1  0.152106  0.402750  0.598559  1
  Tb  Tb11  1  0.848919  0.902675  0.901646  1
  Ga  Ga12  1  0.365898  0.750000  0.500000  1
  Ge  Ge13  1  0.374156  0.750000  0.000000  1
  Ge  Ge14  1  0.125840  0.112440  0.750516  1
  Ge  Ge15  1  0.627765  0.250000  0.500000  1
  Ge  Ge16  1  0.125840  0.387560  0.249484  1
  Ge  Ge17  1  0.874332  0.886116  0.249509  1
  Ge  Ge18  1  0.874332  0.613884  0.750491  1
  Ge  Ge19  1  0.626243  0.250000  0.000000  1
  Ru  Ru20  1  0.353262  0.034319  0.908557  1
  Ru  Ru21  1  0.353262  0.465681  0.091443  1
  Ru  Ru22  1  0.646396  0.965949  0.091636  1
  Ru  Ru23  1  0.646396  0.534051  0.908364  1
  Ru  Ru24  1  0.648990  0.967628  0.407520  1
  Ru  Ru25  1  0.648990  0.532372  0.592480  1
  Ru  Ru26  1  0.354724  0.463981  0.407171  1
  Ru  Ru27  1  0.354724  0.036019  0.592829  1
