# generated using pymatgen
data_Pr16Dy(LuGa4)3
_symmetry_space_group_name_H-M   'P 1'
_cell_length_a   7.80818400
_cell_length_b   7.80818400
_cell_length_c   14.77352900
_cell_angle_alpha   90.00000000
_cell_angle_beta   90.00000000
_cell_angle_gamma   90.00000000
_symmetry_Int_Tables_number   1
_chemical_formula_structural   Pr16Dy(LuGa4)3
_chemical_formula_sum   'Pr16 Dy1 Lu3 Ga12'
_cell_volume   900.70863622
_cell_formula_units_Z   1
loop_
 _symmetry_equiv_pos_site_id
 _symmetry_equiv_pos_as_xyz
  1  'x, y, z'
loop_
 _atom_site_type_symbol
 _atom_site_label
 _atom_site_symmetry_multiplicity
 _atom_site_fract_x
 _atom_site_fract_y
 _atom_site_fract_z
 _atom_site_occupancy
  Pr  Pr0  1  0.813817  0.839462  0.604307  1
  Pr  Pr1  1  0.182952  0.838823  0.103655  1
  Pr  Pr2  1  0.161036  0.815925  0.395597  1
  Pr  Pr3  1  0.838964  0.184075  0.395597  1
  Pr  Pr4  1  0.684075  0.661036  0.395597  1
  Pr  Pr5  1  0.660538  0.313817  0.604307  1
  Pr  Pr6  1  0.339462  0.686183  0.604307  1
  Pr  Pr7  1  0.661177  0.682952  0.103655  1
  Pr  Pr8  1  0.685937  0.340805  0.896150  1
  Pr  Pr9  1  0.840805  0.814063  0.896150  1
  Pr  Pr10  1  0.315925  0.338964  0.395597  1
  Pr  Pr11  1  0.186183  0.160538  0.604307  1
  Pr  Pr12  1  0.817048  0.161177  0.103655  1
  Pr  Pr13  1  0.314063  0.659195  0.896150  1
  Pr  Pr14  1  0.338823  0.317048  0.103655  1
  Pr  Pr15  1  0.159195  0.185937  0.896150  1
  Dy  Dy16  1  0.500000  0.000000  0.781295  1
  Lu  Lu17  1  0.000000  0.500000  0.723744  1
  Lu  Lu18  1  0.000000  0.500000  0.225620  1
  Lu  Lu19  1  0.500000  0.000000  0.272541  1
  Ga  Ga20  1  0.622059  0.377566  0.249452  1
  Ga  Ga21  1  0.120192  0.877282  0.749707  1
  Ga  Ga22  1  0.377282  0.379808  0.749707  1
  Ga  Ga23  1  0.377941  0.622434  0.249452  1
  Ga  Ga24  1  0.877566  0.877941  0.249452  1
  Ga  Ga25  1  0.622718  0.620192  0.749707  1
  Ga  Ga26  1  0.000000  0.500000  0.514478  1
  Ga  Ga27  1  0.879808  0.122718  0.749707  1
  Ga  Ga28  1  0.500000  0.000000  0.482255  1
  Ga  Ga29  1  0.500000  0.000000  0.989362  1
  Ga  Ga30  1  0.122434  0.122059  0.249452  1
  Ga  Ga31  1  0.000000  0.500000  0.015231  1
