# generated using pymatgen
data_Tb7Sm(Si3Ir)4
_symmetry_space_group_name_H-M   'P 1'
_cell_length_a   8.19203000
_cell_length_b   8.19203079
_cell_length_c   7.99360500
_cell_angle_alpha   90.00000000
_cell_angle_beta   90.00000000
_cell_angle_gamma   119.99999681
_symmetry_Int_Tables_number   1
_chemical_formula_structural   Tb7Sm(Si3Ir)4
_chemical_formula_sum   'Tb7 Sm1 Si12 Ir4'
_cell_volume   464.57564618
_cell_formula_units_Z   1
loop_
 _symmetry_equiv_pos_site_id
 _symmetry_equiv_pos_as_xyz
  1  'x, y, z'
loop_
 _atom_site_type_symbol
 _atom_site_label
 _atom_site_symmetry_multiplicity
 _atom_site_fract_x
 _atom_site_fract_y
 _atom_site_fract_z
 _atom_site_occupancy
  Tb  Tb0  1  0.000000  0.000000  0.250000  1
  Tb  Tb1  1  0.491876  0.508124  0.750000  1
  Tb  Tb2  1  0.491876  0.983754  0.750000  1
  Tb  Tb3  1  0.016246  0.508124  0.750000  1
  Tb  Tb4  1  0.508186  0.491814  0.250000  1
  Tb  Tb5  1  0.983627  0.491814  0.250000  1
  Tb  Tb6  1  0.508186  0.016373  0.250000  1
  Sm  Sm7  1  0.000000  0.000000  0.750000  1
  Si  Si8  1  0.832885  0.167115  0.002872  1
  Si  Si9  1  0.832885  0.665770  0.002872  1
  Si  Si10  1  0.334230  0.167115  0.002872  1
  Si  Si11  1  0.832885  0.167115  0.497128  1
  Si  Si12  1  0.832885  0.665770  0.497128  1
  Si  Si13  1  0.334230  0.167115  0.497128  1
  Si  Si14  1  0.167120  0.832880  0.500508  1
  Si  Si15  1  0.665760  0.832880  0.500508  1
  Si  Si16  1  0.167120  0.334240  0.500508  1
  Si  Si17  1  0.167120  0.832880  0.999492  1
  Si  Si18  1  0.665760  0.832880  0.999492  1
  Si  Si19  1  0.167120  0.334240  0.999492  1
  Ir  Ir20  1  0.666667  0.333333  0.968936  1
  Ir  Ir21  1  0.666667  0.333333  0.531064  1
  Ir  Ir22  1  0.333333  0.666667  0.468414  1
  Ir  Ir23  1  0.333333  0.666667  0.031586  1
