# generated using pymatgen
data_Yb3U(NiAs)4
_symmetry_space_group_name_H-M   'P 1'
_cell_length_a   4.05045000
_cell_length_b   4.05045085
_cell_length_c   15.66441300
_cell_angle_alpha   90.00000000
_cell_angle_beta   90.00000000
_cell_angle_gamma   120.00000940
_symmetry_Int_Tables_number   1
_chemical_formula_structural   Yb3U(NiAs)4
_chemical_formula_sum   'Yb3 U1 Ni4 As4'
_cell_volume   222.56217538
_cell_formula_units_Z   1
loop_
 _symmetry_equiv_pos_site_id
 _symmetry_equiv_pos_as_xyz
  1  'x, y, z'
loop_
 _atom_site_type_symbol
 _atom_site_label
 _atom_site_symmetry_multiplicity
 _atom_site_fract_x
 _atom_site_fract_y
 _atom_site_fract_z
 _atom_site_occupancy
  Yb  Yb0  1  0.000000  0.000000  0.750000  1
  Yb  Yb1  1  0.000000  0.000000  0.000176  1
  Yb  Yb2  1  0.000000  0.000000  0.499824  1
  U  U3  1  0.000000  0.000000  0.250000  1
  Ni  Ni4  1  0.333333  0.666667  0.152630  1
  Ni  Ni5  1  0.666667  0.333333  0.878562  1
  Ni  Ni6  1  0.666667  0.333333  0.621438  1
  Ni  Ni7  1  0.333333  0.666667  0.347370  1
  As  As8  1  0.333333  0.666667  0.623026  1
  As  As9  1  0.666667  0.333333  0.374830  1
  As  As10  1  0.666667  0.333333  0.125170  1
  As  As11  1  0.333333  0.666667  0.876974  1
