# generated using pymatgen
data_Pr12CoIr(RhBr6)2
_symmetry_space_group_name_H-M   'P 1'
_cell_length_a   10.50855682
_cell_length_b   10.50855614
_cell_length_c   10.50012769
_cell_angle_alpha   109.40353677
_cell_angle_beta   109.40353499
_cell_angle_gamma   109.43408921
_symmetry_Int_Tables_number   1
_chemical_formula_structural   Pr12CoIr(RhBr6)2
_chemical_formula_sum   'Pr12 Co1 Ir1 Rh2 Br12'
_cell_volume   894.49912021
_cell_formula_units_Z   1
loop_
 _symmetry_equiv_pos_site_id
 _symmetry_equiv_pos_as_xyz
  1  'x, y, z'
loop_
 _atom_site_type_symbol
 _atom_site_label
 _atom_site_symmetry_multiplicity
 _atom_site_fract_x
 _atom_site_fract_y
 _atom_site_fract_z
 _atom_site_occupancy
  Pr  Pr0  1  0.465258  0.478844  0.236578  1
  Pr  Pr1  1  0.749193  0.234814  0.264508  1
  Pr  Pr2  1  0.749067  0.014770  0.484207  1
  Pr  Pr3  1  0.236635  0.465153  0.478695  1
  Pr  Pr4  1  0.265186  0.750807  0.235492  1
  Pr  Pr5  1  0.034847  0.263365  0.021305  1
  Pr  Pr6  1  0.021156  0.034742  0.263422  1
  Pr  Pr7  1  0.485230  0.750933  0.015793  1
  Pr  Pr8  1  0.479348  0.236047  0.465185  1
  Pr  Pr9  1  0.015116  0.484884  0.750000  1
  Pr  Pr10  1  0.263953  0.020652  0.034815  1
  Pr  Pr11  1  0.235294  0.264706  0.750000  1
  Co  Co12  1  0.249321  0.250679  0.250000  1
  Ir  Ir13  1  0.500030  0.999970  0.250000  1
  Rh  Rh14  1  0.000933  0.250619  0.500989  1
  Rh  Rh15  1  0.249381  0.499067  0.999011  1
  Br  Br16  1  0.249454  0.754129  0.744995  1
  Br  Br17  1  0.510015  0.504209  0.754423  1
  Br  Br18  1  0.989137  0.745133  0.995349  1
  Br  Br19  1  0.745871  0.250546  0.755005  1
  Br  Br20  1  0.995791  0.989985  0.745577  1
  Br  Br21  1  0.249508  0.994568  0.505255  1
  Br  Br22  1  0.754867  0.510863  0.504651  1
  Br  Br23  1  0.505432  0.250492  0.994745  1
  Br  Br24  1  0.754592  0.745408  0.250000  1
  Br  Br25  1  0.745654  0.995308  0.989298  1
  Br  Br26  1  0.995040  0.504960  0.250000  1
  Br  Br27  1  0.504692  0.754346  0.510702  1
