# generated using pymatgen
data_Ta5Nb5Si5Au
_symmetry_space_group_name_H-M   'P 1'
_cell_length_a   7.58978589
_cell_length_b   7.58635940
_cell_length_c   7.59229059
_cell_angle_alpha   127.84970283
_cell_angle_beta   127.86228704
_cell_angle_gamma   76.84322039
_symmetry_Int_Tables_number   1
_chemical_formula_structural   Ta5Nb5Si5Au
_chemical_formula_sum   'Ta5 Nb5 Si5 Au1'
_cell_volume   264.62470983
_cell_formula_units_Z   1
loop_
 _symmetry_equiv_pos_site_id
 _symmetry_equiv_pos_as_xyz
  1  'x, y, z'
loop_
 _atom_site_type_symbol
 _atom_site_label
 _atom_site_symmetry_multiplicity
 _atom_site_fract_x
 _atom_site_fract_y
 _atom_site_fract_z
 _atom_site_occupancy
  Ta  Ta0  1  0.305102  0.478074  0.486077  1
  Ta  Ta1  1  0.478831  0.992327  0.173740  1
  Ta  Ta2  1  0.818350  0.305393  0.826459  1
  Ta  Ta3  1  0.998288  0.998412  0.000326  1
  Ta  Ta4  1  0.501946  0.501874  0.999766  1
  Nb  Nb5  1  0.021999  0.194753  0.513997  1
  Nb  Nb6  1  0.680924  0.507726  0.485560  1
  Nb  Nb7  1  0.508959  0.022994  0.827514  1
  Nb  Nb8  1  0.195309  0.680965  0.172462  1
  Nb  Nb9  1  0.991706  0.818656  0.514506  1
  Si  Si10  1  0.249731  0.249718  0.000428  1
  Si  Si11  1  0.369575  0.130127  0.499874  1
  Si  Si12  1  0.630150  0.869735  0.499851  1
  Si  Si13  1  0.869725  0.369816  0.239625  1
  Si  Si14  1  0.130356  0.630158  0.760481  1
  Au  Au15  1  0.749048  0.749273  0.999332  1
