# generated using pymatgen
data_Tb12Pr8Sn11Bi5
_symmetry_space_group_name_H-M   'P 1'
_cell_length_a   8.24827955
_cell_length_b   8.28372941
_cell_length_c   15.65322600
_cell_angle_alpha   90.10191711
_cell_angle_beta   90.13980322
_cell_angle_gamma   89.94858890
_symmetry_Int_Tables_number   1
_chemical_formula_structural   Tb12Pr8Sn11Bi5
_chemical_formula_sum   'Tb12 Pr8 Sn11 Bi5'
_cell_volume   1069.52509297
_cell_formula_units_Z   1
loop_
 _symmetry_equiv_pos_site_id
 _symmetry_equiv_pos_as_xyz
  1  'x, y, z'
loop_
 _atom_site_type_symbol
 _atom_site_label
 _atom_site_symmetry_multiplicity
 _atom_site_fract_x
 _atom_site_fract_y
 _atom_site_fract_z
 _atom_site_occupancy
  Tb  Tb0  1  0.371196  0.839051  0.875771  1
  Tb  Tb1  1  0.873957  0.660842  0.623983  1
  Tb  Tb2  1  0.625801  0.160734  0.375797  1
  Tb  Tb3  1  0.124047  0.338567  0.124139  1
  Tb  Tb4  1  0.631581  0.164805  0.124144  1
  Tb  Tb5  1  0.133443  0.336705  0.377973  1
  Tb  Tb6  1  0.365072  0.837742  0.622646  1
  Tb  Tb7  1  0.868877  0.658389  0.876538  1
  Tb  Tb8  1  0.201722  0.500881  0.745801  1
  Tb  Tb9  1  0.701108  0.999934  0.749039  1
  Tb  Tb10  1  0.798666  0.499304  0.247729  1
  Tb  Tb11  1  0.298857  0.000298  0.253489  1
  Pr  Pr12  1  0.535540  0.327808  0.896836  1
  Pr  Pr13  1  0.034631  0.176556  0.601867  1
  Pr  Pr14  1  0.465928  0.677425  0.398348  1
  Pr  Pr15  1  0.967911  0.820308  0.104263  1
  Pr  Pr16  1  0.474011  0.673859  0.102812  1
  Pr  Pr17  1  0.977736  0.822709  0.398912  1
  Pr  Pr18  1  0.522010  0.323301  0.600599  1
  Pr  Pr19  1  0.028952  0.180206  0.897004  1
  Sn  Sn20  1  0.209215  0.536919  0.543363  1
  Sn  Sn21  1  0.290633  0.036465  0.456773  1
  Sn  Sn22  1  0.788973  0.464155  0.043734  1
  Sn  Sn23  1  0.567568  0.627374  0.749278  1
  Sn  Sn24  1  0.066314  0.874606  0.751927  1
  Sn  Sn25  1  0.431583  0.374180  0.249306  1
  Sn  Sn26  1  0.932060  0.125491  0.251201  1
  Sn  Sn27  1  0.336242  0.142771  0.750958  1
  Sn  Sn28  1  0.834618  0.356942  0.748530  1
  Sn  Sn29  1  0.665833  0.857499  0.250752  1
  Sn  Sn30  1  0.166256  0.640727  0.250073  1
  Bi  Bi31  1  0.287535  0.034412  0.044318  1
  Bi  Bi32  1  0.789487  0.464030  0.456496  1
  Bi  Bi33  1  0.709720  0.963993  0.542920  1
  Bi  Bi34  1  0.210761  0.535894  0.956377  1
  Bi  Bi35  1  0.712155  0.965117  0.956303  1
