# generated using pymatgen
data_Dy10Si5As
_symmetry_space_group_name_H-M   'P 1'
_cell_length_a   8.45475312
_cell_length_b   8.45477803
_cell_length_c   6.34015200
_cell_angle_alpha   90.00045898
_cell_angle_beta   90.00017824
_cell_angle_gamma   120.08080930
_symmetry_Int_Tables_number   1
_chemical_formula_structural   Dy10Si5As
_chemical_formula_sum   'Dy10 Si5 As1'
_cell_volume   392.17438600
_cell_formula_units_Z   1
loop_
 _symmetry_equiv_pos_site_id
 _symmetry_equiv_pos_as_xyz
  1  'x, y, z'
loop_
 _atom_site_type_symbol
 _atom_site_label
 _atom_site_symmetry_multiplicity
 _atom_site_fract_x
 _atom_site_fract_y
 _atom_site_fract_z
 _atom_site_occupancy
  Dy  Dy0  1  0.668948  0.333032  0.998868  1
  Dy  Dy1  1  0.333033  0.668947  0.998868  1
  Dy  Dy2  1  0.243069  0.996757  0.249998  1
  Dy  Dy3  1  0.996756  0.243069  0.249996  1
  Dy  Dy4  1  0.758201  0.758200  0.250007  1
  Dy  Dy5  1  0.668926  0.333013  0.501132  1
  Dy  Dy6  1  0.333013  0.668926  0.501132  1
  Dy  Dy7  1  0.756083  0.000182  0.749996  1
  Dy  Dy8  1  0.000183  0.756084  0.749998  1
  Dy  Dy9  1  0.243055  0.243056  0.750008  1
  Si  Si10  1  0.606273  0.999850  0.250005  1
  Si  Si11  1  0.999849  0.606272  0.250006  1
  Si  Si12  1  0.607194  0.607195  0.749993  1
  Si  Si13  1  0.393722  0.000855  0.750002  1
  Si  Si14  1  0.000856  0.393724  0.750002  1
  As  As15  1  0.390836  0.390836  0.249988  1
