# generated using pymatgen
data_YbY6BI12
_symmetry_space_group_name_H-M   'P 1'
_cell_length_a   9.67692790
_cell_length_b   9.67692703
_cell_length_c   9.67692743
_cell_angle_alpha   106.96304122
_cell_angle_beta   106.96303559
_cell_angle_gamma   106.96304228
_symmetry_Int_Tables_number   1
_chemical_formula_structural   YbY6BI12
_chemical_formula_sum   'Yb1 Y6 B1 I12'
_cell_volume   755.43146762
_cell_formula_units_Z   1
loop_
 _symmetry_equiv_pos_site_id
 _symmetry_equiv_pos_as_xyz
  1  'x, y, z'
loop_
 _atom_site_type_symbol
 _atom_site_label
 _atom_site_symmetry_multiplicity
 _atom_site_fract_x
 _atom_site_fract_y
 _atom_site_fract_z
 _atom_site_occupancy
  Yb  Yb0  1  0.500000  0.500000  0.500000  1
  Y  Y1  1  0.711729  0.975338  0.906654  1
  Y  Y2  1  0.975338  0.906654  0.711729  1
  Y  Y3  1  0.093346  0.288271  0.024662  1
  Y  Y4  1  0.288271  0.024662  0.093346  1
  Y  Y5  1  0.906654  0.711729  0.975338  1
  Y  Y6  1  0.024662  0.093346  0.288271  1
  B  B7  1  0.000000  0.000000  0.000000  1
  I  I8  1  0.073231  0.224982  0.682632  1
  I  I9  1  0.377338  0.146959  0.455611  1
  I  I10  1  0.622662  0.853041  0.544389  1
  I  I11  1  0.224982  0.682632  0.073231  1
  I  I12  1  0.775018  0.317368  0.926769  1
  I  I13  1  0.682632  0.073231  0.224982  1
  I  I14  1  0.544389  0.622662  0.853041  1
  I  I15  1  0.853041  0.544389  0.622662  1
  I  I16  1  0.926769  0.775018  0.317368  1
  I  I17  1  0.317368  0.926769  0.775018  1
  I  I18  1  0.455611  0.377338  0.146959  1
  I  I19  1  0.146959  0.455611  0.377338  1
