# generated using pymatgen
data_Hf4CrSi3C
_symmetry_space_group_name_H-M   'P 1'
_cell_length_a   7.70865100
_cell_length_b   7.70865160
_cell_length_c   5.37809400
_cell_angle_alpha   90.00000000
_cell_angle_beta   90.00000000
_cell_angle_gamma   120.00000171
_symmetry_Int_Tables_number   1
_chemical_formula_structural   Hf4CrSi3C
_chemical_formula_sum   'Hf8 Cr2 Si6 C2'
_cell_volume   276.76796126
_cell_formula_units_Z   2
loop_
 _symmetry_equiv_pos_site_id
 _symmetry_equiv_pos_as_xyz
  1  'x, y, z'
loop_
 _atom_site_type_symbol
 _atom_site_label
 _atom_site_symmetry_multiplicity
 _atom_site_fract_x
 _atom_site_fract_y
 _atom_site_fract_z
 _atom_site_occupancy
  Hf  Hf0  1  0.236858  0.000000  0.252643  1
  Hf  Hf1  1  0.763142  0.000000  0.747357  1
  Hf  Hf2  1  0.000000  0.236858  0.252643  1
  Hf  Hf3  1  0.000000  0.763142  0.747357  1
  Hf  Hf4  1  0.763142  0.763142  0.252643  1
  Hf  Hf5  1  0.236858  0.236858  0.747357  1
  Hf  Hf6  1  0.666667  0.333333  0.500000  1
  Hf  Hf7  1  0.333333  0.666667  0.500000  1
  Cr  Cr8  1  0.333333  0.666667  0.000000  1
  Cr  Cr9  1  0.666667  0.333333  0.000000  1
  Si  Si10  1  0.590407  0.000000  0.219244  1
  Si  Si11  1  0.409593  0.000000  0.780756  1
  Si  Si12  1  0.000000  0.590407  0.219244  1
  Si  Si13  1  0.000000  0.409593  0.780756  1
  Si  Si14  1  0.409593  0.409593  0.219244  1
  Si  Si15  1  0.590407  0.590407  0.780756  1
  C  C16  1  0.000000  0.000000  0.000000  1
  C  C17  1  0.000000  0.000000  0.500000  1
