# generated using pymatgen
data_NaCe(ReH9)2
_symmetry_space_group_name_H-M   'P 1'
_cell_length_a   4.88914800
_cell_length_b   4.88914904
_cell_length_c   9.02872900
_cell_angle_alpha   90.00000000
_cell_angle_beta   90.00000000
_cell_angle_gamma   120.00000646
_symmetry_Int_Tables_number   1
_chemical_formula_structural   NaCe(ReH9)2
_chemical_formula_sum   'Na1 Ce1 Re2 H18'
_cell_volume   186.90618887
_cell_formula_units_Z   1
loop_
 _symmetry_equiv_pos_site_id
 _symmetry_equiv_pos_as_xyz
  1  'x, y, z'
loop_
 _atom_site_type_symbol
 _atom_site_label
 _atom_site_symmetry_multiplicity
 _atom_site_fract_x
 _atom_site_fract_y
 _atom_site_fract_z
 _atom_site_occupancy
  Na  Na0  1  0.000000  0.000000  0.000000  1
  Ce  Ce1  1  0.000000  0.000000  0.500000  1
  Re  Re2  1  0.333333  0.666667  0.262178  1
  Re  Re3  1  0.666667  0.333333  0.737822  1
  H  H4  1  0.484787  0.515213  0.392570  1
  H  H5  1  0.484787  0.969574  0.392570  1
  H  H6  1  0.030426  0.515213  0.392570  1
  H  H7  1  0.936816  0.468408  0.874897  1
  H  H8  1  0.136115  0.272229  0.249037  1
  H  H9  1  0.863885  0.136115  0.750963  1
  H  H10  1  0.272229  0.136115  0.750963  1
  H  H11  1  0.727771  0.863885  0.249037  1
  H  H12  1  0.136115  0.863885  0.249037  1
  H  H13  1  0.863885  0.727771  0.750963  1
  H  H14  1  0.468408  0.936816  0.125103  1
  H  H15  1  0.515213  0.484787  0.607430  1
  H  H16  1  0.969574  0.484787  0.607430  1
  H  H17  1  0.063184  0.531592  0.125103  1
  H  H18  1  0.468408  0.531592  0.125103  1
  H  H19  1  0.531592  0.063184  0.874897  1
  H  H20  1  0.531592  0.468408  0.874897  1
  H  H21  1  0.515213  0.030426  0.607430  1
