# generated using pymatgen
data_YbY3(B4Ru)4
_symmetry_space_group_name_H-M   'P 1'
_cell_length_a   3.55262700
_cell_length_b   5.96784827
_cell_length_c   11.53560153
_cell_angle_alpha   89.96522306
_cell_angle_beta   90.00000000
_cell_angle_gamma   90.00000000
_symmetry_Int_Tables_number   1
_chemical_formula_structural   YbY3(B4Ru)4
_chemical_formula_sum   'Yb1 Y3 B16 Ru4'
_cell_volume   244.57245970
_cell_formula_units_Z   1
loop_
 _symmetry_equiv_pos_site_id
 _symmetry_equiv_pos_as_xyz
  1  'x, y, z'
loop_
 _atom_site_type_symbol
 _atom_site_label
 _atom_site_symmetry_multiplicity
 _atom_site_fract_x
 _atom_site_fract_y
 _atom_site_fract_z
 _atom_site_occupancy
  Yb  Yb0  1  0.500000  0.870346  0.649742  1
  Y  Y1  1  0.500000  0.628473  0.150202  1
  Y  Y2  1  0.500000  0.371114  0.848729  1
  Y  Y3  1  0.500000  0.128530  0.350784  1
  B  B4  1  0.000000  0.975761  0.191660  1
  B  B5  1  0.000000  0.024540  0.808035  1
  B  B6  1  0.000000  0.475261  0.308684  1
  B  B7  1  0.000000  0.524614  0.691110  1
  B  B8  1  0.000000  0.788498  0.315268  1
  B  B9  1  0.000000  0.211396  0.684911  1
  B  B10  1  0.000000  0.288313  0.185545  1
  B  B11  1  0.000000  0.712829  0.814084  1
  B  B12  1  0.000000  0.863758  0.470065  1
  B  B13  1  0.000000  0.135705  0.530609  1
  B  B14  1  0.000000  0.363722  0.030353  1
  B  B15  1  0.000000  0.636224  0.969729  1
  B  B16  1  0.000000  0.887801  0.046784  1
  B  B17  1  0.000000  0.111496  0.952982  1
  B  B18  1  0.000000  0.388368  0.454031  1
  B  B19  1  0.000000  0.613565  0.547112  1
  Ru  Ru20  1  0.500000  0.639527  0.408028  1
  Ru  Ru21  1  0.500000  0.360622  0.590876  1
  Ru  Ru22  1  0.500000  0.140008  0.092013  1
  Ru  Ru23  1  0.500000  0.859530  0.908665  1
