# generated using pymatgen
data_Dy2Y5CoI12
_symmetry_space_group_name_H-M   'P 1'
_cell_length_a   9.75513920
_cell_length_b   9.75490645
_cell_length_c   9.75986101
_cell_angle_alpha   106.85887153
_cell_angle_beta   106.88017494
_cell_angle_gamma   106.88119484
_symmetry_Int_Tables_number   1
_chemical_formula_structural   Dy2Y5CoI12
_chemical_formula_sum   'Dy2 Y5 Co1 I12'
_cell_volume   776.12974541
_cell_formula_units_Z   1
loop_
 _symmetry_equiv_pos_site_id
 _symmetry_equiv_pos_as_xyz
  1  'x, y, z'
loop_
 _atom_site_type_symbol
 _atom_site_label
 _atom_site_symmetry_multiplicity
 _atom_site_fract_x
 _atom_site_fract_y
 _atom_site_fract_z
 _atom_site_occupancy
  Dy  Dy0  1  0.907843  0.712209  0.977863  1
  Dy  Dy1  1  0.712162  0.977864  0.907961  1
  Y  Y2  1  0.500078  0.500079  0.500095  1
  Y  Y3  1  0.022153  0.092246  0.288615  1
  Y  Y4  1  0.092200  0.288512  0.022208  1
  Y  Y5  1  0.288542  0.022201  0.092219  1
  Y  Y6  1  0.977794  0.907639  0.711359  1
  Co  Co7  1  0.999270  0.999418  0.999850  1
  I  I8  1  0.160668  0.463498  0.386400  1
  I  I9  1  0.463510  0.386451  0.160666  1
  I  I10  1  0.386471  0.160642  0.463475  1
  I  I11  1  0.839276  0.536512  0.613568  1
  I  I12  1  0.536442  0.613479  0.839010  1
  I  I13  1  0.613524  0.839238  0.536423  1
  I  I14  1  0.677771  0.071817  0.224979  1
  I  I15  1  0.071780  0.224956  0.677746  1
  I  I16  1  0.224998  0.677765  0.071806  1
  I  I17  1  0.322019  0.928265  0.775135  1
  I  I18  1  0.928345  0.775154  0.322342  1
  I  I19  1  0.775154  0.322054  0.928283  1
