# generated using pymatgen
data_AlCu5F18
_symmetry_space_group_name_H-M   'P 1'
_cell_length_a   4.93377600
_cell_length_b   4.93374866
_cell_length_c   13.15859300
_cell_angle_alpha   89.99923838
_cell_angle_beta   89.99964142
_cell_angle_gamma   59.99857911
_symmetry_Int_Tables_number   1
_chemical_formula_structural   AlCu5F18
_chemical_formula_sum   'Al1 Cu5 F18'
_cell_volume   277.38969143
_cell_formula_units_Z   1
loop_
 _symmetry_equiv_pos_site_id
 _symmetry_equiv_pos_as_xyz
  1  'x, y, z'
loop_
 _atom_site_type_symbol
 _atom_site_label
 _atom_site_symmetry_multiplicity
 _atom_site_fract_x
 _atom_site_fract_y
 _atom_site_fract_z
 _atom_site_occupancy
  Al  Al0  1  0.666662  0.666669  0.666295  1
  Cu  Cu1  1  0.999996  0.000011  0.998493  1
  Cu  Cu2  1  0.666657  0.666674  0.166906  1
  Cu  Cu3  1  0.333334  0.333335  0.336939  1
  Cu  Cu4  1  0.999983  0.000010  0.502948  1
  Cu  Cu5  1  0.333323  0.333338  0.828780  1
  F  F6  1  0.333492  0.960371  0.082595  1
  F  F7  1  0.706139  0.333511  0.082592  1
  F  F8  1  0.960343  0.706163  0.082596  1
  F  F9  1  0.375336  0.623674  0.251250  1
  F  F10  1  0.623665  0.001008  0.251245  1
  F  F11  1  0.000995  0.375344  0.251247  1
  F  F12  1  0.667999  0.309141  0.419180  1
  F  F13  1  0.309122  0.022868  0.419180  1
  F  F14  1  0.022868  0.668016  0.419179  1
  F  F15  1  0.705379  0.951641  0.587035  1
  F  F16  1  0.951638  0.342981  0.587035  1
  F  F17  1  0.342978  0.705390  0.587035  1
  F  F18  1  0.627536  0.383206  0.745721  1
  F  F19  1  0.383194  0.989264  0.745718  1
  F  F20  1  0.989245  0.627547  0.745719  1
  F  F21  1  0.044206  0.289653  0.914033  1
  F  F22  1  0.289642  0.666138  0.914038  1
  F  F23  1  0.666135  0.044222  0.914034  1
