# generated using pymatgen
data_Dy4Er3Lu5GaCo5
_symmetry_space_group_name_H-M   'P 1'
_cell_length_a   8.12204668
_cell_length_b   8.11920572
_cell_length_c   8.11953328
_cell_angle_alpha   106.99106531
_cell_angle_beta   110.45384644
_cell_angle_gamma   110.97994848
_symmetry_Int_Tables_number   1
_chemical_formula_structural   Dy4Er3Lu5GaCo5
_chemical_formula_sum   'Dy4 Er3 Lu5 Ga1 Co5'
_cell_volume   411.68629847
_cell_formula_units_Z   1
loop_
 _symmetry_equiv_pos_site_id
 _symmetry_equiv_pos_as_xyz
  1  'x, y, z'
loop_
 _atom_site_type_symbol
 _atom_site_label
 _atom_site_symmetry_multiplicity
 _atom_site_fract_x
 _atom_site_fract_y
 _atom_site_fract_z
 _atom_site_occupancy
  Dy  Dy0  1  0.193028  0.218376  0.410499  1
  Dy  Dy1  1  0.808224  0.783594  0.592474  1
  Dy  Dy2  1  0.192983  0.782686  0.974818  1
  Dy  Dy3  1  0.808252  0.215999  0.024875  1
  Er  Er4  1  0.473949  0.289155  0.185011  1
  Er  Er5  1  0.104724  0.289886  0.815108  1
  Er  Er6  1  0.895651  0.711732  0.184138  1
  Lu  Lu7  1  0.528139  0.712286  0.816164  1
  Lu  Lu8  1  0.304414  0.622105  0.319023  1
  Lu  Lu9  1  0.304342  0.985656  0.682696  1
  Lu  Lu10  1  0.695924  0.378575  0.682345  1
  Lu  Lu11  1  0.695771  0.013819  0.317725  1
  Ga  Ga12  1  0.999856  0.499941  0.500005  1
  Co  Co13  1  0.499537  0.614662  0.112893  1
  Co  Co14  1  0.499729  0.384846  0.883106  1
  Co  Co15  1  0.374825  0.999826  0.375130  1
  Co  Co16  1  0.621524  0.998661  0.622997  1
  Co  Co17  1  0.999128  0.998194  0.000992  1
