# generated using pymatgen
data_Ce4Si(Rh3Au)3
_symmetry_space_group_name_H-M   'P 1'
_cell_length_a   7.30588146
_cell_length_b   7.30588171
_cell_length_c   7.38754800
_cell_angle_alpha   109.69781688
_cell_angle_beta   109.69781758
_cell_angle_gamma   109.24367558
_symmetry_Int_Tables_number   1
_chemical_formula_structural   Ce4Si(Rh3Au)3
_chemical_formula_sum   'Ce4 Si1 Rh9 Au3'
_cell_volume   302.69241050
_cell_formula_units_Z   1
loop_
 _symmetry_equiv_pos_site_id
 _symmetry_equiv_pos_as_xyz
  1  'x, y, z'
loop_
 _atom_site_type_symbol
 _atom_site_label
 _atom_site_symmetry_multiplicity
 _atom_site_fract_x
 _atom_site_fract_y
 _atom_site_fract_z
 _atom_site_occupancy
  Ce  Ce0  1  0.000000  0.000000  0.500000  1
  Ce  Ce1  1  0.036502  0.518251  0.018251  1
  Ce  Ce2  1  0.481749  0.963498  0.981749  1
  Ce  Ce3  1  0.481749  0.518251  0.500000  1
  Si  Si4  1  0.000000  0.000000  0.000000  1
  Rh  Rh5  1  0.246629  0.493257  0.746629  1
  Rh  Rh6  1  0.246629  0.753371  0.500000  1
  Rh  Rh7  1  0.506743  0.753371  0.253371  1
  Rh  Rh8  1  0.731875  0.725374  0.003902  1
  Rh  Rh9  1  0.274626  0.006500  0.278527  1
  Rh  Rh10  1  0.993500  0.268125  0.272027  1
  Rh  Rh11  1  0.274626  0.268125  0.996098  1
  Rh  Rh12  1  0.731875  0.006500  0.727973  1
  Rh  Rh13  1  0.993500  0.725374  0.721473  1
  Au  Au14  1  0.746300  0.253700  0.500000  1
  Au  Au15  1  0.746300  0.492600  0.246300  1
  Au  Au16  1  0.507400  0.253700  0.753700  1
