# generated using pymatgen
data_LiY8Al(SiB4)4
_symmetry_space_group_name_H-M   'P 1'
_cell_length_a   7.15488000
_cell_length_b   7.15488000
_cell_length_c   7.80332900
_cell_angle_alpha   90.00000000
_cell_angle_beta   90.00000000
_cell_angle_gamma   90.00000000
_symmetry_Int_Tables_number   1
_chemical_formula_structural   LiY8Al(SiB4)4
_chemical_formula_sum   'Li1 Y8 Al1 Si4 B16'
_cell_volume   399.47042015
_cell_formula_units_Z   1
loop_
 _symmetry_equiv_pos_site_id
 _symmetry_equiv_pos_as_xyz
  1  'x, y, z'
loop_
 _atom_site_type_symbol
 _atom_site_label
 _atom_site_symmetry_multiplicity
 _atom_site_fract_x
 _atom_site_fract_y
 _atom_site_fract_z
 _atom_site_occupancy
  Li  Li0  1  0.500000  0.500000  0.500000  1
  Y  Y1  1  0.682375  0.183962  0.234929  1
  Y  Y2  1  0.317625  0.816038  0.765071  1
  Y  Y3  1  0.317625  0.816038  0.234929  1
  Y  Y4  1  0.816038  0.682375  0.234929  1
  Y  Y5  1  0.816038  0.682375  0.765071  1
  Y  Y6  1  0.682375  0.183962  0.765071  1
  Y  Y7  1  0.183962  0.317625  0.765071  1
  Y  Y8  1  0.183962  0.317625  0.234929  1
  Al  Al9  1  0.000000  0.000000  0.500000  1
  Si  Si10  1  0.114472  0.617344  0.500000  1
  Si  Si11  1  0.885528  0.382656  0.500000  1
  Si  Si12  1  0.382656  0.114472  0.500000  1
  Si  Si13  1  0.617344  0.885528  0.500000  1
  B  B14  1  0.173871  0.039988  0.000000  1
  B  B15  1  0.826129  0.960012  0.000000  1
  B  B16  1  0.960012  0.173871  0.000000  1
  B  B17  1  0.325918  0.539358  0.000000  1
  B  B18  1  0.039988  0.826129  0.000000  1
  B  B19  1  0.674082  0.460642  0.000000  1
  B  B20  1  0.539358  0.674082  0.000000  1
  B  B21  1  0.460642  0.325918  0.000000  1
  B  B22  1  0.089534  0.588977  0.000000  1
  B  B23  1  0.910466  0.411023  0.000000  1
  B  B24  1  0.411023  0.089534  0.000000  1
  B  B25  1  0.588977  0.910466  0.000000  1
  B  B26  1  0.000000  0.000000  0.164109  1
  B  B27  1  0.000000  0.000000  0.835891  1
  B  B28  1  0.500000  0.500000  0.839034  1
  B  B29  1  0.500000  0.500000  0.160966  1
