# generated using pymatgen
data_TbNdTmGa8Ag3
_symmetry_space_group_name_H-M   'P 1'
_cell_length_a   4.35520468
_cell_length_b   8.40742552
_cell_length_c   8.40742710
_cell_angle_alpha   69.22354538
_cell_angle_beta   74.98870967
_cell_angle_gamma   74.98871032
_symmetry_Int_Tables_number   1
_chemical_formula_structural   TbNdTmGa8Ag3
_chemical_formula_sum   'Tb1 Nd1 Tm1 Ga8 Ag3'
_cell_volume   273.20324620
_cell_formula_units_Z   1
loop_
 _symmetry_equiv_pos_site_id
 _symmetry_equiv_pos_as_xyz
  1  'x, y, z'
loop_
 _atom_site_type_symbol
 _atom_site_label
 _atom_site_symmetry_multiplicity
 _atom_site_fract_x
 _atom_site_fract_y
 _atom_site_fract_z
 _atom_site_occupancy
  Tb  Tb0  1  0.199841  0.800159  0.800159  1
  Nd  Nd1  1  0.500158  0.499842  0.499842  1
  Tm  Tm2  1  0.800528  0.199472  0.199472  1
  Ga  Ga3  1  0.355248  0.360844  0.928661  1
  Ga  Ga4  1  0.644620  0.638492  0.072268  1
  Ga  Ga5  1  0.355248  0.928661  0.360844  1
  Ga  Ga6  1  0.644620  0.072268  0.638492  1
  Ga  Ga7  1  0.160706  0.471377  0.207212  1
  Ga  Ga8  1  0.839845  0.527751  0.792560  1
  Ga  Ga9  1  0.160706  0.207212  0.471377  1
  Ga  Ga10  1  0.839845  0.792560  0.527751  1
  Ag  Ag11  1  0.499582  0.000418  0.000418  1
  Ag  Ag12  1  0.999527  0.806228  0.194717  1
  Ag  Ag13  1  0.999527  0.194717  0.806228  1
