# generated using pymatgen
data_UTi7(TcRu)4
_symmetry_space_group_name_H-M   'P 1'
_cell_length_a   6.24923556
_cell_length_b   6.24919855
_cell_length_c   6.26868900
_cell_angle_alpha   90.00074307
_cell_angle_beta   89.99982323
_cell_angle_gamma   90.98647573
_symmetry_Int_Tables_number   1
_chemical_formula_structural   UTi7(TcRu)4
_chemical_formula_sum   'U1 Ti7 Tc4 Ru4'
_cell_volume   244.77303371
_cell_formula_units_Z   1
loop_
 _symmetry_equiv_pos_site_id
 _symmetry_equiv_pos_as_xyz
  1  'x, y, z'
loop_
 _atom_site_type_symbol
 _atom_site_label
 _atom_site_symmetry_multiplicity
 _atom_site_fract_x
 _atom_site_fract_y
 _atom_site_fract_z
 _atom_site_occupancy
  U  U0  1  0.500003  0.999997  0.250001  1
  Ti  Ti1  1  0.499998  0.500000  0.250002  1
  Ti  Ti2  1  0.000002  0.000001  0.250002  1
  Ti  Ti3  1  0.000000  0.499999  0.250000  1
  Ti  Ti4  1  0.000001  0.000001  0.750000  1
  Ti  Ti5  1  0.000001  0.499999  0.750002  1
  Ti  Ti6  1  0.499997  0.000001  0.749998  1
  Ti  Ti7  1  0.499999  0.500000  0.750002  1
  Tc  Tc8  1  0.747117  0.247119  0.000843  1
  Tc  Tc9  1  0.252884  0.752882  0.000844  1
  Tc  Tc10  1  0.747116  0.247120  0.499156  1
  Tc  Tc11  1  0.252883  0.752883  0.499156  1
  Ru  Ru12  1  0.246729  0.253269  0.998005  1
  Ru  Ru13  1  0.753274  0.746730  0.997999  1
  Ru  Ru14  1  0.753269  0.746732  0.501995  1
  Ru  Ru15  1  0.246727  0.253272  0.502001  1
