# generated using pymatgen
data_Cd3Ir2Rh2PbO14
_symmetry_space_group_name_H-M   'P 1'
_cell_length_a   7.24746316
_cell_length_b   7.22712739
_cell_length_c   7.28175834
_cell_angle_alpha   60.24786242
_cell_angle_beta   60.34525356
_cell_angle_gamma   60.09277995
_symmetry_Int_Tables_number   1
_chemical_formula_structural   Cd3Ir2Rh2PbO14
_chemical_formula_sum   'Cd3 Ir2 Rh2 Pb1 O14'
_cell_volume   271.08837973
_cell_formula_units_Z   1
loop_
 _symmetry_equiv_pos_site_id
 _symmetry_equiv_pos_as_xyz
  1  'x, y, z'
loop_
 _atom_site_type_symbol
 _atom_site_label
 _atom_site_symmetry_multiplicity
 _atom_site_fract_x
 _atom_site_fract_y
 _atom_site_fract_z
 _atom_site_occupancy
  Cd  Cd0  1  0.625000  0.125000  0.125000  1
  Cd  Cd1  1  0.125000  0.625000  0.125000  1
  Cd  Cd2  1  0.125000  0.125000  0.125000  1
  Ir  Ir3  1  0.125000  0.625000  0.625000  1
  Ir  Ir4  1  0.625000  0.625000  0.125000  1
  Rh  Rh5  1  0.625000  0.125000  0.625000  1
  Rh  Rh6  1  0.625000  0.625000  0.625000  1
  Pb  Pb7  1  0.125000  0.125000  0.625000  1
  O  O8  1  0.701269  0.694223  0.300127  1
  O  O9  1  0.294845  0.299156  0.697878  1
  O  O10  1  0.712250  0.293870  0.700010  1
  O  O11  1  0.302865  0.695168  0.306799  1
  O  O12  1  0.294845  0.708122  0.697878  1
  O  O13  1  0.701269  0.304381  0.300127  1
  O  O14  1  0.548731  0.555777  0.949873  1
  O  O15  1  0.955155  0.950844  0.552122  1
  O  O16  1  0.537750  0.956130  0.549990  1
  O  O17  1  0.947135  0.554832  0.943201  1
  O  O18  1  0.955155  0.541878  0.552122  1
  O  O19  1  0.548731  0.945619  0.949873  1
  O  O20  1  0.251727  0.253145  0.241982  1
  O  O21  1  0.998273  0.996855  0.008018  1
