# generated using pymatgen
data_YbHo6NiBr12
_symmetry_space_group_name_H-M   'P 1'
_cell_length_a   9.16616075
_cell_length_b   9.16616062
_cell_length_c   9.16616071
_cell_angle_alpha   106.63587979
_cell_angle_beta   106.63588194
_cell_angle_gamma   106.63587944
_symmetry_Int_Tables_number   1
_chemical_formula_structural   YbHo6NiBr12
_chemical_formula_sum   'Yb1 Ho6 Ni1 Br12'
_cell_volume   647.63419261
_cell_formula_units_Z   1
loop_
 _symmetry_equiv_pos_site_id
 _symmetry_equiv_pos_as_xyz
  1  'x, y, z'
loop_
 _atom_site_type_symbol
 _atom_site_label
 _atom_site_symmetry_multiplicity
 _atom_site_fract_x
 _atom_site_fract_y
 _atom_site_fract_z
 _atom_site_occupancy
  Yb  Yb0  1  0.500000  0.500000  0.500000  1
  Ho  Ho1  1  0.099867  0.023596  0.305553  1
  Ho  Ho2  1  0.023596  0.305553  0.099867  1
  Ho  Ho3  1  0.305553  0.099867  0.023596  1
  Ho  Ho4  1  0.900132  0.976404  0.694447  1
  Ho  Ho5  1  0.976404  0.694447  0.900132  1
  Ho  Ho6  1  0.694447  0.900132  0.976404  1
  Ni  Ni7  1  0.000000  0.000000  0.000000  1
  Br  Br8  1  0.074072  0.677052  0.220178  1
  Br  Br9  1  0.677052  0.220178  0.074072  1
  Br  Br10  1  0.220178  0.074072  0.677052  1
  Br  Br11  1  0.925928  0.322948  0.779822  1
  Br  Br12  1  0.322948  0.779822  0.925928  1
  Br  Br13  1  0.779822  0.925928  0.322948  1
  Br  Br14  1  0.453298  0.156017  0.377028  1
  Br  Br15  1  0.156017  0.377028  0.453298  1
  Br  Br16  1  0.377028  0.453298  0.156017  1
  Br  Br17  1  0.546702  0.843983  0.622972  1
  Br  Br18  1  0.843983  0.622972  0.546702  1
  Br  Br19  1  0.622972  0.546702  0.843983  1
