# generated using pymatgen
data_CaLaGaRh2
_symmetry_space_group_name_H-M   'P 1'
_cell_length_a   5.72863302
_cell_length_b   5.72863251
_cell_length_c   5.72863308
_cell_angle_alpha   137.88486692
_cell_angle_beta   117.56371282
_cell_angle_gamma   78.19781436
_symmetry_Int_Tables_number   1
_chemical_formula_structural   CaLaGaRh2
_chemical_formula_sum   'Ca1 La1 Ga1 Rh2'
_cell_volume   108.68033612
_cell_formula_units_Z   1
loop_
 _symmetry_equiv_pos_site_id
 _symmetry_equiv_pos_as_xyz
  1  'x, y, z'
loop_
 _atom_site_type_symbol
 _atom_site_label
 _atom_site_symmetry_multiplicity
 _atom_site_fract_x
 _atom_site_fract_y
 _atom_site_fract_z
 _atom_site_occupancy
  Ca  Ca0  1  0.297722  0.797722  0.499999  1
  La  La1  1  0.697953  0.197953  0.500000  1
  Ga  Ga2  1  0.999236  0.999236  0.000000  1
  Rh  Rh3  1  0.745692  0.502544  0.243148  1
  Rh  Rh4  1  0.259398  0.502543  0.756852  1
