# generated using pymatgen
data_Lu2Pa2Al24Pt8Rh
_symmetry_space_group_name_H-M   'P 1'
_cell_length_a   7.54829545
_cell_length_b   7.55409224
_cell_length_c   13.07089724
_cell_angle_alpha   84.49852833
_cell_angle_beta   78.90605885
_cell_angle_gamma   59.92377099
_symmetry_Int_Tables_number   1
_chemical_formula_structural   Lu2Pa2Al24Pt8Rh
_chemical_formula_sum   'Lu2 Pa2 Al24 Pt8 Rh1'
_cell_volume   632.90796728
_cell_formula_units_Z   1
loop_
 _symmetry_equiv_pos_site_id
 _symmetry_equiv_pos_as_xyz
  1  'x, y, z'
loop_
 _atom_site_type_symbol
 _atom_site_label
 _atom_site_symmetry_multiplicity
 _atom_site_fract_x
 _atom_site_fract_y
 _atom_site_fract_z
 _atom_site_occupancy
  Lu  Lu0  1  0.733562  0.498559  0.807683  1
  Lu  Lu1  1  0.266438  0.501441  0.192317  1
  Pa  Pa2  1  0.395064  0.168520  0.805927  1
  Pa  Pa3  1  0.604936  0.831480  0.194073  1
  Al  Al4  1  0.687902  0.828724  0.944773  1
  Al  Al5  1  0.312098  0.171276  0.055227  1
  Al  Al6  1  0.145497  0.832381  0.561774  1
  Al  Al7  1  0.854503  0.167619  0.438226  1
  Al  Al8  1  0.480748  0.167466  0.558493  1
  Al  Al9  1  0.519252  0.832534  0.441507  1
  Al  Al10  1  0.214728  0.168123  0.329665  1
  Al  Al11  1  0.785272  0.831877  0.670335  1
  Al  Al12  1  0.436695  0.509869  0.671667  1
  Al  Al13  1  0.563305  0.490131  0.328333  1
  Al  Al14  1  0.107107  0.160091  0.669414  1
  Al  Al15  1  0.892893  0.839909  0.330586  1
  Al  Al16  1  0.350247  0.499848  0.945330  1
  Al  Al17  1  0.649753  0.500152  0.054670  1
  Al  Al18  1  0.014135  0.172649  0.953123  1
  Al  Al19  1  0.985865  0.827351  0.046877  1
  Al  Al20  1  0.185652  0.500496  0.441209  1
  Al  Al21  1  0.814348  0.499504  0.558791  1
  Al  Al22  1  0.736766  0.162711  0.182207  1
  Al  Al23  1  0.263234  0.837289  0.817793  1
  Al  Al24  1  0.060819  0.629061  0.818588  1
  Al  Al25  1  0.939181  0.370939  0.181412  1
  Al  Al26  1  0.856078  0.040757  0.817453  1
  Al  Al27  1  0.143922  0.959243  0.182547  1
  Pt  Pt28  1  0.119304  0.491079  0.640439  1
  Pt  Pt29  1  0.880696  0.508921  0.359561  1
  Pt  Pt30  1  0.656027  0.172206  0.999957  1
  Pt  Pt31  1  0.343973  0.827794  0.000043  1
  Pt  Pt32  1  0.536735  0.166722  0.360349  1
  Pt  Pt33  1  0.463265  0.833278  0.639651  1
  Pt  Pt34  1  0.777716  0.176097  0.638781  1
  Pt  Pt35  1  0.222284  0.823903  0.361219  1
  Rh  Rh36  1  0.000000  0.500000  0.000000  1
