# generated using pymatgen
data_Er16Sc4(Ir3Ru)3
_symmetry_space_group_name_H-M   'P 1'
_cell_length_a   10.65107200
_cell_length_b   10.65107200
_cell_length_c   6.28660400
_cell_angle_alpha   90.00000000
_cell_angle_beta   90.00000000
_cell_angle_gamma   90.00000000
_symmetry_Int_Tables_number   1
_chemical_formula_structural   Er16Sc4(Ir3Ru)3
_chemical_formula_sum   'Er16 Sc4 Ir9 Ru3'
_cell_volume   713.18589522
_cell_formula_units_Z   1
loop_
 _symmetry_equiv_pos_site_id
 _symmetry_equiv_pos_as_xyz
  1  'x, y, z'
loop_
 _atom_site_type_symbol
 _atom_site_label
 _atom_site_symmetry_multiplicity
 _atom_site_fract_x
 _atom_site_fract_y
 _atom_site_fract_z
 _atom_site_occupancy
  Er  Er0  1  0.290577  0.085271  0.376172  1
  Er  Er1  1  0.290661  0.914976  0.876483  1
  Er  Er2  1  0.709339  0.085024  0.876483  1
  Er  Er3  1  0.709423  0.914729  0.376172  1
  Er  Er4  1  0.585024  0.790661  0.876483  1
  Er  Er5  1  0.585271  0.209423  0.376172  1
  Er  Er6  1  0.414729  0.790577  0.376172  1
  Er  Er7  1  0.414976  0.209339  0.876483  1
  Er  Er8  1  0.210998  0.414168  0.624980  1
  Er  Er9  1  0.210818  0.585838  0.122044  1
  Er  Er10  1  0.789182  0.414162  0.122044  1
  Er  Er11  1  0.789002  0.585832  0.624980  1
  Er  Er12  1  0.914162  0.710818  0.122044  1
  Er  Er13  1  0.914168  0.289002  0.624980  1
  Er  Er14  1  0.085832  0.710998  0.624980  1
  Er  Er15  1  0.085838  0.289182  0.122044  1
  Sc  Sc16  1  0.000000  0.000000  0.499878  1
  Sc  Sc17  1  0.000000  0.000000  0.999715  1
  Sc  Sc18  1  0.500000  0.500000  0.999715  1
  Sc  Sc19  1  0.500000  0.500000  0.499878  1
  Ir  Ir20  1  0.852630  0.147721  0.250134  1
  Ir  Ir21  1  0.852365  0.852354  0.749817  1
  Ir  Ir22  1  0.147635  0.147646  0.749817  1
  Ir  Ir23  1  0.147370  0.852279  0.250134  1
  Ir  Ir24  1  0.647646  0.352365  0.749817  1
  Ir  Ir25  1  0.647721  0.647370  0.250134  1
  Ir  Ir26  1  0.352279  0.352630  0.250134  1
  Ir  Ir27  1  0.352354  0.647635  0.749817  1
  Ir  Ir28  1  0.000000  0.500000  0.377376  1
  Ru  Ru29  1  0.500000  0.000000  0.123850  1
  Ru  Ru30  1  0.500000  0.000000  0.623633  1
  Ru  Ru31  1  0.000000  0.500000  0.877436  1
