# generated using pymatgen
data_Tm17Lu2MgIr12
_symmetry_space_group_name_H-M   'P 1'
_cell_length_a   10.72033200
_cell_length_b   10.72033200
_cell_length_c   6.26416500
_cell_angle_alpha   90.00000000
_cell_angle_beta   90.00000000
_cell_angle_gamma   90.00000000
_symmetry_Int_Tables_number   1
_chemical_formula_structural   Tm17Lu2MgIr12
_chemical_formula_sum   'Tm17 Lu2 Mg1 Ir12'
_cell_volume   719.91240865
_cell_formula_units_Z   1
loop_
 _symmetry_equiv_pos_site_id
 _symmetry_equiv_pos_as_xyz
  1  'x, y, z'
loop_
 _atom_site_type_symbol
 _atom_site_label
 _atom_site_symmetry_multiplicity
 _atom_site_fract_x
 _atom_site_fract_y
 _atom_site_fract_z
 _atom_site_occupancy
  Tm  Tm0  1  0.284286  0.084454  0.377805  1
  Tm  Tm1  1  0.290888  0.912400  0.878991  1
  Tm  Tm2  1  0.709112  0.087600  0.878991  1
  Tm  Tm3  1  0.715714  0.915546  0.377805  1
  Tm  Tm4  1  0.588183  0.791766  0.877329  1
  Tm  Tm5  1  0.587034  0.208181  0.376027  1
  Tm  Tm6  1  0.412966  0.791819  0.376027  1
  Tm  Tm7  1  0.411817  0.208234  0.877329  1
  Tm  Tm8  1  0.208181  0.412966  0.623973  1
  Tm  Tm9  1  0.208234  0.588183  0.122671  1
  Tm  Tm10  1  0.791766  0.411817  0.122671  1
  Tm  Tm11  1  0.791819  0.587034  0.623973  1
  Tm  Tm12  1  0.912400  0.709112  0.121009  1
  Tm  Tm13  1  0.915546  0.284286  0.622195  1
  Tm  Tm14  1  0.084454  0.715714  0.622195  1
  Tm  Tm15  1  0.087600  0.290888  0.121009  1
  Tm  Tm16  1  0.000000  0.000000  0.000000  1
  Lu  Lu17  1  0.500000  0.500000  0.000000  1
  Lu  Lu18  1  0.500000  0.500000  0.500000  1
  Mg  Mg19  1  0.000000  0.000000  0.500000  1
  Ir  Ir20  1  0.845946  0.154850  0.246860  1
  Ir  Ir21  1  0.845150  0.845946  0.753140  1
  Ir  Ir22  1  0.154850  0.154054  0.753140  1
  Ir  Ir23  1  0.154054  0.845150  0.246860  1
  Ir  Ir24  1  0.653514  0.346835  0.748803  1
  Ir  Ir25  1  0.653165  0.653514  0.251197  1
  Ir  Ir26  1  0.346835  0.346486  0.251197  1
  Ir  Ir27  1  0.346486  0.653165  0.748803  1
  Ir  Ir28  1  0.500000  0.000000  0.124479  1
  Ir  Ir29  1  0.500000  0.000000  0.620907  1
  Ir  Ir30  1  0.000000  0.500000  0.875521  1
  Ir  Ir31  1  0.000000  0.500000  0.379093  1
