# generated using pymatgen
data_Sm3Er(B4W)4
_symmetry_space_group_name_H-M   'P 1'
_cell_length_a   3.65791300
_cell_length_b   6.07514615
_cell_length_c   11.74583315
_cell_angle_alpha   89.90366147
_cell_angle_beta   90.00000000
_cell_angle_gamma   90.00000000
_symmetry_Int_Tables_number   1
_chemical_formula_structural   Sm3Er(B4W)4
_chemical_formula_sum   'Sm3 Er1 B16 W4'
_cell_volume   261.01971762
_cell_formula_units_Z   1
loop_
 _symmetry_equiv_pos_site_id
 _symmetry_equiv_pos_as_xyz
  1  'x, y, z'
loop_
 _atom_site_type_symbol
 _atom_site_label
 _atom_site_symmetry_multiplicity
 _atom_site_fract_x
 _atom_site_fract_y
 _atom_site_fract_z
 _atom_site_occupancy
  Sm  Sm0  1  0.000000  0.626219  0.349957  1
  Sm  Sm1  1  0.000000  0.373802  0.650538  1
  Sm  Sm2  1  0.000000  0.126175  0.149595  1
  Er  Er3  1  0.000000  0.873856  0.850700  1
  B  B4  1  0.500000  0.784471  0.184921  1
  B  B5  1  0.500000  0.212573  0.814560  1
  B  B6  1  0.500000  0.284392  0.314218  1
  B  B7  1  0.500000  0.715938  0.687542  1
  B  B8  1  0.500000  0.865498  0.030252  1
  B  B9  1  0.500000  0.134156  0.966553  1
  B  B10  1  0.500000  0.364669  0.468379  1
  B  B11  1  0.500000  0.635499  0.532990  1
  B  B12  1  0.500000  0.887055  0.453993  1
  B  B13  1  0.500000  0.112150  0.547535  1
  B  B14  1  0.500000  0.387996  0.045482  1
  B  B15  1  0.500000  0.615191  0.951689  1
  B  B16  1  0.500000  0.975719  0.308124  1
  B  B17  1  0.500000  0.022448  0.694124  1
  B  B18  1  0.500000  0.475934  0.191254  1
  B  B19  1  0.500000  0.525862  0.807756  1
  W  W20  1  0.000000  0.630549  0.082797  1
  W  W21  1  0.000000  0.370314  0.915166  1
  W  W22  1  0.000000  0.129486  0.416472  1
  W  W23  1  0.000000  0.870047  0.585406  1
