# generated using pymatgen
data_Tm4Lu8Tc3Ru
_symmetry_space_group_name_H-M   'P 1'
_cell_length_a   6.15400301
_cell_length_b   7.33524100
_cell_length_c   8.88838000
_cell_angle_alpha   90.00000000
_cell_angle_beta   90.00000000
_cell_angle_gamma   89.99485221
_symmetry_Int_Tables_number   1
_chemical_formula_structural   Tm4Lu8Tc3Ru
_chemical_formula_sum   'Tm4 Lu8 Tc3 Ru1'
_cell_volume   401.23120644
_cell_formula_units_Z   1
loop_
 _symmetry_equiv_pos_site_id
 _symmetry_equiv_pos_as_xyz
  1  'x, y, z'
loop_
 _atom_site_type_symbol
 _atom_site_label
 _atom_site_symmetry_multiplicity
 _atom_site_fract_x
 _atom_site_fract_y
 _atom_site_fract_z
 _atom_site_occupancy
  Tm  Tm0  1  0.874319  0.540545  0.250000  1
  Tm  Tm1  1  0.625237  0.039293  0.250000  1
  Tm  Tm2  1  0.129702  0.457968  0.750000  1
  Tm  Tm3  1  0.375386  0.958416  0.750000  1
  Lu  Lu4  1  0.339525  0.675712  0.062500  1
  Lu  Lu5  1  0.157781  0.175238  0.437908  1
  Lu  Lu6  1  0.658767  0.325391  0.562660  1
  Lu  Lu7  1  0.841238  0.824681  0.937707  1
  Lu  Lu8  1  0.658767  0.325391  0.937340  1
  Lu  Lu9  1  0.841238  0.824681  0.562293  1
  Lu  Lu10  1  0.339525  0.675712  0.437500  1
  Lu  Lu11  1  0.157781  0.175238  0.062092  1
  Tc  Tc12  1  0.041832  0.883165  0.250000  1
  Tc  Tc13  1  0.459336  0.384594  0.250000  1
  Tc  Tc14  1  0.959371  0.116716  0.750000  1
  Ru  Ru15  1  0.540194  0.617259  0.750000  1
