# generated using pymatgen
data_Er3BCl3
_symmetry_space_group_name_H-M   'P 1'
_cell_length_a   9.35054770
_cell_length_b   9.35054769
_cell_length_c   9.35054800
_cell_angle_alpha   109.47121913
_cell_angle_beta   109.47121911
_cell_angle_gamma   109.47122524
_symmetry_Int_Tables_number   1
_chemical_formula_structural   Er3BCl3
_chemical_formula_sum   'Er12 B4 Cl12'
_cell_volume   629.34569320
_cell_formula_units_Z   4
loop_
 _symmetry_equiv_pos_site_id
 _symmetry_equiv_pos_as_xyz
  1  'x, y, z'
loop_
 _atom_site_type_symbol
 _atom_site_label
 _atom_site_symmetry_multiplicity
 _atom_site_fract_x
 _atom_site_fract_y
 _atom_site_fract_z
 _atom_site_occupancy
  Er  Er0  1  0.468028  0.484014  0.234014  1
  Er  Er1  1  0.750000  0.234014  0.265986  1
  Er  Er2  1  0.750000  0.015986  0.484014  1
  Er  Er3  1  0.234014  0.468028  0.484014  1
  Er  Er4  1  0.265986  0.750000  0.234014  1
  Er  Er5  1  0.031972  0.265986  0.015986  1
  Er  Er6  1  0.015986  0.031972  0.265986  1
  Er  Er7  1  0.484014  0.750000  0.015986  1
  Er  Er8  1  0.484014  0.234014  0.468028  1
  Er  Er9  1  0.015986  0.484014  0.750000  1
  Er  Er10  1  0.265986  0.015986  0.031972  1
  Er  Er11  1  0.234014  0.265986  0.750000  1
  B  B12  1  0.250000  0.250000  0.250000  1
  B  B13  1  0.500000  0.000000  0.250000  1
  B  B14  1  0.000000  0.250000  0.500000  1
  B  B15  1  0.250000  0.500000  0.000000  1
  Cl  Cl16  1  0.250000  0.755822  0.744178  1
  Cl  Cl17  1  0.511645  0.505822  0.755822  1
  Cl  Cl18  1  0.988355  0.744178  0.994178  1
  Cl  Cl19  1  0.744178  0.250000  0.755822  1
  Cl  Cl20  1  0.994178  0.988355  0.744178  1
  Cl  Cl21  1  0.250000  0.994178  0.505822  1
  Cl  Cl22  1  0.755822  0.511645  0.505822  1
  Cl  Cl23  1  0.505822  0.250000  0.994178  1
  Cl  Cl24  1  0.755822  0.744178  0.250000  1
  Cl  Cl25  1  0.744178  0.994178  0.988355  1
  Cl  Cl26  1  0.994178  0.505822  0.250000  1
  Cl  Cl27  1  0.505822  0.755822  0.511645  1
