# generated using pymatgen
data_Ir3RuO8
_symmetry_space_group_name_H-M   'P 1'
_cell_length_a   5.54771507
_cell_length_b   4.54250582
_cell_length_c   5.54816780
_cell_angle_alpha   89.91602323
_cell_angle_beta   110.13330367
_cell_angle_gamma   90.08413307
_symmetry_Int_Tables_number   1
_chemical_formula_structural   Ir3RuO8
_chemical_formula_sum   'Ir3 Ru1 O8'
_cell_volume   131.27295209
_cell_formula_units_Z   1
loop_
 _symmetry_equiv_pos_site_id
 _symmetry_equiv_pos_as_xyz
  1  'x, y, z'
loop_
 _atom_site_type_symbol
 _atom_site_label
 _atom_site_symmetry_multiplicity
 _atom_site_fract_x
 _atom_site_fract_y
 _atom_site_fract_z
 _atom_site_occupancy
  Ir  Ir0  1  0.750001  0.999984  0.249999  1
  Ir  Ir1  1  0.249999  0.499983  0.250004  1
  Ir  Ir2  1  0.749996  0.500016  0.749996  1
  Ru  Ru3  1  0.249996  0.000020  0.749998  1
  O  O4  1  0.403546  0.807149  0.095130  1
  O  O5  1  0.904276  0.692898  0.095705  1
  O  O6  1  0.096466  0.192798  0.404844  1
  O  O7  1  0.595716  0.307039  0.404324  1
  O  O8  1  0.403645  0.693709  0.596314  1
  O  O9  1  0.904819  0.807203  0.596444  1
  O  O10  1  0.096365  0.306344  0.903658  1
  O  O11  1  0.595172  0.192850  0.903582  1
