# generated using pymatgen
data_SrPr(Zn2Pt)4
_symmetry_space_group_name_H-M   'P 1'
_cell_length_a   7.70540800
_cell_length_b   7.70540837
_cell_length_c   4.22072400
_cell_angle_alpha   90.00000000
_cell_angle_beta   90.00000000
_cell_angle_gamma   91.62828485
_symmetry_Int_Tables_number   1
_chemical_formula_structural   SrPr(Zn2Pt)4
_chemical_formula_sum   'Sr1 Pr1 Zn8 Pt4'
_cell_volume   250.49718761
_cell_formula_units_Z   1
loop_
 _symmetry_equiv_pos_site_id
 _symmetry_equiv_pos_as_xyz
  1  'x, y, z'
loop_
 _atom_site_type_symbol
 _atom_site_label
 _atom_site_symmetry_multiplicity
 _atom_site_fract_x
 _atom_site_fract_y
 _atom_site_fract_z
 _atom_site_occupancy
  Sr  Sr0  1  0.000000  0.000000  0.000000  1
  Pr  Pr1  1  0.500000  0.500000  0.500000  1
  Zn  Zn2  1  0.353066  0.093932  0.500000  1
  Zn  Zn3  1  0.646934  0.906068  0.500000  1
  Zn  Zn4  1  0.848326  0.407642  0.000000  1
  Zn  Zn5  1  0.151674  0.592358  0.000000  1
  Zn  Zn6  1  0.093932  0.353066  0.500000  1
  Zn  Zn7  1  0.906068  0.646934  0.500000  1
  Zn  Zn8  1  0.407642  0.848326  0.000000  1
  Zn  Zn9  1  0.592358  0.151674  0.000000  1
  Pt  Pt10  1  0.774590  0.225410  0.500000  1
  Pt  Pt11  1  0.225410  0.774590  0.500000  1
  Pt  Pt12  1  0.286937  0.286937  0.000000  1
  Pt  Pt13  1  0.713063  0.713063  0.000000  1
