# generated using pymatgen
data_MnAl7Pt16
_symmetry_space_group_name_H-M   'P 1'
_cell_length_a   16.46667200
_cell_length_b   3.96846900
_cell_length_c   5.51197100
_cell_angle_alpha   90.00000000
_cell_angle_beta   90.00000000
_cell_angle_gamma   90.00000000
_symmetry_Int_Tables_number   1
_chemical_formula_structural   MnAl7Pt16
_chemical_formula_sum   'Mn1 Al7 Pt16'
_cell_volume   360.19340016
_cell_formula_units_Z   1
loop_
 _symmetry_equiv_pos_site_id
 _symmetry_equiv_pos_as_xyz
  1  'x, y, z'
loop_
 _atom_site_type_symbol
 _atom_site_label
 _atom_site_symmetry_multiplicity
 _atom_site_fract_x
 _atom_site_fract_y
 _atom_site_fract_z
 _atom_site_occupancy
  Mn  Mn0  1  0.250000  0.000000  0.793146  1
  Al  Al1  1  0.092093  0.000000  0.307550  1
  Al  Al2  1  0.407907  0.000000  0.307550  1
  Al  Al3  1  0.591111  0.000000  0.692015  1
  Al  Al4  1  0.908888  0.000000  0.692015  1
  Al  Al5  1  0.750000  0.000000  0.208343  1
  Al  Al6  1  0.000286  0.499999  0.000387  1
  Al  Al7  1  0.499714  0.499999  0.000387  1
  Pt  Pt8  1  0.250000  0.000000  0.279887  1
  Pt  Pt9  1  0.750000  0.000000  0.729672  1
  Pt  Pt10  1  0.166329  0.499999  0.549472  1
  Pt  Pt11  1  0.333671  0.499999  0.549472  1
  Pt  Pt12  1  0.667674  0.499999  0.446724  1
  Pt  Pt13  1  0.832326  0.499999  0.446724  1
  Pt  Pt14  1  0.156978  0.499999  0.047461  1
  Pt  Pt15  1  0.343023  0.499999  0.047461  1
  Pt  Pt16  1  0.656663  0.499999  0.950593  1
  Pt  Pt17  1  0.843338  0.499999  0.950593  1
  Pt  Pt18  1  0.999547  0.499999  0.499885  1
  Pt  Pt19  1  0.500453  0.499999  0.499885  1
  Pt  Pt20  1  0.068854  0.000000  0.797064  1
  Pt  Pt21  1  0.431146  0.000000  0.797064  1
  Pt  Pt22  1  0.568906  0.000000  0.203322  1
  Pt  Pt23  1  0.931093  0.000000  0.203322  1
