# generated using pymatgen
data_TlTc2O4F7
_symmetry_space_group_name_H-M   'P 1'
_cell_length_a   5.15895500
_cell_length_b   5.49906297
_cell_length_c   15.37453000
_cell_angle_alpha   74.63974312
_cell_angle_beta   90.00000000
_cell_angle_gamma   90.00000000
_symmetry_Int_Tables_number   1
_chemical_formula_structural   TlTc2O4F7
_chemical_formula_sum   'Tl2 Tc4 O8 F14'
_cell_volume   420.58633497
_cell_formula_units_Z   2
loop_
 _symmetry_equiv_pos_site_id
 _symmetry_equiv_pos_as_xyz
  1  'x, y, z'
loop_
 _atom_site_type_symbol
 _atom_site_label
 _atom_site_symmetry_multiplicity
 _atom_site_fract_x
 _atom_site_fract_y
 _atom_site_fract_z
 _atom_site_occupancy
  Tl  Tl0  1  0.320004  0.500000  0.250000  1
  Tl  Tl1  1  0.679996  0.500000  0.750000  1
  Tc  Tc2  1  0.753178  0.871547  0.390749  1
  Tc  Tc3  1  0.753178  0.128453  0.109251  1
  Tc  Tc4  1  0.246822  0.871547  0.890749  1
  Tc  Tc5  1  0.246822  0.128453  0.609251  1
  O  O6  1  0.407572  0.867270  0.598113  1
  O  O7  1  0.119469  0.249848  0.505610  1
  O  O8  1  0.592428  0.132730  0.401887  1
  O  O9  1  0.880531  0.249848  0.005610  1
  O  O10  1  0.407572  0.132730  0.901887  1
  O  O11  1  0.880531  0.750152  0.494390  1
  O  O12  1  0.592428  0.867270  0.098113  1
  O  O13  1  0.119469  0.750152  0.994390  1
  F  F14  1  0.447071  0.673364  0.406376  1
  F  F15  1  0.614956  0.000000  0.250000  1
  F  F16  1  0.053827  0.953885  0.161799  1
  F  F17  1  0.385044  0.000000  0.750000  1
  F  F18  1  0.874292  0.610103  0.335567  1
  F  F19  1  0.552929  0.673364  0.906376  1
  F  F20  1  0.125708  0.389897  0.664433  1
  F  F21  1  0.053827  0.046115  0.338201  1
  F  F22  1  0.125708  0.610103  0.835567  1
  F  F23  1  0.552929  0.326636  0.593624  1
  F  F24  1  0.946173  0.046115  0.838201  1
  F  F25  1  0.874292  0.389897  0.164433  1
  F  F26  1  0.946173  0.953885  0.661799  1
  F  F27  1  0.447071  0.326636  0.093624  1
