# generated using pymatgen
data_Rb3Al2(AsO4)3
_symmetry_space_group_name_H-M   'P 1'
_cell_length_a   8.84571100
_cell_length_b   9.00781000
_cell_length_c   17.74218700
_cell_angle_alpha   90.00000000
_cell_angle_beta   90.00000000
_cell_angle_gamma   90.00000000
_symmetry_Int_Tables_number   1
_chemical_formula_structural   Rb3Al2(AsO4)3
_chemical_formula_sum   'Rb12 Al8 As12 O48'
_cell_volume   1413.70604743
_cell_formula_units_Z   4
loop_
 _symmetry_equiv_pos_site_id
 _symmetry_equiv_pos_as_xyz
  1  'x, y, z'
loop_
 _atom_site_type_symbol
 _atom_site_label
 _atom_site_symmetry_multiplicity
 _atom_site_fract_x
 _atom_site_fract_y
 _atom_site_fract_z
 _atom_site_occupancy
  Rb  Rb0  1  0.838548  0.511536  0.098966  1
  Rb  Rb1  1  0.338548  0.488464  0.901034  1
  Rb  Rb2  1  0.338548  0.988464  0.598966  1
  Rb  Rb3  1  0.838548  0.011536  0.401034  1
  Rb  Rb4  1  0.314240  0.450521  0.144795  1
  Rb  Rb5  1  0.814240  0.549479  0.855205  1
  Rb  Rb6  1  0.814240  0.049479  0.644795  1
  Rb  Rb7  1  0.314240  0.950521  0.355205  1
  Rb  Rb8  1  0.103552  0.170891  0.007960  1
  Rb  Rb9  1  0.603552  0.829109  0.992040  1
  Rb  Rb10  1  0.603552  0.329109  0.507960  1
  Rb  Rb11  1  0.103552  0.670891  0.492040  1
  Al  Al12  1  0.148004  0.849193  0.162836  1
  Al  Al13  1  0.648004  0.150807  0.837164  1
  Al  Al14  1  0.648004  0.650807  0.662836  1
  Al  Al15  1  0.148004  0.349193  0.337164  1
  Al  Al16  1  0.657636  0.630428  0.332417  1
  Al  Al17  1  0.157636  0.369572  0.667583  1
  Al  Al18  1  0.157636  0.869572  0.832417  1
  Al  Al19  1  0.657636  0.130428  0.167583  1
  As  As20  1  0.999347  0.656291  0.284118  1
  As  As21  1  0.499347  0.343709  0.715882  1
  As  As22  1  0.499347  0.843709  0.784118  1
  As  As23  1  0.999347  0.156291  0.215882  1
  As  As24  1  0.510864  0.796295  0.190663  1
  As  As25  1  0.010864  0.203705  0.809337  1
  As  As26  1  0.010864  0.703705  0.690663  1
  As  As27  1  0.510864  0.296295  0.309337  1
  As  As28  1  0.087785  0.741793  0.997346  1
  As  As29  1  0.587785  0.258207  0.002654  1
  As  As30  1  0.587785  0.758207  0.497346  1
  As  As31  1  0.087785  0.241793  0.502654  1
  O  O32  1  0.029468  0.788355  0.348489  1
  O  O33  1  0.529468  0.211645  0.651511  1
  O  O34  1  0.529468  0.711645  0.848489  1
  O  O35  1  0.029468  0.288355  0.151511  1
  O  O36  1  0.134862  0.519462  0.289685  1
  O  O37  1  0.634862  0.480538  0.710315  1
  O  O38  1  0.634862  0.980538  0.789685  1
  O  O39  1  0.134862  0.019462  0.210315  1
  O  O40  1  0.009309  0.719125  0.191921  1
  O  O41  1  0.509309  0.280875  0.808079  1
  O  O42  1  0.509309  0.780875  0.691921  1
  O  O43  1  0.009309  0.219125  0.308079  1
  O  O44  1  0.825531  0.568554  0.288387  1
  O  O45  1  0.325531  0.431446  0.711613  1
  O  O46  1  0.325531  0.931446  0.788387  1
  O  O47  1  0.825531  0.068554  0.211613  1
  O  O48  1  0.580215  0.671658  0.130438  1
  O  O49  1  0.080215  0.328342  0.869562  1
  O  O50  1  0.080215  0.828342  0.630438  1
  O  O51  1  0.580215  0.171658  0.369562  1
  O  O52  1  0.533973  0.977532  0.161662  1
  O  O53  1  0.033973  0.022468  0.838338  1
  O  O54  1  0.033973  0.522468  0.661662  1
  O  O55  1  0.533973  0.477532  0.338338  1
  O  O56  1  0.575614  0.782199  0.282570  1
  O  O57  1  0.075614  0.217801  0.717430  1
  O  O58  1  0.075614  0.717801  0.782570  1
  O  O59  1  0.575614  0.282199  0.217430  1
  O  O60  1  0.317716  0.772520  0.198108  1
  O  O61  1  0.817716  0.227480  0.801892  1
  O  O62  1  0.817716  0.727480  0.698108  1
  O  O63  1  0.317716  0.272520  0.301892  1
  O  O64  1  0.151905  0.575808  0.027321  1
  O  O65  1  0.651905  0.424192  0.972679  1
  O  O66  1  0.651905  0.924192  0.527321  1
  O  O67  1  0.151905  0.075808  0.472679  1
  O  O68  1  0.202600  0.803181  0.922691  1
  O  O69  1  0.702600  0.196819  0.077309  1
  O  O70  1  0.702600  0.696819  0.422691  1
  O  O71  1  0.202600  0.303181  0.577309  1
  O  O72  1  0.903505  0.748159  0.973931  1
  O  O73  1  0.403505  0.251841  0.026069  1
  O  O74  1  0.403505  0.751841  0.473931  1
  O  O75  1  0.903505  0.248159  0.526069  1
  O  O76  1  0.129326  0.878297  0.065725  1
  O  O77  1  0.629326  0.121703  0.934275  1
  O  O78  1  0.629326  0.621703  0.565725  1
  O  O79  1  0.129326  0.378297  0.434275  1
