# generated using pymatgen
data_Hf6Sc3Re3MoP
_symmetry_space_group_name_H-M   'P 1'
_cell_length_a   8.64111734
_cell_length_b   8.63846560
_cell_length_c   8.57385500
_cell_angle_alpha   90.00000000
_cell_angle_beta   90.00000000
_cell_angle_gamma   119.98985024
_symmetry_Int_Tables_number   1
_chemical_formula_structural   Hf6Sc3Re3MoP
_chemical_formula_sum   'Hf12 Sc6 Re6 Mo2 P2'
_cell_volume   554.31634650
_cell_formula_units_Z   2
loop_
 _symmetry_equiv_pos_site_id
 _symmetry_equiv_pos_as_xyz
  1  'x, y, z'
loop_
 _atom_site_type_symbol
 _atom_site_label
 _atom_site_symmetry_multiplicity
 _atom_site_fract_x
 _atom_site_fract_y
 _atom_site_fract_z
 _atom_site_occupancy
  Hf  Hf0  1  0.196160  0.804338  0.454706  1
  Hf  Hf1  1  0.196160  0.391821  0.454706  1
  Hf  Hf2  1  0.607039  0.803519  0.455778  1
  Hf  Hf3  1  0.804934  0.194965  0.550025  1
  Hf  Hf4  1  0.804934  0.609969  0.550025  1
  Hf  Hf5  1  0.389742  0.194872  0.548251  1
  Hf  Hf6  1  0.804934  0.194965  0.949975  1
  Hf  Hf7  1  0.804934  0.609969  0.949975  1
  Hf  Hf8  1  0.389742  0.194872  0.951749  1
  Hf  Hf9  1  0.196160  0.804338  0.045294  1
  Hf  Hf10  1  0.196160  0.391821  0.045294  1
  Hf  Hf11  1  0.607039  0.803519  0.044222  1
  Sc  Sc12  1  0.537624  0.459443  0.250000  1
  Sc  Sc13  1  0.537624  0.078181  0.250000  1
  Sc  Sc14  1  0.923340  0.461669  0.250000  1
  Sc  Sc15  1  0.459241  0.540295  0.750000  1
  Sc  Sc16  1  0.459241  0.918947  0.750000  1
  Sc  Sc17  1  0.081003  0.540501  0.750000  1
  Re  Re18  1  0.220825  0.110412  0.250000  1
  Re  Re19  1  0.109722  0.891177  0.750000  1
  Re  Re20  1  0.109722  0.218546  0.750000  1
  Re  Re21  1  0.781649  0.890826  0.750000  1
  Re  Re22  1  0.999745  0.999872  0.499457  1
  Re  Re23  1  0.999745  0.999872  0.000543  1
  Mo  Mo24  1  0.891759  0.109212  0.250000  1
  Mo  Mo25  1  0.891759  0.782546  0.250000  1
  P  P26  1  0.333023  0.666512  0.250000  1
  P  P27  1  0.666044  0.333022  0.750000  1
