# generated using pymatgen
data_Tm2LuMg3Ge2Au
_symmetry_space_group_name_H-M   'P 1'
_cell_length_a   7.17377800
_cell_length_b   7.17075629
_cell_length_c   4.30528300
_cell_angle_alpha   90.00000000
_cell_angle_beta   90.00000000
_cell_angle_gamma   120.01394978
_symmetry_Int_Tables_number   1
_chemical_formula_structural   Tm2LuMg3Ge2Au
_chemical_formula_sum   'Tm2 Lu1 Mg3 Ge2 Au1'
_cell_volume   191.77154488
_cell_formula_units_Z   1
loop_
 _symmetry_equiv_pos_site_id
 _symmetry_equiv_pos_as_xyz
  1  'x, y, z'
loop_
 _atom_site_type_symbol
 _atom_site_label
 _atom_site_symmetry_multiplicity
 _atom_site_fract_x
 _atom_site_fract_y
 _atom_site_fract_z
 _atom_site_occupancy
  Tm  Tm0  1  0.000216  0.583203  0.000000  1
  Tm  Tm1  1  0.417013  0.416797  0.000000  1
  Lu  Lu2  1  0.583512  0.000000  0.000000  1
  Mg  Mg3  1  0.245421  0.000000  0.500000  1
  Mg  Mg4  1  0.999825  0.244996  0.500000  1
  Mg  Mg5  1  0.754828  0.755004  0.500000  1
  Ge  Ge6  1  0.333793  0.667528  0.500000  1
  Ge  Ge7  1  0.666266  0.332472  0.500000  1
  Au  Au8  1  0.999127  0.000000  0.000000  1
