# generated using pymatgen
data_Hf6Zn19Ni4P
_symmetry_space_group_name_H-M   'P 1'
_cell_length_a   8.66556477
_cell_length_b   8.55710447
_cell_length_c   8.66556400
_cell_angle_alpha   60.41317619
_cell_angle_beta   59.17366006
_cell_angle_gamma   60.41317767
_symmetry_Int_Tables_number   1
_chemical_formula_structural   Hf6Zn19Ni4P
_chemical_formula_sum   'Hf6 Zn19 Ni4 P1'
_cell_volume   454.22515157
_cell_formula_units_Z   1
loop_
 _symmetry_equiv_pos_site_id
 _symmetry_equiv_pos_as_xyz
  1  'x, y, z'
loop_
 _atom_site_type_symbol
 _atom_site_label
 _atom_site_symmetry_multiplicity
 _atom_site_fract_x
 _atom_site_fract_y
 _atom_site_fract_z
 _atom_site_occupancy
  Hf  Hf0  1  0.710025  0.289975  0.289975  1
  Hf  Hf1  1  0.289975  0.710025  0.710025  1
  Hf  Hf2  1  0.297769  0.702231  0.297769  1
  Hf  Hf3  1  0.702231  0.297769  0.702231  1
  Hf  Hf4  1  0.289975  0.289975  0.710025  1
  Hf  Hf5  1  0.710025  0.710025  0.289975  1
  Zn  Zn6  1  0.129925  0.111580  0.129925  1
  Zn  Zn7  1  0.870075  0.888420  0.870075  1
  Zn  Zn8  1  0.111580  0.129925  0.628569  1
  Zn  Zn9  1  0.129925  0.628569  0.129925  1
  Zn  Zn10  1  0.888420  0.870075  0.371431  1
  Zn  Zn11  1  0.870075  0.371431  0.870075  1
  Zn  Zn12  1  0.628569  0.129925  0.111580  1
  Zn  Zn13  1  0.371431  0.870075  0.888420  1
  Zn  Zn14  1  0.000000  0.500000  0.000000  1
  Zn  Zn15  1  0.500000  0.000000  0.500000  1
  Zn  Zn16  1  0.334184  0.340007  0.334184  1
  Zn  Zn17  1  0.665816  0.659993  0.665816  1
  Zn  Zn18  1  0.340007  0.334184  0.991628  1
  Zn  Zn19  1  0.334184  0.991628  0.334184  1
  Zn  Zn20  1  0.659993  0.665816  0.008372  1
  Zn  Zn21  1  0.665816  0.008372  0.665816  1
  Zn  Zn22  1  0.991628  0.334184  0.340007  1
  Zn  Zn23  1  0.008372  0.665816  0.659993  1
  Zn  Zn24  1  0.000000  0.000000  0.000000  1
  Ni  Ni25  1  0.500000  0.000000  0.000000  1
  Ni  Ni26  1  0.000000  0.500000  0.500000  1
  Ni  Ni27  1  0.000000  0.000000  0.500000  1
  Ni  Ni28  1  0.500000  0.500000  0.000000  1
  P  P29  1  0.500000  0.500000  0.500000  1
