# generated using pymatgen
data_Zr3Ga3Ni2Os
_symmetry_space_group_name_H-M   'P 1'
_cell_length_a   7.13214500
_cell_length_b   7.13214546
_cell_length_c   3.39079000
_cell_angle_alpha   90.00000000
_cell_angle_beta   90.00000000
_cell_angle_gamma   120.00000249
_symmetry_Int_Tables_number   1
_chemical_formula_structural   Zr3Ga3Ni2Os
_chemical_formula_sum   'Zr3 Ga3 Ni2 Os1'
_cell_volume   149.37291997
_cell_formula_units_Z   1
loop_
 _symmetry_equiv_pos_site_id
 _symmetry_equiv_pos_as_xyz
  1  'x, y, z'
loop_
 _atom_site_type_symbol
 _atom_site_label
 _atom_site_symmetry_multiplicity
 _atom_site_fract_x
 _atom_site_fract_y
 _atom_site_fract_z
 _atom_site_occupancy
  Zr  Zr0  1  0.401420  0.000935  0.500000  1
  Zr  Zr1  1  0.999065  0.400485  0.500000  1
  Zr  Zr2  1  0.599515  0.598580  0.500000  1
  Ga  Ga3  1  0.743090  0.003814  0.000000  1
  Ga  Ga4  1  0.996186  0.739276  0.000000  1
  Ga  Ga5  1  0.260724  0.256910  0.000000  1
  Ni  Ni6  1  0.666667  0.333333  0.000000  1
  Ni  Ni7  1  0.000000  0.000000  0.500000  1
  Os  Os8  1  0.333333  0.666667  0.000000  1
