# generated using pymatgen
data_Pr9Sm(SnBi)4
_symmetry_space_group_name_H-M   'P 1'
_cell_length_a   8.47839500
_cell_length_b   8.53570200
_cell_length_c   16.25636400
_cell_angle_alpha   90.00000000
_cell_angle_beta   90.00000000
_cell_angle_gamma   90.00000000
_symmetry_Int_Tables_number   1
_chemical_formula_structural   Pr9Sm(SnBi)4
_chemical_formula_sum   'Pr18 Sm2 Sn8 Bi8'
_cell_volume   1176.45767048
_cell_formula_units_Z   2
loop_
 _symmetry_equiv_pos_site_id
 _symmetry_equiv_pos_as_xyz
  1  'x, y, z'
loop_
 _atom_site_type_symbol
 _atom_site_label
 _atom_site_symmetry_multiplicity
 _atom_site_fract_x
 _atom_site_fract_y
 _atom_site_fract_z
 _atom_site_occupancy
  Pr  Pr0  1  0.391349  0.835417  0.879213  1
  Pr  Pr1  1  0.891349  0.664583  0.620787  1
  Pr  Pr2  1  0.608524  0.164725  0.379341  1
  Pr  Pr3  1  0.108524  0.335275  0.120659  1
  Pr  Pr4  1  0.608524  0.164725  0.120659  1
  Pr  Pr5  1  0.108524  0.335275  0.379341  1
  Pr  Pr6  1  0.391349  0.835417  0.620787  1
  Pr  Pr7  1  0.891349  0.664583  0.879213  1
  Pr  Pr8  1  0.548697  0.325746  0.890384  1
  Pr  Pr9  1  0.048697  0.174254  0.609616  1
  Pr  Pr10  1  0.451429  0.674381  0.390464  1
  Pr  Pr11  1  0.951429  0.825619  0.109536  1
  Pr  Pr12  1  0.451429  0.674381  0.109536  1
  Pr  Pr13  1  0.951429  0.825619  0.390464  1
  Pr  Pr14  1  0.548697  0.325746  0.609616  1
  Pr  Pr15  1  0.048697  0.174254  0.890384  1
  Pr  Pr16  1  0.782383  0.504040  0.250000  1
  Pr  Pr17  1  0.282383  0.995960  0.250000  1
  Sm  Sm18  1  0.218101  0.495724  0.750000  1
  Sm  Sm19  1  0.718101  0.004276  0.750000  1
  Sn  Sn20  1  0.589178  0.622743  0.750000  1
  Sn  Sn21  1  0.089178  0.877257  0.750000  1
  Sn  Sn22  1  0.409572  0.377892  0.250000  1
  Sn  Sn23  1  0.909572  0.122108  0.250000  1
  Sn  Sn24  1  0.350424  0.137827  0.750000  1
  Sn  Sn25  1  0.850424  0.362173  0.750000  1
  Sn  Sn26  1  0.650718  0.863756  0.250000  1
  Sn  Sn27  1  0.150718  0.636244  0.250000  1
  Bi  Bi28  1  0.268802  0.019603  0.044778  1
  Bi  Bi29  1  0.768802  0.480397  0.455222  1
  Bi  Bi30  1  0.731011  0.980516  0.545810  1
  Bi  Bi31  1  0.231011  0.519484  0.954190  1
  Bi  Bi32  1  0.731011  0.980516  0.954190  1
  Bi  Bi33  1  0.231011  0.519484  0.545810  1
  Bi  Bi34  1  0.268802  0.019603  0.455222  1
  Bi  Bi35  1  0.768802  0.480397  0.044778  1
