# generated using pymatgen
data_Ho3Zr13(Si4W)4
_symmetry_space_group_name_H-M   'P 1'
_cell_length_a   7.01624837
_cell_length_b   7.03684303
_cell_length_c   12.83099400
_cell_angle_alpha   90.00352560
_cell_angle_beta   89.95290577
_cell_angle_gamma   89.99620861
_symmetry_Int_Tables_number   1
_chemical_formula_structural   Ho3Zr13(Si4W)4
_chemical_formula_sum   'Ho3 Zr13 Si16 W4'
_cell_volume   633.49467849
_cell_formula_units_Z   1
loop_
 _symmetry_equiv_pos_site_id
 _symmetry_equiv_pos_as_xyz
  1  'x, y, z'
loop_
 _atom_site_type_symbol
 _atom_site_label
 _atom_site_symmetry_multiplicity
 _atom_site_fract_x
 _atom_site_fract_y
 _atom_site_fract_z
 _atom_site_occupancy
  Ho  Ho0  1  0.496043  0.154715  0.533071  1
  Ho  Ho1  1  0.503930  0.844453  0.032621  1
  Ho  Ho2  1  0.656432  0.003485  0.283396  1
  Zr  Zr3  1  0.345972  0.998611  0.783420  1
  Zr  Zr4  1  0.848084  0.499299  0.965835  1
  Zr  Zr5  1  0.152671  0.500629  0.468160  1
  Zr  Zr6  1  0.001276  0.653187  0.718217  1
  Zr  Zr7  1  0.000416  0.348488  0.217483  1
  Zr  Zr8  1  0.494292  0.355303  0.124365  1
  Zr  Zr9  1  0.503847  0.643922  0.626316  1
  Zr  Zr10  1  0.855447  0.005386  0.874417  1
  Zr  Zr11  1  0.145025  0.994507  0.376115  1
  Zr  Zr12  1  0.645941  0.502308  0.374990  1
  Zr  Zr13  1  0.353589  0.497448  0.873898  1
  Zr  Zr14  1  0.003453  0.853915  0.123714  1
  Zr  Zr15  1  0.997367  0.143838  0.626254  1
  Si  Si16  1  0.802822  0.150284  0.068808  1
  Si  Si17  1  0.199018  0.850586  0.571770  1
  Si  Si18  1  0.648217  0.700770  0.820135  1
  Si  Si19  1  0.349410  0.302823  0.319254  1
  Si  Si20  1  0.862083  0.208944  0.430135  1
  Si  Si21  1  0.142198  0.796369  0.926772  1
  Si  Si22  1  0.707721  0.638585  0.180284  1
  Si  Si23  1  0.293578  0.356830  0.680840  1
  Si  Si24  1  0.548215  0.202429  0.932169  1
  Si  Si25  1  0.448883  0.794834  0.434019  1
  Si  Si26  1  0.699656  0.949899  0.684718  1
  Si  Si27  1  0.295430  0.051237  0.183908  1
  Si  Si28  1  0.804100  0.453810  0.567008  1
  Si  Si29  1  0.196282  0.546723  0.065437  1
  Si  Si30  1  0.954567  0.696755  0.316384  1
  Si  Si31  1  0.047144  0.302504  0.815852  1
  W  W32  1  0.675367  0.326940  0.749911  1
  W  W33  1  0.321699  0.670696  0.249955  1
  W  W34  1  0.827348  0.821947  0.501324  1
  W  W35  1  0.172476  0.177544  0.999043  1
