# generated using pymatgen
data_Y2Ho(Al3Os)4
_symmetry_space_group_name_H-M   'P 1'
_cell_length_a   8.84395256
_cell_length_b   8.84395294
_cell_length_c   9.56492100
_cell_angle_alpha   90.00000000
_cell_angle_beta   90.00000000
_cell_angle_gamma   120.04072319
_symmetry_Int_Tables_number   1
_chemical_formula_structural   Y2Ho(Al3Os)4
_chemical_formula_sum   'Y4 Ho2 Al24 Os8'
_cell_volume   647.62929543
_cell_formula_units_Z   2
loop_
 _symmetry_equiv_pos_site_id
 _symmetry_equiv_pos_as_xyz
  1  'x, y, z'
loop_
 _atom_site_type_symbol
 _atom_site_label
 _atom_site_symmetry_multiplicity
 _atom_site_fract_x
 _atom_site_fract_y
 _atom_site_fract_z
 _atom_site_occupancy
  Y  Y0  1  0.193144  0.386399  0.250000  1
  Y  Y1  1  0.806856  0.613601  0.750000  1
  Y  Y2  1  0.613601  0.806856  0.250000  1
  Y  Y3  1  0.386399  0.193144  0.750000  1
  Ho  Ho4  1  0.193333  0.806667  0.250000  1
  Ho  Ho5  1  0.806667  0.193333  0.750000  1
  Al  Al6  1  0.333265  0.666735  0.015472  1
  Al  Al7  1  0.666735  0.333265  0.984528  1
  Al  Al8  1  0.666735  0.333265  0.515472  1
  Al  Al9  1  0.333265  0.666735  0.484528  1
  Al  Al10  1  0.162594  0.325375  0.576003  1
  Al  Al11  1  0.837406  0.674625  0.423997  1
  Al  Al12  1  0.674625  0.837406  0.576003  1
  Al  Al13  1  0.837406  0.674625  0.076003  1
  Al  Al14  1  0.325375  0.162594  0.423997  1
  Al  Al15  1  0.162594  0.325375  0.923997  1
  Al  Al16  1  0.162700  0.837300  0.575665  1
  Al  Al17  1  0.325375  0.162594  0.076003  1
  Al  Al18  1  0.837300  0.162700  0.424335  1
  Al  Al19  1  0.674625  0.837406  0.923997  1
  Al  Al20  1  0.837300  0.162700  0.075665  1
  Al  Al21  1  0.162700  0.837300  0.924335  1
  Al  Al22  1  0.560041  0.120652  0.250000  1
  Al  Al23  1  0.439959  0.879348  0.750000  1
  Al  Al24  1  0.879348  0.439959  0.250000  1
  Al  Al25  1  0.120652  0.560041  0.750000  1
  Al  Al26  1  0.560435  0.439565  0.250000  1
  Al  Al27  1  0.439565  0.560435  0.750000  1
  Al  Al28  1  0.000296  0.999704  0.250000  1
  Al  Al29  1  0.999704  0.000296  0.750000  1
  Os  Os30  1  0.500000  0.000000  0.000000  1
  Os  Os31  1  0.000000  0.500000  0.000000  1
  Os  Os32  1  0.500000  0.000000  0.500000  1
  Os  Os33  1  0.500000  0.500000  0.000000  1
  Os  Os34  1  0.000000  0.500000  0.500000  1
  Os  Os35  1  0.500000  0.500000  0.500000  1
  Os  Os36  1  0.000000  0.000000  0.000000  1
  Os  Os37  1  0.000000  0.000000  0.500000  1
