# generated using pymatgen
data_Tm3Al9Fe4Si3
_symmetry_space_group_name_H-M   'P 1'
_cell_length_a   8.47363423
_cell_length_b   8.47363391
_cell_length_c   9.28302800
_cell_angle_alpha   90.00000000
_cell_angle_beta   90.00000000
_cell_angle_gamma   119.94442842
_symmetry_Int_Tables_number   1
_chemical_formula_structural   Tm3Al9Fe4Si3
_chemical_formula_sum   'Tm6 Al18 Fe8 Si6'
_cell_volume   577.56733751
_cell_formula_units_Z   2
loop_
 _symmetry_equiv_pos_site_id
 _symmetry_equiv_pos_as_xyz
  1  'x, y, z'
loop_
 _atom_site_type_symbol
 _atom_site_label
 _atom_site_symmetry_multiplicity
 _atom_site_fract_x
 _atom_site_fract_y
 _atom_site_fract_z
 _atom_site_occupancy
  Tm  Tm0  1  0.805529  0.194471  0.750000  1
  Tm  Tm1  1  0.194471  0.805529  0.250000  1
  Tm  Tm2  1  0.392399  0.199190  0.750000  1
  Tm  Tm3  1  0.607601  0.800810  0.250000  1
  Tm  Tm4  1  0.800810  0.607601  0.750000  1
  Tm  Tm5  1  0.199190  0.392399  0.250000  1
  Al  Al6  1  0.836582  0.163418  0.424627  1
  Al  Al7  1  0.163418  0.836582  0.575373  1
  Al  Al8  1  0.327806  0.163365  0.425903  1
  Al  Al9  1  0.163418  0.836582  0.924627  1
  Al  Al10  1  0.672194  0.836635  0.574097  1
  Al  Al11  1  0.836582  0.163418  0.075373  1
  Al  Al12  1  0.836635  0.672194  0.425903  1
  Al  Al13  1  0.672194  0.836635  0.925903  1
  Al  Al14  1  0.163365  0.327806  0.574097  1
  Al  Al15  1  0.327806  0.163365  0.074097  1
  Al  Al16  1  0.163365  0.327806  0.925903  1
  Al  Al17  1  0.836635  0.672194  0.074097  1
  Al  Al18  1  0.122797  0.559009  0.750000  1
  Al  Al19  1  0.877203  0.440991  0.250000  1
  Al  Al20  1  0.440991  0.877203  0.750000  1
  Al  Al21  1  0.559009  0.122797  0.250000  1
  Al  Al22  1  0.000517  0.999483  0.750000  1
  Al  Al23  1  0.999483  0.000517  0.250000  1
  Fe  Fe24  1  0.500000  0.500000  0.000000  1
  Fe  Fe25  1  0.000000  0.500000  0.000000  1
  Fe  Fe26  1  0.500000  0.500000  0.500000  1
  Fe  Fe27  1  0.500000  0.000000  0.000000  1
  Fe  Fe28  1  0.000000  0.500000  0.500000  1
  Fe  Fe29  1  0.500000  0.000000  0.500000  1
  Fe  Fe30  1  0.000000  0.000000  0.000000  1
  Fe  Fe31  1  0.000000  0.000000  0.500000  1
  Si  Si32  1  0.668434  0.331566  0.967801  1
  Si  Si33  1  0.331566  0.668434  0.032199  1
  Si  Si34  1  0.331566  0.668434  0.467801  1
  Si  Si35  1  0.668434  0.331566  0.532199  1
  Si  Si36  1  0.439487  0.560513  0.750000  1
  Si  Si37  1  0.560513  0.439487  0.250000  1
