# generated using pymatgen
data_Y5Ho15Cd6CoRu
_symmetry_space_group_name_H-M   'P 1'
_cell_length_a   9.58430700
_cell_length_b   9.58430771
_cell_length_c   9.74811300
_cell_angle_alpha   90.00000000
_cell_angle_beta   90.00000000
_cell_angle_gamma   120.00203200
_symmetry_Int_Tables_number   1
_chemical_formula_structural   Y5Ho15Cd6CoRu
_chemical_formula_sum   'Y5 Ho15 Cd6 Co1 Ru1'
_cell_volume   775.46778138
_cell_formula_units_Z   1
loop_
 _symmetry_equiv_pos_site_id
 _symmetry_equiv_pos_as_xyz
  1  'x, y, z'
loop_
 _atom_site_type_symbol
 _atom_site_label
 _atom_site_symmetry_multiplicity
 _atom_site_fract_x
 _atom_site_fract_y
 _atom_site_fract_z
 _atom_site_occupancy
  Y  Y0  1  0.541433  0.082930  0.250000  1
  Y  Y1  1  0.917070  0.458567  0.250000  1
  Y  Y2  1  0.458502  0.541498  0.750000  1
  Y  Y3  1  0.458503  0.917022  0.750000  1
  Y  Y4  1  0.082978  0.541497  0.750000  1
  Ho  Ho5  1  0.000002  0.999998  0.499886  1
  Ho  Ho6  1  0.000002  0.999998  0.000114  1
  Ho  Ho7  1  0.212204  0.787796  0.435919  1
  Ho  Ho8  1  0.212286  0.424402  0.435868  1
  Ho  Ho9  1  0.575598  0.787714  0.435868  1
  Ho  Ho10  1  0.790524  0.209476  0.560190  1
  Ho  Ho11  1  0.790462  0.581020  0.560149  1
  Ho  Ho12  1  0.418980  0.209538  0.560149  1
  Ho  Ho13  1  0.790524  0.209476  0.939810  1
  Ho  Ho14  1  0.790462  0.581020  0.939851  1
  Ho  Ho15  1  0.418980  0.209538  0.939851  1
  Ho  Ho16  1  0.212204  0.787796  0.064081  1
  Ho  Ho17  1  0.212286  0.424402  0.064132  1
  Ho  Ho18  1  0.575598  0.787714  0.064132  1
  Ho  Ho19  1  0.541396  0.458604  0.250000  1
  Cd  Cd20  1  0.885344  0.114656  0.250000  1
  Cd  Cd21  1  0.885233  0.770586  0.250000  1
  Cd  Cd22  1  0.229414  0.114767  0.250000  1
  Cd  Cd23  1  0.114592  0.885408  0.750000  1
  Cd  Cd24  1  0.114594  0.229176  0.750000  1
  Cd  Cd25  1  0.770824  0.885406  0.750000  1
  Co  Co26  1  0.333337  0.666663  0.250000  1
  Ru  Ru27  1  0.666665  0.333335  0.750000  1
