# generated using pymatgen
data_Y10In5SnCl2
_symmetry_space_group_name_H-M   'P 1'
_cell_length_a   9.09601400
_cell_length_b   9.10572000
_cell_length_c   6.74426900
_cell_angle_alpha   90.00000828
_cell_angle_beta   90.00005698
_cell_angle_gamma   119.96680216
_symmetry_Int_Tables_number   1
_chemical_formula_structural   Y10In5SnCl2
_chemical_formula_sum   'Y10 In5 Sn1 Cl2'
_cell_volume   483.92283104
_cell_formula_units_Z   1
loop_
 _symmetry_equiv_pos_site_id
 _symmetry_equiv_pos_as_xyz
  1  'x, y, z'
loop_
 _atom_site_type_symbol
 _atom_site_label
 _atom_site_symmetry_multiplicity
 _atom_site_fract_x
 _atom_site_fract_y
 _atom_site_fract_z
 _atom_site_occupancy
  Y  Y0  1  0.666497  0.333181  0.999546  1
  Y  Y1  1  0.333317  0.666801  0.999550  1
  Y  Y2  1  0.742764  0.742610  0.249997  1
  Y  Y3  1  0.257315  0.000004  0.250001  1
  Y  Y4  1  0.000159  0.257401  0.250001  1
  Y  Y5  1  0.666506  0.333194  0.500457  1
  Y  Y6  1  0.333328  0.666810  0.500448  1
  Y  Y7  1  0.258165  0.257647  0.749997  1
  Y  Y8  1  0.742478  0.000000  0.750001  1
  Y  Y9  1  0.000522  0.742347  0.750002  1
  In  In10  1  0.999901  0.604853  0.249999  1
  In  In11  1  0.395045  0.395144  0.250000  1
  In  In12  1  0.394068  0.000010  0.749999  1
  In  In13  1  0.999863  0.395227  0.750000  1
  In  In14  1  0.604621  0.604775  0.750001  1
  Sn  Sn15  1  0.606204  0.999996  0.250000  1
  Cl  Cl16  1  0.999623  0.000001  0.000659  1
  Cl  Cl17  1  0.999624  0.000000  0.499341  1
