# generated using pymatgen
data_Tb2Fe10P7W2
_symmetry_space_group_name_H-M   'P 1'
_cell_length_a   9.05829508
_cell_length_b   9.11457273
_cell_length_c   3.67168400
_cell_angle_alpha   90.00000000
_cell_angle_beta   90.00000000
_cell_angle_gamma   119.67696495
_symmetry_Int_Tables_number   1
_chemical_formula_structural   Tb2Fe10P7W2
_chemical_formula_sum   'Tb2 Fe10 P7 W2'
_cell_volume   263.38024823
_cell_formula_units_Z   1
loop_
 _symmetry_equiv_pos_site_id
 _symmetry_equiv_pos_as_xyz
  1  'x, y, z'
loop_
 _atom_site_type_symbol
 _atom_site_label
 _atom_site_symmetry_multiplicity
 _atom_site_fract_x
 _atom_site_fract_y
 _atom_site_fract_z
 _atom_site_occupancy
  Tb  Tb0  1  0.673602  0.338673  0.000000  1
  Tb  Tb1  1  0.329809  0.662755  0.500000  1
  Fe  Fe2  1  0.055574  0.633398  0.000000  1
  Fe  Fe3  1  0.568504  0.946437  0.000000  1
  Fe  Fe4  1  0.375137  0.427007  0.000000  1
  Fe  Fe5  1  0.278556  0.116881  0.000000  1
  Fe  Fe6  1  0.845699  0.725543  0.000000  1
  Fe  Fe7  1  0.882805  0.154719  0.000000  1
  Fe  Fe8  1  0.432378  0.043667  0.500000  1
  Fe  Fe9  1  0.615074  0.564432  0.500000  1
  Fe  Fe10  1  0.949991  0.388649  0.500000  1
  Fe  Fe11  1  0.091761  0.879211  0.500000  1
  P  P12  1  0.290053  0.881607  0.000000  1
  P  P13  1  0.584924  0.695123  0.000000  1
  P  P14  1  0.105757  0.414963  0.000000  1
  P  P15  1  0.413125  0.289318  0.500000  1
  P  P16  1  0.889474  0.600950  0.500000  1
  P  P17  1  0.714841  0.124880  0.500000  1
  P  P18  1  0.004712  0.995312  0.000000  1
  W  W19  1  0.779144  0.896485  0.500000  1
  W  W20  1  0.119076  0.219988  0.500000  1
