# generated using pymatgen
data_Dy7Sn23(RuRh)3
_symmetry_space_group_name_H-M   'P 1'
_cell_length_a   9.88999720
_cell_length_b   9.89177680
_cell_length_c   10.06419870
_cell_angle_alpha   89.80879345
_cell_angle_beta   90.30448320
_cell_angle_gamma   120.11698377
_symmetry_Int_Tables_number   1
_chemical_formula_structural   Dy7Sn23(RuRh)3
_chemical_formula_sum   'Dy7 Sn23 Ru3 Rh3'
_cell_volume   851.64949072
_cell_formula_units_Z   1
loop_
 _symmetry_equiv_pos_site_id
 _symmetry_equiv_pos_as_xyz
  1  'x, y, z'
loop_
 _atom_site_type_symbol
 _atom_site_label
 _atom_site_symmetry_multiplicity
 _atom_site_fract_x
 _atom_site_fract_y
 _atom_site_fract_z
 _atom_site_occupancy
  Dy  Dy0  1  0.001354  0.002594  0.998847  1
  Dy  Dy1  1  0.481731  0.516440  0.306648  1
  Dy  Dy2  1  0.516701  0.483261  0.693927  1
  Dy  Dy3  1  0.481615  0.965707  0.305785  1
  Dy  Dy4  1  0.518219  0.033816  0.694123  1
  Dy  Dy5  1  0.034643  0.517611  0.306457  1
  Dy  Dy6  1  0.966495  0.481865  0.694061  1
  Sn  Sn7  1  0.351939  0.002884  0.000380  1
  Sn  Sn8  1  0.648105  0.997612  0.999471  1
  Sn  Sn9  1  0.002145  0.351561  0.999524  1
  Sn  Sn10  1  0.998965  0.648076  0.999860  1
  Sn  Sn11  1  0.648645  0.650325  0.999579  1
  Sn  Sn12  1  0.349687  0.349489  0.000171  1
  Sn  Sn13  1  0.334981  0.665560  0.822114  1
  Sn  Sn14  1  0.664009  0.332292  0.178113  1
  Sn  Sn15  1  0.999877  0.999732  0.499472  1
  Sn  Sn16  1  0.779426  0.220593  0.461132  1
  Sn  Sn17  1  0.220420  0.779064  0.539042  1
  Sn  Sn18  1  0.779657  0.558558  0.461387  1
  Sn  Sn19  1  0.219891  0.440469  0.539077  1
  Sn  Sn20  1  0.440898  0.220281  0.460977  1
  Sn  Sn21  1  0.559281  0.779783  0.538947  1
  Sn  Sn22  1  0.333120  0.666965  0.124591  1
  Sn  Sn23  1  0.667338  0.333645  0.875400  1
  Sn  Sn24  1  0.118386  0.882735  0.277723  1
  Sn  Sn25  1  0.882667  0.117717  0.723432  1
  Sn  Sn26  1  0.118313  0.234926  0.276486  1
  Sn  Sn27  1  0.881729  0.765235  0.723588  1
  Sn  Sn28  1  0.764775  0.882182  0.277422  1
  Sn  Sn29  1  0.234669  0.118348  0.723424  1
  Ru  Ru30  1  0.169141  0.338916  0.799391  1
  Ru  Ru31  1  0.338914  0.169540  0.200801  1
  Ru  Ru32  1  0.661582  0.831311  0.798974  1
  Rh  Rh33  1  0.829991  0.170720  0.199836  1
  Rh  Rh34  1  0.170312  0.830111  0.799773  1
  Rh  Rh35  1  0.830378  0.660076  0.200067  1
