# generated using pymatgen
data_Tb9Th(In2Rh)4
_symmetry_space_group_name_H-M   'P 1'
_cell_length_a   3.68110300
_cell_length_b   8.08669532
_cell_length_c   18.33309199
_cell_angle_alpha   90.23168494
_cell_angle_beta   90.00000000
_cell_angle_gamma   90.00000000
_symmetry_Int_Tables_number   1
_chemical_formula_structural   Tb9Th(In2Rh)4
_chemical_formula_sum   'Tb9 Th1 In8 Rh4'
_cell_volume   545.73425786
_cell_formula_units_Z   1
loop_
 _symmetry_equiv_pos_site_id
 _symmetry_equiv_pos_as_xyz
  1  'x, y, z'
loop_
 _atom_site_type_symbol
 _atom_site_label
 _atom_site_symmetry_multiplicity
 _atom_site_fract_x
 _atom_site_fract_y
 _atom_site_fract_z
 _atom_site_occupancy
  Tb  Tb0  1  0.000000  0.500014  0.499256  1
  Tb  Tb1  1  0.000000  0.001513  0.998055  1
  Tb  Tb2  1  0.000000  0.254464  0.721184  1
  Tb  Tb3  1  0.000000  0.752721  0.778983  1
  Tb  Tb4  1  0.000000  0.245131  0.221122  1
  Tb  Tb5  1  0.000000  0.616049  0.085751  1
  Tb  Tb6  1  0.000000  0.383087  0.910426  1
  Tb  Tb7  1  0.000000  0.885056  0.590073  1
  Tb  Tb8  1  0.000000  0.113723  0.414176  1
  Th  Th9  1  0.000000  0.747679  0.276705  1
  In  In10  1  0.500000  0.707366  0.931197  1
  In  In11  1  0.500000  0.294255  0.067710  1
  In  In12  1  0.500000  0.793234  0.436655  1
  In  In13  1  0.500000  0.207238  0.568500  1
  In  In14  1  0.500000  0.570745  0.649481  1
  In  In15  1  0.500000  0.421051  0.351350  1
  In  In16  1  0.500000  0.936385  0.144837  1
  In  In17  1  0.500000  0.071044  0.849424  1
  Rh  Rh18  1  0.500000  0.533957  0.200383  1
  Rh  Rh19  1  0.500000  0.478724  0.804402  1
  Rh  Rh20  1  0.500000  0.980802  0.695520  1
  Rh  Rh21  1  0.500000  0.005763  0.304809  1
