# generated using pymatgen
data_Hf6FeSnAs
_symmetry_space_group_name_H-M   'P 1'
_cell_length_a   3.44006900
_cell_length_b   7.75330430
_cell_length_c   7.75330500
_cell_angle_alpha   120.00000724
_cell_angle_beta   90.00000000
_cell_angle_gamma   90.00000000
_symmetry_Int_Tables_number   1
_chemical_formula_structural   Hf6FeSnAs
_chemical_formula_sum   'Hf6 Fe1 Sn1 As1'
_cell_volume   179.09004757
_cell_formula_units_Z   1
loop_
 _symmetry_equiv_pos_site_id
 _symmetry_equiv_pos_as_xyz
  1  'x, y, z'
loop_
 _atom_site_type_symbol
 _atom_site_label
 _atom_site_symmetry_multiplicity
 _atom_site_fract_x
 _atom_site_fract_y
 _atom_site_fract_z
 _atom_site_occupancy
  Hf  Hf0  1  0.500000  0.755712  0.756169  1
  Hf  Hf1  1  0.500000  0.000457  0.244288  1
  Hf  Hf2  1  0.500000  0.243831  0.999543  1
  Hf  Hf3  1  0.000000  0.388835  0.411956  1
  Hf  Hf4  1  0.000000  0.023121  0.611165  1
  Hf  Hf5  1  0.000000  0.588044  0.976879  1
  Fe  Fe6  1  0.000000  0.000000  0.000000  1
  Sn  Sn7  1  0.500000  0.666667  0.333333  1
  As  As8  1  0.500000  0.333333  0.666667  1
