# generated using pymatgen
data_Rb8Cr3SbCl24
_symmetry_space_group_name_H-M   'P 1'
_cell_length_a   12.47284901
_cell_length_b   12.47284918
_cell_length_c   12.47284900
_cell_angle_alpha   132.09777679
_cell_angle_beta   132.09777748
_cell_angle_gamma   70.07464480
_symmetry_Int_Tables_number   1
_chemical_formula_structural   Rb8Cr3SbCl24
_chemical_formula_sum   'Rb8 Cr3 Sb1 Cl24'
_cell_volume   1047.32953169
_cell_formula_units_Z   1
loop_
 _symmetry_equiv_pos_site_id
 _symmetry_equiv_pos_as_xyz
  1  'x, y, z'
loop_
 _atom_site_type_symbol
 _atom_site_label
 _atom_site_symmetry_multiplicity
 _atom_site_fract_x
 _atom_site_fract_y
 _atom_site_fract_z
 _atom_site_occupancy
  Rb  Rb0  1  0.604913  0.605658  0.472599  1
  Rb  Rb1  1  0.867686  0.395087  0.000745  1
  Rb  Rb2  1  0.133059  0.132314  0.527401  1
  Rb  Rb3  1  0.394342  0.866941  0.999255  1
  Rb  Rb4  1  0.133059  0.605658  0.000745  1
  Rb  Rb5  1  0.867686  0.866941  0.472599  1
  Rb  Rb6  1  0.394342  0.395087  0.527401  1
  Rb  Rb7  1  0.604913  0.132314  0.999255  1
  Cr  Cr8  1  0.250000  0.750000  0.500000  1
  Cr  Cr9  1  0.500000  0.500000  0.000000  1
  Cr  Cr10  1  0.750000  0.250000  0.500000  1
  Sb  Sb11  1  0.000000  0.000000  0.000000  1
  Cl  Cl12  1  0.118117  0.118117  0.000000  1
  Cl  Cl13  1  0.481488  0.751787  0.729701  1
  Cl  Cl14  1  0.863815  0.363815  0.500000  1
  Cl  Cl15  1  0.978389  0.248513  0.729877  1
  Cl  Cl16  1  0.881883  0.881883  0.000000  1
  Cl  Cl17  1  0.248213  0.977912  0.729701  1
  Cl  Cl18  1  0.270184  0.499726  0.770459  1
  Cl  Cl19  1  0.500274  0.270732  0.770459  1
  Cl  Cl20  1  0.500274  0.729816  0.229541  1
  Cl  Cl21  1  0.518635  0.248513  0.270123  1
  Cl  Cl22  1  0.999960  0.761572  0.761612  1
  Cl  Cl23  1  0.248213  0.518512  0.270299  1
  Cl  Cl24  1  0.136361  0.636361  0.500000  1
  Cl  Cl25  1  0.729268  0.499726  0.229541  1
  Cl  Cl26  1  0.238428  0.000040  0.238388  1
  Cl  Cl27  1  0.751487  0.021611  0.270123  1
  Cl  Cl28  1  0.761652  0.000040  0.761612  1
  Cl  Cl29  1  0.636185  0.136185  0.500000  1
  Cl  Cl30  1  0.385719  0.385719  0.000000  1
  Cl  Cl31  1  0.614281  0.614281  0.000000  1
  Cl  Cl32  1  0.751487  0.481365  0.729877  1
  Cl  Cl33  1  0.022088  0.751787  0.270299  1
  Cl  Cl34  1  0.999960  0.238348  0.238388  1
  Cl  Cl35  1  0.363639  0.863639  0.500000  1
