# generated using pymatgen
data_SrYb11(SiAg)12
_symmetry_space_group_name_H-M   'P 1'
_cell_length_a   4.52851700
_cell_length_b   7.71058140
_cell_length_c   21.35877605
_cell_angle_alpha   90.15258908
_cell_angle_beta   90.00000000
_cell_angle_gamma   90.00000000
_symmetry_Int_Tables_number   1
_chemical_formula_structural   SrYb11(SiAg)12
_chemical_formula_sum   'Sr1 Yb11 Si12 Ag12'
_cell_volume   745.79239544
_cell_formula_units_Z   1
loop_
 _symmetry_equiv_pos_site_id
 _symmetry_equiv_pos_as_xyz
  1  'x, y, z'
loop_
 _atom_site_type_symbol
 _atom_site_label
 _atom_site_symmetry_multiplicity
 _atom_site_fract_x
 _atom_site_fract_y
 _atom_site_fract_z
 _atom_site_occupancy
  Sr  Sr0  1  0.750000  0.701783  0.832425  1
  Yb  Yb1  1  0.250000  0.217757  0.001695  1
  Yb  Yb2  1  0.250000  0.280716  0.498973  1
  Yb  Yb3  1  0.750000  0.781580  0.002140  1
  Yb  Yb4  1  0.750000  0.719461  0.499323  1
  Yb  Yb5  1  0.250000  0.204219  0.333546  1
  Yb  Yb6  1  0.250000  0.294453  0.834126  1
  Yb  Yb7  1  0.750000  0.795871  0.664541  1
  Yb  Yb8  1  0.750000  0.704199  0.167271  1
  Yb  Yb9  1  0.250000  0.208612  0.665045  1
  Yb  Yb10  1  0.250000  0.292914  0.168076  1
  Yb  Yb11  1  0.750000  0.792941  0.332877  1
  Si  Si12  1  0.250000  0.581755  0.721006  1
  Si  Si13  1  0.250000  0.918379  0.224618  1
  Si  Si14  1  0.750000  0.418246  0.275986  1
  Si  Si15  1  0.750000  0.085975  0.775149  1
  Si  Si16  1  0.250000  0.912355  0.107358  1
  Si  Si17  1  0.250000  0.587457  0.604282  1
  Si  Si18  1  0.750000  0.090004  0.894047  1
  Si  Si19  1  0.750000  0.413138  0.393349  1
  Si  Si20  1  0.250000  0.589109  0.932633  1
  Si  Si21  1  0.250000  0.908946  0.428439  1
  Si  Si22  1  0.750000  0.407954  0.072939  1
  Si  Si23  1  0.750000  0.091062  0.570567  1
  Ag  Ag24  1  0.250000  0.919698  0.758752  1
  Ag  Ag25  1  0.250000  0.588675  0.262774  1
  Ag  Ag26  1  0.750000  0.088356  0.237812  1
  Ag  Ag27  1  0.750000  0.406206  0.733334  1
  Ag  Ag28  1  0.250000  0.922118  0.908618  1
  Ag  Ag29  1  0.250000  0.581326  0.405164  1
  Ag  Ag30  1  0.750000  0.080935  0.095672  1
  Ag  Ag31  1  0.750000  0.419105  0.592654  1
  Ag  Ag32  1  0.250000  0.916381  0.564348  1
  Ag  Ag33  1  0.250000  0.582972  0.066341  1
  Ag  Ag34  1  0.750000  0.083729  0.434516  1
  Ag  Ag35  1  0.750000  0.411612  0.939606  1
