# generated using pymatgen
data_Zr18Re8NiRh
_symmetry_space_group_name_H-M   'P 1'
_cell_length_a   8.70549000
_cell_length_b   8.70548957
_cell_length_c   8.63375600
_cell_angle_alpha   90.00000000
_cell_angle_beta   90.00000000
_cell_angle_gamma   120.00000162
_symmetry_Int_Tables_number   1
_chemical_formula_structural   Zr18Re8NiRh
_chemical_formula_sum   'Zr18 Re8 Ni1 Rh1'
_cell_volume   566.65250908
_cell_formula_units_Z   1
loop_
 _symmetry_equiv_pos_site_id
 _symmetry_equiv_pos_as_xyz
  1  'x, y, z'
loop_
 _atom_site_type_symbol
 _atom_site_label
 _atom_site_symmetry_multiplicity
 _atom_site_fract_x
 _atom_site_fract_y
 _atom_site_fract_z
 _atom_site_occupancy
  Zr  Zr0  1  0.196997  0.803003  0.442144  1
  Zr  Zr1  1  0.196997  0.393992  0.442144  1
  Zr  Zr2  1  0.606008  0.803003  0.442144  1
  Zr  Zr3  1  0.804271  0.195729  0.554777  1
  Zr  Zr4  1  0.804271  0.608543  0.554777  1
  Zr  Zr5  1  0.391457  0.195729  0.554777  1
  Zr  Zr6  1  0.804271  0.195729  0.945223  1
  Zr  Zr7  1  0.804271  0.608543  0.945223  1
  Zr  Zr8  1  0.391457  0.195729  0.945223  1
  Zr  Zr9  1  0.196997  0.803003  0.057856  1
  Zr  Zr10  1  0.196997  0.393992  0.057856  1
  Zr  Zr11  1  0.606008  0.803003  0.057856  1
  Zr  Zr12  1  0.542708  0.457292  0.250000  1
  Zr  Zr13  1  0.542708  0.085415  0.250000  1
  Zr  Zr14  1  0.914585  0.457292  0.250000  1
  Zr  Zr15  1  0.456452  0.543548  0.750000  1
  Zr  Zr16  1  0.456452  0.912904  0.750000  1
  Zr  Zr17  1  0.087096  0.543548  0.750000  1
  Re  Re18  1  0.892286  0.107714  0.250000  1
  Re  Re19  1  0.892286  0.784573  0.250000  1
  Re  Re20  1  0.215427  0.107714  0.250000  1
  Re  Re21  1  0.107867  0.892133  0.750000  1
  Re  Re22  1  0.107867  0.215734  0.750000  1
  Re  Re23  1  0.784266  0.892133  0.750000  1
  Re  Re24  1  0.000000  0.000000  0.500123  1
  Re  Re25  1  0.000000  0.000000  0.999877  1
  Ni  Ni26  1  0.333333  0.666667  0.250000  1
  Rh  Rh27  1  0.666667  0.333333  0.750000  1
