# generated using pymatgen
data_Y4Al18CuRe2Pd3
_symmetry_space_group_name_H-M   'P 1'
_cell_length_a   7.59666715
_cell_length_b   7.59666566
_cell_length_c   9.52971627
_cell_angle_alpha   89.93860277
_cell_angle_beta   89.93860905
_cell_angle_gamma   118.77757932
_symmetry_Int_Tables_number   1
_chemical_formula_structural   Y4Al18CuRe2Pd3
_chemical_formula_sum   'Y4 Al18 Cu1 Re2 Pd3'
_cell_volume   482.03062077
_cell_formula_units_Z   1
loop_
 _symmetry_equiv_pos_site_id
 _symmetry_equiv_pos_as_xyz
  1  'x, y, z'
loop_
 _atom_site_type_symbol
 _atom_site_label
 _atom_site_symmetry_multiplicity
 _atom_site_fract_x
 _atom_site_fract_y
 _atom_site_fract_z
 _atom_site_occupancy
  Y  Y0  1  0.994017  0.679962  0.249670  1
  Y  Y1  1  0.005267  0.319685  0.750393  1
  Y  Y2  1  0.680315  0.994733  0.249607  1
  Y  Y3  1  0.320038  0.005983  0.750330  1
  Al  Al4  1  0.132534  0.132438  0.249790  1
  Al  Al5  1  0.867562  0.867466  0.750210  1
  Al  Al6  1  0.000994  0.334917  0.076093  1
  Al  Al7  1  0.997945  0.664821  0.923790  1
  Al  Al8  1  0.998315  0.664924  0.575909  1
  Al  Al9  1  0.335076  0.001685  0.424091  1
  Al  Al10  1  0.001869  0.334932  0.423764  1
  Al  Al11  1  0.665068  0.998131  0.576236  1
  Al  Al12  1  0.665083  0.999006  0.923907  1
  Al  Al13  1  0.335179  0.002055  0.076210  1
  Al  Al14  1  0.329840  0.329822  0.549156  1
  Al  Al15  1  0.670178  0.670160  0.450844  1
  Al  Al16  1  0.669417  0.668563  0.049580  1
  Al  Al17  1  0.331437  0.330583  0.950420  1
  Al  Al18  1  0.344547  0.552415  0.250125  1
  Al  Al19  1  0.655375  0.446900  0.750882  1
  Al  Al20  1  0.553100  0.344625  0.249118  1
  Al  Al21  1  0.447585  0.655453  0.749875  1
  Cu  Cu22  1  0.671596  0.328404  0.000000  1
  Re  Re23  1  0.999509  0.000491  0.000000  1
  Re  Re24  1  0.000005  0.999995  0.500000  1
  Pd  Pd25  1  0.328131  0.671869  0.000000  1
  Pd  Pd26  1  0.328083  0.671917  0.500000  1
  Pd  Pd27  1  0.671936  0.328064  0.500000  1
