# generated using pymatgen
data_HoEr4(Co2Sn5)2
_symmetry_space_group_name_H-M   'P 1'
_cell_length_a   13.79564500
_cell_length_b   13.79564500
_cell_length_c   4.42361200
_cell_angle_alpha   90.00000000
_cell_angle_beta   90.00000000
_cell_angle_gamma   90.00000000
_symmetry_Int_Tables_number   1
_chemical_formula_structural   HoEr4(Co2Sn5)2
_chemical_formula_sum   'Ho2 Er8 Co8 Sn20'
_cell_volume   841.90104386
_cell_formula_units_Z   2
loop_
 _symmetry_equiv_pos_site_id
 _symmetry_equiv_pos_as_xyz
  1  'x, y, z'
loop_
 _atom_site_type_symbol
 _atom_site_label
 _atom_site_symmetry_multiplicity
 _atom_site_fract_x
 _atom_site_fract_y
 _atom_site_fract_z
 _atom_site_occupancy
  Ho  Ho0  1  0.000000  0.000000  0.000000  1
  Ho  Ho1  1  0.500000  0.500000  0.000000  1
  Er  Er2  1  0.179341  0.679341  0.500000  1
  Er  Er3  1  0.820659  0.320659  0.500000  1
  Er  Er4  1  0.679341  0.820659  0.500000  1
  Er  Er5  1  0.320659  0.179341  0.500000  1
  Er  Er6  1  0.891563  0.608437  0.500000  1
  Er  Er7  1  0.108437  0.391563  0.500000  1
  Er  Er8  1  0.391563  0.891563  0.500000  1
  Er  Er9  1  0.608437  0.108437  0.500000  1
  Co  Co10  1  0.253986  0.533092  0.000000  1
  Co  Co11  1  0.746014  0.466908  0.000000  1
  Co  Co12  1  0.753986  0.966908  0.000000  1
  Co  Co13  1  0.246014  0.033092  0.000000  1
  Co  Co14  1  0.466908  0.253986  0.000000  1
  Co  Co15  1  0.533092  0.746014  0.000000  1
  Co  Co16  1  0.033092  0.753986  0.000000  1
  Co  Co17  1  0.966908  0.246014  0.000000  1
  Sn  Sn18  1  0.350724  0.699855  0.000000  1
  Sn  Sn19  1  0.649276  0.300145  0.000000  1
  Sn  Sn20  1  0.850724  0.800145  0.000000  1
  Sn  Sn21  1  0.149276  0.199855  0.000000  1
  Sn  Sn22  1  0.300145  0.350724  0.000000  1
  Sn  Sn23  1  0.699855  0.649276  0.000000  1
  Sn  Sn24  1  0.199855  0.850724  0.000000  1
  Sn  Sn25  1  0.800145  0.149276  0.000000  1
  Sn  Sn26  1  0.334516  0.511051  0.500000  1
  Sn  Sn27  1  0.665484  0.488949  0.500000  1
  Sn  Sn28  1  0.834516  0.988949  0.500000  1
  Sn  Sn29  1  0.165484  0.011051  0.500000  1
  Sn  Sn30  1  0.488949  0.334516  0.500000  1
  Sn  Sn31  1  0.511051  0.665484  0.500000  1
  Sn  Sn32  1  0.011051  0.834516  0.500000  1
  Sn  Sn33  1  0.988949  0.165484  0.500000  1
  Sn  Sn34  1  0.072138  0.572138  0.000000  1
  Sn  Sn35  1  0.927862  0.427862  0.000000  1
  Sn  Sn36  1  0.572138  0.927862  0.000000  1
  Sn  Sn37  1  0.427862  0.072138  0.000000  1
