# generated using pymatgen
data_Sc12CoTc2Ni
_symmetry_space_group_name_H-M   'P 1'
_cell_length_a   5.89953300
_cell_length_b   8.64565700
_cell_length_c   13.13115300
_cell_angle_alpha   90.00000000
_cell_angle_beta   90.00000000
_cell_angle_gamma   90.00000000
_symmetry_Int_Tables_number   1
_chemical_formula_structural   Sc12CoTc2Ni
_chemical_formula_sum   'Sc24 Co2 Tc4 Ni2'
_cell_volume   669.75890731
_cell_formula_units_Z   2
loop_
 _symmetry_equiv_pos_site_id
 _symmetry_equiv_pos_as_xyz
  1  'x, y, z'
loop_
 _atom_site_type_symbol
 _atom_site_label
 _atom_site_symmetry_multiplicity
 _atom_site_fract_x
 _atom_site_fract_y
 _atom_site_fract_z
 _atom_site_occupancy
  Sc  Sc0  1  0.527773  0.750000  0.352344  1
  Sc  Sc1  1  0.027773  0.250000  0.147656  1
  Sc  Sc2  1  0.471201  0.250000  0.648290  1
  Sc  Sc3  1  0.971201  0.750000  0.851710  1
  Sc  Sc4  1  0.790244  0.750000  0.113561  1
  Sc  Sc5  1  0.290244  0.250000  0.386439  1
  Sc  Sc6  1  0.212531  0.250000  0.886461  1
  Sc  Sc7  1  0.712531  0.750000  0.613539  1
  Sc  Sc8  1  0.409317  0.935632  0.784806  1
  Sc  Sc9  1  0.909317  0.064368  0.715194  1
  Sc  Sc10  1  0.591519  0.435683  0.214677  1
  Sc  Sc11  1  0.091519  0.564317  0.285323  1
  Sc  Sc12  1  0.591519  0.064317  0.214677  1
  Sc  Sc13  1  0.091519  0.935683  0.285323  1
  Sc  Sc14  1  0.409317  0.564368  0.784806  1
  Sc  Sc15  1  0.909317  0.435632  0.715194  1
  Sc  Sc16  1  0.245996  0.940116  0.537230  1
  Sc  Sc17  1  0.745996  0.059884  0.962770  1
  Sc  Sc18  1  0.753741  0.442930  0.464927  1
  Sc  Sc19  1  0.253741  0.557070  0.035073  1
  Sc  Sc20  1  0.753741  0.057070  0.464927  1
  Sc  Sc21  1  0.253741  0.942930  0.035073  1
  Sc  Sc22  1  0.245996  0.559884  0.537230  1
  Sc  Sc23  1  0.745996  0.440116  0.962770  1
  Co  Co24  1  0.629993  0.250000  0.820856  1
  Co  Co25  1  0.129993  0.750000  0.679144  1
  Tc  Tc26  1  0.933937  0.750000  0.438031  1
  Tc  Tc27  1  0.433937  0.250000  0.061969  1
  Tc  Tc28  1  0.064732  0.250000  0.559544  1
  Tc  Tc29  1  0.564732  0.750000  0.940456  1
  Ni  Ni30  1  0.368444  0.750000  0.175800  1
  Ni  Ni31  1  0.868444  0.250000  0.324200  1
