# generated using pymatgen
data_Nb5Sn2Ru
_symmetry_space_group_name_H-M   'P 1'
_cell_length_a   5.23715000
_cell_length_b   5.28358400
_cell_length_c   5.28358400
_cell_angle_alpha   90.00000000
_cell_angle_beta   90.00000000
_cell_angle_gamma   90.00000000
_symmetry_Int_Tables_number   1
_chemical_formula_structural   Nb5Sn2Ru
_chemical_formula_sum   'Nb5 Sn2 Ru1'
_cell_volume   146.20164046
_cell_formula_units_Z   1
loop_
 _symmetry_equiv_pos_site_id
 _symmetry_equiv_pos_as_xyz
  1  'x, y, z'
loop_
 _atom_site_type_symbol
 _atom_site_label
 _atom_site_symmetry_multiplicity
 _atom_site_fract_x
 _atom_site_fract_y
 _atom_site_fract_z
 _atom_site_occupancy
  Nb  Nb0  1  0.750000  0.000000  0.500000  1
  Nb  Nb1  1  0.998691  0.500000  0.249007  1
  Nb  Nb2  1  0.998691  0.500000  0.750993  1
  Nb  Nb3  1  0.501309  0.749007  0.000000  1
  Nb  Nb4  1  0.501309  0.250993  0.000000  1
  Sn  Sn5  1  0.001199  0.000000  0.000000  1
  Sn  Sn6  1  0.498801  0.500000  0.500000  1
  Ru  Ru7  1  0.250000  0.000000  0.500000  1
