# generated using pymatgen
data_Er5Cr3(Fe4P3)4
_symmetry_space_group_name_H-M   'P 1'
_cell_length_a   12.02060600
_cell_length_b   12.02060536
_cell_length_c   3.67384900
_cell_angle_alpha   90.00000000
_cell_angle_beta   90.00000000
_cell_angle_gamma   119.99999627
_symmetry_Int_Tables_number   1
_chemical_formula_structural   Er5Cr3(Fe4P3)4
_chemical_formula_sum   'Er5 Cr3 Fe16 P12'
_cell_volume   459.73191305
_cell_formula_units_Z   1
loop_
 _symmetry_equiv_pos_site_id
 _symmetry_equiv_pos_as_xyz
  1  'x, y, z'
loop_
 _atom_site_type_symbol
 _atom_site_label
 _atom_site_symmetry_multiplicity
 _atom_site_fract_x
 _atom_site_fract_y
 _atom_site_fract_z
 _atom_site_occupancy
  Er  Er0  1  0.666667  0.333333  0.000000  1
  Er  Er1  1  0.333333  0.666667  0.000000  1
  Er  Er2  1  0.182810  0.182810  0.500000  1
  Er  Er3  1  0.817190  0.000000  0.500000  1
  Er  Er4  1  0.000000  0.817190  0.500000  1
  Cr  Cr5  1  0.557545  0.557545  0.000000  1
  Cr  Cr6  1  0.442455  0.000000  0.000000  1
  Cr  Cr7  1  0.000000  0.442455  0.000000  1
  Fe  Fe8  1  0.819204  0.199987  0.000000  1
  Fe  Fe9  1  0.800013  0.619217  0.000000  1
  Fe  Fe10  1  0.380783  0.180796  0.000000  1
  Fe  Fe11  1  0.199987  0.819204  0.000000  1
  Fe  Fe12  1  0.619217  0.800013  0.000000  1
  Fe  Fe13  1  0.180796  0.380783  0.000000  1
  Fe  Fe14  1  0.643560  0.122478  0.500000  1
  Fe  Fe15  1  0.877522  0.521083  0.500000  1
  Fe  Fe16  1  0.478917  0.356440  0.500000  1
  Fe  Fe17  1  0.122478  0.643560  0.500000  1
  Fe  Fe18  1  0.521083  0.877522  0.500000  1
  Fe  Fe19  1  0.356440  0.478917  0.500000  1
  Fe  Fe20  1  0.716126  0.716126  0.500000  1
  Fe  Fe21  1  0.283874  0.000000  0.500000  1
  Fe  Fe22  1  0.000000  0.283874  0.500000  1
  Fe  Fe23  1  0.000000  0.000000  0.000000  1
  P  P24  1  0.363083  0.363083  0.000000  1
  P  P25  1  0.636917  0.000000  0.000000  1
  P  P26  1  0.000000  0.636917  0.000000  1
  P  P27  1  0.835363  0.315351  0.500000  1
  P  P28  1  0.684649  0.520012  0.500000  1
  P  P29  1  0.479988  0.164637  0.500000  1
  P  P30  1  0.315351  0.835363  0.500000  1
  P  P31  1  0.520012  0.684649  0.500000  1
  P  P32  1  0.164637  0.479988  0.500000  1
  P  P33  1  0.816073  0.816073  0.000000  1
  P  P34  1  0.183927  0.000000  0.000000  1
  P  P35  1  0.000000  0.183927  0.000000  1
