# generated using pymatgen
data_Er6ZrCr(Co4P3)4
_symmetry_space_group_name_H-M   'P 1'
_cell_length_a   3.68979900
_cell_length_b   10.56198300
_cell_length_c   12.25191400
_cell_angle_alpha   90.00000000
_cell_angle_beta   90.00000000
_cell_angle_gamma   90.00000000
_symmetry_Int_Tables_number   1
_chemical_formula_structural   Er6ZrCr(Co4P3)4
_chemical_formula_sum   'Er6 Zr1 Cr1 Co16 P12'
_cell_volume   477.47662195
_cell_formula_units_Z   1
loop_
 _symmetry_equiv_pos_site_id
 _symmetry_equiv_pos_as_xyz
  1  'x, y, z'
loop_
 _atom_site_type_symbol
 _atom_site_label
 _atom_site_symmetry_multiplicity
 _atom_site_fract_x
 _atom_site_fract_y
 _atom_site_fract_z
 _atom_site_occupancy
  Er  Er0  1  0.750000  0.250000  0.476872  1
  Er  Er1  1  0.250000  0.750000  0.529767  1
  Er  Er2  1  0.250000  0.932025  0.795744  1
  Er  Er3  1  0.250000  0.567975  0.795744  1
  Er  Er4  1  0.750000  0.072419  0.205653  1
  Er  Er5  1  0.750000  0.427581  0.205653  1
  Zr  Zr6  1  0.750000  0.750000  0.155587  1
  Cr  Cr7  1  0.250000  0.250000  0.840625  1
  Co  Co8  1  0.250000  0.250000  0.296652  1
  Co  Co9  1  0.750000  0.750000  0.703180  1
  Co  Co10  1  0.750000  0.250000  0.009518  1
  Co  Co11  1  0.250000  0.750000  0.983498  1
  Co  Co12  1  0.250000  0.412282  0.002184  1
  Co  Co13  1  0.250000  0.087718  0.002184  1
  Co  Co14  1  0.750000  0.576287  0.988280  1
  Co  Co15  1  0.750000  0.923713  0.988280  1
  Co  Co16  1  0.250000  0.452370  0.570193  1
  Co  Co17  1  0.250000  0.047630  0.570193  1
  Co  Co18  1  0.750000  0.543985  0.434988  1
  Co  Co19  1  0.750000  0.956015  0.434988  1
  Co  Co20  1  0.250000  0.873882  0.298015  1
  Co  Co21  1  0.250000  0.626118  0.298015  1
  Co  Co22  1  0.750000  0.129945  0.706485  1
  Co  Co23  1  0.750000  0.370055  0.706485  1
  P  P24  1  0.250000  0.250000  0.116608  1
  P  P25  1  0.750000  0.750000  0.881838  1
  P  P26  1  0.250000  0.250000  0.653928  1
  P  P27  1  0.750000  0.750000  0.363512  1
  P  P28  1  0.250000  0.436892  0.385756  1
  P  P29  1  0.250000  0.063108  0.385756  1
  P  P30  1  0.750000  0.560375  0.618225  1
  P  P31  1  0.750000  0.939625  0.618225  1
  P  P32  1  0.250000  0.915219  0.102172  1
  P  P33  1  0.250000  0.584781  0.102172  1
  P  P34  1  0.750000  0.100539  0.886511  1
  P  P35  1  0.750000  0.399461  0.886511  1
