# generated using pymatgen
data_TmLu3Pd3PtO14
_symmetry_space_group_name_H-M   'P 1'
_cell_length_a   7.17062724
_cell_length_b   7.17062750
_cell_length_c   7.16409242
_cell_angle_alpha   59.96982461
_cell_angle_beta   59.96982780
_cell_angle_gamma   60.00000480
_symmetry_Int_Tables_number   1
_chemical_formula_structural   TmLu3Pd3PtO14
_chemical_formula_sum   'Tm1 Lu3 Pd3 Pt1 O14'
_cell_volume   260.35281924
_cell_formula_units_Z   1
loop_
 _symmetry_equiv_pos_site_id
 _symmetry_equiv_pos_as_xyz
  1  'x, y, z'
loop_
 _atom_site_type_symbol
 _atom_site_label
 _atom_site_symmetry_multiplicity
 _atom_site_fract_x
 _atom_site_fract_y
 _atom_site_fract_z
 _atom_site_occupancy
  Tm  Tm0  1  0.625000  0.625000  0.125000  1
  Lu  Lu1  1  0.625000  0.625000  0.625000  1
  Lu  Lu2  1  0.625000  0.125000  0.625000  1
  Lu  Lu3  1  0.125000  0.625000  0.625000  1
  Pd  Pd4  1  0.125000  0.125000  0.125000  1
  Pd  Pd5  1  0.625000  0.125000  0.125000  1
  Pd  Pd6  1  0.125000  0.625000  0.125000  1
  Pt  Pt7  1  0.125000  0.125000  0.625000  1
  O  O8  1  0.030643  0.468485  0.470228  1
  O  O9  1  0.781469  0.781469  0.219345  1
  O  O10  1  0.781469  0.217718  0.219345  1
  O  O11  1  0.468485  0.030643  0.470228  1
  O  O12  1  0.750935  0.750935  0.747196  1
  O  O13  1  0.032282  0.468531  0.030655  1
  O  O14  1  0.030643  0.030643  0.470228  1
  O  O15  1  0.217718  0.781469  0.219345  1
  O  O16  1  0.219357  0.219357  0.779772  1
  O  O17  1  0.781515  0.219357  0.779772  1
  O  O18  1  0.499065  0.499065  0.502804  1
  O  O19  1  0.468531  0.032282  0.030655  1
  O  O20  1  0.468531  0.468531  0.030655  1
  O  O21  1  0.219357  0.781515  0.779772  1
