# generated using pymatgen
data_Ho9Tm3InCo4Cu
_symmetry_space_group_name_H-M   'P 1'
_cell_length_a   8.25676285
_cell_length_b   8.25608017
_cell_length_c   8.25676261
_cell_angle_alpha   111.10909281
_cell_angle_beta   110.74068001
_cell_angle_gamma   106.60484546
_symmetry_Int_Tables_number   1
_chemical_formula_structural   Ho9Tm3InCo4Cu
_chemical_formula_sum   'Ho9 Tm3 In1 Co4 Cu1'
_cell_volume   432.45220795
_cell_formula_units_Z   1
loop_
 _symmetry_equiv_pos_site_id
 _symmetry_equiv_pos_as_xyz
  1  'x, y, z'
loop_
 _atom_site_type_symbol
 _atom_site_label
 _atom_site_symmetry_multiplicity
 _atom_site_fract_x
 _atom_site_fract_y
 _atom_site_fract_z
 _atom_site_occupancy
  Ho  Ho0  1  0.683988  0.989048  0.305058  1
  Ho  Ho1  1  0.185962  0.290143  0.475811  1
  Ho  Ho2  1  0.814323  0.709859  0.524356  1
  Ho  Ho3  1  0.185503  0.709859  0.895535  1
  Ho  Ho4  1  0.814331  0.290143  0.104182  1
  Ho  Ho5  1  0.417371  0.218526  0.199082  1
  Ho  Ho6  1  0.582429  0.781558  0.800677  1
  Ho  Ho7  1  0.019443  0.218526  0.801154  1
  Ho  Ho8  1  0.980881  0.781558  0.199128  1
  Tm  Tm9  1  0.315993  0.621431  0.305438  1
  Tm  Tm10  1  0.683852  0.378616  0.694764  1
  Tm  Tm11  1  0.316116  0.010671  0.694557  1
  In  In12  1  0.499929  0.499804  0.999875  1
  Co  Co13  1  0.113090  0.613089  0.499999  1
  Co  Co14  1  0.887117  0.387239  0.500122  1
  Co  Co15  1  0.376081  0.999968  0.376368  1
  Co  Co16  1  0.623601  0.999968  0.623887  1
  Cu  Cu17  1  0.999989  0.999995  0.000006  1
