# generated using pymatgen
data_Pa3GaPt5
_symmetry_space_group_name_H-M   'P 1'
_cell_length_a   8.21543245
_cell_length_b   8.21543372
_cell_length_c   13.42718900
_cell_angle_alpha   90.00000000
_cell_angle_beta   90.00000000
_cell_angle_gamma   127.93019454
_symmetry_Int_Tables_number   1
_chemical_formula_structural   Pa3GaPt5
_chemical_formula_sum   'Pa12 Ga4 Pt20'
_cell_volume   714.81069778
_cell_formula_units_Z   4
loop_
 _symmetry_equiv_pos_site_id
 _symmetry_equiv_pos_as_xyz
  1  'x, y, z'
loop_
 _atom_site_type_symbol
 _atom_site_label
 _atom_site_symmetry_multiplicity
 _atom_site_fract_x
 _atom_site_fract_y
 _atom_site_fract_z
 _atom_site_occupancy
  Pa  Pa0  1  0.934055  0.065945  0.250000  1
  Pa  Pa1  1  0.065945  0.934055  0.750000  1
  Pa  Pa2  1  0.315294  0.684706  0.250000  1
  Pa  Pa3  1  0.684706  0.315294  0.750000  1
  Pa  Pa4  1  0.630860  0.369140  0.464793  1
  Pa  Pa5  1  0.369140  0.630860  0.535207  1
  Pa  Pa6  1  0.630860  0.369140  0.035207  1
  Pa  Pa7  1  0.369140  0.630860  0.964793  1
  Pa  Pa8  1  0.881255  0.118745  0.947608  1
  Pa  Pa9  1  0.118745  0.881255  0.052392  1
  Pa  Pa10  1  0.881255  0.118745  0.552392  1
  Pa  Pa11  1  0.118745  0.881255  0.447608  1
  Ga  Ga12  1  0.724138  0.275862  0.250000  1
  Ga  Ga13  1  0.275862  0.724138  0.750000  1
  Ga  Ga14  1  0.528946  0.471054  0.250000  1
  Ga  Ga15  1  0.471054  0.528946  0.750000  1
  Pt  Pt16  1  0.317038  0.062617  0.250000  1
  Pt  Pt17  1  0.062617  0.317038  0.750000  1
  Pt  Pt18  1  0.682962  0.937383  0.750000  1
  Pt  Pt19  1  0.937383  0.682962  0.250000  1
  Pt  Pt20  1  0.563678  0.999447  0.398738  1
  Pt  Pt21  1  0.999447  0.563678  0.601262  1
  Pt  Pt22  1  0.563678  0.999447  0.101262  1
  Pt  Pt23  1  0.999447  0.563678  0.898738  1
  Pt  Pt24  1  0.436322  0.000553  0.601262  1
  Pt  Pt25  1  0.000553  0.436322  0.398738  1
  Pt  Pt26  1  0.436322  0.000553  0.898738  1
  Pt  Pt27  1  0.000553  0.436322  0.101262  1
  Pt  Pt28  1  0.693173  0.745474  0.396512  1
  Pt  Pt29  1  0.745474  0.693173  0.603488  1
  Pt  Pt30  1  0.693173  0.745474  0.103488  1
  Pt  Pt31  1  0.745474  0.693173  0.896512  1
  Pt  Pt32  1  0.306827  0.254526  0.603488  1
  Pt  Pt33  1  0.254526  0.306827  0.396512  1
  Pt  Pt34  1  0.306827  0.254526  0.896512  1
  Pt  Pt35  1  0.254526  0.306827  0.103488  1
