# generated using pymatgen
data_SmErTmRuO7
_symmetry_space_group_name_H-M   'P 1'
_cell_length_a   6.37989022
_cell_length_b   6.38259844
_cell_length_c   7.42955200
_cell_angle_alpha   90.00000000
_cell_angle_beta   90.00000000
_cell_angle_gamma   109.86490567
_symmetry_Int_Tables_number   1
_chemical_formula_structural   SmErTmRuO7
_chemical_formula_sum   'Sm2 Er2 Tm2 Ru2 O14'
_cell_volume   284.53160157
_cell_formula_units_Z   2
loop_
 _symmetry_equiv_pos_site_id
 _symmetry_equiv_pos_as_xyz
  1  'x, y, z'
loop_
 _atom_site_type_symbol
 _atom_site_label
 _atom_site_symmetry_multiplicity
 _atom_site_fract_x
 _atom_site_fract_y
 _atom_site_fract_z
 _atom_site_occupancy
  Sm  Sm0  1  0.000000  0.000000  0.500000  1
  Sm  Sm1  1  0.000000  0.000000  0.000000  1
  Er  Er2  1  0.483269  0.932917  0.750000  1
  Er  Er3  1  0.516731  0.067083  0.250000  1
  Tm  Tm4  1  0.934427  0.483714  0.750000  1
  Tm  Tm5  1  0.065573  0.516286  0.250000  1
  Ru  Ru6  1  0.500000  0.500000  0.500000  1
  Ru  Ru7  1  0.500000  0.500000  0.000000  1
  O  O8  1  0.592330  0.591140  0.750000  1
  O  O9  1  0.407670  0.408860  0.250000  1
  O  O10  1  0.840082  0.119323  0.750000  1
  O  O11  1  0.159918  0.880677  0.250000  1
  O  O12  1  0.116303  0.838271  0.750000  1
  O  O13  1  0.883697  0.161729  0.250000  1
  O  O14  1  0.438189  0.179072  0.962781  1
  O  O15  1  0.561811  0.820928  0.462781  1
  O  O16  1  0.178914  0.439575  0.963082  1
  O  O17  1  0.821086  0.560425  0.463082  1
  O  O18  1  0.438189  0.179072  0.537219  1
  O  O19  1  0.561811  0.820928  0.037219  1
  O  O20  1  0.821086  0.560425  0.036918  1
  O  O21  1  0.178914  0.439575  0.536918  1
