# generated using pymatgen
data_BaNa(VTe)6
_symmetry_space_group_name_H-M   'P 1'
_cell_length_a   4.51450300
_cell_length_b   9.41838511
_cell_length_c   9.52906914
_cell_angle_alpha   119.58362481
_cell_angle_beta   90.00000000
_cell_angle_gamma   90.00000000
_symmetry_Int_Tables_number   1
_chemical_formula_structural   BaNa(VTe)6
_chemical_formula_sum   'Ba1 Na1 V6 Te6'
_cell_volume   352.35010845
_cell_formula_units_Z   1
loop_
 _symmetry_equiv_pos_site_id
 _symmetry_equiv_pos_as_xyz
  1  'x, y, z'
loop_
 _atom_site_type_symbol
 _atom_site_label
 _atom_site_symmetry_multiplicity
 _atom_site_fract_x
 _atom_site_fract_y
 _atom_site_fract_z
 _atom_site_occupancy
  Ba  Ba0  1  0.750000  0.668564  0.328373  1
  Na  Na1  1  0.250000  0.327888  0.667535  1
  V  V2  1  0.750000  0.960555  0.815342  1
  V  V3  1  0.750000  0.182221  0.153650  1
  V  V4  1  0.750000  0.890182  0.024556  1
  V  V5  1  0.250000  0.038758  0.185917  1
  V  V6  1  0.250000  0.816874  0.843745  1
  V  V7  1  0.250000  0.109650  0.977653  1
  Te  Te8  1  0.750000  0.629395  0.697459  1
  Te  Te9  1  0.750000  0.291673  0.937027  1
  Te  Te10  1  0.750000  0.067897  0.370061  1
  Te  Te11  1  0.250000  0.369422  0.306871  1
  Te  Te12  1  0.250000  0.704880  0.057869  1
  Te  Te13  1  0.250000  0.942042  0.633942  1
