# generated using pymatgen
data_Er6Ta4Ga12Os7
_symmetry_space_group_name_H-M   'P 1'
_cell_length_a   9.00395595
_cell_length_b   9.00395702
_cell_length_c   9.00395600
_cell_angle_alpha   59.99999640
_cell_angle_beta   59.99999248
_cell_angle_gamma   59.99999891
_symmetry_Int_Tables_number   1
_chemical_formula_structural   Er6Ta4Ga12Os7
_chemical_formula_sum   'Er6 Ta4 Ga12 Os7'
_cell_volume   516.16089791
_cell_formula_units_Z   1
loop_
 _symmetry_equiv_pos_site_id
 _symmetry_equiv_pos_as_xyz
  1  'x, y, z'
loop_
 _atom_site_type_symbol
 _atom_site_label
 _atom_site_symmetry_multiplicity
 _atom_site_fract_x
 _atom_site_fract_y
 _atom_site_fract_z
 _atom_site_occupancy
  Er  Er0  1  0.708879  0.708879  0.291121  1
  Er  Er1  1  0.291121  0.708879  0.291121  1
  Er  Er2  1  0.708879  0.291121  0.291121  1
  Er  Er3  1  0.291121  0.291121  0.708879  1
  Er  Er4  1  0.708879  0.291121  0.708879  1
  Er  Er5  1  0.291121  0.708879  0.708879  1
  Ta  Ta6  1  0.878182  0.878182  0.365455  1
  Ta  Ta7  1  0.878182  0.365455  0.878182  1
  Ta  Ta8  1  0.365455  0.878182  0.878182  1
  Ta  Ta9  1  0.878182  0.878182  0.878182  1
  Ga  Ga10  1  0.119634  0.119634  0.641099  1
  Ga  Ga11  1  0.119634  0.641099  0.119634  1
  Ga  Ga12  1  0.641099  0.119634  0.119634  1
  Ga  Ga13  1  0.119634  0.119634  0.119634  1
  Ga  Ga14  1  0.662360  0.662360  0.012920  1
  Ga  Ga15  1  0.662360  0.012920  0.662360  1
  Ga  Ga16  1  0.012920  0.662360  0.662360  1
  Ga  Ga17  1  0.662360  0.662360  0.662360  1
  Ga  Ga18  1  0.335542  0.335542  0.993375  1
  Ga  Ga19  1  0.335542  0.993375  0.335542  1
  Ga  Ga20  1  0.993375  0.335542  0.335542  1
  Ga  Ga21  1  0.335542  0.335542  0.335542  1
  Os  Os22  1  0.000000  0.000000  0.000000  1
  Os  Os23  1  0.995577  0.995577  0.504423  1
  Os  Os24  1  0.504423  0.995577  0.504423  1
  Os  Os25  1  0.995577  0.504423  0.504423  1
  Os  Os26  1  0.504423  0.504423  0.995577  1
  Os  Os27  1  0.995577  0.504423  0.995577  1
  Os  Os28  1  0.504423  0.995577  0.995577  1
