# generated using pymatgen
data_Nb12Al16CoCu6Ir
_symmetry_space_group_name_H-M   'P 1'
_cell_length_a   8.77455060
_cell_length_b   8.84538799
_cell_length_c   8.16990107
_cell_angle_alpha   90.00315697
_cell_angle_beta   90.01132269
_cell_angle_gamma   121.02225884
_symmetry_Int_Tables_number   1
_chemical_formula_structural   Nb12Al16CoCu6Ir
_chemical_formula_sum   'Nb12 Al16 Co1 Cu6 Ir1'
_cell_volume   543.40386895
_cell_formula_units_Z   1
loop_
 _symmetry_equiv_pos_site_id
 _symmetry_equiv_pos_as_xyz
  1  'x, y, z'
loop_
 _atom_site_type_symbol
 _atom_site_label
 _atom_site_symmetry_multiplicity
 _atom_site_fract_x
 _atom_site_fract_y
 _atom_site_fract_z
 _atom_site_occupancy
  Nb  Nb0  1  0.326606  0.991383  0.066586  1
  Nb  Nb1  1  0.673394  0.008617  0.933414  1
  Nb  Nb2  1  0.996918  0.329397  0.068942  1
  Nb  Nb3  1  0.672591  0.008808  0.566644  1
  Nb  Nb4  1  0.996734  0.329250  0.430804  1
  Nb  Nb5  1  0.003082  0.670603  0.931058  1
  Nb  Nb6  1  0.327409  0.991192  0.433356  1
  Nb  Nb7  1  0.003266  0.670750  0.569196  1
  Nb  Nb8  1  0.669988  0.666542  0.066676  1
  Nb  Nb9  1  0.330012  0.333458  0.933324  1
  Nb  Nb10  1  0.331205  0.334525  0.566551  1
  Nb  Nb11  1  0.668795  0.665475  0.433449  1
  Al  Al12  1  0.344473  0.848903  0.750096  1
  Al  Al13  1  0.653724  0.505905  0.750248  1
  Al  Al14  1  0.655527  0.151097  0.249904  1
  Al  Al15  1  0.346276  0.494095  0.249752  1
  Al  Al16  1  0.845631  0.342492  0.750126  1
  Al  Al17  1  0.154369  0.657508  0.249874  1
  Al  Al18  1  0.340255  0.665254  0.505121  1
  Al  Al19  1  0.659745  0.334746  0.494879  1
  Al  Al20  1  0.659694  0.334672  0.005190  1
  Al  Al21  1  0.340306  0.665328  0.994810  1
  Al  Al22  1  0.176624  0.009233  0.742647  1
  Al  Al23  1  0.823376  0.990767  0.257353  1
  Al  Al24  1  0.008561  0.177858  0.742868  1
  Al  Al25  1  0.991439  0.822142  0.257132  1
  Al  Al26  1  0.827639  0.836521  0.741890  1
  Al  Al27  1  0.172361  0.163479  0.258110  1
  Co  Co28  1  0.000000  0.000000  0.500000  1
  Cu  Cu29  1  0.168177  0.500149  0.749936  1
  Cu  Cu30  1  0.831823  0.499851  0.250064  1
  Cu  Cu31  1  0.506481  0.673157  0.750147  1
  Cu  Cu32  1  0.502769  0.171387  0.750016  1
  Cu  Cu33  1  0.493519  0.326843  0.249853  1
  Cu  Cu34  1  0.497231  0.828613  0.249984  1
  Ir  Ir35  1  0.000000  0.000000  0.000000  1
