# generated using pymatgen
data_Si4SbAs3Pt4
_symmetry_space_group_name_H-M   'P 1'
_cell_length_a   6.22124400
_cell_length_b   6.21911001
_cell_length_c   11.25772938
_cell_angle_alpha   89.55907843
_cell_angle_beta   90.00000000
_cell_angle_gamma   90.00000000
_symmetry_Int_Tables_number   1
_chemical_formula_structural   Si4SbAs3Pt4
_chemical_formula_sum   'Si8 Sb2 As6 Pt8'
_cell_volume   435.55541666
_cell_formula_units_Z   2
loop_
 _symmetry_equiv_pos_site_id
 _symmetry_equiv_pos_as_xyz
  1  'x, y, z'
loop_
 _atom_site_type_symbol
 _atom_site_label
 _atom_site_symmetry_multiplicity
 _atom_site_fract_x
 _atom_site_fract_y
 _atom_site_fract_z
 _atom_site_occupancy
  Si  Si0  1  0.363602  0.256545  0.081087  1
  Si  Si1  1  0.136398  0.756546  0.081087  1
  Si  Si2  1  0.861168  0.253785  0.417687  1
  Si  Si3  1  0.638832  0.753786  0.417687  1
  Si  Si4  1  0.363055  0.244533  0.575350  1
  Si  Si5  1  0.136945  0.744532  0.575350  1
  Si  Si6  1  0.853250  0.239252  0.929552  1
  Si  Si7  1  0.646750  0.739251  0.929552  1
  Sb  Sb8  1  0.115842  0.496286  0.824921  1
  Sb  Sb9  1  0.384157  0.996286  0.824921  1
  As  As10  1  0.615815  0.007683  0.173404  1
  As  As11  1  0.884184  0.507682  0.173404  1
  As  As12  1  0.115805  0.007950  0.328610  1
  As  As13  1  0.384194  0.507949  0.328610  1
  As  As14  1  0.615271  0.491371  0.670267  1
  As  As15  1  0.884728  0.991371  0.670267  1
  Pt  Pt16  1  0.005016  0.119826  0.115646  1
  Pt  Pt17  1  0.494983  0.619825  0.115646  1
  Pt  Pt18  1  0.503604  0.120426  0.386071  1
  Pt  Pt19  1  0.996395  0.620425  0.386071  1
  Pt  Pt20  1  0.001232  0.376150  0.605401  1
  Pt  Pt21  1  0.498767  0.876151  0.605401  1
  Pt  Pt22  1  0.510536  0.386194  0.892001  1
  Pt  Pt23  1  0.989463  0.886195  0.892001  1
