# generated using pymatgen
data_TbSe27
_symmetry_space_group_name_H-M   'P 1'
_cell_length_a   15.68458413
_cell_length_b   15.68458432
_cell_length_c   15.68458443
_cell_angle_alpha   119.06592639
_cell_angle_beta   119.06592476
_cell_angle_gamma   119.06591988
_symmetry_Int_Tables_number   1
_chemical_formula_structural   TbSe27
_chemical_formula_sum   'Tb1 Se27'
_cell_volume   965.61516993
_cell_formula_units_Z   1
loop_
 _symmetry_equiv_pos_site_id
 _symmetry_equiv_pos_as_xyz
  1  'x, y, z'
loop_
 _atom_site_type_symbol
 _atom_site_label
 _atom_site_symmetry_multiplicity
 _atom_site_fract_x
 _atom_site_fract_y
 _atom_site_fract_z
 _atom_site_occupancy
  Tb  Tb0  1  0.450017  0.450017  0.450017  1
  Se  Se1  1  0.997762  0.611075  0.611075  1
  Se  Se2  1  0.611075  0.611075  0.997762  1
  Se  Se3  1  0.611075  0.997762  0.611075  1
  Se  Se4  1  0.277243  0.898415  0.760272  1
  Se  Se5  1  0.898415  0.760272  0.277243  1
  Se  Se6  1  0.760272  0.277243  0.898415  1
  Se  Se7  1  0.898415  0.277243  0.760272  1
  Se  Se8  1  0.277243  0.760272  0.898415  1
  Se  Se9  1  0.760272  0.898415  0.277243  1
  Se  Se10  1  0.062188  0.595824  0.400907  1
  Se  Se11  1  0.595824  0.400907  0.062188  1
  Se  Se12  1  0.400907  0.062188  0.595824  1
  Se  Se13  1  0.595824  0.062188  0.400907  1
  Se  Se14  1  0.062188  0.400907  0.595824  1
  Se  Se15  1  0.400907  0.595824  0.062188  1
  Se  Se16  1  0.383253  0.763249  0.620522  1
  Se  Se17  1  0.763249  0.620522  0.383253  1
  Se  Se18  1  0.620522  0.383253  0.763249  1
  Se  Se19  1  0.763249  0.383253  0.620522  1
  Se  Se20  1  0.383253  0.620522  0.763249  1
  Se  Se21  1  0.620522  0.763249  0.383253  1
  Se  Se22  1  0.164564  0.422691  0.422691  1
  Se  Se23  1  0.422691  0.422691  0.164564  1
  Se  Se24  1  0.422691  0.164564  0.422691  1
  Se  Se25  1  0.024293  0.909592  0.909592  1
  Se  Se26  1  0.909592  0.909592  0.024293  1
  Se  Se27  1  0.909592  0.024293  0.909592  1
