# generated using pymatgen
data_Y7Ag(Sn11Rh3)2
_symmetry_space_group_name_H-M   'P 1'
_cell_length_a   9.82814300
_cell_length_b   9.82814367
_cell_length_c   10.16633500
_cell_angle_alpha   90.00000000
_cell_angle_beta   90.00000000
_cell_angle_gamma   120.00000110
_symmetry_Int_Tables_number   1
_chemical_formula_structural   Y7Ag(Sn11Rh3)2
_chemical_formula_sum   'Y7 Ag1 Sn22 Rh6'
_cell_volume   850.42889318
_cell_formula_units_Z   1
loop_
 _symmetry_equiv_pos_site_id
 _symmetry_equiv_pos_as_xyz
  1  'x, y, z'
loop_
 _atom_site_type_symbol
 _atom_site_label
 _atom_site_symmetry_multiplicity
 _atom_site_fract_x
 _atom_site_fract_y
 _atom_site_fract_z
 _atom_site_occupancy
  Y  Y0  1  0.000000  0.000000  0.000000  1
  Y  Y1  1  0.043809  0.521904  0.308648  1
  Y  Y2  1  0.478096  0.956191  0.308648  1
  Y  Y3  1  0.478096  0.521904  0.308648  1
  Y  Y4  1  0.956191  0.478096  0.691352  1
  Y  Y5  1  0.521904  0.043809  0.691352  1
  Y  Y6  1  0.521904  0.478096  0.691352  1
  Ag  Ag7  1  0.000000  0.000000  0.500000  1
  Sn  Sn8  1  0.114801  0.885199  0.280847  1
  Sn  Sn9  1  0.770398  0.885199  0.280847  1
  Sn  Sn10  1  0.114801  0.229602  0.280847  1
  Sn  Sn11  1  0.885199  0.114801  0.719153  1
  Sn  Sn12  1  0.229602  0.114801  0.719153  1
  Sn  Sn13  1  0.885199  0.770398  0.719153  1
  Sn  Sn14  1  0.350889  0.000000  0.000000  1
  Sn  Sn15  1  0.649111  0.649111  0.000000  1
  Sn  Sn16  1  0.000000  0.350889  0.000000  1
  Sn  Sn17  1  0.350889  0.350889  0.000000  1
  Sn  Sn18  1  0.000000  0.649111  0.000000  1
  Sn  Sn19  1  0.649111  0.000000  0.000000  1
  Sn  Sn20  1  0.781607  0.563212  0.456086  1
  Sn  Sn21  1  0.781607  0.218393  0.456086  1
  Sn  Sn22  1  0.436788  0.218393  0.456086  1
  Sn  Sn23  1  0.218393  0.436788  0.543914  1
  Sn  Sn24  1  0.218393  0.781607  0.543914  1
  Sn  Sn25  1  0.563212  0.781607  0.543914  1
  Sn  Sn26  1  0.666667  0.333333  0.181983  1
  Sn  Sn27  1  0.333333  0.666667  0.818017  1
  Sn  Sn28  1  0.666667  0.333333  0.881690  1
  Sn  Sn29  1  0.333333  0.666667  0.118310  1
  Rh  Rh30  1  0.169154  0.830846  0.802872  1
  Rh  Rh31  1  0.661693  0.830846  0.802872  1
  Rh  Rh32  1  0.169154  0.338307  0.802872  1
  Rh  Rh33  1  0.830846  0.169154  0.197128  1
  Rh  Rh34  1  0.338307  0.169154  0.197128  1
  Rh  Rh35  1  0.830846  0.661693  0.197128  1
