# generated using pymatgen
data_PuTe4Cl5
_symmetry_space_group_name_H-M   'P 1'
_cell_length_a   8.64886388
_cell_length_b   11.91561480
_cell_length_c   13.39135400
_cell_angle_alpha   80.68790078
_cell_angle_beta   77.01045685
_cell_angle_gamma   78.94943368
_symmetry_Int_Tables_number   1
_chemical_formula_structural   PuTe4Cl5
_chemical_formula_sum   'Pu4 Te16 Cl20'
_cell_volume   1309.60766090
_cell_formula_units_Z   4
loop_
 _symmetry_equiv_pos_site_id
 _symmetry_equiv_pos_as_xyz
  1  'x, y, z'
loop_
 _atom_site_type_symbol
 _atom_site_label
 _atom_site_symmetry_multiplicity
 _atom_site_fract_x
 _atom_site_fract_y
 _atom_site_fract_z
 _atom_site_occupancy
  Pu  Pu0  1  0.416751  0.716737  0.235144  1
  Pu  Pu1  1  0.583249  0.283263  0.764856  1
  Pu  Pu2  1  0.867066  0.802658  0.304634  1
  Pu  Pu3  1  0.132934  0.197342  0.695366  1
  Te  Te4  1  0.266229  0.329954  0.110957  1
  Te  Te5  1  0.733771  0.670046  0.889043  1
  Te  Te6  1  0.127011  0.391436  0.313477  1
  Te  Te7  1  0.872989  0.608564  0.686523  1
  Te  Te8  1  0.956864  0.215048  0.386645  1
  Te  Te9  1  0.043136  0.784952  0.613355  1
  Te  Te10  1  0.719889  0.367853  0.303661  1
  Te  Te11  1  0.280111  0.632147  0.696339  1
  Te  Te12  1  0.827018  0.333179  0.090051  1
  Te  Te13  1  0.172982  0.666821  0.909949  1
  Te  Te14  1  0.078880  0.163550  0.113561  1
  Te  Te15  1  0.921120  0.836450  0.886439  1
  Te  Te16  1  0.493486  0.203923  0.364590  1
  Te  Te17  1  0.506514  0.796077  0.635410  1
  Te  Te18  1  0.514285  0.150062  0.174880  1
  Te  Te19  1  0.485715  0.849938  0.825120  1
  Cl  Cl20  1  0.491806  0.512749  0.146194  1
  Cl  Cl21  1  0.508194  0.487251  0.853806  1
  Cl  Cl22  1  0.378551  0.585144  0.407580  1
  Cl  Cl23  1  0.621449  0.414856  0.592420  1
  Cl  Cl24  1  0.457607  0.858721  0.064739  1
  Cl  Cl25  1  0.542393  0.141279  0.935261  1
  Cl  Cl26  1  0.850690  0.971917  0.158455  1
  Cl  Cl27  1  0.149310  0.028083  0.841545  1
  Cl  Cl28  1  0.874799  0.622572  0.433644  1
  Cl  Cl29  1  0.125201  0.377428  0.566356  1
  Cl  Cl30  1  0.796096  0.918878  0.466695  1
  Cl  Cl31  1  0.203904  0.081122  0.533305  1
  Cl  Cl32  1  0.534770  0.852655  0.344121  1
  Cl  Cl33  1  0.465230  0.147345  0.655879  1
  Cl  Cl34  1  0.150541  0.872379  0.314039  1
  Cl  Cl35  1  0.849459  0.127621  0.685961  1
  Cl  Cl36  1  0.757562  0.671355  0.191372  1
  Cl  Cl37  1  0.242438  0.328645  0.808628  1
  Cl  Cl38  1  0.133535  0.679785  0.182230  1
  Cl  Cl39  1  0.866465  0.320215  0.817770  1
