# generated using pymatgen
data_HoTm2ZnCd3Au2
_symmetry_space_group_name_H-M   'P 1'
_cell_length_a   3.76853500
_cell_length_b   7.82733340
_cell_length_c   7.82733381
_cell_angle_alpha   120.09709390
_cell_angle_beta   90.00000000
_cell_angle_gamma   90.00000000
_symmetry_Int_Tables_number   1
_chemical_formula_structural   HoTm2ZnCd3Au2
_chemical_formula_sum   'Ho1 Tm2 Zn1 Cd3 Au2'
_cell_volume   199.75843853
_cell_formula_units_Z   1
loop_
 _symmetry_equiv_pos_site_id
 _symmetry_equiv_pos_as_xyz
  1  'x, y, z'
loop_
 _atom_site_type_symbol
 _atom_site_label
 _atom_site_symmetry_multiplicity
 _atom_site_fract_x
 _atom_site_fract_y
 _atom_site_fract_z
 _atom_site_occupancy
  Ho  Ho0  1  0.000000  0.408811  0.408811  1
  Tm  Tm1  1  0.000000  0.999979  0.591223  1
  Tm  Tm2  1  0.000000  0.591223  0.999979  1
  Zn  Zn3  1  0.000000  0.999781  0.999781  1
  Cd  Cd4  1  0.500000  0.742932  0.742932  1
  Cd  Cd5  1  0.500000  0.999561  0.257085  1
  Cd  Cd6  1  0.500000  0.257085  0.999561  1
  Au  Au7  1  0.500000  0.667956  0.332672  1
  Au  Au8  1  0.500000  0.332672  0.667956  1
