# generated using pymatgen
data_Zr8Fe7Si14Rh
_symmetry_space_group_name_H-M   'P 1'
_cell_length_a   9.57014076
_cell_length_b   9.57014105
_cell_length_c   9.58840310
_cell_angle_alpha   94.04428912
_cell_angle_beta   94.04428425
_cell_angle_gamma   149.05127298
_symmetry_Int_Tables_number   1
_chemical_formula_structural   Zr8Fe7Si14Rh
_chemical_formula_sum   'Zr8 Fe7 Si14 Rh1'
_cell_volume   435.55746710
_cell_formula_units_Z   1
loop_
 _symmetry_equiv_pos_site_id
 _symmetry_equiv_pos_as_xyz
  1  'x, y, z'
loop_
 _atom_site_type_symbol
 _atom_site_label
 _atom_site_symmetry_multiplicity
 _atom_site_fract_x
 _atom_site_fract_y
 _atom_site_fract_z
 _atom_site_occupancy
  Zr  Zr0  1  0.697956  0.501493  0.195499  1
  Zr  Zr1  1  0.498767  0.695616  0.196092  1
  Zr  Zr2  1  0.498507  0.302044  0.804501  1
  Zr  Zr3  1  0.304384  0.501233  0.803908  1
  Zr  Zr4  1  0.863433  0.864234  0.724836  1
  Zr  Zr5  1  0.138033  0.861967  0.000000  1
  Zr  Zr6  1  0.862152  0.137848  0.000000  1
  Zr  Zr7  1  0.135766  0.136567  0.275164  1
  Fe  Fe8  1  0.901064  0.399203  0.798770  1
  Fe  Fe9  1  0.600797  0.098936  0.201230  1
  Fe  Fe10  1  0.101355  0.603108  0.206069  1
  Fe  Fe11  1  0.601706  0.398294  0.500000  1
  Fe  Fe12  1  0.396892  0.898645  0.793931  1
  Fe  Fe13  1  0.898983  0.101017  0.500000  1
  Fe  Fe14  1  0.395723  0.604277  0.500000  1
  Si  Si15  1  0.749561  0.749761  0.999808  1
  Si  Si16  1  0.250239  0.250439  0.000192  1
  Si  Si17  1  0.089992  0.499959  0.592504  1
  Si  Si18  1  0.529177  0.117123  0.593366  1
  Si  Si19  1  0.500041  0.910008  0.407496  1
  Si  Si20  1  0.882877  0.470823  0.406634  1
  Si  Si21  1  0.702739  0.003194  0.700732  1
  Si  Si22  1  0.988037  0.686927  0.702134  1
  Si  Si23  1  0.696574  0.698731  0.420144  1
  Si  Si24  1  0.289423  0.710577  0.000000  1
  Si  Si25  1  0.313073  0.011963  0.297866  1
  Si  Si26  1  0.710683  0.289317  0.000000  1
  Si  Si27  1  0.301269  0.303426  0.579856  1
  Si  Si28  1  0.996806  0.297261  0.299268  1
  Rh  Rh29  1  0.103989  0.896011  0.500000  1
