# generated using pymatgen
data_Dy2Y3Mo3(P3Ir4)4
_symmetry_space_group_name_H-M   'P 1'
_cell_length_a   12.68745000
_cell_length_b   12.68744999
_cell_length_c   3.99472800
_cell_angle_alpha   90.00000000
_cell_angle_beta   90.00000000
_cell_angle_gamma   120.00000002
_symmetry_Int_Tables_number   1
_chemical_formula_structural   Dy2Y3Mo3(P3Ir4)4
_chemical_formula_sum   'Dy2 Y3 Mo3 P12 Ir16'
_cell_volume   556.88629817
_cell_formula_units_Z   1
loop_
 _symmetry_equiv_pos_site_id
 _symmetry_equiv_pos_as_xyz
  1  'x, y, z'
loop_
 _atom_site_type_symbol
 _atom_site_label
 _atom_site_symmetry_multiplicity
 _atom_site_fract_x
 _atom_site_fract_y
 _atom_site_fract_z
 _atom_site_occupancy
  Dy  Dy0  1  0.333333  0.666667  0.500000  1
  Dy  Dy1  1  0.666667  0.333333  0.500000  1
  Y  Y2  1  0.000000  0.812950  0.000000  1
  Y  Y3  1  0.187050  0.187050  0.000000  1
  Y  Y4  1  0.812950  0.000000  0.000000  1
  Mo  Mo5  1  0.000000  0.453565  0.500000  1
  Mo  Mo6  1  0.546435  0.546435  0.500000  1
  Mo  Mo7  1  0.453565  0.000000  0.500000  1
  P  P8  1  0.000000  0.638567  0.500000  1
  P  P9  1  0.361433  0.361433  0.500000  1
  P  P10  1  0.638567  0.000000  0.500000  1
  P  P11  1  0.516232  0.684328  0.000000  1
  P  P12  1  0.315672  0.831904  0.000000  1
  P  P13  1  0.168096  0.483768  0.000000  1
  P  P14  1  0.483768  0.168096  0.000000  1
  P  P15  1  0.684328  0.516232  0.000000  1
  P  P16  1  0.831904  0.315672  0.000000  1
  P  P17  1  0.000000  0.176882  0.500000  1
  P  P18  1  0.823118  0.823118  0.500000  1
  P  P19  1  0.176882  0.000000  0.500000  1
  Ir  Ir20  1  0.509035  0.866505  0.000000  1
  Ir  Ir21  1  0.133495  0.642531  0.000000  1
  Ir  Ir22  1  0.357469  0.490965  0.000000  1
  Ir  Ir23  1  0.490965  0.357469  0.000000  1
  Ir  Ir24  1  0.866505  0.509035  0.000000  1
  Ir  Ir25  1  0.642531  0.133495  0.000000  1
  Ir  Ir26  1  0.000000  0.286553  0.000000  1
  Ir  Ir27  1  0.713447  0.713447  0.000000  1
  Ir  Ir28  1  0.286553  0.000000  0.000000  1
  Ir  Ir29  1  0.625727  0.804451  0.500000  1
  Ir  Ir30  1  0.195549  0.821275  0.500000  1
  Ir  Ir31  1  0.178725  0.374273  0.500000  1
  Ir  Ir32  1  0.374273  0.178725  0.500000  1
  Ir  Ir33  1  0.804451  0.625727  0.500000  1
  Ir  Ir34  1  0.821275  0.195549  0.500000  1
  Ir  Ir35  1  0.000000  0.000000  0.500000  1
