# generated using pymatgen
data_Ca4AlIr7
_symmetry_space_group_name_H-M   'P 1'
_cell_length_a   5.44414700
_cell_length_b   5.44414759
_cell_length_c   8.47026000
_cell_angle_alpha   90.00000000
_cell_angle_beta   90.00000000
_cell_angle_gamma   120.00000247
_symmetry_Int_Tables_number   1
_chemical_formula_structural   Ca4AlIr7
_chemical_formula_sum   'Ca4 Al1 Ir7'
_cell_volume   217.41379471
_cell_formula_units_Z   1
loop_
 _symmetry_equiv_pos_site_id
 _symmetry_equiv_pos_as_xyz
  1  'x, y, z'
loop_
 _atom_site_type_symbol
 _atom_site_label
 _atom_site_symmetry_multiplicity
 _atom_site_fract_x
 _atom_site_fract_y
 _atom_site_fract_z
 _atom_site_occupancy
  Ca  Ca0  1  0.333334  0.666667  0.071946  1
  Ca  Ca1  1  0.333334  0.666667  0.433744  1
  Ca  Ca2  1  0.666666  0.333334  0.566257  1
  Ca  Ca3  1  0.666666  0.333334  0.928055  1
  Al  Al4  1  0.000000  0.000000  0.000000  1
  Ir  Ir5  1  0.341670  0.170835  0.247347  1
  Ir  Ir6  1  0.829165  0.170835  0.247347  1
  Ir  Ir7  1  0.829165  0.658329  0.247347  1
  Ir  Ir8  1  0.000000  0.000000  0.500000  1
  Ir  Ir9  1  0.170834  0.341669  0.752653  1
  Ir  Ir10  1  0.170835  0.829165  0.752653  1
  Ir  Ir11  1  0.658329  0.829165  0.752653  1
