# generated using pymatgen
data_Ho20FeCo2Bi8Os
_symmetry_space_group_name_H-M   'P 1'
_cell_length_a   7.93521789
_cell_length_b   8.90704900
_cell_length_c   12.35520259
_cell_angle_alpha   90.00000000
_cell_angle_beta   89.71413251
_cell_angle_gamma   90.00000000
_symmetry_Int_Tables_number   1
_chemical_formula_structural   Ho20FeCo2Bi8Os
_chemical_formula_sum   'Ho20 Fe1 Co2 Bi8 Os1'
_cell_volume   873.24712250
_cell_formula_units_Z   1
loop_
 _symmetry_equiv_pos_site_id
 _symmetry_equiv_pos_as_xyz
  1  'x, y, z'
loop_
 _atom_site_type_symbol
 _atom_site_label
 _atom_site_symmetry_multiplicity
 _atom_site_fract_x
 _atom_site_fract_y
 _atom_site_fract_z
 _atom_site_occupancy
  Ho  Ho0  1  0.347095  0.750000  0.700323  1
  Ho  Ho1  1  0.653009  0.250000  0.300789  1
  Ho  Ho2  1  0.847035  0.250000  0.799659  1
  Ho  Ho3  1  0.156143  0.750000  0.207687  1
  Ho  Ho4  1  0.880808  0.750000  0.805640  1
  Ho  Ho5  1  0.115248  0.250000  0.189232  1
  Ho  Ho6  1  0.384098  0.250000  0.688214  1
  Ho  Ho7  1  0.613720  0.750000  0.313220  1
  Ho  Ho8  1  0.674747  0.537883  0.562754  1
  Ho  Ho9  1  0.325790  0.463570  0.437592  1
  Ho  Ho10  1  0.176274  0.456736  0.935386  1
  Ho  Ho11  1  0.325790  0.036430  0.437592  1
  Ho  Ho12  1  0.824733  0.537422  0.063735  1
  Ho  Ho13  1  0.674747  0.962117  0.562754  1
  Ho  Ho14  1  0.824733  0.962578  0.063735  1
  Ho  Ho15  1  0.176274  0.043264  0.935386  1
  Ho  Ho16  1  0.054133  0.750000  0.497088  1
  Ho  Ho17  1  0.946357  0.250000  0.503198  1
  Ho  Ho18  1  0.554626  0.250000  0.003345  1
  Ho  Ho19  1  0.444027  0.750000  0.996302  1
  Fe  Fe20  1  0.430696  0.750000  0.491628  1
  Co  Co21  1  0.929893  0.250000  0.009327  1
  Co  Co22  1  0.566167  0.250000  0.508024  1
  Bi  Bi23  1  0.571802  0.508389  0.826325  1
  Bi  Bi24  1  0.429470  0.491002  0.173025  1
  Bi  Bi25  1  0.071634  0.490309  0.672115  1
  Bi  Bi26  1  0.429470  0.008998  0.173025  1
  Bi  Bi27  1  0.927503  0.508463  0.327262  1
  Bi  Bi28  1  0.571802  0.991611  0.826325  1
  Bi  Bi29  1  0.927503  0.991537  0.327262  1
  Bi  Bi30  1  0.071634  0.009691  0.672115  1
  Os  Os31  1  0.073039  0.750000  0.989938  1
