# generated using pymatgen
data_NdHoTc2F14
_symmetry_space_group_name_H-M   'P 1'
_cell_length_a   5.64136300
_cell_length_b   9.02540052
_cell_length_c   12.16956432
_cell_angle_alpha   62.45909098
_cell_angle_beta   90.00000000
_cell_angle_gamma   90.00000000
_symmetry_Int_Tables_number   1
_chemical_formula_structural   NdHoTc2F14
_chemical_formula_sum   'Nd2 Ho2 Tc4 F28'
_cell_volume   549.40539938
_cell_formula_units_Z   2
loop_
 _symmetry_equiv_pos_site_id
 _symmetry_equiv_pos_as_xyz
  1  'x, y, z'
loop_
 _atom_site_type_symbol
 _atom_site_label
 _atom_site_symmetry_multiplicity
 _atom_site_fract_x
 _atom_site_fract_y
 _atom_site_fract_z
 _atom_site_occupancy
  Nd  Nd0  1  0.758450  0.809504  0.765455  1
  Nd  Nd1  1  0.258450  0.190496  0.734545  1
  Ho  Ho2  1  0.241340  0.184836  0.235787  1
  Ho  Ho3  1  0.741340  0.815164  0.264213  1
  Tc  Tc4  1  0.756365  0.268889  0.963359  1
  Tc  Tc5  1  0.256365  0.731111  0.536641  1
  Tc  Tc6  1  0.241465  0.723222  0.049188  1
  Tc  Tc7  1  0.741465  0.276778  0.450812  1
  F  F8  1  0.437148  0.704808  0.922966  1
  F  F9  1  0.937148  0.295192  0.577034  1
  F  F10  1  0.554996  0.290197  0.086487  1
  F  F11  1  0.054996  0.709803  0.413513  1
  F  F12  1  0.450757  0.281437  0.538453  1
  F  F13  1  0.950757  0.718563  0.961547  1
  F  F14  1  0.551889  0.726569  0.450098  1
  F  F15  1  0.051889  0.273431  0.049902  1
  F  F16  1  0.775316  0.512494  0.865032  1
  F  F17  1  0.275316  0.487506  0.634968  1
  F  F18  1  0.228294  0.477400  0.143245  1
  F  F19  1  0.728294  0.522600  0.356755  1
  F  F20  1  0.754900  0.024567  0.056746  1
  F  F21  1  0.254900  0.975433  0.443254  1
  F  F22  1  0.243134  0.966877  0.952657  1
  F  F23  1  0.743134  0.033123  0.547343  1
  F  F24  1  0.973474  0.727450  0.631307  1
  F  F25  1  0.473474  0.272550  0.868693  1
  F  F26  1  0.024096  0.270506  0.357691  1
  F  F27  1  0.524096  0.729494  0.142309  1
  F  F28  1  0.044121  0.745875  0.175010  1
  F  F29  1  0.544121  0.254125  0.324990  1
  F  F30  1  0.944838  0.253501  0.832869  1
  F  F31  1  0.444838  0.746499  0.667131  1
  F  F32  1  0.424412  0.973869  0.233366  1
  F  F33  1  0.924412  0.026131  0.266634  1
  F  F34  1  0.595005  0.035171  0.770292  1
  F  F35  1  0.095005  0.964829  0.729708  1
