# generated using pymatgen
data_Lu6Zn21Pd2S
_symmetry_space_group_name_H-M   'P 1'
_cell_length_a   8.80453861
_cell_length_b   8.76265266
_cell_length_c   8.80453900
_cell_angle_alpha   60.15724618
_cell_angle_beta   59.75246660
_cell_angle_gamma   60.15725057
_symmetry_Int_Tables_number   1
_chemical_formula_structural   Lu6Zn21Pd2S
_chemical_formula_sum   'Lu6 Zn21 Pd2 S1'
_cell_volume   480.55059588
_cell_formula_units_Z   1
loop_
 _symmetry_equiv_pos_site_id
 _symmetry_equiv_pos_as_xyz
  1  'x, y, z'
loop_
 _atom_site_type_symbol
 _atom_site_label
 _atom_site_symmetry_multiplicity
 _atom_site_fract_x
 _atom_site_fract_y
 _atom_site_fract_z
 _atom_site_occupancy
  Lu  Lu0  1  0.710503  0.288258  0.289497  1
  Lu  Lu1  1  0.710227  0.289773  0.710227  1
  Lu  Lu2  1  0.710503  0.711742  0.289497  1
  Lu  Lu3  1  0.289497  0.711742  0.710503  1
  Lu  Lu4  1  0.289773  0.710227  0.289773  1
  Lu  Lu5  1  0.289497  0.288258  0.710503  1
  Zn  Zn6  1  0.633213  0.121735  0.123320  1
  Zn  Zn7  1  0.122691  0.634525  0.122691  1
  Zn  Zn8  1  0.123320  0.121735  0.633213  1
  Zn  Zn9  1  0.122691  0.120092  0.122691  1
  Zn  Zn10  1  0.366787  0.878265  0.876680  1
  Zn  Zn11  1  0.877309  0.365475  0.877309  1
  Zn  Zn12  1  0.876680  0.878265  0.366787  1
  Zn  Zn13  1  0.877309  0.879908  0.877309  1
  Zn  Zn14  1  0.500000  0.000000  0.000000  1
  Zn  Zn15  1  0.500000  0.500000  0.000000  1
  Zn  Zn16  1  0.000000  0.500000  0.500000  1
  Zn  Zn17  1  0.000000  0.500000  0.000000  1
  Zn  Zn18  1  0.000000  0.000000  0.500000  1
  Zn  Zn19  1  0.006422  0.331776  0.330023  1
  Zn  Zn20  1  0.328178  0.010663  0.328178  1
  Zn  Zn21  1  0.330023  0.331776  0.006422  1
  Zn  Zn22  1  0.328178  0.332979  0.328178  1
  Zn  Zn23  1  0.993578  0.668224  0.669977  1
  Zn  Zn24  1  0.671822  0.989337  0.671822  1
  Zn  Zn25  1  0.669977  0.668224  0.993578  1
  Zn  Zn26  1  0.671822  0.667021  0.671822  1
  Pd  Pd27  1  0.500000  0.000000  0.500000  1
  Pd  Pd28  1  0.000000  0.000000  0.000000  1
  S  S29  1  0.500000  0.500000  0.500000  1
