# generated using pymatgen
data_Er5Tm5RuRh3
_symmetry_space_group_name_H-M   'P 1'
_cell_length_a   6.37115828
_cell_length_b   7.15308473
_cell_length_c   8.43416401
_cell_angle_alpha   96.64455883
_cell_angle_beta   111.95337385
_cell_angle_gamma   90.02014218
_symmetry_Int_Tables_number   1
_chemical_formula_structural   Er5Tm5RuRh3
_chemical_formula_sum   'Er5 Tm5 Ru1 Rh3'
_cell_volume   353.71069758
_cell_formula_units_Z   1
loop_
 _symmetry_equiv_pos_site_id
 _symmetry_equiv_pos_as_xyz
  1  'x, y, z'
loop_
 _atom_site_type_symbol
 _atom_site_label
 _atom_site_symmetry_multiplicity
 _atom_site_fract_x
 _atom_site_fract_y
 _atom_site_fract_z
 _atom_site_occupancy
  Er  Er0  1  0.791407  0.082531  0.811992  1
  Er  Er1  1  0.977947  0.417603  0.187083  1
  Er  Er2  1  0.208373  0.917320  0.182547  1
  Er  Er3  1  0.023283  0.583344  0.811635  1
  Er  Er4  1  0.210528  0.183308  0.562802  1
  Tm  Tm5  1  0.648135  0.314501  0.437361  1
  Tm  Tm6  1  0.791505  0.814492  0.440798  1
  Tm  Tm7  1  0.348638  0.687708  0.563451  1
  Tm  Tm8  1  0.423919  0.248487  0.998961  1
  Tm  Tm9  1  0.575206  0.750571  0.999725  1
  Ru  Ru10  1  0.176026  0.926072  0.782327  1
  Rh  Rh11  1  0.603211  0.427068  0.778898  1
  Rh  Rh12  1  0.823046  0.074135  0.220790  1
  Rh  Rh13  1  0.398776  0.572860  0.221628  1
