# generated using pymatgen
data_Ba5Sr(DyBi3)2
_symmetry_space_group_name_H-M   'P 1'
_cell_length_a   8.72833809
_cell_length_b   9.99509366
_cell_length_c   8.85120500
_cell_angle_alpha   113.91250237
_cell_angle_beta   103.80906011
_cell_angle_gamma   113.25495212
_symmetry_Int_Tables_number   1
_chemical_formula_structural   Ba5Sr(DyBi3)2
_chemical_formula_sum   'Ba5 Sr1 Dy2 Bi6'
_cell_volume   570.81257467
_cell_formula_units_Z   1
loop_
 _symmetry_equiv_pos_site_id
 _symmetry_equiv_pos_as_xyz
  1  'x, y, z'
loop_
 _atom_site_type_symbol
 _atom_site_label
 _atom_site_symmetry_multiplicity
 _atom_site_fract_x
 _atom_site_fract_y
 _atom_site_fract_z
 _atom_site_occupancy
  Ba  Ba0  1  0.323852  0.325775  0.321612  1
  Ba  Ba1  1  0.001903  0.125623  0.584483  1
  Ba  Ba2  1  0.823039  0.824260  0.824111  1
  Ba  Ba3  1  0.078378  0.625912  0.499589  1
  Ba  Ba4  1  0.554786  0.017573  0.147030  1
  Sr  Sr5  1  0.639579  0.514560  0.037731  1
  Dy  Dy6  1  0.514549  0.066931  0.630819  1
  Dy  Dy7  1  0.130415  0.568400  0.015099  1
  Bi  Bi8  1  0.880436  0.249070  0.024095  1
  Bi  Bi9  1  0.117031  0.888199  0.258689  1
  Bi  Bi10  1  0.360558  0.574713  0.784580  1
  Bi  Bi11  1  0.291263  0.081908  0.865829  1
  Bi  Bi12  1  0.757006  0.392138  0.628893  1
  Bi  Bi13  1  0.527206  0.744936  0.377442  1
