# generated using pymatgen
data_Li2Y18Cd6FePd
_symmetry_space_group_name_H-M   'P 1'
_cell_length_a   9.51943400
_cell_length_b   9.51936502
_cell_length_c   9.69289700
_cell_angle_alpha   90.00000000
_cell_angle_beta   90.00000000
_cell_angle_gamma   120.00096825
_symmetry_Int_Tables_number   1
_chemical_formula_structural   Li2Y18Cd6FePd
_chemical_formula_sum   'Li2 Y18 Cd6 Fe1 Pd1'
_cell_volume   760.67492345
_cell_formula_units_Z   1
loop_
 _symmetry_equiv_pos_site_id
 _symmetry_equiv_pos_as_xyz
  1  'x, y, z'
loop_
 _atom_site_type_symbol
 _atom_site_label
 _atom_site_symmetry_multiplicity
 _atom_site_fract_x
 _atom_site_fract_y
 _atom_site_fract_z
 _atom_site_occupancy
  Li  Li0  1  0.000003  0.000006  0.998850  1
  Li  Li1  1  0.000003  0.000006  0.501150  1
  Y  Y2  1  0.210682  0.789312  0.936708  1
  Y  Y3  1  0.210687  0.421378  0.936709  1
  Y  Y4  1  0.578620  0.789309  0.936708  1
  Y  Y5  1  0.795692  0.204302  0.056069  1
  Y  Y6  1  0.795698  0.591392  0.056067  1
  Y  Y7  1  0.408609  0.204302  0.056071  1
  Y  Y8  1  0.795692  0.204302  0.443931  1
  Y  Y9  1  0.795698  0.591392  0.443933  1
  Y  Y10  1  0.408609  0.204302  0.443929  1
  Y  Y11  1  0.210682  0.789312  0.563292  1
  Y  Y12  1  0.210687  0.421378  0.563291  1
  Y  Y13  1  0.578620  0.789309  0.563292  1
  Y  Y14  1  0.541329  0.458667  0.750000  1
  Y  Y15  1  0.541335  0.082663  0.750000  1
  Y  Y16  1  0.917337  0.458665  0.750000  1
  Y  Y17  1  0.456200  0.543796  0.250000  1
  Y  Y18  1  0.456202  0.912404  0.250000  1
  Y  Y19  1  0.087599  0.543796  0.250000  1
  Cd  Cd20  1  0.892103  0.107893  0.750000  1
  Cd  Cd21  1  0.892104  0.784207  0.750000  1
  Cd  Cd22  1  0.215785  0.107892  0.750000  1
  Cd  Cd23  1  0.108180  0.891820  0.250000  1
  Cd  Cd24  1  0.108179  0.216355  0.250000  1
  Cd  Cd25  1  0.783643  0.891820  0.250000  1
  Fe  Fe26  1  0.333355  0.666691  0.750000  1
  Pd  Pd27  1  0.666664  0.333329  0.250000  1
