# generated using pymatgen
data_Y12B3CCl12
_symmetry_space_group_name_H-M   'P 1'
_cell_length_a   9.39728162
_cell_length_b   9.39728127
_cell_length_c   9.39728152
_cell_angle_alpha   109.33737170
_cell_angle_beta   109.33736591
_cell_angle_gamma   109.33737095
_symmetry_Int_Tables_number   1
_chemical_formula_structural   Y12B3CCl12
_chemical_formula_sum   'Y12 B3 C1 Cl12'
_cell_volume   641.97561550
_cell_formula_units_Z   1
loop_
 _symmetry_equiv_pos_site_id
 _symmetry_equiv_pos_as_xyz
  1  'x, y, z'
loop_
 _atom_site_type_symbol
 _atom_site_label
 _atom_site_symmetry_multiplicity
 _atom_site_fract_x
 _atom_site_fract_y
 _atom_site_fract_z
 _atom_site_occupancy
  Y  Y0  1  0.465442  0.479594  0.234998  1
  Y  Y1  1  0.750000  0.235538  0.264462  1
  Y  Y2  1  0.750000  0.015197  0.484803  1
  Y  Y3  1  0.234998  0.465442  0.479594  1
  Y  Y4  1  0.264462  0.750000  0.235538  1
  Y  Y5  1  0.034558  0.265002  0.020406  1
  Y  Y6  1  0.020406  0.034558  0.265002  1
  Y  Y7  1  0.484803  0.750000  0.015197  1
  Y  Y8  1  0.479594  0.234998  0.465442  1
  Y  Y9  1  0.015197  0.484803  0.750000  1
  Y  Y10  1  0.265002  0.020406  0.034558  1
  Y  Y11  1  0.235538  0.264462  0.750000  1
  B  B12  1  0.499017  0.000983  0.250000  1
  B  B13  1  0.000983  0.250000  0.499017  1
  B  B14  1  0.250000  0.499017  0.000983  1
  C  C15  1  0.250000  0.250000  0.250000  1
  Cl  Cl16  1  0.250000  0.756070  0.743930  1
  Cl  Cl17  1  0.511581  0.505345  0.753575  1
  Cl  Cl18  1  0.988419  0.746425  0.994655  1
  Cl  Cl19  1  0.743930  0.250000  0.756070  1
  Cl  Cl20  1  0.994655  0.988419  0.746425  1
  Cl  Cl21  1  0.250000  0.994830  0.505170  1
  Cl  Cl22  1  0.753575  0.511581  0.505345  1
  Cl  Cl23  1  0.505170  0.250000  0.994830  1
  Cl  Cl24  1  0.756070  0.743930  0.250000  1
  Cl  Cl25  1  0.746425  0.994655  0.988419  1
  Cl  Cl26  1  0.994830  0.505170  0.250000  1
  Cl  Cl27  1  0.505345  0.753575  0.511581  1
