# generated using pymatgen
data_Li4Y3LuSi8
_symmetry_space_group_name_H-M   'P 1'
_cell_length_a   3.78531100
_cell_length_b   7.59474584
_cell_length_c   10.14930646
_cell_angle_alpha   90.04925962
_cell_angle_beta   90.00000000
_cell_angle_gamma   90.00000000
_symmetry_Int_Tables_number   1
_chemical_formula_structural   Li4Y3LuSi8
_chemical_formula_sum   'Li4 Y3 Lu1 Si8'
_cell_volume   291.77697492
_cell_formula_units_Z   1
loop_
 _symmetry_equiv_pos_site_id
 _symmetry_equiv_pos_as_xyz
  1  'x, y, z'
loop_
 _atom_site_type_symbol
 _atom_site_label
 _atom_site_symmetry_multiplicity
 _atom_site_fract_x
 _atom_site_fract_y
 _atom_site_fract_z
 _atom_site_occupancy
  Li  Li0  1  0.250000  0.989698  0.392155  1
  Li  Li1  1  0.750000  0.011372  0.607400  1
  Li  Li2  1  0.250000  0.489168  0.109034  1
  Li  Li3  1  0.750000  0.509066  0.892272  1
  Y  Y4  1  0.250000  0.139519  0.863643  1
  Y  Y5  1  0.750000  0.859775  0.136910  1
  Y  Y6  1  0.250000  0.639323  0.635813  1
  Lu  Lu7  1  0.750000  0.363466  0.363290  1
  Si  Si8  1  0.750000  0.268937  0.070306  1
  Si  Si9  1  0.250000  0.731136  0.932219  1
  Si  Si10  1  0.750000  0.766579  0.431919  1
  Si  Si11  1  0.250000  0.234837  0.563793  1
  Si  Si12  1  0.750000  0.842537  0.819901  1
  Si  Si13  1  0.250000  0.157701  0.182512  1
  Si  Si14  1  0.750000  0.343950  0.677877  1
  Si  Si15  1  0.250000  0.652933  0.320955  1
