# generated using pymatgen
data_YbGdReC2
_symmetry_space_group_name_H-M   'P 1'
_cell_length_a   5.16291600
_cell_length_b   6.54860400
_cell_length_c   10.18451900
_cell_angle_alpha   90.00000000
_cell_angle_beta   90.00000000
_cell_angle_gamma   90.00000000
_symmetry_Int_Tables_number   1
_chemical_formula_structural   YbGdReC2
_chemical_formula_sum   'Yb4 Gd4 Re4 C8'
_cell_volume   344.33749122
_cell_formula_units_Z   4
loop_
 _symmetry_equiv_pos_site_id
 _symmetry_equiv_pos_as_xyz
  1  'x, y, z'
loop_
 _atom_site_type_symbol
 _atom_site_label
 _atom_site_symmetry_multiplicity
 _atom_site_fract_x
 _atom_site_fract_y
 _atom_site_fract_z
 _atom_site_occupancy
  Yb  Yb0  1  0.750000  0.461992  0.774232  1
  Yb  Yb1  1  0.250000  0.038008  0.274232  1
  Yb  Yb2  1  0.750000  0.961992  0.725768  1
  Yb  Yb3  1  0.250000  0.538008  0.225768  1
  Gd  Gd4  1  0.750000  0.808710  0.051755  1
  Gd  Gd5  1  0.250000  0.191290  0.948245  1
  Gd  Gd6  1  0.750000  0.308710  0.448245  1
  Gd  Gd7  1  0.250000  0.691290  0.551755  1
  Re  Re8  1  0.750000  0.774367  0.359111  1
  Re  Re9  1  0.250000  0.725633  0.859111  1
  Re  Re10  1  0.250000  0.225633  0.640889  1
  Re  Re11  1  0.750000  0.274367  0.140889  1
  C  C12  1  0.250000  0.959434  0.741073  1
  C  C13  1  0.750000  0.540566  0.241073  1
  C  C14  1  0.250000  0.459434  0.758927  1
  C  C15  1  0.750000  0.040566  0.258927  1
  C  C16  1  0.250000  0.315097  0.462949  1
  C  C17  1  0.750000  0.184903  0.962949  1
  C  C18  1  0.250000  0.815097  0.037051  1
  C  C19  1  0.750000  0.684903  0.537051  1
