# generated using pymatgen
data_Tb5CeNbO12
_symmetry_space_group_name_H-M   'P 1'
_cell_length_a   6.50132139
_cell_length_b   6.54934518
_cell_length_c   6.55376000
_cell_angle_alpha   98.93580471
_cell_angle_beta   98.99167750
_cell_angle_gamma   98.40647129
_symmetry_Int_Tables_number   1
_chemical_formula_structural   Tb5CeNbO12
_chemical_formula_sum   'Tb5 Ce1 Nb1 O12'
_cell_volume   268.09277155
_cell_formula_units_Z   1
loop_
 _symmetry_equiv_pos_site_id
 _symmetry_equiv_pos_as_xyz
  1  'x, y, z'
loop_
 _atom_site_type_symbol
 _atom_site_label
 _atom_site_symmetry_multiplicity
 _atom_site_fract_x
 _atom_site_fract_y
 _atom_site_fract_z
 _atom_site_occupancy
  Tb  Tb0  1  0.144004  0.305107  0.615080  1
  Tb  Tb1  1  0.388945  0.861383  0.699035  1
  Tb  Tb2  1  0.690941  0.387115  0.857732  1
  Tb  Tb3  1  0.305004  0.610290  0.134445  1
  Tb  Tb4  1  0.607099  0.141352  0.307654  1
  Ce  Ce5  1  0.858698  0.690394  0.395846  1
  Nb  Nb6  1  0.998521  0.003181  0.005431  1
  O  O7  1  0.074330  0.302783  0.958807  1
  O  O8  1  0.044091  0.930201  0.694229  1
  O  O9  1  0.409526  0.563621  0.819829  1
  O  O10  1  0.170913  0.591573  0.431184  1
  O  O11  1  0.696712  0.041353  0.925057  1
  O  O12  1  0.436357  0.174348  0.585838  1
  O  O13  1  0.570653  0.816943  0.411734  1
  O  O14  1  0.304608  0.956002  0.071815  1
  O  O15  1  0.822935  0.414366  0.565422  1
  O  O16  1  0.591939  0.435294  0.178783  1
  O  O17  1  0.958421  0.076358  0.302596  1
  O  O18  1  0.926302  0.698336  0.039485  1
