# generated using pymatgen
data_Ta2NbAl2PdC
_symmetry_space_group_name_H-M   'P 1'
_cell_length_a   8.37232213
_cell_length_b   8.37220071
_cell_length_c   8.37439901
_cell_angle_alpha   59.99227337
_cell_angle_beta   59.98832784
_cell_angle_gamma   60.01689973
_symmetry_Int_Tables_number   1
_chemical_formula_structural   Ta2NbAl2PdC
_chemical_formula_sum   'Ta8 Nb4 Al8 Pd4 C4'
_cell_volume   415.06484052
_cell_formula_units_Z   4
loop_
 _symmetry_equiv_pos_site_id
 _symmetry_equiv_pos_as_xyz
  1  'x, y, z'
loop_
 _atom_site_type_symbol
 _atom_site_label
 _atom_site_symmetry_multiplicity
 _atom_site_fract_x
 _atom_site_fract_y
 _atom_site_fract_z
 _atom_site_occupancy
  Ta  Ta0  1  0.682148  0.681627  0.318136  1
  Ta  Ta1  1  0.318136  0.318088  0.682148  1
  Ta  Ta2  1  0.568591  0.568016  0.931740  1
  Ta  Ta3  1  0.932136  0.567645  0.568184  1
  Ta  Ta4  1  0.568184  0.932034  0.932136  1
  Ta  Ta5  1  0.931740  0.931653  0.568591  1
  Ta  Ta6  1  0.682007  0.317993  0.682007  1
  Ta  Ta7  1  0.931816  0.568184  0.931816  1
  Nb  Nb8  1  0.567473  0.932527  0.567473  1
  Nb  Nb9  1  0.317580  0.682150  0.682726  1
  Nb  Nb10  1  0.682726  0.317544  0.317580  1
  Nb  Nb11  1  0.317239  0.682761  0.317239  1
  Al  Al12  1  0.915988  0.915713  0.915724  1
  Al  Al13  1  0.997256  0.334114  0.334128  1
  Al  Al14  1  0.334127  0.997084  0.334498  1
  Al  Al15  1  0.334128  0.334500  0.997256  1
  Al  Al16  1  0.915724  0.252577  0.915988  1
  Al  Al17  1  0.915622  0.915959  0.252721  1
  Al  Al18  1  0.252721  0.915700  0.915622  1
  Al  Al19  1  0.334498  0.334289  0.334127  1
  Pd  Pd20  1  0.125515  0.125509  0.124193  1
  Pd  Pd21  1  0.625307  0.124918  0.123556  1
  Pd  Pd22  1  0.124193  0.624783  0.125515  1
  Pd  Pd23  1  0.123556  0.126219  0.625307  1
  C  C24  1  0.626678  0.623336  0.625232  1
  C  C25  1  0.123402  0.624450  0.626274  1
  C  C26  1  0.625232  0.124753  0.626678  1
  C  C27  1  0.626274  0.625875  0.123402  1
