# generated using pymatgen
data_Zr2Co9Tc2NiP7
_symmetry_space_group_name_H-M   'P 1'
_cell_length_a   8.89849180
_cell_length_b   8.95508967
_cell_length_c   3.63759100
_cell_angle_alpha   90.00000000
_cell_angle_beta   90.00000000
_cell_angle_gamma   119.66216741
_symmetry_Int_Tables_number   1
_chemical_formula_structural   Zr2Co9Tc2NiP7
_chemical_formula_sum   'Zr2 Co9 Tc2 Ni1 P7'
_cell_volume   251.88321903
_cell_formula_units_Z   1
loop_
 _symmetry_equiv_pos_site_id
 _symmetry_equiv_pos_as_xyz
  1  'x, y, z'
loop_
 _atom_site_type_symbol
 _atom_site_label
 _atom_site_symmetry_multiplicity
 _atom_site_fract_x
 _atom_site_fract_y
 _atom_site_fract_z
 _atom_site_occupancy
  Zr  Zr0  1  0.995925  0.003995  0.000000  1
  Zr  Zr1  1  0.331504  0.665900  0.500000  1
  Co  Co2  1  0.294742  0.399290  0.000000  1
  Co  Co3  1  0.101552  0.705897  0.000000  1
  Co  Co4  1  0.381611  0.168904  0.000000  1
  Co  Co5  1  0.790905  0.619859  0.000000  1
  Co  Co6  1  0.831326  0.213237  0.000000  1
  Co  Co7  1  0.227589  0.943060  0.500000  1
  Co  Co8  1  0.053096  0.278477  0.500000  1
  Co  Co9  1  0.721669  0.774090  0.500000  1
  Co  Co10  1  0.600512  0.892983  0.000000  1
  Tc  Tc11  1  0.888485  0.462799  0.500000  1
  Tc  Tc12  1  0.551227  0.431195  0.500000  1
  Ni  Ni13  1  0.567905  0.106580  0.500000  1
  P  P14  1  0.663115  0.327827  0.000000  1
  P  P15  1  0.079708  0.448867  0.000000  1
  P  P16  1  0.258722  0.211605  0.500000  1
  P  P17  1  0.779786  0.043967  0.500000  1
  P  P18  1  0.958381  0.748263  0.500000  1
  P  P19  1  0.550631  0.632244  0.000000  1
  P  P20  1  0.371608  0.920962  0.000000  1
