# generated using pymatgen
data_ScBe8FeOs2
_symmetry_space_group_name_H-M   'P 1'
_cell_length_a   4.37994000
_cell_length_b   4.37993923
_cell_length_c   7.20415400
_cell_angle_alpha   90.00000000
_cell_angle_beta   90.00000000
_cell_angle_gamma   119.99999068
_symmetry_Int_Tables_number   1
_chemical_formula_structural   ScBe8FeOs2
_chemical_formula_sum   'Sc1 Be8 Fe1 Os2'
_cell_volume   119.68780627
_cell_formula_units_Z   1
loop_
 _symmetry_equiv_pos_site_id
 _symmetry_equiv_pos_as_xyz
  1  'x, y, z'
loop_
 _atom_site_type_symbol
 _atom_site_label
 _atom_site_symmetry_multiplicity
 _atom_site_fract_x
 _atom_site_fract_y
 _atom_site_fract_z
 _atom_site_occupancy
  Sc  Sc0  1  0.666667  0.333333  0.936771  1
  Be  Be1  1  0.000000  0.000000  0.009339  1
  Be  Be2  1  0.000000  0.000000  0.498841  1
  Be  Be3  1  0.832757  0.665514  0.259188  1
  Be  Be4  1  0.169747  0.830253  0.735263  1
  Be  Be5  1  0.660507  0.830253  0.735263  1
  Be  Be6  1  0.334486  0.167243  0.259188  1
  Be  Be7  1  0.832757  0.167243  0.259188  1
  Be  Be8  1  0.169747  0.339493  0.735263  1
  Fe  Fe9  1  0.333333  0.666667  0.434128  1
  Os  Os10  1  0.333333  0.666667  0.078844  1
  Os  Os11  1  0.666667  0.333333  0.558727  1
