# generated using pymatgen
data_LaFeOs2C
_symmetry_space_group_name_H-M   'P 1'
_cell_length_a   5.75390878
_cell_length_b   5.75390965
_cell_length_c   7.43107000
_cell_angle_alpha   90.00000000
_cell_angle_beta   90.00000000
_cell_angle_gamma   139.08424643
_symmetry_Int_Tables_number   1
_chemical_formula_structural   LaFeOs2C
_chemical_formula_sum   'La2 Fe2 Os4 C2'
_cell_volume   161.13303561
_cell_formula_units_Z   2
loop_
 _symmetry_equiv_pos_site_id
 _symmetry_equiv_pos_as_xyz
  1  'x, y, z'
loop_
 _atom_site_type_symbol
 _atom_site_label
 _atom_site_symmetry_multiplicity
 _atom_site_fract_x
 _atom_site_fract_y
 _atom_site_fract_z
 _atom_site_occupancy
  La  La0  1  0.539552  0.460448  0.250000  1
  La  La1  1  0.460448  0.539552  0.750000  1
  Fe  Fe2  1  0.272221  0.727779  0.250000  1
  Fe  Fe3  1  0.727779  0.272221  0.750000  1
  Os  Os4  1  0.827061  0.172939  0.059350  1
  Os  Os5  1  0.172939  0.827061  0.940650  1
  Os  Os6  1  0.172939  0.827061  0.559350  1
  Os  Os7  1  0.827061  0.172939  0.440650  1
  C  C8  1  0.000000  0.000000  0.000000  1
  C  C9  1  0.000000  0.000000  0.500000  1
