# generated using pymatgen
data_Dy2HoMg3Sn2Au
_symmetry_space_group_name_H-M   'P 1'
_cell_length_a   7.54271700
_cell_length_b   7.53723341
_cell_length_c   4.43088400
_cell_angle_alpha   90.00000000
_cell_angle_beta   90.00000000
_cell_angle_gamma   120.02408269
_symmetry_Int_Tables_number   1
_chemical_formula_structural   Dy2HoMg3Sn2Au
_chemical_formula_sum   'Dy2 Ho1 Mg3 Sn2 Au1'
_cell_volume   218.09984026
_cell_formula_units_Z   1
loop_
 _symmetry_equiv_pos_site_id
 _symmetry_equiv_pos_as_xyz
  1  'x, y, z'
loop_
 _atom_site_type_symbol
 _atom_site_label
 _atom_site_symmetry_multiplicity
 _atom_site_fract_x
 _atom_site_fract_y
 _atom_site_fract_z
 _atom_site_occupancy
  Dy  Dy0  1  0.000125  0.595041  0.000000  1
  Dy  Dy1  1  0.405084  0.404959  0.000000  1
  Ho  Ho2  1  0.595160  0.000000  0.000000  1
  Mg  Mg3  1  0.237544  0.000000  0.500000  1
  Mg  Mg4  1  0.999896  0.237413  0.500000  1
  Mg  Mg5  1  0.762483  0.762587  0.500000  1
  Sn  Sn6  1  0.333561  0.667091  0.500000  1
  Sn  Sn7  1  0.666471  0.332909  0.500000  1
  Au  Au8  1  0.999675  0.000000  0.000000  1
