# generated using pymatgen
data_YbY3(Al3Os)2
_symmetry_space_group_name_H-M   'P 1'
_cell_length_a   5.51604200
_cell_length_b   5.51604243
_cell_length_c   8.79425100
_cell_angle_alpha   90.00000000
_cell_angle_beta   90.00000000
_cell_angle_gamma   119.99999740
_symmetry_Int_Tables_number   1
_chemical_formula_structural   YbY3(Al3Os)2
_chemical_formula_sum   'Yb1 Y3 Al6 Os2'
_cell_volume   231.73128108
_cell_formula_units_Z   1
loop_
 _symmetry_equiv_pos_site_id
 _symmetry_equiv_pos_as_xyz
  1  'x, y, z'
loop_
 _atom_site_type_symbol
 _atom_site_label
 _atom_site_symmetry_multiplicity
 _atom_site_fract_x
 _atom_site_fract_y
 _atom_site_fract_z
 _atom_site_occupancy
  Yb  Yb0  1  0.333334  0.666667  0.946410  1
  Y  Y1  1  0.666666  0.333333  0.049863  1
  Y  Y2  1  0.666666  0.333333  0.448643  1
  Y  Y3  1  0.333334  0.666667  0.552291  1
  Al  Al4  1  0.160912  0.321823  0.251500  1
  Al  Al5  1  0.160912  0.839088  0.251500  1
  Al  Al6  1  0.678176  0.839088  0.251500  1
  Al  Al7  1  0.322676  0.161338  0.749225  1
  Al  Al8  1  0.838662  0.161338  0.749225  1
  Al  Al9  1  0.838662  0.677324  0.749225  1
  Os  Os10  1  0.000000  0.000000  0.000021  1
  Os  Os11  1  0.000000  0.000000  0.500594  1
