# generated using pymatgen
data_KYb4Nb3(Ni4As3)4
_symmetry_space_group_name_H-M   'P 1'
_cell_length_a   12.73403100
_cell_length_b   12.73403096
_cell_length_c   3.90139000
_cell_angle_alpha   90.00000000
_cell_angle_beta   90.00000000
_cell_angle_gamma   120.00000271
_symmetry_Int_Tables_number   1
_chemical_formula_structural   KYb4Nb3(Ni4As3)4
_chemical_formula_sum   'K1 Yb4 Nb3 Ni16 As12'
_cell_volume   547.87538695
_cell_formula_units_Z   1
loop_
 _symmetry_equiv_pos_site_id
 _symmetry_equiv_pos_as_xyz
  1  'x, y, z'
loop_
 _atom_site_type_symbol
 _atom_site_label
 _atom_site_symmetry_multiplicity
 _atom_site_fract_x
 _atom_site_fract_y
 _atom_site_fract_z
 _atom_site_occupancy
  K  K0  1  0.333333  0.666667  0.000000  1
  Yb  Yb1  1  0.185287  0.186475  0.500000  1
  Yb  Yb2  1  0.813525  0.998813  0.500000  1
  Yb  Yb3  1  0.001187  0.814713  0.500000  1
  Yb  Yb4  1  0.666667  0.333333  0.000000  1
  Nb  Nb5  1  0.564562  0.562741  0.000000  1
  Nb  Nb6  1  0.437259  0.001822  0.000000  1
  Nb  Nb7  1  0.998178  0.435438  0.000000  1
  Ni  Ni8  1  0.726003  0.721304  0.500000  1
  Ni  Ni9  1  0.278696  0.004699  0.500000  1
  Ni  Ni10  1  0.995301  0.273997  0.500000  1
  Ni  Ni11  1  0.180159  0.372492  0.000000  1
  Ni  Ni12  1  0.627508  0.807667  0.000000  1
  Ni  Ni13  1  0.192333  0.819841  0.000000  1
  Ni  Ni14  1  0.806410  0.623387  0.000000  1
  Ni  Ni15  1  0.816977  0.193590  0.000000  1
  Ni  Ni16  1  0.376613  0.183023  0.000000  1
  Ni  Ni17  1  0.363168  0.477724  0.500000  1
  Ni  Ni18  1  0.522276  0.885445  0.500000  1
  Ni  Ni19  1  0.114555  0.636832  0.500000  1
  Ni  Ni20  1  0.875692  0.514538  0.500000  1
  Ni  Ni21  1  0.638847  0.124308  0.500000  1
  Ni  Ni22  1  0.485462  0.361153  0.500000  1
  Ni  Ni23  1  0.000000  0.000000  0.000000  1
  As  As24  1  0.823428  0.821814  0.000000  1
  As  As25  1  0.178186  0.001615  0.000000  1
  As  As26  1  0.998385  0.176572  0.000000  1
  As  As27  1  0.164834  0.473262  0.500000  1
  As  As28  1  0.526738  0.691572  0.500000  1
  As  As29  1  0.308428  0.835166  0.500000  1
  As  As30  1  0.690870  0.519751  0.500000  1
  As  As31  1  0.828881  0.309130  0.500000  1
  As  As32  1  0.480249  0.171119  0.500000  1
  As  As33  1  0.361059  0.360830  0.000000  1
  As  As34  1  0.639170  0.000230  0.000000  1
  As  As35  1  0.999770  0.638941  0.000000  1
