# generated using pymatgen
data_CaYTi3Co9As7
_symmetry_space_group_name_H-M   'P 1'
_cell_length_a   3.75783200
_cell_length_b   9.54094137
_cell_length_c   9.54094200
_cell_angle_alpha   119.99999524
_cell_angle_beta   90.00000000
_cell_angle_gamma   90.00000000
_symmetry_Int_Tables_number   1
_chemical_formula_structural   CaYTi3Co9As7
_chemical_formula_sum   'Ca1 Y1 Ti3 Co9 As7'
_cell_volume   296.24463621
_cell_formula_units_Z   1
loop_
 _symmetry_equiv_pos_site_id
 _symmetry_equiv_pos_as_xyz
  1  'x, y, z'
loop_
 _atom_site_type_symbol
 _atom_site_label
 _atom_site_symmetry_multiplicity
 _atom_site_fract_x
 _atom_site_fract_y
 _atom_site_fract_z
 _atom_site_occupancy
  Ca  Ca0  1  0.500000  0.333333  0.666667  1
  Y  Y1  1  0.000000  0.666667  0.333333  1
  Ti  Ti2  1  0.500000  0.776848  0.890127  1
  Ti  Ti3  1  0.500000  0.113278  0.223152  1
  Ti  Ti4  1  0.500000  0.109873  0.886722  1
  Co  Co5  1  0.000000  0.575892  0.943613  1
  Co  Co6  1  0.000000  0.367721  0.424108  1
  Co  Co7  1  0.000000  0.056387  0.632279  1
  Co  Co8  1  0.000000  0.881104  0.160886  1
  Co  Co9  1  0.000000  0.279784  0.118896  1
  Co  Co10  1  0.000000  0.839114  0.720216  1
  Co  Co11  1  0.500000  0.948796  0.384631  1
  Co  Co12  1  0.500000  0.435835  0.051204  1
  Co  Co13  1  0.500000  0.615369  0.564165  1
  As  As14  1  0.000000  0.000000  0.000000  1
  As  As15  1  0.500000  0.709639  0.122272  1
  As  As16  1  0.500000  0.412632  0.290361  1
  As  As17  1  0.500000  0.877728  0.587368  1
  As  As18  1  0.000000  0.578876  0.693210  1
  As  As19  1  0.000000  0.114334  0.421124  1
  As  As20  1  0.000000  0.306790  0.885666  1
