# generated using pymatgen
data_Pa5Ti3(P3Ir4)4
_symmetry_space_group_name_H-M   'P 1'
_cell_length_a   12.77632400
_cell_length_b   12.77632387
_cell_length_c   3.99121300
_cell_angle_alpha   90.00000000
_cell_angle_beta   90.00000000
_cell_angle_gamma   120.00000034
_symmetry_Int_Tables_number   1
_chemical_formula_structural   Pa5Ti3(P3Ir4)4
_chemical_formula_sum   'Pa5 Ti3 P12 Ir16'
_cell_volume   564.21855547
_cell_formula_units_Z   1
loop_
 _symmetry_equiv_pos_site_id
 _symmetry_equiv_pos_as_xyz
  1  'x, y, z'
loop_
 _atom_site_type_symbol
 _atom_site_label
 _atom_site_symmetry_multiplicity
 _atom_site_fract_x
 _atom_site_fract_y
 _atom_site_fract_z
 _atom_site_occupancy
  Pa  Pa0  1  0.333333  0.666667  0.500000  1
  Pa  Pa1  1  0.666667  0.333333  0.500000  1
  Pa  Pa2  1  0.000000  0.815476  0.000000  1
  Pa  Pa3  1  0.184524  0.184524  0.000000  1
  Pa  Pa4  1  0.815476  0.000000  0.000000  1
  Ti  Ti5  1  0.000000  0.451537  0.500000  1
  Ti  Ti6  1  0.548463  0.548463  0.500000  1
  Ti  Ti7  1  0.451537  0.000000  0.500000  1
  P  P8  1  0.000000  0.634867  0.500000  1
  P  P9  1  0.365133  0.365133  0.500000  1
  P  P10  1  0.634867  0.000000  0.500000  1
  P  P11  1  0.518323  0.682481  0.000000  1
  P  P12  1  0.317519  0.835843  0.000000  1
  P  P13  1  0.164157  0.481677  0.000000  1
  P  P14  1  0.481677  0.164157  0.000000  1
  P  P15  1  0.682481  0.518323  0.000000  1
  P  P16  1  0.835843  0.317519  0.000000  1
  P  P17  1  0.000000  0.177295  0.500000  1
  P  P18  1  0.822705  0.822705  0.500000  1
  P  P19  1  0.177295  0.000000  0.500000  1
  Ir  Ir20  1  0.509448  0.865707  0.000000  1
  Ir  Ir21  1  0.134293  0.643742  0.000000  1
  Ir  Ir22  1  0.356258  0.490552  0.000000  1
  Ir  Ir23  1  0.490552  0.356258  0.000000  1
  Ir  Ir24  1  0.865707  0.509448  0.000000  1
  Ir  Ir25  1  0.643742  0.134293  0.000000  1
  Ir  Ir26  1  0.000000  0.282203  0.000000  1
  Ir  Ir27  1  0.717797  0.717797  0.000000  1
  Ir  Ir28  1  0.282203  0.000000  0.000000  1
  Ir  Ir29  1  0.627841  0.807096  0.500000  1
  Ir  Ir30  1  0.192904  0.820744  0.500000  1
  Ir  Ir31  1  0.179256  0.372159  0.500000  1
  Ir  Ir32  1  0.372159  0.179256  0.500000  1
  Ir  Ir33  1  0.807096  0.627841  0.500000  1
  Ir  Ir34  1  0.820744  0.192904  0.500000  1
  Ir  Ir35  1  0.000000  0.000000  0.500000  1
