# generated using pymatgen
data_DyY(HoPt)2
_symmetry_space_group_name_H-M   'P 1'
_cell_length_a   4.75683400
_cell_length_b   7.15845400
_cell_length_c   8.80240900
_cell_angle_alpha   90.00000000
_cell_angle_beta   90.00000000
_cell_angle_gamma   90.00000000
_symmetry_Int_Tables_number   1
_chemical_formula_structural   DyY(HoPt)2
_chemical_formula_sum   'Dy2 Y2 Ho4 Pt4'
_cell_volume   299.73591115
_cell_formula_units_Z   2
loop_
 _symmetry_equiv_pos_site_id
 _symmetry_equiv_pos_as_xyz
  1  'x, y, z'
loop_
 _atom_site_type_symbol
 _atom_site_label
 _atom_site_symmetry_multiplicity
 _atom_site_fract_x
 _atom_site_fract_y
 _atom_site_fract_z
 _atom_site_occupancy
  Dy  Dy0  1  0.250000  0.989942  0.332221  1
  Dy  Dy1  1  0.250000  0.489942  0.167779  1
  Y  Y2  1  0.750000  0.010027  0.668755  1
  Y  Y3  1  0.750000  0.510027  0.831245  1
  Ho  Ho4  1  0.250000  0.855359  0.920113  1
  Ho  Ho5  1  0.250000  0.355359  0.579887  1
  Ho  Ho6  1  0.750000  0.144494  0.080295  1
  Ho  Ho7  1  0.750000  0.644494  0.419705  1
  Pt  Pt8  1  0.250000  0.258120  0.907161  1
  Pt  Pt9  1  0.250000  0.758120  0.592839  1
  Pt  Pt10  1  0.750000  0.742058  0.093837  1
  Pt  Pt11  1  0.750000  0.242058  0.406163  1
