# generated using pymatgen
data_Tb2Dy2Co2Sn5
_symmetry_space_group_name_H-M   'P 1'
_cell_length_a   7.24584099
_cell_length_b   7.24584008
_cell_length_c   10.64196414
_cell_angle_alpha   54.45080705
_cell_angle_beta   54.45081179
_cell_angle_gamma   35.64426011
_symmetry_Int_Tables_number   1
_chemical_formula_structural   Tb2Dy2Co2Sn5
_chemical_formula_sum   'Tb2 Dy2 Co2 Sn5'
_cell_volume   257.82681351
_cell_formula_units_Z   1
loop_
 _symmetry_equiv_pos_site_id
 _symmetry_equiv_pos_as_xyz
  1  'x, y, z'
loop_
 _atom_site_type_symbol
 _atom_site_label
 _atom_site_symmetry_multiplicity
 _atom_site_fract_x
 _atom_site_fract_y
 _atom_site_fract_z
 _atom_site_occupancy
  Tb  Tb0  1  0.066819  0.066819  0.781679  1
  Tb  Tb1  1  0.933181  0.933181  0.218321  1
  Dy  Dy2  1  0.328718  0.328718  0.784993  1
  Dy  Dy3  1  0.671282  0.671282  0.215007  1
  Co  Co4  1  0.770982  0.770982  0.647290  1
  Co  Co5  1  0.229018  0.229018  0.352710  1
  Sn  Sn6  1  0.373857  0.373857  0.045961  1
  Sn  Sn7  1  0.626143  0.626143  0.954039  1
  Sn  Sn8  1  0.000000  0.000000  0.500000  1
  Sn  Sn9  1  0.349803  0.349803  0.473424  1
  Sn  Sn10  1  0.650197  0.650197  0.526576  1
