# generated using pymatgen
data_Tm2CdNiAg
_symmetry_space_group_name_H-M   'P 1'
_cell_length_a   7.63154009
_cell_length_b   7.63153953
_cell_length_c   3.65268800
_cell_angle_alpha   90.00000000
_cell_angle_beta   90.00000000
_cell_angle_gamma   91.83436586
_symmetry_Int_Tables_number   1
_chemical_formula_structural   Tm2CdNiAg
_chemical_formula_sum   'Tm4 Cd2 Ni2 Ag2'
_cell_volume   212.62499206
_cell_formula_units_Z   2
loop_
 _symmetry_equiv_pos_site_id
 _symmetry_equiv_pos_as_xyz
  1  'x, y, z'
loop_
 _atom_site_type_symbol
 _atom_site_label
 _atom_site_symmetry_multiplicity
 _atom_site_fract_x
 _atom_site_fract_y
 _atom_site_fract_z
 _atom_site_occupancy
  Tm  Tm0  1  0.693796  0.193796  0.500000  1
  Tm  Tm1  1  0.306204  0.806204  0.500000  1
  Tm  Tm2  1  0.154030  0.345970  0.500000  1
  Tm  Tm3  1  0.845970  0.654030  0.500000  1
  Cd  Cd4  1  0.000000  0.000000  0.000000  1
  Cd  Cd5  1  0.500000  0.500000  0.000000  1
  Ni  Ni6  1  0.119769  0.619769  0.000000  1
  Ni  Ni7  1  0.880231  0.380231  0.000000  1
  Ag  Ag8  1  0.628383  0.871617  0.000000  1
  Ag  Ag9  1  0.371617  0.128383  0.000000  1
