# generated using pymatgen
data_Sc4TaTi(Be2Ir5)2
_symmetry_space_group_name_H-M   'P 1'
_cell_length_a   9.54570600
_cell_length_b   9.54570600
_cell_length_c   3.15711500
_cell_angle_alpha   90.00000000
_cell_angle_beta   90.00000000
_cell_angle_gamma   90.00000000
_symmetry_Int_Tables_number   1
_chemical_formula_structural   Sc4TaTi(Be2Ir5)2
_chemical_formula_sum   'Sc4 Ta1 Ti1 Be4 Ir10'
_cell_volume   287.67790695
_cell_formula_units_Z   1
loop_
 _symmetry_equiv_pos_site_id
 _symmetry_equiv_pos_as_xyz
  1  'x, y, z'
loop_
 _atom_site_type_symbol
 _atom_site_label
 _atom_site_symmetry_multiplicity
 _atom_site_fract_x
 _atom_site_fract_y
 _atom_site_fract_z
 _atom_site_occupancy
  Sc  Sc0  1  0.672599  0.177495  0.000000  1
  Sc  Sc1  1  0.327401  0.822505  0.000000  1
  Sc  Sc2  1  0.177495  0.327401  0.000000  1
  Sc  Sc3  1  0.822505  0.672599  0.000000  1
  Ta  Ta4  1  0.000000  0.000000  0.000000  1
  Ti  Ti5  1  0.500000  0.500000  0.000000  1
  Be  Be6  1  0.124660  0.619060  0.000000  1
  Be  Be7  1  0.875340  0.380940  0.000000  1
  Be  Be8  1  0.619060  0.875340  0.000000  1
  Be  Be9  1  0.380940  0.124660  0.000000  1
  Ir  Ir10  1  0.213694  0.069886  0.500000  1
  Ir  Ir11  1  0.786306  0.930114  0.500000  1
  Ir  Ir12  1  0.069886  0.786306  0.500000  1
  Ir  Ir13  1  0.710678  0.431454  0.500000  1
  Ir  Ir14  1  0.930114  0.213694  0.500000  1
  Ir  Ir15  1  0.289322  0.568546  0.500000  1
  Ir  Ir16  1  0.568546  0.710678  0.500000  1
  Ir  Ir17  1  0.431454  0.289322  0.500000  1
  Ir  Ir18  1  0.500000  0.000000  0.500000  1
  Ir  Ir19  1  0.000000  0.500000  0.500000  1
