# generated using pymatgen
data_Eu2Mg2AgRh
_symmetry_space_group_name_H-M   'P 1'
_cell_length_a   4.38937100
_cell_length_b   7.57364642
_cell_length_c   8.83251678
_cell_angle_alpha   89.63269936
_cell_angle_beta   90.00000000
_cell_angle_gamma   90.00000000
_symmetry_Int_Tables_number   1
_chemical_formula_structural   Eu2Mg2AgRh
_chemical_formula_sum   'Eu4 Mg4 Ag2 Rh2'
_cell_volume   293.61812639
_cell_formula_units_Z   2
loop_
 _symmetry_equiv_pos_site_id
 _symmetry_equiv_pos_as_xyz
  1  'x, y, z'
loop_
 _atom_site_type_symbol
 _atom_site_label
 _atom_site_symmetry_multiplicity
 _atom_site_fract_x
 _atom_site_fract_y
 _atom_site_fract_z
 _atom_site_occupancy
  Eu  Eu0  1  0.250000  0.522344  0.165331  1
  Eu  Eu1  1  0.750000  0.477656  0.834669  1
  Eu  Eu2  1  0.750000  0.957184  0.690532  1
  Eu  Eu3  1  0.250000  0.042816  0.309468  1
  Mg  Mg4  1  0.250000  0.643251  0.569697  1
  Mg  Mg5  1  0.750000  0.356749  0.430303  1
  Mg  Mg6  1  0.750000  0.866410  0.053343  1
  Mg  Mg7  1  0.250000  0.133590  0.946657  1
  Ag  Ag8  1  0.750000  0.729035  0.374690  1
  Ag  Ag9  1  0.250000  0.270965  0.625310  1
  Rh  Rh10  1  0.250000  0.769117  0.873285  1
  Rh  Rh11  1  0.750000  0.230883  0.126715  1
