# generated using pymatgen
data_Y2VFe11P7
_symmetry_space_group_name_H-M   'P 1'
_cell_length_a   9.05935900
_cell_length_b   9.07261784
_cell_length_c   3.65122500
_cell_angle_alpha   90.00000000
_cell_angle_beta   90.00000000
_cell_angle_gamma   119.82986570
_symmetry_Int_Tables_number   1
_chemical_formula_structural   Y2VFe11P7
_chemical_formula_sum   'Y2 V1 Fe11 P7'
_cell_volume   260.34024797
_cell_formula_units_Z   1
loop_
 _symmetry_equiv_pos_site_id
 _symmetry_equiv_pos_as_xyz
  1  'x, y, z'
loop_
 _atom_site_type_symbol
 _atom_site_label
 _atom_site_symmetry_multiplicity
 _atom_site_fract_x
 _atom_site_fract_y
 _atom_site_fract_z
 _atom_site_occupancy
  Y  Y0  1  0.668137  0.336281  0.499999  1
  Y  Y1  1  0.331778  0.661052  0.000000  1
  V  V2  1  0.215369  0.103343  0.499999  1
  Fe  Fe3  1  0.902907  0.121347  0.499999  1
  Fe  Fe4  1  0.880624  0.786967  0.499999  1
  Fe  Fe5  1  0.150742  0.270296  0.000000  1
  Fe  Fe6  1  0.723223  0.881585  0.000000  1
  Fe  Fe7  1  0.118737  0.844118  0.000000  1
  Fe  Fe8  1  0.430299  0.050365  0.000000  1
  Fe  Fe9  1  0.945248  0.371578  0.000000  1
  Fe  Fe10  1  0.631839  0.576136  0.000000  1
  Fe  Fe11  1  0.384489  0.433064  0.499999  1
  Fe  Fe12  1  0.566806  0.954361  0.499999  1
  Fe  Fe13  1  0.047075  0.614233  0.499999  1
  P  P14  1  0.111714  0.399423  0.499999  1
  P  P15  1  0.600600  0.709242  0.499999  1
  P  P16  1  0.283484  0.876257  0.499999  1
  P  P17  1  0.994121  0.996606  0.000000  1
  P  P18  1  0.412795  0.304847  0.000000  1
  P  P19  1  0.712098  0.118559  0.000000  1
  P  P20  1  0.887915  0.590338  0.000000  1
