# generated using pymatgen
data_Zr8Al14GaRu7
_symmetry_space_group_name_H-M   'P 1'
_cell_length_a   8.92274337
_cell_length_b   8.92274436
_cell_length_c   8.92274300
_cell_angle_alpha   120.29902566
_cell_angle_beta   119.83341496
_cell_angle_gamma   89.88581829
_symmetry_Int_Tables_number   1
_chemical_formula_structural   Zr8Al14GaRu7
_chemical_formula_sum   'Zr8 Al14 Ga1 Ru7'
_cell_volume   501.80547620
_cell_formula_units_Z   1
loop_
 _symmetry_equiv_pos_site_id
 _symmetry_equiv_pos_as_xyz
  1  'x, y, z'
loop_
 _atom_site_type_symbol
 _atom_site_label
 _atom_site_symmetry_multiplicity
 _atom_site_fract_x
 _atom_site_fract_y
 _atom_site_fract_z
 _atom_site_occupancy
  Zr  Zr0  1  0.799149  0.288925  0.074338  1
  Zr  Zr1  1  0.214589  0.288913  0.489771  1
  Zr  Zr2  1  0.203290  0.703293  0.499997  1
  Zr  Zr3  1  0.214586  0.724810  0.925662  1
  Zr  Zr4  1  0.799148  0.724817  0.510228  1
  Zr  Zr5  1  0.776123  0.276122  0.499996  1
  Zr  Zr6  1  0.378965  0.119368  0.740387  1
  Zr  Zr7  1  0.378983  0.638578  0.259615  1
  Al  Al8  1  0.161741  0.333544  0.171789  1
  Al  Al9  1  0.161759  0.989954  0.828214  1
  Al  Al10  1  0.153383  0.341581  0.811837  1
  Al  Al11  1  0.529744  0.341545  0.188163  1
  Al  Al12  1  0.839644  0.658903  0.819290  1
  Al  Al13  1  0.839615  0.020354  0.180711  1
  Al  Al14  1  0.836198  0.661413  0.174772  1
  Al  Al15  1  0.486642  0.661427  0.825230  1
  Al  Al16  1  0.377465  0.122216  0.255229  1
  Al  Al17  1  0.866990  0.122237  0.744772  1
  Al  Al18  1  0.620639  0.873269  0.252604  1
  Al  Al19  1  0.620666  0.368035  0.747396  1
  Al  Al20  1  0.622735  0.878550  0.744202  1
  Al  Al21  1  0.134351  0.878535  0.255800  1
  Ga  Ga22  1  0.988747  0.488744  0.500004  1
  Ru  Ru23  1  0.994851  0.997562  0.498670  1
  Ru  Ru24  1  0.498895  0.997558  0.002711  1
  Ru  Ru25  1  0.499239  0.499244  0.999997  1
  Ru  Ru26  1  0.498887  0.496184  0.501326  1
  Ru  Ru27  1  0.994839  0.496185  0.997287  1
  Ru  Ru28  1  0.999552  0.999557  0.999990  1
  Ru  Ru29  1  0.508583  0.008572  0.500011  1
