# generated using pymatgen
data_LiFe5(B2Rh5)2
_symmetry_space_group_name_H-M   'P 1'
_cell_length_a   9.34189362
_cell_length_b   9.34189291
_cell_length_c   2.87924500
_cell_angle_alpha   90.00000000
_cell_angle_beta   90.00000000
_cell_angle_gamma   89.95058457
_symmetry_Int_Tables_number   1
_chemical_formula_structural   LiFe5(B2Rh5)2
_chemical_formula_sum   'Li1 Fe5 B4 Rh10'
_cell_volume   251.27441003
_cell_formula_units_Z   1
loop_
 _symmetry_equiv_pos_site_id
 _symmetry_equiv_pos_as_xyz
  1  'x, y, z'
loop_
 _atom_site_type_symbol
 _atom_site_label
 _atom_site_symmetry_multiplicity
 _atom_site_fract_x
 _atom_site_fract_y
 _atom_site_fract_z
 _atom_site_occupancy
  Li  Li0  1  0.823286  0.676714  0.000000  1
  Fe  Fe1  1  0.679542  0.174821  0.000000  1
  Fe  Fe2  1  0.325179  0.820458  0.000000  1
  Fe  Fe3  1  0.176859  0.323141  0.000000  1
  Fe  Fe4  1  0.997566  0.995193  0.000000  1
  Fe  Fe5  1  0.504807  0.502434  0.000000  1
  B  B6  1  0.124417  0.625955  0.000000  1
  B  B7  1  0.874045  0.375583  0.000000  1
  B  B8  1  0.628679  0.871321  0.000000  1
  B  B9  1  0.371643  0.128357  0.000000  1
  Rh  Rh10  1  0.496802  0.003198  0.500000  1
  Rh  Rh11  1  0.004550  0.495450  0.500000  1
  Rh  Rh12  1  0.211663  0.073687  0.500000  1
  Rh  Rh13  1  0.780390  0.939162  0.500000  1
  Rh  Rh14  1  0.082259  0.787490  0.500000  1
  Rh  Rh15  1  0.712510  0.417741  0.500000  1
  Rh  Rh16  1  0.931498  0.212843  0.500000  1
  Rh  Rh17  1  0.287157  0.568502  0.500000  1
  Rh  Rh18  1  0.560838  0.719610  0.500000  1
  Rh  Rh19  1  0.426313  0.288337  0.500000  1
