# generated using pymatgen
data_Ba3TiFeSbO9
_symmetry_space_group_name_H-M   'P 1'
_cell_length_a   5.84999900
_cell_length_b   5.84999947
_cell_length_c   14.33778200
_cell_angle_alpha   90.00000000
_cell_angle_beta   90.00000000
_cell_angle_gamma   120.00000300
_symmetry_Int_Tables_number   1
_chemical_formula_structural   Ba3TiFeSbO9
_chemical_formula_sum   'Ba6 Ti2 Fe2 Sb2 O18'
_cell_volume   424.93666975
_cell_formula_units_Z   2
loop_
 _symmetry_equiv_pos_site_id
 _symmetry_equiv_pos_as_xyz
  1  'x, y, z'
loop_
 _atom_site_type_symbol
 _atom_site_label
 _atom_site_symmetry_multiplicity
 _atom_site_fract_x
 _atom_site_fract_y
 _atom_site_fract_z
 _atom_site_occupancy
  Ba  Ba0  1  0.666667  0.333333  0.600165  1
  Ba  Ba1  1  0.333333  0.666667  0.399835  1
  Ba  Ba2  1  0.333333  0.666667  0.093242  1
  Ba  Ba3  1  0.666667  0.333333  0.906758  1
  Ba  Ba4  1  0.000000  0.000000  0.251857  1
  Ba  Ba5  1  0.000000  0.000000  0.748143  1
  Ti  Ti6  1  0.666667  0.333333  0.357875  1
  Ti  Ti7  1  0.333333  0.666667  0.642125  1
  Fe  Fe8  1  0.000000  0.000000  0.500000  1
  Fe  Fe9  1  0.000000  0.000000  0.000000  1
  Sb  Sb10  1  0.333333  0.666667  0.841659  1
  Sb  Sb11  1  0.666667  0.333333  0.158341  1
  O  O12  1  0.333905  0.166952  0.082343  1
  O  O13  1  0.833048  0.166952  0.082343  1
  O  O14  1  0.833048  0.666095  0.082343  1
  O  O15  1  0.666095  0.833048  0.917657  1
  O  O16  1  0.166952  0.833048  0.917657  1
  O  O17  1  0.166952  0.333905  0.917657  1
  O  O18  1  0.662542  0.831271  0.581713  1
  O  O19  1  0.168729  0.831271  0.581713  1
  O  O20  1  0.168729  0.337458  0.581713  1
  O  O21  1  0.337458  0.168729  0.418287  1
  O  O22  1  0.831271  0.168729  0.418287  1
  O  O23  1  0.831271  0.662542  0.418287  1
  O  O24  1  0.969142  0.484570  0.250510  1
  O  O25  1  0.515430  0.484570  0.250510  1
  O  O26  1  0.515430  0.030858  0.250510  1
  O  O27  1  0.030858  0.515430  0.749490  1
  O  O28  1  0.484570  0.515430  0.749490  1
  O  O29  1  0.484570  0.969142  0.749490  1
