# generated using pymatgen
data_CaTbNd5FeI12
_symmetry_space_group_name_H-M   'P 1'
_cell_length_a   10.04056843
_cell_length_b   9.93427526
_cell_length_c   9.96099755
_cell_angle_alpha   107.08665919
_cell_angle_beta   106.79298219
_cell_angle_gamma   107.19922571
_symmetry_Int_Tables_number   1
_chemical_formula_structural   CaTbNd5FeI12
_chemical_formula_sum   'Ca1 Tb1 Nd5 Fe1 I12'
_cell_volume   826.84974297
_cell_formula_units_Z   1
loop_
 _symmetry_equiv_pos_site_id
 _symmetry_equiv_pos_as_xyz
  1  'x, y, z'
loop_
 _atom_site_type_symbol
 _atom_site_label
 _atom_site_symmetry_multiplicity
 _atom_site_fract_x
 _atom_site_fract_y
 _atom_site_fract_z
 _atom_site_occupancy
  Ca  Ca0  1  0.499183  0.500986  0.500235  1
  Tb  Tb1  1  0.700696  0.973201  0.900816  1
  Nd  Nd2  1  0.095225  0.293412  0.026193  1
  Nd  Nd3  1  0.025765  0.095778  0.291246  1
  Nd  Nd4  1  0.307873  0.026696  0.101026  1
  Nd  Nd5  1  0.901931  0.705951  0.972940  1
  Nd  Nd6  1  0.974957  0.903908  0.708553  1
  Fe  Fe7  1  0.000254  0.999472  0.999883  1
  I  I8  1  0.459515  0.383514  0.155677  1
  I  I9  1  0.156688  0.462250  0.383689  1
  I  I10  1  0.381331  0.156514  0.462344  1
  I  I11  1  0.540555  0.625250  0.845851  1
  I  I12  1  0.841146  0.537111  0.615942  1
  I  I13  1  0.620018  0.848675  0.546105  1
  I  I14  1  0.771213  0.309696  0.926565  1
  I  I15  1  0.926741  0.773474  0.316548  1
  I  I16  1  0.321347  0.928588  0.774416  1
  I  I17  1  0.221748  0.680098  0.070910  1
  I  I18  1  0.072080  0.226039  0.683038  1
  I  I19  1  0.681736  0.069387  0.218023  1
