# generated using pymatgen
data_LaEu8Y(Sn3H)2
_symmetry_space_group_name_H-M   'P 1'
_cell_length_a   9.60692226
_cell_length_b   9.60543381
_cell_length_c   9.60025377
_cell_angle_alpha   128.53787559
_cell_angle_beta   128.48391063
_cell_angle_gamma   75.74067315
_symmetry_Int_Tables_number   1
_chemical_formula_structural   LaEu8Y(Sn3H)2
_chemical_formula_sum   'La1 Eu8 Y1 Sn6 H2'
_cell_volume   527.76476272
_cell_formula_units_Z   1
loop_
 _symmetry_equiv_pos_site_id
 _symmetry_equiv_pos_as_xyz
  1  'x, y, z'
loop_
 _atom_site_type_symbol
 _atom_site_label
 _atom_site_symmetry_multiplicity
 _atom_site_fract_x
 _atom_site_fract_y
 _atom_site_fract_z
 _atom_site_occupancy
  La  La0  1  0.513781  0.014876  0.831738  1
  Eu  Eu1  1  0.001413  0.999706  0.000269  1
  Eu  Eu2  1  0.183851  0.683569  0.170793  1
  Eu  Eu3  1  0.011848  0.184931  0.500652  1
  Eu  Eu4  1  0.684594  0.511529  0.499834  1
  Eu  Eu5  1  0.488644  0.987952  0.173287  1
  Eu  Eu6  1  0.815205  0.315754  0.827304  1
  Eu  Eu7  1  0.986836  0.814819  0.498652  1
  Eu  Eu8  1  0.315307  0.487386  0.499684  1
  Y  Y9  1  0.499739  0.501552  0.000087  1
  Sn  Sn10  1  0.255049  0.252809  0.998478  1
  Sn  Sn11  1  0.744895  0.746578  0.998841  1
  Sn  Sn12  1  0.865828  0.377186  0.243603  1
  Sn  Sn13  1  0.133264  0.621637  0.754995  1
  Sn  Sn14  1  0.377980  0.132943  0.512104  1
  Sn  Sn15  1  0.621502  0.866638  0.489445  1
  H  H16  1  0.250301  0.750218  0.500251  1
  H  H17  1  0.749964  0.249919  0.499984  1
