# generated using pymatgen
data_Sm3Dy5(HgPt)2
_symmetry_space_group_name_H-M   'P 1'
_cell_length_a   9.73020860
_cell_length_b   9.73020861
_cell_length_c   9.73020800
_cell_angle_alpha   60.00000209
_cell_angle_beta   60.00000203
_cell_angle_gamma   59.99999749
_symmetry_Int_Tables_number   1
_chemical_formula_structural   Sm3Dy5(HgPt)2
_chemical_formula_sum   'Sm6 Dy10 Hg4 Pt4'
_cell_volume   651.40551926
_cell_formula_units_Z   2
loop_
 _symmetry_equiv_pos_site_id
 _symmetry_equiv_pos_as_xyz
  1  'x, y, z'
loop_
 _atom_site_type_symbol
 _atom_site_label
 _atom_site_symmetry_multiplicity
 _atom_site_fract_x
 _atom_site_fract_y
 _atom_site_fract_z
 _atom_site_occupancy
  Sm  Sm0  1  0.937322  0.562678  0.562678  1
  Sm  Sm1  1  0.562678  0.937322  0.937322  1
  Sm  Sm2  1  0.562678  0.937322  0.562678  1
  Sm  Sm3  1  0.937322  0.562678  0.937322  1
  Sm  Sm4  1  0.562678  0.562678  0.937322  1
  Sm  Sm5  1  0.937322  0.937322  0.562678  1
  Dy  Dy6  1  0.352589  0.352589  0.352589  1
  Dy  Dy7  1  0.352589  0.352589  0.942232  1
  Dy  Dy8  1  0.352589  0.942232  0.352589  1
  Dy  Dy9  1  0.942232  0.352589  0.352589  1
  Dy  Dy10  1  0.810787  0.189213  0.189213  1
  Dy  Dy11  1  0.189213  0.810787  0.810787  1
  Dy  Dy12  1  0.189213  0.810787  0.189213  1
  Dy  Dy13  1  0.810787  0.189213  0.810787  1
  Dy  Dy14  1  0.189213  0.189213  0.810787  1
  Dy  Dy15  1  0.810787  0.810787  0.189213  1
  Hg  Hg16  1  0.584536  0.584536  0.584536  1
  Hg  Hg17  1  0.584536  0.584536  0.246392  1
  Hg  Hg18  1  0.584536  0.246392  0.584536  1
  Hg  Hg19  1  0.246392  0.584536  0.584536  1
  Pt  Pt20  1  0.143300  0.143300  0.143300  1
  Pt  Pt21  1  0.143300  0.143300  0.570099  1
  Pt  Pt22  1  0.143300  0.570099  0.143300  1
  Pt  Pt23  1  0.570099  0.143300  0.143300  1
