# generated using pymatgen
data_DyEr9(Pb3O)2
_symmetry_space_group_name_H-M   'P 1'
_cell_length_a   9.03166514
_cell_length_b   9.03159625
_cell_length_c   9.03145492
_cell_angle_alpha   125.64909403
_cell_angle_beta   125.65168070
_cell_angle_gamma   80.46272230
_symmetry_Int_Tables_number   1
_chemical_formula_structural   DyEr9(Pb3O)2
_chemical_formula_sum   'Dy1 Er9 Pb6 O2'
_cell_volume   469.24688595
_cell_formula_units_Z   1
loop_
 _symmetry_equiv_pos_site_id
 _symmetry_equiv_pos_as_xyz
  1  'x, y, z'
loop_
 _atom_site_type_symbol
 _atom_site_label
 _atom_site_symmetry_multiplicity
 _atom_site_fract_x
 _atom_site_fract_y
 _atom_site_fract_z
 _atom_site_occupancy
  Dy  Dy0  1  0.000000  0.000000  0.000000  1
  Er  Er1  1  0.998032  0.199815  0.500271  1
  Er  Er2  1  0.800192  0.300445  0.798206  1
  Er  Er3  1  0.497771  0.998024  0.798214  1
  Er  Er4  1  0.502229  0.001976  0.201786  1
  Er  Er5  1  0.001968  0.800185  0.499729  1
  Er  Er6  1  0.500000  0.500000  0.000000  1
  Er  Er7  1  0.199808  0.699555  0.201794  1
  Er  Er8  1  0.699538  0.497763  0.499736  1
  Er  Er9  1  0.300462  0.502237  0.500264  1
  Pb  Pb10  1  0.851001  0.351564  0.202567  1
  Pb  Pb11  1  0.148999  0.648436  0.797433  1
  Pb  Pb12  1  0.351562  0.148998  0.500560  1
  Pb  Pb13  1  0.749835  0.749831  0.000004  1
  Pb  Pb14  1  0.648438  0.851002  0.499440  1
  Pb  Pb15  1  0.250165  0.250169  0.999996  1
  O  O16  1  0.750002  0.249992  0.500002  1
  O  O17  1  0.249998  0.750008  0.499998  1
