# generated using pymatgen
data_ReTc11(HSe4)4
_symmetry_space_group_name_H-M   'P 1'
_cell_length_a   10.60044009
_cell_length_b   6.66272615
_cell_length_c   10.29029950
_cell_angle_alpha   70.45687574
_cell_angle_beta   89.91180939
_cell_angle_gamma   90.01617431
_symmetry_Int_Tables_number   1
_chemical_formula_structural   ReTc11(HSe4)4
_chemical_formula_sum   'Re1 Tc11 H4 Se16'
_cell_volume   684.91056364
_cell_formula_units_Z   1
loop_
 _symmetry_equiv_pos_site_id
 _symmetry_equiv_pos_as_xyz
  1  'x, y, z'
loop_
 _atom_site_type_symbol
 _atom_site_label
 _atom_site_symmetry_multiplicity
 _atom_site_fract_x
 _atom_site_fract_y
 _atom_site_fract_z
 _atom_site_occupancy
  Re  Re0  1  0.620089  0.997922  0.368285  1
  Tc  Tc1  1  0.879223  0.997588  0.867494  1
  Tc  Tc2  1  0.378992  0.002228  0.632687  1
  Tc  Tc3  1  0.120816  0.002410  0.132402  1
  Tc  Tc4  1  0.368744  0.990953  0.379508  1
  Tc  Tc5  1  0.130927  0.991043  0.879466  1
  Tc  Tc6  1  0.630998  0.009105  0.620942  1
  Tc  Tc7  1  0.869304  0.008884  0.120418  1
  Tc  Tc8  1  0.502820  0.702169  0.569203  1
  Tc  Tc9  1  0.997059  0.702916  0.068699  1
  Tc  Tc10  1  0.496947  0.297539  0.431454  1
  Tc  Tc11  1  0.003043  0.297092  0.931131  1
  H  H12  1  0.235040  0.989163  0.267451  1
  H  H13  1  0.264611  0.989089  0.767965  1
  H  H14  1  0.765117  0.010870  0.732360  1
  H  H15  1  0.734020  0.010287  0.233432  1
  Se  Se16  1  0.492697  0.717666  0.310322  1
  Se  Se17  1  0.007373  0.717301  0.811450  1
  Se  Se18  1  0.507383  0.282579  0.688626  1
  Se  Se19  1  0.992797  0.282579  0.188651  1
  Se  Se20  1  0.265653  0.710775  0.577531  1
  Se  Se21  1  0.234335  0.711180  0.077609  1
  Se  Se22  1  0.735146  0.289782  0.421925  1
  Se  Se23  1  0.765698  0.288771  0.922421  1
  Se  Se24  1  0.488096  0.270143  0.192124  1
  Se  Se25  1  0.012079  0.269283  0.693009  1
  Se  Se26  1  0.512134  0.730284  0.806919  1
  Se  Se27  1  0.988034  0.730685  0.306909  1
  Se  Se28  1  0.740912  0.723168  0.555204  1
  Se  Se29  1  0.759761  0.723674  0.055289  1
  Se  Se30  1  0.259871  0.276550  0.444478  1
  Se  Se31  1  0.240283  0.276321  0.944640  1
