# generated using pymatgen
data_Eu4CdRu
_symmetry_space_group_name_H-M   'P 1'
_cell_length_a   10.13764466
_cell_length_b   10.13764435
_cell_length_c   10.13764600
_cell_angle_alpha   60.00000113
_cell_angle_beta   60.00000215
_cell_angle_gamma   60.00000042
_symmetry_Int_Tables_number   1
_chemical_formula_structural   Eu4CdRu
_chemical_formula_sum   'Eu16 Cd4 Ru4'
_cell_volume   736.70946860
_cell_formula_units_Z   4
loop_
 _symmetry_equiv_pos_site_id
 _symmetry_equiv_pos_as_xyz
  1  'x, y, z'
loop_
 _atom_site_type_symbol
 _atom_site_label
 _atom_site_symmetry_multiplicity
 _atom_site_fract_x
 _atom_site_fract_y
 _atom_site_fract_z
 _atom_site_occupancy
  Eu  Eu0  1  0.448623  0.448623  0.051377  1
  Eu  Eu1  1  0.051377  0.051377  0.448623  1
  Eu  Eu2  1  0.448623  0.051377  0.051377  1
  Eu  Eu3  1  0.843918  0.843918  0.843918  1
  Eu  Eu4  1  0.690059  0.309941  0.309941  1
  Eu  Eu5  1  0.051377  0.448623  0.448623  1
  Eu  Eu6  1  0.309941  0.690059  0.690059  1
  Eu  Eu7  1  0.309941  0.309941  0.690059  1
  Eu  Eu8  1  0.843918  0.843918  0.468246  1
  Eu  Eu9  1  0.690059  0.690059  0.309941  1
  Eu  Eu10  1  0.468246  0.843918  0.843918  1
  Eu  Eu11  1  0.051377  0.448623  0.051377  1
  Eu  Eu12  1  0.843918  0.468246  0.843918  1
  Eu  Eu13  1  0.448623  0.051377  0.448623  1
  Eu  Eu14  1  0.309941  0.690059  0.309941  1
  Eu  Eu15  1  0.690059  0.309941  0.690059  1
  Cd  Cd16  1  0.078878  0.763367  0.078878  1
  Cd  Cd17  1  0.078878  0.078878  0.763367  1
  Cd  Cd18  1  0.763367  0.078878  0.078878  1
  Cd  Cd19  1  0.078878  0.078878  0.078878  1
  Ru  Ru20  1  0.634372  0.096883  0.634372  1
  Ru  Ru21  1  0.634372  0.634372  0.634372  1
  Ru  Ru22  1  0.634372  0.634372  0.096883  1
  Ru  Ru23  1  0.096883  0.634372  0.634372  1
