# generated using pymatgen
data_Al8Ir4Ru3Rh
_symmetry_space_group_name_H-M   'P 1'
_cell_length_a   6.02645200
_cell_length_b   4.24594200
_cell_length_c   8.51198800
_cell_angle_alpha   89.99999324
_cell_angle_beta   89.99993900
_cell_angle_gamma   90.00007913
_symmetry_Int_Tables_number   1
_chemical_formula_structural   Al8Ir4Ru3Rh
_chemical_formula_sum   'Al8 Ir4 Ru3 Rh1'
_cell_volume   217.80445662
_cell_formula_units_Z   1
loop_
 _symmetry_equiv_pos_site_id
 _symmetry_equiv_pos_as_xyz
  1  'x, y, z'
loop_
 _atom_site_type_symbol
 _atom_site_label
 _atom_site_symmetry_multiplicity
 _atom_site_fract_x
 _atom_site_fract_y
 _atom_site_fract_z
 _atom_site_occupancy
  Al  Al0  1  0.497659  0.749998  0.127261  1
  Al  Al1  1  0.002341  0.749997  0.127263  1
  Al  Al2  1  0.499134  0.249997  0.375000  1
  Al  Al3  1  0.000870  0.249996  0.375000  1
  Al  Al4  1  0.002346  0.750003  0.622744  1
  Al  Al5  1  0.497651  0.750003  0.622746  1
  Al  Al6  1  0.003211  0.250002  0.874998  1
  Al  Al7  1  0.496790  0.250001  0.875000  1
  Ir  Ir8  1  0.750003  0.249995  0.122662  1
  Ir  Ir9  1  0.250002  0.749997  0.375006  1
  Ir  Ir10  1  0.749996  0.250000  0.627331  1
  Ir  Ir11  1  0.249999  0.750003  0.875005  1
  Ru  Ru12  1  0.250003  0.250001  0.123631  1
  Ru  Ru13  1  0.750001  0.749994  0.375002  1
  Ru  Ru14  1  0.249999  0.250003  0.626365  1
  Rh  Rh15  1  0.749993  0.750000  0.874983  1
