# generated using pymatgen
data_Sc4Mn2B4RuRh9
_symmetry_space_group_name_H-M   'P 1'
_cell_length_a   9.42850171
_cell_length_b   9.42850171
_cell_length_c   3.04443000
_cell_angle_alpha   90.00000000
_cell_angle_beta   90.00000000
_cell_angle_gamma   89.60257190
_symmetry_Int_Tables_number   1
_chemical_formula_structural   Sc4Mn2B4RuRh9
_chemical_formula_sum   'Sc4 Mn2 B4 Ru1 Rh9'
_cell_volume   270.63310038
_cell_formula_units_Z   1
loop_
 _symmetry_equiv_pos_site_id
 _symmetry_equiv_pos_as_xyz
  1  'x, y, z'
loop_
 _atom_site_type_symbol
 _atom_site_label
 _atom_site_symmetry_multiplicity
 _atom_site_fract_x
 _atom_site_fract_y
 _atom_site_fract_z
 _atom_site_occupancy
  Sc  Sc0  1  0.822913  0.322913  0.000000  1
  Sc  Sc1  1  0.326563  0.173437  0.000000  1
  Sc  Sc2  1  0.673437  0.826563  0.000000  1
  Sc  Sc3  1  0.177087  0.677087  0.000000  1
  Mn  Mn4  1  0.000000  0.000000  0.000000  1
  Mn  Mn5  1  0.500000  0.500000  0.000000  1
  B  B6  1  0.621846  0.121846  0.000000  1
  B  B7  1  0.125394  0.374606  0.000000  1
  B  B8  1  0.874606  0.625394  0.000000  1
  B  B9  1  0.378154  0.878154  0.000000  1
  Ru  Ru10  1  0.500000  0.000000  0.500000  1
  Rh  Rh11  1  0.071032  0.218117  0.500000  1
  Rh  Rh12  1  0.216596  0.927987  0.500000  1
  Rh  Rh13  1  0.783404  0.072013  0.500000  1
  Rh  Rh14  1  0.928968  0.781883  0.500000  1
  Rh  Rh15  1  0.427987  0.716596  0.500000  1
  Rh  Rh16  1  0.572013  0.283404  0.500000  1
  Rh  Rh17  1  0.718117  0.571032  0.500000  1
  Rh  Rh18  1  0.281883  0.428968  0.500000  1
  Rh  Rh19  1  0.000000  0.500000  0.500000  1
