# generated using pymatgen
data_TbTm(PaGa5)3
_symmetry_space_group_name_H-M   'P 1'
_cell_length_a   12.52233185
_cell_length_b   12.52233214
_cell_length_c   12.52233200
_cell_angle_alpha   28.31280307
_cell_angle_beta   28.31280062
_cell_angle_gamma   28.31280334
_symmetry_Int_Tables_number   1
_chemical_formula_structural   TbTm(PaGa5)3
_chemical_formula_sum   'Tb1 Tm1 Pa3 Ga15'
_cell_volume   390.30457002
_cell_formula_units_Z   1
loop_
 _symmetry_equiv_pos_site_id
 _symmetry_equiv_pos_as_xyz
  1  'x, y, z'
loop_
 _atom_site_type_symbol
 _atom_site_label
 _atom_site_symmetry_multiplicity
 _atom_site_fract_x
 _atom_site_fract_y
 _atom_site_fract_z
 _atom_site_occupancy
  Tb  Tb0  1  0.998992  0.998992  0.998992  1
  Tm  Tm1  1  0.599518  0.599518  0.599518  1
  Pa  Pa2  1  0.130335  0.130335  0.130335  1
  Pa  Pa3  1  0.870273  0.870273  0.870273  1
  Pa  Pa4  1  0.400970  0.400970  0.400970  1
  Ga  Ga5  1  0.131984  0.636034  0.636034  1
  Ga  Ga6  1  0.636034  0.636034  0.131984  1
  Ga  Ga7  1  0.636034  0.131984  0.636034  1
  Ga  Ga8  1  0.364324  0.872121  0.364324  1
  Ga  Ga9  1  0.364324  0.364324  0.872121  1
  Ga  Ga10  1  0.872121  0.364324  0.364324  1
  Ga  Ga11  1  0.431539  0.882052  0.882052  1
  Ga  Ga12  1  0.882052  0.882052  0.431539  1
  Ga  Ga13  1  0.882052  0.431539  0.882052  1
  Ga  Ga14  1  0.118658  0.563732  0.118658  1
  Ga  Ga15  1  0.118658  0.118658  0.563732  1
  Ga  Ga16  1  0.563732  0.118658  0.118658  1
  Ga  Ga17  1  0.497877  0.497877  0.002647  1
  Ga  Ga18  1  0.497877  0.002647  0.497877  1
  Ga  Ga19  1  0.002647  0.497877  0.497877  1
