# generated using pymatgen
data_Zr2AlIr3Rh2
_symmetry_space_group_name_H-M   'P 1'
_cell_length_a   5.59172798
_cell_length_b   5.59172854
_cell_length_c   8.20005200
_cell_angle_alpha   90.00000601
_cell_angle_beta   90.00000700
_cell_angle_gamma   97.46961702
_symmetry_Int_Tables_number   1
_chemical_formula_structural   Zr2AlIr3Rh2
_chemical_formula_sum   'Zr4 Al2 Ir6 Rh4'
_cell_volume   254.21873046
_cell_formula_units_Z   2
loop_
 _symmetry_equiv_pos_site_id
 _symmetry_equiv_pos_as_xyz
  1  'x, y, z'
loop_
 _atom_site_type_symbol
 _atom_site_label
 _atom_site_symmetry_multiplicity
 _atom_site_fract_x
 _atom_site_fract_y
 _atom_site_fract_z
 _atom_site_occupancy
  Zr  Zr0  1  0.777585  0.222415  0.500000  1
  Zr  Zr1  1  0.222415  0.777585  0.000000  1
  Zr  Zr2  1  0.222415  0.777585  0.500000  1
  Zr  Zr3  1  0.777585  0.222415  0.000000  1
  Al  Al4  1  0.500232  0.500232  0.750000  1
  Al  Al5  1  0.499768  0.499768  0.250000  1
  Ir  Ir6  1  0.718521  0.718521  0.000119  1
  Ir  Ir7  1  0.718521  0.718521  0.499882  1
  Ir  Ir8  1  0.281479  0.281479  0.999881  1
  Ir  Ir9  1  0.281479  0.281479  0.500118  1
  Ir  Ir10  1  0.000048  0.000048  0.250000  1
  Ir  Ir11  1  0.999952  0.999952  0.750000  1
  Rh  Rh12  1  0.500013  0.000051  0.750000  1
  Rh  Rh13  1  0.499987  0.999949  0.250000  1
  Rh  Rh14  1  0.000051  0.500013  0.750000  1
  Rh  Rh15  1  0.999949  0.499987  0.250000  1
