# generated using pymatgen
data_Ca3YTm2(Si3Ru)8
_symmetry_space_group_name_H-M   'P 1'
_cell_length_a   10.16179218
_cell_length_b   10.16179263
_cell_length_c   8.12806606
_cell_angle_alpha   89.94162755
_cell_angle_beta   90.05837008
_cell_angle_gamma   132.84531185
_symmetry_Int_Tables_number   1
_chemical_formula_structural   Ca3YTm2(Si3Ru)8
_chemical_formula_sum   'Ca3 Y1 Tm2 Si24 Ru8'
_cell_volume   615.38299551
_cell_formula_units_Z   1
loop_
 _symmetry_equiv_pos_site_id
 _symmetry_equiv_pos_as_xyz
  1  'x, y, z'
loop_
 _atom_site_type_symbol
 _atom_site_label
 _atom_site_symmetry_multiplicity
 _atom_site_fract_x
 _atom_site_fract_y
 _atom_site_fract_z
 _atom_site_occupancy
  Ca  Ca0  1  0.000182  0.000136  0.999974  1
  Ca  Ca1  1  0.500136  0.500182  0.500026  1
  Ca  Ca2  1  0.001400  0.501400  0.250000  1
  Y  Y3  1  0.501060  0.001060  0.250000  1
  Tm  Tm4  1  0.500043  0.000043  0.750000  1
  Tm  Tm5  1  0.999429  0.499429  0.750000  1
  Si  Si6  1  0.295109  0.704005  0.998812  1
  Si  Si7  1  0.796421  0.205530  0.500606  1
  Si  Si8  1  0.705530  0.296421  0.999394  1
  Si  Si9  1  0.204005  0.795109  0.501188  1
  Si  Si10  1  0.832671  0.834355  0.332497  1
  Si  Si11  1  0.166167  0.168156  0.667181  1
  Si  Si12  1  0.668156  0.666167  0.832819  1
  Si  Si13  1  0.334355  0.332671  0.167503  1
  Si  Si14  1  0.622712  0.389674  0.230561  1
  Si  Si15  1  0.608647  0.376578  0.770884  1
  Si  Si16  1  0.108823  0.876800  0.728923  1
  Si  Si17  1  0.123994  0.890885  0.269524  1
  Si  Si18  1  0.376800  0.608823  0.771077  1
  Si  Si19  1  0.390885  0.623994  0.230476  1
  Si  Si20  1  0.889674  0.122712  0.269439  1
  Si  Si21  1  0.876578  0.108647  0.729116  1
  Si  Si22  1  0.846058  0.613185  0.004888  1
  Si  Si23  1  0.386538  0.153822  0.992287  1
  Si  Si24  1  0.886612  0.653384  0.507437  1
  Si  Si25  1  0.345735  0.113473  0.493246  1
  Si  Si26  1  0.153384  0.386612  0.992563  1
  Si  Si27  1  0.613473  0.845735  0.006754  1
  Si  Si28  1  0.113185  0.346058  0.495112  1
  Si  Si29  1  0.653822  0.886538  0.507713  1
  Ru  Ru30  1  0.172503  0.829458  0.996578  1
  Ru  Ru31  1  0.669491  0.326973  0.503445  1
  Ru  Ru32  1  0.826973  0.169491  0.996555  1
  Ru  Ru33  1  0.329458  0.672503  0.503422  1
  Ru  Ru34  1  0.625952  0.626252  0.125827  1
  Ru  Ru35  1  0.373714  0.374075  0.874755  1
  Ru  Ru36  1  0.874075  0.873714  0.625245  1
  Ru  Ru37  1  0.126252  0.125952  0.374173  1
