# generated using pymatgen
data_Hf2Sc6Al14AsRh7
_symmetry_space_group_name_H-M   'P 1'
_cell_length_a   8.89585959
_cell_length_b   8.89586018
_cell_length_c   8.89585901
_cell_angle_alpha   120.04112744
_cell_angle_beta   120.07408100
_cell_angle_gamma   89.90025826
_symmetry_Int_Tables_number   1
_chemical_formula_structural   Hf2Sc6Al14AsRh7
_chemical_formula_sum   'Hf2 Sc6 Al14 As1 Rh7'
_cell_volume   497.35868054
_cell_formula_units_Z   1
loop_
 _symmetry_equiv_pos_site_id
 _symmetry_equiv_pos_as_xyz
  1  'x, y, z'
loop_
 _atom_site_type_symbol
 _atom_site_label
 _atom_site_symmetry_multiplicity
 _atom_site_fract_x
 _atom_site_fract_y
 _atom_site_fract_z
 _atom_site_occupancy
  Hf  Hf0  1  0.380121  0.121913  0.741790  1
  Hf  Hf1  1  0.380121  0.638332  0.258210  1
  Sc  Sc2  1  0.800185  0.291682  0.080194  1
  Sc  Sc3  1  0.211487  0.291682  0.491497  1
  Sc  Sc4  1  0.203579  0.703579  0.500000  1
  Sc  Sc5  1  0.211487  0.719990  0.919806  1
  Sc  Sc6  1  0.800185  0.719990  0.508503  1
  Sc  Sc7  1  0.783891  0.283891  0.500000  1
  Al  Al8  1  0.162982  0.330102  0.167118  1
  Al  Al9  1  0.162982  0.995866  0.832882  1
  Al  Al10  1  0.155909  0.335367  0.820542  1
  Al  Al11  1  0.514824  0.335367  0.179458  1
  Al  Al12  1  0.833653  0.664481  0.830829  1
  Al  Al13  1  0.833653  0.002824  0.169171  1
  Al  Al14  1  0.832028  0.665182  0.166845  1
  Al  Al15  1  0.498337  0.665182  0.833155  1
  Al  Al16  1  0.381300  0.120979  0.260322  1
  Al  Al17  1  0.860659  0.120979  0.739678  1
  Al  Al18  1  0.621423  0.878095  0.256672  1
  Al  Al19  1  0.621423  0.364752  0.743328  1
  Al  Al20  1  0.621499  0.878488  0.743010  1
  Al  Al21  1  0.135477  0.878488  0.256990  1
  As  As22  1  0.993219  0.493219  0.500000  1
  Rh  Rh23  1  0.999296  0.000421  0.500851  1
  Rh  Rh24  1  0.499570  0.000421  0.001124  1
  Rh  Rh25  1  0.498076  0.498076  0.000000  1
  Rh  Rh26  1  0.499570  0.498446  0.499149  1
  Rh  Rh27  1  0.999296  0.498446  0.998876  1
  Rh  Rh28  1  0.000139  0.000139  0.000000  1
  Rh  Rh29  1  0.503619  0.003619  0.500000  1
