# generated using pymatgen
data_La2Y6Cd2IrPt
_symmetry_space_group_name_H-M   'P 1'
_cell_length_a   9.84549656
_cell_length_b   9.84549656
_cell_length_c   9.83363900
_cell_angle_alpha   60.03983541
_cell_angle_beta   60.03983541
_cell_angle_gamma   60.11323863
_symmetry_Int_Tables_number   1
_chemical_formula_structural   La2Y6Cd2IrPt
_chemical_formula_sum   'La4 Y12 Cd4 Ir2 Pt2'
_cell_volume   675.00421400
_cell_formula_units_Z   2
loop_
 _symmetry_equiv_pos_site_id
 _symmetry_equiv_pos_as_xyz
  1  'x, y, z'
loop_
 _atom_site_type_symbol
 _atom_site_label
 _atom_site_symmetry_multiplicity
 _atom_site_fract_x
 _atom_site_fract_y
 _atom_site_fract_z
 _atom_site_occupancy
  La  La0  1  0.352464  0.352464  0.347569  1
  La  La1  1  0.352464  0.352464  0.947502  1
  La  La2  1  0.356262  0.942841  0.350448  1
  La  La3  1  0.942841  0.356262  0.350448  1
  Y  Y4  1  0.809115  0.187164  0.187797  1
  Y  Y5  1  0.187164  0.809115  0.815924  1
  Y  Y6  1  0.187164  0.809115  0.187797  1
  Y  Y7  1  0.809115  0.187164  0.815924  1
  Y  Y8  1  0.188685  0.188685  0.811315  1
  Y  Y9  1  0.813627  0.813627  0.186373  1
  Y  Y10  1  0.934730  0.567702  0.564227  1
  Y  Y11  1  0.567702  0.934730  0.933341  1
  Y  Y12  1  0.567702  0.934730  0.564227  1
  Y  Y13  1  0.934730  0.567702  0.933341  1
  Y  Y14  1  0.566002  0.566002  0.933998  1
  Y  Y15  1  0.933872  0.933872  0.566128  1
  Cd  Cd16  1  0.582723  0.582723  0.582882  1
  Cd  Cd17  1  0.582723  0.582723  0.251673  1
  Cd  Cd18  1  0.582590  0.252207  0.582602  1
  Cd  Cd19  1  0.252207  0.582590  0.582602  1
  Ir  Ir20  1  0.140296  0.576036  0.141834  1
  Ir  Ir21  1  0.576036  0.140296  0.141834  1
  Pt  Pt22  1  0.139894  0.139894  0.141551  1
  Pt  Pt23  1  0.139894  0.139894  0.578661  1
