# generated using pymatgen
data_Ce9Y(Si2Ru3)2
_symmetry_space_group_name_H-M   'P 1'
_cell_length_a   8.31110596
_cell_length_b   8.31110577
_cell_length_c   8.31110571
_cell_angle_alpha   109.66866475
_cell_angle_beta   109.66866290
_cell_angle_gamma   109.66866932
_symmetry_Int_Tables_number   1
_chemical_formula_structural   Ce9Y(Si2Ru3)2
_chemical_formula_sum   'Ce9 Y1 Si4 Ru6'
_cell_volume   438.67073593
_cell_formula_units_Z   1
loop_
 _symmetry_equiv_pos_site_id
 _symmetry_equiv_pos_as_xyz
  1  'x, y, z'
loop_
 _atom_site_type_symbol
 _atom_site_label
 _atom_site_symmetry_multiplicity
 _atom_site_fract_x
 _atom_site_fract_y
 _atom_site_fract_z
 _atom_site_occupancy
  Ce  Ce0  1  0.297308  0.547230  0.752004  1
  Ce  Ce1  1  0.752004  0.297308  0.547230  1
  Ce  Ce2  1  0.547230  0.752004  0.297308  1
  Ce  Ce3  1  0.727119  0.499336  0.004974  1
  Ce  Ce4  1  0.004974  0.727119  0.499336  1
  Ce  Ce5  1  0.499336  0.004974  0.727119  1
  Ce  Ce6  1  0.245869  0.198727  0.950221  1
  Ce  Ce7  1  0.950221  0.245869  0.198727  1
  Ce  Ce8  1  0.198727  0.950221  0.245869  1
  Y  Y9  1  0.759578  0.759578  0.759578  1
  Si  Si10  1  0.393525  0.393525  0.393525  1
  Si  Si11  1  0.104088  0.500972  0.001321  1
  Si  Si12  1  0.001321  0.104088  0.500972  1
  Si  Si13  1  0.500972  0.001321  0.104088  1
  Ru  Ru14  1  0.887317  0.138110  0.749918  1
  Ru  Ru15  1  0.749918  0.887317  0.138110  1
  Ru  Ru16  1  0.138110  0.749918  0.887317  1
  Ru  Ru17  1  0.254660  0.618152  0.369570  1
  Ru  Ru18  1  0.369570  0.254660  0.618152  1
  Ru  Ru19  1  0.618152  0.369570  0.254660  1
