# generated using pymatgen
data_Sc2GaB2Ir3Ru2
_symmetry_space_group_name_H-M   'P 1'
_cell_length_a   9.44273274
_cell_length_b   9.45924468
_cell_length_c   3.01851600
_cell_angle_alpha   90.00000000
_cell_angle_beta   90.00000000
_cell_angle_gamma   89.82746948
_symmetry_Int_Tables_number   1
_chemical_formula_structural   Sc2GaB2Ir3Ru2
_chemical_formula_sum   'Sc4 Ga2 B4 Ir6 Ru4'
_cell_volume   269.61600590
_cell_formula_units_Z   2
loop_
 _symmetry_equiv_pos_site_id
 _symmetry_equiv_pos_as_xyz
  1  'x, y, z'
loop_
 _atom_site_type_symbol
 _atom_site_label
 _atom_site_symmetry_multiplicity
 _atom_site_fract_x
 _atom_site_fract_y
 _atom_site_fract_z
 _atom_site_occupancy
  Sc  Sc0  1  0.670808  0.172860  0.000000  1
  Sc  Sc1  1  0.329192  0.827140  0.000000  1
  Sc  Sc2  1  0.176095  0.325426  0.000000  1
  Sc  Sc3  1  0.823905  0.674574  0.000000  1
  Ga  Ga4  1  0.000000  0.000000  0.000000  1
  Ga  Ga5  1  0.500000  0.500000  0.000000  1
  B  B6  1  0.121934  0.622823  0.000000  1
  B  B7  1  0.878066  0.377177  0.000000  1
  B  B8  1  0.621845  0.874278  0.000000  1
  B  B9  1  0.378155  0.125722  0.000000  1
  Ir  Ir10  1  0.216226  0.071030  0.500000  1
  Ir  Ir11  1  0.783774  0.928970  0.500000  1
  Ir  Ir12  1  0.070692  0.783853  0.500000  1
  Ir  Ir13  1  0.714857  0.428204  0.500000  1
  Ir  Ir14  1  0.929308  0.216147  0.500000  1
  Ir  Ir15  1  0.285143  0.571796  0.500000  1
  Ru  Ru16  1  0.570606  0.714956  0.500000  1
  Ru  Ru17  1  0.429394  0.285044  0.500000  1
  Ru  Ru18  1  0.500000  0.000000  0.500000  1
  Ru  Ru19  1  0.000000  0.500000  0.500000  1
