# generated using pymatgen
data_Cs2Th2SnSe6
_symmetry_space_group_name_H-M   'P 1'
_cell_length_a   7.54124400
_cell_length_b   7.54124460
_cell_length_c   8.85616300
_cell_angle_alpha   90.00000000
_cell_angle_beta   90.00000000
_cell_angle_gamma   120.00000612
_symmetry_Int_Tables_number   1
_chemical_formula_structural   Cs2Th2SnSe6
_chemical_formula_sum   'Cs2 Th2 Sn1 Se6'
_cell_volume   436.17646306
_cell_formula_units_Z   1
loop_
 _symmetry_equiv_pos_site_id
 _symmetry_equiv_pos_as_xyz
  1  'x, y, z'
loop_
 _atom_site_type_symbol
 _atom_site_label
 _atom_site_symmetry_multiplicity
 _atom_site_fract_x
 _atom_site_fract_y
 _atom_site_fract_z
 _atom_site_occupancy
  Cs  Cs0  1  0.333333  0.666666  0.501478  1
  Cs  Cs1  1  0.666667  0.333334  0.498522  1
  Th  Th2  1  0.666667  0.333334  0.999624  1
  Th  Th3  1  0.333333  0.666666  0.000376  1
  Sn  Sn4  1  0.000000  0.000000  0.000000  1
  Se  Se5  1  0.650993  0.000215  0.180898  1
  Se  Se6  1  0.349221  0.349008  0.180898  1
  Se  Se7  1  0.999785  0.650778  0.180898  1
  Se  Se8  1  0.000215  0.349222  0.819101  1
  Se  Se9  1  0.650779  0.650992  0.819101  1
  Se  Se10  1  0.349007  0.999785  0.819101  1
