# generated using pymatgen
data_Tb2Ce(HgPd)3
_symmetry_space_group_name_H-M   'P 1'
_cell_length_a   7.81952526
_cell_length_b   7.84796470
_cell_length_c   3.81358400
_cell_angle_alpha   90.00000000
_cell_angle_beta   90.00000000
_cell_angle_gamma   120.12038420
_symmetry_Int_Tables_number   1
_chemical_formula_structural   Tb2Ce(HgPd)3
_chemical_formula_sum   'Tb2 Ce1 Hg3 Pd3'
_cell_volume   202.42925052
_cell_formula_units_Z   1
loop_
 _symmetry_equiv_pos_site_id
 _symmetry_equiv_pos_as_xyz
  1  'x, y, z'
loop_
 _atom_site_type_symbol
 _atom_site_label
 _atom_site_symmetry_multiplicity
 _atom_site_fract_x
 _atom_site_fract_y
 _atom_site_fract_z
 _atom_site_occupancy
  Tb  Tb0  1  0.395894  0.397067  0.500000  1
  Tb  Tb1  1  0.604106  0.001172  0.500000  1
  Ce  Ce2  1  0.000000  0.600963  0.500000  1
  Hg  Hg3  1  0.725639  0.731343  0.000000  1
  Hg  Hg4  1  0.274361  0.005704  0.000000  1
  Hg  Hg5  1  0.000000  0.263652  0.000000  1
  Pd  Pd6  1  0.671728  0.337682  0.000000  1
  Pd  Pd7  1  0.328272  0.665955  0.000000  1
  Pd  Pd8  1  0.000000  0.996462  0.500000  1
