# generated using pymatgen
data_Y2TmCoSn3Ir2
_symmetry_space_group_name_H-M   'P 1'
_cell_length_a   7.65046800
_cell_length_b   7.62709548
_cell_length_c   3.66470000
_cell_angle_alpha   90.00000000
_cell_angle_beta   90.00000000
_cell_angle_gamma   120.10143031
_symmetry_Int_Tables_number   1
_chemical_formula_structural   Y2TmCoSn3Ir2
_chemical_formula_sum   'Y2 Tm1 Co1 Sn3 Ir2'
_cell_volume   184.99988341
_cell_formula_units_Z   1
loop_
 _symmetry_equiv_pos_site_id
 _symmetry_equiv_pos_as_xyz
  1  'x, y, z'
loop_
 _atom_site_type_symbol
 _atom_site_label
 _atom_site_symmetry_multiplicity
 _atom_site_fract_x
 _atom_site_fract_y
 _atom_site_fract_z
 _atom_site_occupancy
  Y  Y0  1  0.000039  0.403926  0.500000  1
  Y  Y1  1  0.596113  0.596074  0.500000  1
  Tm  Tm2  1  0.404236  0.000000  0.500000  1
  Co  Co3  1  0.000815  0.000000  0.500000  1
  Sn  Sn4  1  0.001806  0.744795  0.000000  1
  Sn  Sn5  1  0.257011  0.255205  0.000000  1
  Sn  Sn6  1  0.742297  0.000000  0.000000  1
  Ir  Ir7  1  0.334152  0.670623  0.000000  1
  Ir  Ir8  1  0.663530  0.329377  0.000000  1
