# generated using pymatgen
data_LaPrNi7
_symmetry_space_group_name_H-M   'P 1'
_cell_length_a   5.10527267
_cell_length_b   5.10527312
_cell_length_c   12.70364800
_cell_angle_alpha   78.40822253
_cell_angle_beta   78.40822150
_cell_angle_gamma   60.00000726
_symmetry_Int_Tables_number   1
_chemical_formula_structural   LaPrNi7
_chemical_formula_sum   'La2 Pr2 Ni14'
_cell_volume   278.92061139
_cell_formula_units_Z   2
loop_
 _symmetry_equiv_pos_site_id
 _symmetry_equiv_pos_as_xyz
  1  'x, y, z'
loop_
 _atom_site_type_symbol
 _atom_site_label
 _atom_site_symmetry_multiplicity
 _atom_site_fract_x
 _atom_site_fract_y
 _atom_site_fract_z
 _atom_site_occupancy
  La  La0  1  0.853614  0.853614  0.439158  1
  La  La1  1  0.146386  0.146386  0.560842  1
  Pr  Pr2  1  0.950001  0.950001  0.149995  1
  Pr  Pr3  1  0.049999  0.049999  0.850005  1
  Ni  Ni4  1  0.500000  0.500000  0.500000  1
  Ni  Ni5  1  0.721167  0.721167  0.836501  1
  Ni  Ni6  1  0.278833  0.278833  0.163499  1
  Ni  Ni7  1  0.612800  0.612800  0.161601  1
  Ni  Ni8  1  0.387200  0.387200  0.838399  1
  Ni  Ni9  1  0.000000  0.500000  0.000000  1
  Ni  Ni10  1  0.500000  0.000000  0.000000  1
  Ni  Ni11  1  0.500000  0.500000  0.000000  1
  Ni  Ni12  1  0.392522  0.392522  0.324343  1
  Ni  Ni13  1  0.890613  0.392522  0.324343  1
  Ni  Ni14  1  0.392522  0.890613  0.324343  1
  Ni  Ni15  1  0.607478  0.607478  0.675657  1
  Ni  Ni16  1  0.109387  0.607478  0.675657  1
  Ni  Ni17  1  0.607478  0.109387  0.675657  1
