# generated using pymatgen
data_Ho12IrOs3
_symmetry_space_group_name_H-M   'P 1'
_cell_length_a   6.33667373
_cell_length_b   7.33780985
_cell_length_c   9.01513100
_cell_angle_alpha   90.00000000
_cell_angle_beta   90.00000000
_cell_angle_gamma   90.05518186
_symmetry_Int_Tables_number   1
_chemical_formula_structural   Ho12IrOs3
_chemical_formula_sum   'Ho12 Ir1 Os3'
_cell_volume   419.17911891
_cell_formula_units_Z   1
loop_
 _symmetry_equiv_pos_site_id
 _symmetry_equiv_pos_as_xyz
  1  'x, y, z'
loop_
 _atom_site_type_symbol
 _atom_site_label
 _atom_site_symmetry_multiplicity
 _atom_site_fract_x
 _atom_site_fract_y
 _atom_site_fract_z
 _atom_site_occupancy
  Ho  Ho0  1  0.332755  0.674238  0.062302  1
  Ho  Ho1  1  0.169462  0.176935  0.438010  1
  Ho  Ho2  1  0.669001  0.324495  0.563033  1
  Ho  Ho3  1  0.828639  0.824074  0.935125  1
  Ho  Ho4  1  0.669001  0.324495  0.936967  1
  Ho  Ho5  1  0.828639  0.824074  0.564875  1
  Ho  Ho6  1  0.332755  0.674238  0.437698  1
  Ho  Ho7  1  0.169462  0.176935  0.061990  1
  Ho  Ho8  1  0.870313  0.538179  0.250000  1
  Ho  Ho9  1  0.629719  0.039699  0.250000  1
  Ho  Ho10  1  0.130165  0.461263  0.750000  1
  Ho  Ho11  1  0.369134  0.961083  0.750000  1
  Ir  Ir12  1  0.040409  0.883944  0.250000  1
  Os  Os13  1  0.460210  0.383732  0.250000  1
  Os  Os14  1  0.961740  0.115863  0.750000  1
  Os  Os15  1  0.538597  0.616755  0.750000  1
