# generated using pymatgen
data_Nd2AlRh3
_symmetry_space_group_name_H-M   'P 1'
_cell_length_a   5.18969626
_cell_length_b   5.18969674
_cell_length_c   5.18969664
_cell_angle_alpha   67.50820065
_cell_angle_beta   67.50819688
_cell_angle_gamma   67.50819748
_symmetry_Int_Tables_number   1
_chemical_formula_structural   Nd2AlRh3
_chemical_formula_sum   'Nd2 Al1 Rh3'
_cell_volume   114.65995902
_cell_formula_units_Z   1
loop_
 _symmetry_equiv_pos_site_id
 _symmetry_equiv_pos_as_xyz
  1  'x, y, z'
loop_
 _atom_site_type_symbol
 _atom_site_label
 _atom_site_symmetry_multiplicity
 _atom_site_fract_x
 _atom_site_fract_y
 _atom_site_fract_z
 _atom_site_occupancy
  Nd  Nd0  1  0.369824  0.369824  0.369824  1
  Nd  Nd1  1  0.630176  0.630176  0.630176  1
  Al  Al2  1  0.000000  0.000000  0.000000  1
  Rh  Rh3  1  0.499999  0.000000  0.000000  1
  Rh  Rh4  1  0.000000  0.499999  0.000000  1
  Rh  Rh5  1  0.000000  0.000000  0.499999  1
