# generated using pymatgen
data_KNdDy2(SbAu)4
_symmetry_space_group_name_H-M   'P 1'
_cell_length_a   4.64526400
_cell_length_b   4.64526345
_cell_length_c   17.35460000
_cell_angle_alpha   90.00000000
_cell_angle_beta   90.00000000
_cell_angle_gamma   120.00000389
_symmetry_Int_Tables_number   1
_chemical_formula_structural   KNdDy2(SbAu)4
_chemical_formula_sum   'K1 Nd1 Dy2 Sb4 Au4'
_cell_volume   324.31420672
_cell_formula_units_Z   1
loop_
 _symmetry_equiv_pos_site_id
 _symmetry_equiv_pos_as_xyz
  1  'x, y, z'
loop_
 _atom_site_type_symbol
 _atom_site_label
 _atom_site_symmetry_multiplicity
 _atom_site_fract_x
 _atom_site_fract_y
 _atom_site_fract_z
 _atom_site_occupancy
  K  K0  1  0.000000  0.000000  0.251697  1
  Nd  Nd1  1  0.000000  0.000000  0.985176  1
  Dy  Dy2  1  0.000000  0.000000  0.512298  1
  Dy  Dy3  1  0.000000  0.000000  0.745890  1
  Sb  Sb4  1  0.333333  0.666667  0.391696  1
  Sb  Sb5  1  0.666667  0.333333  0.614731  1
  Sb  Sb6  1  0.666667  0.333333  0.877519  1
  Sb  Sb7  1  0.333333  0.666667  0.109374  1
  Au  Au8  1  0.666667  0.333333  0.434032  1
  Au  Au9  1  0.333333  0.666667  0.665334  1
  Au  Au10  1  0.333333  0.666667  0.831152  1
  Au  Au11  1  0.666667  0.333333  0.081101  1
