# generated using pymatgen
data_Y5Th(Ir7Rh2)2
_symmetry_space_group_name_H-M   'P 1'
_cell_length_a   5.32663800
_cell_length_b   5.32663902
_cell_length_c   17.51623200
_cell_angle_alpha   90.00000000
_cell_angle_beta   90.00000000
_cell_angle_gamma   119.99999368
_symmetry_Int_Tables_number   1
_chemical_formula_structural   Y5Th(Ir7Rh2)2
_chemical_formula_sum   'Y5 Th1 Ir14 Rh4'
_cell_volume   430.40548481
_cell_formula_units_Z   1
loop_
 _symmetry_equiv_pos_site_id
 _symmetry_equiv_pos_as_xyz
  1  'x, y, z'
loop_
 _atom_site_type_symbol
 _atom_site_label
 _atom_site_symmetry_multiplicity
 _atom_site_fract_x
 _atom_site_fract_y
 _atom_site_fract_z
 _atom_site_occupancy
  Y  Y0  1  0.333333  0.666667  0.961031  1
  Y  Y1  1  0.666667  0.333333  0.041358  1
  Y  Y2  1  0.666667  0.333333  0.458642  1
  Y  Y3  1  0.333333  0.666667  0.538969  1
  Y  Y4  1  0.666667  0.333333  0.250000  1
  Th  Th5  1  0.333333  0.666667  0.750000  1
  Ir  Ir6  1  0.167506  0.832494  0.374135  1
  Ir  Ir7  1  0.167506  0.335011  0.374135  1
  Ir  Ir8  1  0.664989  0.832494  0.374135  1
  Ir  Ir9  1  0.832717  0.167283  0.624932  1
  Ir  Ir10  1  0.832717  0.665435  0.624932  1
  Ir  Ir11  1  0.334565  0.167283  0.624932  1
  Ir  Ir12  1  0.832717  0.167283  0.875068  1
  Ir  Ir13  1  0.832717  0.665435  0.875068  1
  Ir  Ir14  1  0.334565  0.167283  0.875068  1
  Ir  Ir15  1  0.167506  0.832494  0.125865  1
  Ir  Ir16  1  0.167506  0.335011  0.125865  1
  Ir  Ir17  1  0.664989  0.832494  0.125865  1
  Ir  Ir18  1  0.000000  0.000000  0.499632  1
  Ir  Ir19  1  0.000000  0.000000  0.000368  1
  Rh  Rh20  1  0.333333  0.666667  0.250000  1
  Rh  Rh21  1  0.666667  0.333333  0.750000  1
  Rh  Rh22  1  0.000000  0.000000  0.250000  1
  Rh  Rh23  1  0.000000  0.000000  0.750000  1
