# generated using pymatgen
data_Ta4Mn6AlCr
_symmetry_space_group_name_H-M   'P 1'
_cell_length_a   4.83066494
_cell_length_b   4.83066493
_cell_length_c   8.00160524
_cell_angle_alpha   89.79522271
_cell_angle_beta   90.20478107
_cell_angle_gamma   119.48781234
_symmetry_Int_Tables_number   1
_chemical_formula_structural   Ta4Mn6AlCr
_chemical_formula_sum   'Ta4 Mn6 Al1 Cr1'
_cell_volume   162.53102082
_cell_formula_units_Z   1
loop_
 _symmetry_equiv_pos_site_id
 _symmetry_equiv_pos_as_xyz
  1  'x, y, z'
loop_
 _atom_site_type_symbol
 _atom_site_label
 _atom_site_symmetry_multiplicity
 _atom_site_fract_x
 _atom_site_fract_y
 _atom_site_fract_z
 _atom_site_occupancy
  Ta  Ta0  1  0.333027  0.666973  0.441367  1
  Ta  Ta1  1  0.666808  0.333192  0.930654  1
  Ta  Ta2  1  0.666179  0.333821  0.561953  1
  Ta  Ta3  1  0.333993  0.666007  0.068637  1
  Mn  Mn4  1  0.170356  0.343540  0.744353  1
  Mn  Mn5  1  0.171818  0.828182  0.744780  1
  Mn  Mn6  1  0.342947  0.170729  0.254384  1
  Mn  Mn7  1  0.829271  0.657053  0.254384  1
  Mn  Mn8  1  0.656460  0.829644  0.744353  1
  Mn  Mn9  1  0.001227  0.998773  0.501800  1
  Al  Al10  1  0.001179  0.998821  0.997884  1
  Cr  Cr11  1  0.826735  0.173265  0.255451  1
