# generated using pymatgen
data_Ca13(TmSb4)3
_symmetry_space_group_name_H-M   'P 1'
_cell_length_a   9.44986373
_cell_length_b   9.44986296
_cell_length_c   9.44986400
_cell_angle_alpha   90.31045820
_cell_angle_beta   90.31045818
_cell_angle_gamma   89.68954361
_symmetry_Int_Tables_number   1
_chemical_formula_structural   Ca13(TmSb4)3
_chemical_formula_sum   'Ca13 Tm3 Sb12'
_cell_volume   843.83504170
_cell_formula_units_Z   1
loop_
 _symmetry_equiv_pos_site_id
 _symmetry_equiv_pos_as_xyz
  1  'x, y, z'
loop_
 _atom_site_type_symbol
 _atom_site_label
 _atom_site_symmetry_multiplicity
 _atom_site_fract_x
 _atom_site_fract_y
 _atom_site_fract_z
 _atom_site_occupancy
  Ca  Ca0  1  0.072749  0.572749  0.927251  1
  Ca  Ca1  1  0.824419  0.324419  0.175581  1
  Ca  Ca2  1  0.931025  0.927641  0.930781  1
  Ca  Ca3  1  0.826106  0.674845  0.325190  1
  Ca  Ca4  1  0.177076  0.822133  0.322180  1
  Ca  Ca5  1  0.174845  0.174810  0.173894  1
  Ca  Ca6  1  0.324366  0.824366  0.675634  1
  Ca  Ca7  1  0.069219  0.431025  0.572359  1
  Ca  Ca8  1  0.322133  0.177820  0.822924  1
  Ca  Ca9  1  0.674810  0.326106  0.825155  1
  Ca  Ca10  1  0.677820  0.677076  0.677867  1
  Ca  Ca11  1  0.568847  0.068847  0.431153  1
  Ca  Ca12  1  0.427641  0.569219  0.068975  1
  Tm  Tm13  1  0.930382  0.071788  0.572143  1
  Tm  Tm14  1  0.427857  0.430382  0.428212  1
  Tm  Tm15  1  0.571788  0.927857  0.069618  1
  Sb  Sb16  1  0.744398  0.368009  0.499685  1
  Sb  Sb17  1  0.868009  0.000315  0.255602  1
  Sb  Sb18  1  0.998595  0.759976  0.625242  1
  Sb  Sb19  1  0.244000  0.129811  0.499278  1
  Sb  Sb20  1  0.132620  0.497740  0.252030  1
  Sb  Sb21  1  0.997740  0.247970  0.867380  1
  Sb  Sb22  1  0.259976  0.874758  0.001405  1
  Sb  Sb23  1  0.374758  0.498595  0.740024  1
  Sb  Sb24  1  0.500315  0.244398  0.131991  1
  Sb  Sb25  1  0.747970  0.632620  0.002260  1
  Sb  Sb26  1  0.629811  0.000722  0.756000  1
  Sb  Sb27  1  0.500722  0.744000  0.370189  1
