# generated using pymatgen
data_CaSm3Al15(SiRh2)3
_symmetry_space_group_name_H-M   'P 1'
_cell_length_a   7.56295188
_cell_length_b   7.51760434
_cell_length_c   9.50906431
_cell_angle_alpha   89.94236197
_cell_angle_beta   89.95930794
_cell_angle_gamma   119.69285790
_symmetry_Int_Tables_number   1
_chemical_formula_structural   CaSm3Al15(SiRh2)3
_chemical_formula_sum   'Ca1 Sm3 Al15 Si3 Rh6'
_cell_volume   469.65008183
_cell_formula_units_Z   1
loop_
 _symmetry_equiv_pos_site_id
 _symmetry_equiv_pos_as_xyz
  1  'x, y, z'
loop_
 _atom_site_type_symbol
 _atom_site_label
 _atom_site_symmetry_multiplicity
 _atom_site_fract_x
 _atom_site_fract_y
 _atom_site_fract_z
 _atom_site_occupancy
  Ca  Ca0  1  0.994231  0.664480  0.246972  1
  Sm  Sm1  1  0.005772  0.341750  0.754200  1
  Sm  Sm2  1  0.675383  0.001268  0.247087  1
  Sm  Sm3  1  0.319700  0.991872  0.750449  1
  Al  Al4  1  0.129911  0.127721  0.249709  1
  Al  Al5  1  0.870402  0.870003  0.749449  1
  Al  Al6  1  0.337674  0.002828  0.423450  1
  Al  Al7  1  0.002690  0.332114  0.429630  1
  Al  Al8  1  0.665898  0.000632  0.574270  1
  Al  Al9  1  0.662189  0.996616  0.923232  1
  Al  Al10  1  0.337205  0.002957  0.076905  1
  Al  Al11  1  0.333990  0.332066  0.552696  1
  Al  Al12  1  0.664464  0.667250  0.447836  1
  Al  Al13  1  0.663712  0.666418  0.053746  1
  Al  Al14  1  0.336138  0.332712  0.947757  1
  Al  Al15  1  0.339138  0.549967  0.250033  1
  Al  Al16  1  0.661287  0.451471  0.750753  1
  Al  Al17  1  0.547947  0.343414  0.249982  1
  Al  Al18  1  0.456687  0.658040  0.749836  1
  Si  Si19  1  0.003772  0.329581  0.075763  1
  Si  Si20  1  0.995029  0.671034  0.931668  1
  Si  Si21  1  0.996579  0.665413  0.563490  1
  Rh  Rh22  1  0.687882  0.337137  0.000662  1
  Rh  Rh23  1  0.311522  0.662451  0.996756  1
  Rh  Rh24  1  0.320045  0.669957  0.503566  1
  Rh  Rh25  1  0.679357  0.336533  0.500844  1
  Rh  Rh26  1  0.000383  0.000582  0.998400  1
  Rh  Rh27  1  0.001011  0.993729  0.500856  1
