# generated using pymatgen
data_Er6Sc2(Al2Os)7
_symmetry_space_group_name_H-M   'P 1'
_cell_length_a   8.99747122
_cell_length_b   9.00208628
_cell_length_c   9.00208704
_cell_angle_alpha   60.07661849
_cell_angle_beta   60.01695979
_cell_angle_gamma   60.01696109
_symmetry_Int_Tables_number   1
_chemical_formula_structural   Er6Sc2(Al2Os)7
_chemical_formula_sum   'Er6 Sc2 Al14 Os7'
_cell_volume   516.00523510
_cell_formula_units_Z   1
loop_
 _symmetry_equiv_pos_site_id
 _symmetry_equiv_pos_as_xyz
  1  'x, y, z'
loop_
 _atom_site_type_symbol
 _atom_site_label
 _atom_site_symmetry_multiplicity
 _atom_site_fract_x
 _atom_site_fract_y
 _atom_site_fract_z
 _atom_site_occupancy
  Er  Er0  1  0.706727  0.709954  0.288433  1
  Er  Er1  1  0.294886  0.709954  0.288433  1
  Er  Er2  1  0.702676  0.297324  0.297324  1
  Er  Er3  1  0.294886  0.288433  0.709954  1
  Er  Er4  1  0.706727  0.288433  0.709954  1
  Er  Er5  1  0.287532  0.712468  0.712468  1
  Sc  Sc6  1  0.879486  0.885600  0.355427  1
  Sc  Sc7  1  0.879486  0.355427  0.885600  1
  Al  Al8  1  0.366987  0.878511  0.878511  1
  Al  Al9  1  0.875991  0.878511  0.878511  1
  Al  Al10  1  0.120659  0.126254  0.632428  1
  Al  Al11  1  0.120659  0.632428  0.126254  1
  Al  Al12  1  0.638287  0.120413  0.120413  1
  Al  Al13  1  0.120888  0.120413  0.120413  1
  Al  Al14  1  0.667357  0.669679  0.995609  1
  Al  Al15  1  0.667357  0.995609  0.669679  1
  Al  Al16  1  0.995711  0.668815  0.668815  1
  Al  Al17  1  0.666660  0.668815  0.668815  1
  Al  Al18  1  0.332721  0.330782  0.003774  1
  Al  Al19  1  0.332721  0.003774  0.330782  1
  Al  Al20  1  0.003071  0.331488  0.331488  1
  Al  Al21  1  0.333951  0.331488  0.331488  1
  Os  Os22  1  0.009723  0.990277  0.990277  1
  Os  Os23  1  0.002923  0.001068  0.502936  1
  Os  Os24  1  0.493073  0.001068  0.502936  1
  Os  Os25  1  0.003069  0.496931  0.496931  1
  Os  Os26  1  0.493073  0.502936  0.001068  1
  Os  Os27  1  0.002923  0.502936  0.001068  1
  Os  Os28  1  0.499791  0.000209  0.000209  1
