# generated using pymatgen
data_TaPd6Pb
_symmetry_space_group_name_H-M   'P 1'
_cell_length_a   8.73346848
_cell_length_b   8.73346757
_cell_length_c   8.73346755
_cell_angle_alpha   153.43709041
_cell_angle_beta   153.43707829
_cell_angle_gamma   37.91831300
_symmetry_Int_Tables_number   1
_chemical_formula_structural   TaPd6Pb
_chemical_formula_sum   'Ta1 Pd6 Pb1'
_cell_volume   132.99956557
_cell_formula_units_Z   1
loop_
 _symmetry_equiv_pos_site_id
 _symmetry_equiv_pos_as_xyz
  1  'x, y, z'
loop_
 _atom_site_type_symbol
 _atom_site_label
 _atom_site_symmetry_multiplicity
 _atom_site_fract_x
 _atom_site_fract_y
 _atom_site_fract_z
 _atom_site_occupancy
  Ta  Ta0  1  0.873827  0.873827  0.000000  1
  Pd  Pd1  1  0.990247  0.490247  0.500000  1
  Pd  Pd2  1  0.490247  0.990247  0.500000  1
  Pd  Pd3  1  0.760006  0.260006  0.500000  1
  Pd  Pd4  1  0.260006  0.760006  0.500000  1
  Pd  Pd5  1  0.615831  0.615831  0.000000  1
  Pd  Pd6  1  0.376840  0.376840  0.000000  1
  Pb  Pb7  1  0.132996  0.132996  0.000000  1
