# generated using pymatgen
data_Sc2Zn14Co3
_symmetry_space_group_name_H-M   'P 1'
_cell_length_a   6.59813727
_cell_length_b   6.59793470
_cell_length_c   6.59798858
_cell_angle_alpha   82.39572905
_cell_angle_beta   97.61411609
_cell_angle_gamma   97.61183464
_symmetry_Int_Tables_number   1
_chemical_formula_structural   Sc2Zn14Co3
_chemical_formula_sum   'Sc2 Zn14 Co3'
_cell_volume   280.26351547
_cell_formula_units_Z   1
loop_
 _symmetry_equiv_pos_site_id
 _symmetry_equiv_pos_as_xyz
  1  'x, y, z'
loop_
 _atom_site_type_symbol
 _atom_site_label
 _atom_site_symmetry_multiplicity
 _atom_site_fract_x
 _atom_site_fract_y
 _atom_site_fract_z
 _atom_site_occupancy
  Sc  Sc0  1  0.671809  0.328187  0.328199  1
  Sc  Sc1  1  0.328190  0.671812  0.671801  1
  Zn  Zn2  1  0.296845  0.296846  0.000000  1
  Zn  Zn3  1  0.703155  0.703154  0.000000  1
  Zn  Zn4  1  0.891886  0.108108  0.108109  1
  Zn  Zn5  1  0.349932  0.650066  0.147496  1
  Zn  Zn6  1  0.000000  0.703153  0.296846  1
  Zn  Zn7  1  0.296844  0.000000  0.296845  1
  Zn  Zn8  1  0.650070  0.852503  0.349933  1
  Zn  Zn9  1  0.147496  0.349932  0.349933  1
  Zn  Zn10  1  0.852504  0.650068  0.650067  1
  Zn  Zn11  1  0.349930  0.147496  0.650066  1
  Zn  Zn12  1  0.000000  0.296847  0.703152  1
  Zn  Zn13  1  0.703156  0.000000  0.703155  1
  Zn  Zn14  1  0.650069  0.349934  0.852504  1
  Zn  Zn15  1  0.108112  0.891892  0.891891  1
  Co  Co16  1  0.500000  0.000000  0.000000  1
  Co  Co17  1  0.000000  0.499999  0.000000  1
  Co  Co18  1  0.000000  0.000000  0.500000  1
