# generated using pymatgen
data_Rb8Zr2Ti4CBr20
_symmetry_space_group_name_H-M   'P 1'
_cell_length_a   11.97223005
_cell_length_b   11.97223096
_cell_length_c   11.94943200
_cell_angle_alpha   60.06296892
_cell_angle_beta   60.06296640
_cell_angle_gamma   59.87405716
_symmetry_Int_Tables_number   1
_chemical_formula_structural   Rb8Zr2Ti4CBr20
_chemical_formula_sum   'Rb8 Zr2 Ti4 C1 Br20'
_cell_volume   1211.09785778
_cell_formula_units_Z   1
loop_
 _symmetry_equiv_pos_site_id
 _symmetry_equiv_pos_as_xyz
  1  'x, y, z'
loop_
 _atom_site_type_symbol
 _atom_site_label
 _atom_site_symmetry_multiplicity
 _atom_site_fract_x
 _atom_site_fract_y
 _atom_site_fract_z
 _atom_site_occupancy
  Rb  Rb0  1  0.363217  0.363217  0.356995  1
  Rb  Rb1  1  0.636783  0.636783  0.643005  1
  Rb  Rb2  1  0.363217  0.363217  0.916572  1
  Rb  Rb3  1  0.356995  0.916572  0.363217  1
  Rb  Rb4  1  0.636783  0.636783  0.083428  1
  Rb  Rb5  1  0.643005  0.083428  0.636783  1
  Rb  Rb6  1  0.916572  0.356995  0.363217  1
  Rb  Rb7  1  0.083428  0.643005  0.636783  1
  Zr  Zr8  1  0.133510  0.133510  0.866490  1
  Zr  Zr9  1  0.866490  0.866490  0.133510  1
  Ti  Ti10  1  0.873481  0.126519  0.126519  1
  Ti  Ti11  1  0.126519  0.873481  0.873481  1
  Ti  Ti12  1  0.126519  0.873481  0.126519  1
  Ti  Ti13  1  0.873481  0.126519  0.873481  1
  C  C14  1  0.000000  0.000000  0.000000  1
  Br  Br15  1  0.310531  0.994451  0.005549  1
  Br  Br16  1  0.689469  0.005549  0.994451  1
  Br  Br17  1  0.994451  0.310531  0.689469  1
  Br  Br18  1  0.005549  0.689469  0.310531  1
  Br  Br19  1  0.994451  0.310531  0.005549  1
  Br  Br20  1  0.689469  0.005549  0.310531  1
  Br  Br21  1  0.005549  0.689469  0.994451  1
  Br  Br22  1  0.310531  0.994451  0.689469  1
  Br  Br23  1  0.000000  0.000000  0.304381  1
  Br  Br24  1  0.000000  0.000000  0.695619  1
  Br  Br25  1  0.695619  0.304381  0.000000  1
  Br  Br26  1  0.304381  0.695619  0.000000  1
  Br  Br27  1  0.696307  0.303693  0.303693  1
  Br  Br28  1  0.303693  0.696307  0.696307  1
  Br  Br29  1  0.303693  0.696307  0.303693  1
  Br  Br30  1  0.696307  0.303693  0.696307  1
  Br  Br31  1  0.306199  0.306199  0.693801  1
  Br  Br32  1  0.693801  0.693801  0.306199  1
  Br  Br33  1  0.250000  0.250000  0.250000  1
  Br  Br34  1  0.750000  0.750000  0.750000  1
