# generated using pymatgen
data_Y5Er15(Ag3Os)2
_symmetry_space_group_name_H-M   'P 1'
_cell_length_a   9.44822600
_cell_length_b   9.44822561
_cell_length_c   9.60198800
_cell_angle_alpha   90.00000000
_cell_angle_beta   90.00000000
_cell_angle_gamma   120.03044512
_symmetry_Int_Tables_number   1
_chemical_formula_structural   Y5Er15(Ag3Os)2
_chemical_formula_sum   'Y5 Er15 Ag6 Os2'
_cell_volume   742.09413892
_cell_formula_units_Z   1
loop_
 _symmetry_equiv_pos_site_id
 _symmetry_equiv_pos_as_xyz
  1  'x, y, z'
loop_
 _atom_site_type_symbol
 _atom_site_label
 _atom_site_symmetry_multiplicity
 _atom_site_fract_x
 _atom_site_fract_y
 _atom_site_fract_z
 _atom_site_occupancy
  Y  Y0  1  0.539243  0.080762  0.249977  1
  Y  Y1  1  0.919238  0.460757  0.249977  1
  Y  Y2  1  0.458800  0.541200  0.749992  1
  Y  Y3  1  0.460541  0.922992  0.749934  1
  Y  Y4  1  0.077008  0.539459  0.749934  1
  Er  Er5  1  0.000839  0.999161  0.498883  1
  Er  Er6  1  0.000823  0.999177  0.001192  1
  Er  Er7  1  0.209546  0.790454  0.442156  1
  Er  Er8  1  0.208272  0.416599  0.442319  1
  Er  Er9  1  0.583401  0.791728  0.442319  1
  Er  Er10  1  0.792170  0.207830  0.557151  1
  Er  Er11  1  0.789699  0.581834  0.557256  1
  Er  Er12  1  0.418166  0.210301  0.557256  1
  Er  Er13  1  0.792113  0.207887  0.942731  1
  Er  Er14  1  0.789678  0.581779  0.942659  1
  Er  Er15  1  0.418221  0.210322  0.942659  1
  Er  Er16  1  0.209518  0.790482  0.057952  1
  Er  Er17  1  0.208247  0.416564  0.057767  1
  Er  Er18  1  0.583436  0.791753  0.057767  1
  Er  Er19  1  0.536806  0.463194  0.250034  1
  Ag  Ag20  1  0.885395  0.114605  0.249837  1
  Ag  Ag21  1  0.881735  0.767601  0.249965  1
  Ag  Ag22  1  0.232399  0.118265  0.249965  1
  Ag  Ag23  1  0.114813  0.885187  0.750208  1
  Ag  Ag24  1  0.114207  0.228392  0.750084  1
  Ag  Ag25  1  0.771608  0.885793  0.750084  1
  Os  Os26  1  0.335596  0.664404  0.250055  1
  Os  Os27  1  0.668480  0.331520  0.749889  1
