# generated using pymatgen
data_SrTb6Sn23Ir6
_symmetry_space_group_name_H-M   'P 1'
_cell_length_a   9.93925400
_cell_length_b   9.93925410
_cell_length_c   10.11481100
_cell_angle_alpha   90.00000000
_cell_angle_beta   90.00000000
_cell_angle_gamma   120.00000631
_symmetry_Int_Tables_number   1
_chemical_formula_structural   SrTb6Sn23Ir6
_chemical_formula_sum   'Sr1 Tb6 Sn23 Ir6'
_cell_volume   865.35829143
_cell_formula_units_Z   1
loop_
 _symmetry_equiv_pos_site_id
 _symmetry_equiv_pos_as_xyz
  1  'x, y, z'
loop_
 _atom_site_type_symbol
 _atom_site_label
 _atom_site_symmetry_multiplicity
 _atom_site_fract_x
 _atom_site_fract_y
 _atom_site_fract_z
 _atom_site_occupancy
  Sr  Sr0  1  0.000000  0.000000  0.000000  1
  Tb  Tb1  1  0.481735  0.518265  0.305890  1
  Tb  Tb2  1  0.518265  0.481735  0.694110  1
  Tb  Tb3  1  0.481735  0.963469  0.305890  1
  Tb  Tb4  1  0.518265  0.036531  0.694110  1
  Tb  Tb5  1  0.036531  0.518265  0.305890  1
  Tb  Tb6  1  0.963469  0.481735  0.694110  1
  Sn  Sn7  1  0.352463  0.000000  0.000000  1
  Sn  Sn8  1  0.647537  0.000000  0.000000  1
  Sn  Sn9  1  0.000000  0.352463  0.000000  1
  Sn  Sn10  1  0.000000  0.647537  0.000000  1
  Sn  Sn11  1  0.647537  0.647537  0.000000  1
  Sn  Sn12  1  0.352463  0.352463  0.000000  1
  Sn  Sn13  1  0.333333  0.666667  0.826311  1
  Sn  Sn14  1  0.666667  0.333333  0.173689  1
  Sn  Sn15  1  0.000000  0.000000  0.500000  1
  Sn  Sn16  1  0.777470  0.222530  0.458235  1
  Sn  Sn17  1  0.222530  0.777470  0.541765  1
  Sn  Sn18  1  0.777470  0.554940  0.458235  1
  Sn  Sn19  1  0.222530  0.445060  0.541765  1
  Sn  Sn20  1  0.445060  0.222530  0.458235  1
  Sn  Sn21  1  0.554940  0.777470  0.541765  1
  Sn  Sn22  1  0.333333  0.666667  0.121714  1
  Sn  Sn23  1  0.666667  0.333333  0.878286  1
  Sn  Sn24  1  0.117882  0.882118  0.284646  1
  Sn  Sn25  1  0.882118  0.117882  0.715354  1
  Sn  Sn26  1  0.117882  0.235765  0.284646  1
  Sn  Sn27  1  0.882118  0.764235  0.715354  1
  Sn  Sn28  1  0.764235  0.882118  0.284646  1
  Sn  Sn29  1  0.235765  0.117882  0.715354  1
  Ir  Ir30  1  0.829218  0.170782  0.201309  1
  Ir  Ir31  1  0.170782  0.829218  0.798691  1
  Ir  Ir32  1  0.829218  0.658435  0.201309  1
  Ir  Ir33  1  0.170782  0.341565  0.798691  1
  Ir  Ir34  1  0.341565  0.170782  0.201309  1
  Ir  Ir35  1  0.658435  0.829218  0.798691  1
