# generated using pymatgen
data_Ca8TiV3O16
_symmetry_space_group_name_H-M   'P 1'
_cell_length_a   5.41723551
_cell_length_b   6.81514900
_cell_length_c   11.46924406
_cell_angle_alpha   90.00000000
_cell_angle_beta   89.78707941
_cell_angle_gamma   90.00000000
_symmetry_Int_Tables_number   1
_chemical_formula_structural   Ca8TiV3O16
_chemical_formula_sum   'Ca8 Ti1 V3 O16'
_cell_volume   423.43316228
_cell_formula_units_Z   1
loop_
 _symmetry_equiv_pos_site_id
 _symmetry_equiv_pos_as_xyz
  1  'x, y, z'
loop_
 _atom_site_type_symbol
 _atom_site_label
 _atom_site_symmetry_multiplicity
 _atom_site_fract_x
 _atom_site_fract_y
 _atom_site_fract_z
 _atom_site_occupancy
  Ca  Ca0  1  0.006174  0.750000  0.719899  1
  Ca  Ca1  1  0.996486  0.250000  0.278444  1
  Ca  Ca2  1  0.507967  0.250000  0.778449  1
  Ca  Ca3  1  0.493731  0.750000  0.219516  1
  Ca  Ca4  1  0.506532  0.500222  0.501008  1
  Ca  Ca5  1  0.994045  0.999006  0.001658  1
  Ca  Ca6  1  0.994045  0.500994  0.001658  1
  Ca  Ca7  1  0.506532  0.999778  0.501008  1
  Ti  Ti8  1  0.069634  0.250000  0.596598  1
  V  V9  1  0.432226  0.250000  0.094360  1
  V  V10  1  0.938083  0.750000  0.401000  1
  V  V11  1  0.561223  0.750000  0.901061  1
  O  O12  1  0.786970  0.750000  0.547490  1
  O  O13  1  0.775880  0.542525  0.335237  1
  O  O14  1  0.724519  0.542075  0.835690  1
  O  O15  1  0.727906  0.250000  0.593681  1
  O  O16  1  0.712254  0.750000  0.046937  1
  O  O17  1  0.277594  0.461705  0.161170  1
  O  O18  1  0.223750  0.460116  0.664427  1
  O  O19  1  0.271120  0.750000  0.411135  1
  O  O20  1  0.775880  0.957475  0.335237  1
  O  O21  1  0.228055  0.750000  0.910324  1
  O  O22  1  0.219471  0.250000  0.452183  1
  O  O23  1  0.724519  0.957925  0.835690  1
  O  O24  1  0.223750  0.039884  0.664427  1
  O  O25  1  0.275230  0.250000  0.952765  1
  O  O26  1  0.277594  0.038295  0.161170  1
  O  O27  1  0.768831  0.250000  0.097778  1
