# generated using pymatgen
data_RbIn9IrRh
_symmetry_space_group_name_H-M   'P 1'
_cell_length_a   9.06943800
_cell_length_b   9.06943825
_cell_length_c   4.32107400
_cell_angle_alpha   90.00000000
_cell_angle_beta   90.00000000
_cell_angle_gamma   119.99999907
_symmetry_Int_Tables_number   1
_chemical_formula_structural   RbIn9IrRh
_chemical_formula_sum   'Rb1 In9 Ir1 Rh1'
_cell_volume   307.81026889
_cell_formula_units_Z   1
loop_
 _symmetry_equiv_pos_site_id
 _symmetry_equiv_pos_as_xyz
  1  'x, y, z'
loop_
 _atom_site_type_symbol
 _atom_site_label
 _atom_site_symmetry_multiplicity
 _atom_site_fract_x
 _atom_site_fract_y
 _atom_site_fract_z
 _atom_site_occupancy
  Rb  Rb0  1  0.000000  0.000000  0.000000  1
  In  In1  1  0.499348  0.998697  0.000000  1
  In  In2  1  0.001303  0.500651  0.000000  1
  In  In3  1  0.499347  0.500651  0.000000  1
  In  In4  1  0.416049  0.208024  0.500000  1
  In  In5  1  0.791976  0.208024  0.500000  1
  In  In6  1  0.207836  0.415673  0.500000  1
  In  In7  1  0.791976  0.583951  0.500000  1
  In  In8  1  0.207836  0.792165  0.500000  1
  In  In9  1  0.584328  0.792165  0.500000  1
  Ir  Ir10  1  0.666667  0.333333  0.000000  1
  Rh  Rh11  1  0.333333  0.666667  0.000000  1
