# generated using pymatgen
data_ZrTa3TiB6
_symmetry_space_group_name_H-M   'P 1'
_cell_length_a   11.61605977
_cell_length_b   11.61605942
_cell_length_c   3.34285100
_cell_angle_alpha   90.00000000
_cell_angle_beta   90.00000000
_cell_angle_gamma   164.53343361
_symmetry_Int_Tables_number   1
_chemical_formula_structural   ZrTa3TiB6
_chemical_formula_sum   'Zr1 Ta3 Ti1 B6'
_cell_volume   120.28699016
_cell_formula_units_Z   1
loop_
 _symmetry_equiv_pos_site_id
 _symmetry_equiv_pos_as_xyz
  1  'x, y, z'
loop_
 _atom_site_type_symbol
 _atom_site_label
 _atom_site_symmetry_multiplicity
 _atom_site_fract_x
 _atom_site_fract_y
 _atom_site_fract_z
 _atom_site_occupancy
  Zr  Zr0  1  0.000416  0.999584  0.000000  1
  Ta  Ta1  1  0.803558  0.196442  0.500000  1
  Ta  Ta2  1  0.383561  0.616439  0.000000  1
  Ta  Ta3  1  0.617534  0.382466  0.000000  1
  Ti  Ti4  1  0.195451  0.804549  0.500000  1
  B  B5  1  0.457952  0.542048  0.500000  1
  B  B6  1  0.543337  0.456663  0.500000  1
  B  B7  1  0.269940  0.730060  0.000000  1
  B  B8  1  0.727114  0.272886  0.000000  1
  B  B9  1  0.084065  0.915935  0.500000  1
  B  B10  1  0.917070  0.082930  0.500000  1
