# generated using pymatgen
data_U4Si4Ir3Pt
_symmetry_space_group_name_H-M   'P 1'
_cell_length_a   4.28836600
_cell_length_b   6.86204831
_cell_length_c   7.47064393
_cell_angle_alpha   89.78532555
_cell_angle_beta   90.00000000
_cell_angle_gamma   90.00000000
_symmetry_Int_Tables_number   1
_chemical_formula_structural   U4Si4Ir3Pt
_chemical_formula_sum   'U4 Si4 Ir3 Pt1'
_cell_volume   219.83690659
_cell_formula_units_Z   1
loop_
 _symmetry_equiv_pos_site_id
 _symmetry_equiv_pos_as_xyz
  1  'x, y, z'
loop_
 _atom_site_type_symbol
 _atom_site_label
 _atom_site_symmetry_multiplicity
 _atom_site_fract_x
 _atom_site_fract_y
 _atom_site_fract_z
 _atom_site_occupancy
  U  U0  1  0.250000  0.482445  0.706206  1
  U  U1  1  0.750000  0.505929  0.294727  1
  U  U2  1  0.250000  0.993929  0.799599  1
  U  U3  1  0.750000  0.008178  0.203077  1
  Si  Si4  1  0.250000  0.315115  0.086546  1
  Si  Si5  1  0.750000  0.683173  0.914130  1
  Si  Si6  1  0.250000  0.813126  0.412575  1
  Si  Si7  1  0.750000  0.190120  0.585958  1
  Ir  Ir8  1  0.250000  0.213134  0.410667  1
  Ir  Ir9  1  0.750000  0.282565  0.915190  1
  Ir  Ir10  1  0.250000  0.716765  0.087008  1
  Pt  Pt11  1  0.750000  0.795521  0.584320  1
