# generated using pymatgen
data_NdLuCd2(Ir2O7)2
_symmetry_space_group_name_H-M   'P 1'
_cell_length_a   7.26455220
_cell_length_b   7.26455304
_cell_length_c   7.38099137
_cell_angle_alpha   59.44045271
_cell_angle_beta   59.44045019
_cell_angle_gamma   59.25812781
_symmetry_Int_Tables_number   1
_chemical_formula_structural   NdLuCd2(Ir2O7)2
_chemical_formula_sum   'Nd1 Lu1 Cd2 Ir4 O14'
_cell_volume   271.54347506
_cell_formula_units_Z   1
loop_
 _symmetry_equiv_pos_site_id
 _symmetry_equiv_pos_as_xyz
  1  'x, y, z'
loop_
 _atom_site_type_symbol
 _atom_site_label
 _atom_site_symmetry_multiplicity
 _atom_site_fract_x
 _atom_site_fract_y
 _atom_site_fract_z
 _atom_site_occupancy
  Nd  Nd0  1  0.125000  0.125000  0.125000  1
  Lu  Lu1  1  0.125000  0.125000  0.625000  1
  Cd  Cd2  1  0.625000  0.125000  0.125000  1
  Cd  Cd3  1  0.125000  0.625000  0.125000  1
  Ir  Ir4  1  0.125000  0.625000  0.625000  1
  Ir  Ir5  1  0.625000  0.125000  0.625000  1
  Ir  Ir6  1  0.625000  0.625000  0.125000  1
  Ir  Ir7  1  0.625000  0.625000  0.625000  1
  O  O8  1  0.699923  0.699923  0.301998  1
  O  O9  1  0.289265  0.289265  0.701877  1
  O  O10  1  0.720817  0.296435  0.683558  1
  O  O11  1  0.293490  0.702128  0.297868  1
  O  O12  1  0.296435  0.720817  0.683558  1
  O  O13  1  0.702128  0.293490  0.297868  1
  O  O14  1  0.550077  0.550077  0.948002  1
  O  O15  1  0.960735  0.960735  0.548123  1
  O  O16  1  0.529183  0.953565  0.566442  1
  O  O17  1  0.956510  0.547872  0.952132  1
  O  O18  1  0.953565  0.529183  0.566442  1
  O  O19  1  0.547872  0.956510  0.952132  1
  O  O20  1  0.251002  0.251002  0.262308  1
  O  O21  1  0.998998  0.998998  0.987692  1
