# generated using pymatgen
data_Tm10Tl3Ru
_symmetry_space_group_name_H-M   'P 1'
_cell_length_a   9.63074700
_cell_length_b   9.63074713
_cell_length_c   9.62072000
_cell_angle_alpha   90.00000000
_cell_angle_beta   90.00000000
_cell_angle_gamma   119.99999611
_symmetry_Int_Tables_number   1
_chemical_formula_structural   Tm10Tl3Ru
_chemical_formula_sum   'Tm20 Tl6 Ru2'
_cell_volume   772.78410015
_cell_formula_units_Z   2
loop_
 _symmetry_equiv_pos_site_id
 _symmetry_equiv_pos_as_xyz
  1  'x, y, z'
loop_
 _atom_site_type_symbol
 _atom_site_label
 _atom_site_symmetry_multiplicity
 _atom_site_fract_x
 _atom_site_fract_y
 _atom_site_fract_z
 _atom_site_occupancy
  Tm  Tm0  1  0.000000  0.000000  0.500000  1
  Tm  Tm1  1  0.000000  0.000000  0.000000  1
  Tm  Tm2  1  0.210878  0.789122  0.438827  1
  Tm  Tm3  1  0.210878  0.421754  0.438827  1
  Tm  Tm4  1  0.578246  0.789122  0.438827  1
  Tm  Tm5  1  0.789122  0.210878  0.561173  1
  Tm  Tm6  1  0.789122  0.578246  0.561173  1
  Tm  Tm7  1  0.421754  0.210878  0.561173  1
  Tm  Tm8  1  0.789122  0.210878  0.938827  1
  Tm  Tm9  1  0.789122  0.578246  0.938827  1
  Tm  Tm10  1  0.421754  0.210878  0.938827  1
  Tm  Tm11  1  0.210878  0.789122  0.061173  1
  Tm  Tm12  1  0.210878  0.421754  0.061173  1
  Tm  Tm13  1  0.578246  0.789122  0.061173  1
  Tm  Tm14  1  0.538543  0.461457  0.250000  1
  Tm  Tm15  1  0.538543  0.077085  0.250000  1
  Tm  Tm16  1  0.922915  0.461457  0.250000  1
  Tm  Tm17  1  0.461457  0.538543  0.750000  1
  Tm  Tm18  1  0.461457  0.922915  0.750000  1
  Tm  Tm19  1  0.077085  0.538543  0.750000  1
  Tl  Tl20  1  0.881751  0.118249  0.250000  1
  Tl  Tl21  1  0.881751  0.763504  0.250000  1
  Tl  Tl22  1  0.236496  0.118249  0.250000  1
  Tl  Tl23  1  0.118249  0.881751  0.750000  1
  Tl  Tl24  1  0.118249  0.236496  0.750000  1
  Tl  Tl25  1  0.763504  0.881751  0.750000  1
  Ru  Ru26  1  0.333333  0.666667  0.250000  1
  Ru  Ru27  1  0.666667  0.333333  0.750000  1
