# generated using pymatgen
data_Zr7Co16Si12Rh
_symmetry_space_group_name_H-M   'P 1'
_cell_length_a   12.27124501
_cell_length_b   12.27124536
_cell_length_c   3.71424200
_cell_angle_alpha   90.00000000
_cell_angle_beta   90.00000000
_cell_angle_gamma   119.76648163
_symmetry_Int_Tables_number   1
_chemical_formula_structural   Zr7Co16Si12Rh
_chemical_formula_sum   'Zr7 Co16 Si12 Rh1'
_cell_volume   485.50669820
_cell_formula_units_Z   1
loop_
 _symmetry_equiv_pos_site_id
 _symmetry_equiv_pos_as_xyz
  1  'x, y, z'
loop_
 _atom_site_type_symbol
 _atom_site_label
 _atom_site_symmetry_multiplicity
 _atom_site_fract_x
 _atom_site_fract_y
 _atom_site_fract_z
 _atom_site_occupancy
  Zr  Zr0  1  0.561608  0.000945  0.000000  1
  Zr  Zr1  1  0.000945  0.561608  0.000000  1
  Zr  Zr2  1  0.665098  0.334179  0.000000  1
  Zr  Zr3  1  0.334179  0.665098  0.000000  1
  Zr  Zr4  1  0.809634  0.809634  0.500000  1
  Zr  Zr5  1  0.180234  0.999649  0.500000  1
  Zr  Zr6  1  0.999649  0.180234  0.500000  1
  Co  Co7  1  0.199200  0.372903  0.000000  1
  Co  Co8  1  0.180245  0.809264  0.000000  1
  Co  Co9  1  0.814988  0.623765  0.000000  1
  Co  Co10  1  0.809264  0.180245  0.000000  1
  Co  Co11  1  0.372903  0.199200  0.000000  1
  Co  Co12  1  0.128644  0.481161  0.500000  1
  Co  Co13  1  0.360430  0.883435  0.500000  1
  Co  Co14  1  0.518532  0.638501  0.500000  1
  Co  Co15  1  0.638501  0.518532  0.500000  1
  Co  Co16  1  0.883435  0.360430  0.500000  1
  Co  Co17  1  0.481161  0.128644  0.500000  1
  Co  Co18  1  0.000702  0.000702  0.000000  1
  Co  Co19  1  0.721322  0.997430  0.500000  1
  Co  Co20  1  0.997430  0.721322  0.500000  1
  Co  Co21  1  0.623765  0.814988  0.000000  1
  Co  Co22  1  0.278835  0.278835  0.500000  1
  Si  Si23  1  0.635565  0.635565  0.000000  1
  Si  Si24  1  0.351533  0.005808  0.000000  1
  Si  Si25  1  0.005808  0.351533  0.000000  1
  Si  Si26  1  0.478529  0.313968  0.500000  1
  Si  Si27  1  0.698020  0.179741  0.500000  1
  Si  Si28  1  0.821824  0.516801  0.500000  1
  Si  Si29  1  0.516801  0.821824  0.500000  1
  Si  Si30  1  0.179741  0.698020  0.500000  1
  Si  Si31  1  0.819557  0.996636  0.000000  1
  Si  Si32  1  0.996636  0.819557  0.000000  1
  Si  Si33  1  0.313968  0.478529  0.500000  1
  Si  Si34  1  0.178942  0.178942  0.000000  1
  Rh  Rh35  1  0.442373  0.442373  0.000000  1
