# generated using pymatgen
data_TmLu19HgBi11
_symmetry_space_group_name_H-M   'P 1'
_cell_length_a   8.10619969
_cell_length_b   9.38957000
_cell_length_c   11.79014517
_cell_angle_alpha   90.00000000
_cell_angle_beta   89.69026666
_cell_angle_gamma   90.00000000
_symmetry_Int_Tables_number   1
_chemical_formula_structural   TmLu19HgBi11
_chemical_formula_sum   'Tm1 Lu19 Hg1 Bi11'
_cell_volume   897.37880615
_cell_formula_units_Z   1
loop_
 _symmetry_equiv_pos_site_id
 _symmetry_equiv_pos_as_xyz
  1  'x, y, z'
loop_
 _atom_site_type_symbol
 _atom_site_label
 _atom_site_symmetry_multiplicity
 _atom_site_fract_x
 _atom_site_fract_y
 _atom_site_fract_z
 _atom_site_occupancy
  Tm  Tm0  1  0.311885  0.750000  0.282483  1
  Lu  Lu1  1  0.034153  0.250000  0.507940  1
  Lu  Lu2  1  0.979677  0.750000  0.489986  1
  Lu  Lu3  1  0.477055  0.750000  0.009818  1
  Lu  Lu4  1  0.524399  0.250000  0.990550  1
  Lu  Lu5  1  0.353380  0.250000  0.289466  1
  Lu  Lu6  1  0.649921  0.750000  0.718606  1
  Lu  Lu7  1  0.149447  0.750000  0.782546  1
  Lu  Lu8  1  0.852698  0.250000  0.215518  1
  Lu  Lu9  1  0.193998  0.250000  0.780333  1
  Lu  Lu10  1  0.808017  0.750000  0.215690  1
  Lu  Lu11  1  0.680208  0.250000  0.711662  1
  Lu  Lu12  1  0.192391  0.067746  0.060233  1
  Lu  Lu13  1  0.807346  0.932453  0.941362  1
  Lu  Lu14  1  0.307650  0.945442  0.559644  1
  Lu  Lu15  1  0.807346  0.567547  0.941362  1
  Lu  Lu16  1  0.687467  0.071480  0.443991  1
  Lu  Lu17  1  0.192391  0.432254  0.060233  1
  Lu  Lu18  1  0.687467  0.428520  0.443991  1
  Lu  Lu19  1  0.307650  0.554558  0.559644  1
  Hg  Hg20  1  0.404561  0.250000  0.540451  1
  Bi  Bi21  1  0.596438  0.750000  0.458346  1
  Bi  Bi22  1  0.097322  0.750000  0.043386  1
  Bi  Bi23  1  0.903648  0.250000  0.953153  1
  Bi  Bi24  1  0.059531  0.001923  0.322564  1
  Bi  Bi25  1  0.937128  0.997734  0.676402  1
  Bi  Bi26  1  0.437301  0.996754  0.825473  1
  Bi  Bi27  1  0.937128  0.502266  0.676402  1
  Bi  Bi28  1  0.562784  0.003838  0.175366  1
  Bi  Bi29  1  0.059531  0.498077  0.322564  1
  Bi  Bi30  1  0.562784  0.496162  0.175366  1
  Bi  Bi31  1  0.437301  0.503246  0.825473  1
