# generated using pymatgen
data_ErPa4Ga15
_symmetry_space_group_name_H-M   'P 1'
_cell_length_a   12.49291443
_cell_length_b   12.49291429
_cell_length_c   12.49291216
_cell_angle_alpha   28.46327141
_cell_angle_beta   28.46327492
_cell_angle_gamma   28.46327150
_symmetry_Int_Tables_number   1
_chemical_formula_structural   ErPa4Ga15
_chemical_formula_sum   'Er1 Pa4 Ga15'
_cell_volume   391.42817132
_cell_formula_units_Z   1
loop_
 _symmetry_equiv_pos_site_id
 _symmetry_equiv_pos_as_xyz
  1  'x, y, z'
loop_
 _atom_site_type_symbol
 _atom_site_label
 _atom_site_symmetry_multiplicity
 _atom_site_fract_x
 _atom_site_fract_y
 _atom_site_fract_z
 _atom_site_occupancy
  Er  Er0  1  0.599533  0.599533  0.599533  1
  Pa  Pa1  1  0.130957  0.130957  0.130957  1
  Pa  Pa2  1  0.870164  0.870164  0.870164  1
  Pa  Pa3  1  0.400267  0.400267  0.400267  1
  Pa  Pa4  1  0.998766  0.998766  0.998766  1
  Ga  Ga5  1  0.431214  0.883023  0.883023  1
  Ga  Ga6  1  0.883023  0.883023  0.431214  1
  Ga  Ga7  1  0.883023  0.431214  0.883023  1
  Ga  Ga8  1  0.118589  0.563640  0.118589  1
  Ga  Ga9  1  0.118589  0.118589  0.563640  1
  Ga  Ga10  1  0.563640  0.118589  0.118589  1
  Ga  Ga11  1  0.129704  0.636486  0.636486  1
  Ga  Ga12  1  0.636486  0.636486  0.129704  1
  Ga  Ga13  1  0.636486  0.129704  0.636486  1
  Ga  Ga14  1  0.364327  0.873142  0.364327  1
  Ga  Ga15  1  0.364327  0.364327  0.873142  1
  Ga  Ga16  1  0.873142  0.364327  0.364327  1
  Ga  Ga17  1  0.499886  0.499886  0.997992  1
  Ga  Ga18  1  0.499886  0.997992  0.499886  1
  Ga  Ga19  1  0.997992  0.499886  0.499886  1
