# generated using pymatgen
data_TiNb2AsC
_symmetry_space_group_name_H-M   'P 1'
_cell_length_a   5.61018714
_cell_length_b   5.61018884
_cell_length_c   8.16603800
_cell_angle_alpha   90.00000000
_cell_angle_beta   90.00000000
_cell_angle_gamma   145.27182241
_symmetry_Int_Tables_number   1
_chemical_formula_structural   TiNb2AsC
_chemical_formula_sum   'Ti2 Nb4 As2 C2'
_cell_volume   146.41989059
_cell_formula_units_Z   2
loop_
 _symmetry_equiv_pos_site_id
 _symmetry_equiv_pos_as_xyz
  1  'x, y, z'
loop_
 _atom_site_type_symbol
 _atom_site_label
 _atom_site_symmetry_multiplicity
 _atom_site_fract_x
 _atom_site_fract_y
 _atom_site_fract_z
 _atom_site_occupancy
  Ti  Ti0  1  0.445745  0.554255  0.250000  1
  Ti  Ti1  1  0.554255  0.445745  0.750000  1
  Nb  Nb2  1  0.869692  0.130308  0.557453  1
  Nb  Nb3  1  0.869692  0.130308  0.942547  1
  Nb  Nb4  1  0.130308  0.869692  0.057453  1
  Nb  Nb5  1  0.130308  0.869692  0.442547  1
  As  As6  1  0.762277  0.237723  0.250000  1
  As  As7  1  0.237723  0.762277  0.750000  1
  C  C8  1  0.500000  0.500000  0.500000  1
  C  C9  1  0.500000  0.500000  0.000000  1
