# generated using pymatgen
data_Ca8Zn3Si12Ir
_symmetry_space_group_name_H-M   'P 1'
_cell_length_a   8.18242700
_cell_length_b   8.18242792
_cell_length_c   8.74869800
_cell_angle_alpha   90.00000000
_cell_angle_beta   90.00000000
_cell_angle_gamma   119.99999223
_symmetry_Int_Tables_number   1
_chemical_formula_structural   Ca8Zn3Si12Ir
_chemical_formula_sum   'Ca8 Zn3 Si12 Ir1'
_cell_volume   507.26911207
_cell_formula_units_Z   1
loop_
 _symmetry_equiv_pos_site_id
 _symmetry_equiv_pos_as_xyz
  1  'x, y, z'
loop_
 _atom_site_type_symbol
 _atom_site_label
 _atom_site_symmetry_multiplicity
 _atom_site_fract_x
 _atom_site_fract_y
 _atom_site_fract_z
 _atom_site_occupancy
  Ca  Ca0  1  0.502200  0.497800  0.743347  1
  Ca  Ca1  1  0.503028  0.496972  0.256464  1
  Ca  Ca2  1  0.995599  0.497800  0.743347  1
  Ca  Ca3  1  0.993943  0.496972  0.256464  1
  Ca  Ca4  1  0.502200  0.004401  0.743347  1
  Ca  Ca5  1  0.503028  0.006057  0.256464  1
  Ca  Ca6  1  0.000000  0.000000  0.748841  1
  Ca  Ca7  1  0.000000  0.000000  0.251379  1
  Zn  Zn8  1  0.666667  0.333333  0.997164  1
  Zn  Zn9  1  0.333333  0.666667  0.002296  1
  Zn  Zn10  1  0.333333  0.666667  0.498444  1
  Si  Si11  1  0.834790  0.165210  0.001281  1
  Si  Si12  1  0.165657  0.834343  0.999085  1
  Si  Si13  1  0.330418  0.165210  0.001281  1
  Si  Si14  1  0.161411  0.838589  0.499981  1
  Si  Si15  1  0.668687  0.834343  0.999085  1
  Si  Si16  1  0.829805  0.170195  0.500108  1
  Si  Si17  1  0.834790  0.669582  0.001281  1
  Si  Si18  1  0.677178  0.838589  0.499981  1
  Si  Si19  1  0.165657  0.331313  0.999085  1
  Si  Si20  1  0.340391  0.170195  0.500108  1
  Si  Si21  1  0.161411  0.322822  0.499981  1
  Si  Si22  1  0.829805  0.659609  0.500108  1
  Ir  Ir23  1  0.666667  0.333333  0.501075  1
