# generated using pymatgen
data_Nd4CuPdRh2
_symmetry_space_group_name_H-M   'P 1'
_cell_length_a   4.46859200
_cell_length_b   5.75890559
_cell_length_c   7.39058693
_cell_angle_alpha   90.37219831
_cell_angle_beta   90.00000000
_cell_angle_gamma   90.00000000
_symmetry_Int_Tables_number   1
_chemical_formula_structural   Nd4CuPdRh2
_chemical_formula_sum   'Nd4 Cu1 Pd1 Rh2'
_cell_volume   190.18682519
_cell_formula_units_Z   1
loop_
 _symmetry_equiv_pos_site_id
 _symmetry_equiv_pos_as_xyz
  1  'x, y, z'
loop_
 _atom_site_type_symbol
 _atom_site_label
 _atom_site_symmetry_multiplicity
 _atom_site_fract_x
 _atom_site_fract_y
 _atom_site_fract_z
 _atom_site_occupancy
  Nd  Nd0  1  0.000000  0.640383  0.325605  1
  Nd  Nd1  1  0.000000  0.868506  0.812220  1
  Nd  Nd2  1  0.500000  0.363379  0.683141  1
  Nd  Nd3  1  0.500000  0.137514  0.175599  1
  Cu  Cu4  1  0.500000  0.629330  0.036870  1
  Pd  Pd5  1  0.000000  0.150847  0.453134  1
  Rh  Rh6  1  0.000000  0.370389  0.967752  1
  Rh  Rh7  1  0.500000  0.839651  0.545679  1
