# generated using pymatgen
data_Dy4Lu(TcO6)2
_symmetry_space_group_name_H-M   'P 1'
_cell_length_a   6.79963018
_cell_length_b   6.79962979
_cell_length_c   7.47831608
_cell_angle_alpha   73.72315459
_cell_angle_beta   73.72315535
_cell_angle_gamma   49.26025977
_symmetry_Int_Tables_number   1
_chemical_formula_structural   Dy4Lu(TcO6)2
_chemical_formula_sum   'Dy4 Lu1 Tc2 O12'
_cell_volume   249.21210411
_cell_formula_units_Z   1
loop_
 _symmetry_equiv_pos_site_id
 _symmetry_equiv_pos_as_xyz
  1  'x, y, z'
loop_
 _atom_site_type_symbol
 _atom_site_label
 _atom_site_symmetry_multiplicity
 _atom_site_fract_x
 _atom_site_fract_y
 _atom_site_fract_z
 _atom_site_occupancy
  Dy  Dy0  1  0.196278  0.196278  0.642159  1
  Dy  Dy1  1  0.183171  0.183171  0.177552  1
  Dy  Dy2  1  0.803722  0.803722  0.357841  1
  Dy  Dy3  1  0.816829  0.816829  0.822448  1
  Lu  Lu4  1  0.500000  0.500000  0.500000  1
  Tc  Tc5  1  0.713388  0.286612  0.000000  1
  Tc  Tc6  1  0.286612  0.713388  0.000000  1
  O  O7  1  0.413977  0.916947  0.914305  1
  O  O8  1  0.916947  0.413977  0.914305  1
  O  O9  1  0.899906  0.401196  0.429094  1
  O  O10  1  0.401196  0.899906  0.429094  1
  O  O11  1  0.502103  0.502103  0.206536  1
  O  O12  1  0.998592  0.998592  0.178069  1
  O  O13  1  0.001408  0.001408  0.821931  1
  O  O14  1  0.497897  0.497897  0.793464  1
  O  O15  1  0.083053  0.586023  0.085695  1
  O  O16  1  0.586023  0.083053  0.085695  1
  O  O17  1  0.100094  0.598804  0.570906  1
  O  O18  1  0.598804  0.100094  0.570906  1
