# generated using pymatgen
data_Dy2TmRuI3
_symmetry_space_group_name_H-M   'P 1'
_cell_length_a   4.22065000
_cell_length_b   8.85757261
_cell_length_c   12.26351226
_cell_angle_alpha   85.91369017
_cell_angle_beta   90.00000000
_cell_angle_gamma   90.00000000
_symmetry_Int_Tables_number   1
_chemical_formula_structural   Dy2TmRuI3
_chemical_formula_sum   'Dy4 Tm2 Ru2 I6'
_cell_volume   457.30239714
_cell_formula_units_Z   2
loop_
 _symmetry_equiv_pos_site_id
 _symmetry_equiv_pos_as_xyz
  1  'x, y, z'
loop_
 _atom_site_type_symbol
 _atom_site_label
 _atom_site_symmetry_multiplicity
 _atom_site_fract_x
 _atom_site_fract_y
 _atom_site_fract_z
 _atom_site_occupancy
  Dy  Dy0  1  0.750000  0.098008  0.684333  1
  Dy  Dy1  1  0.250000  0.901992  0.315667  1
  Dy  Dy2  1  0.250000  0.260935  0.897934  1
  Dy  Dy3  1  0.750000  0.739065  0.102066  1
  Tm  Tm4  1  0.750000  0.128789  0.124865  1
  Tm  Tm5  1  0.250000  0.871211  0.875135  1
  Ru  Ru6  1  0.750000  0.051872  0.908192  1
  Ru  Ru7  1  0.250000  0.948128  0.091808  1
  I  I8  1  0.250000  0.354076  0.636274  1
  I  I9  1  0.750000  0.645924  0.363726  1
  I  I10  1  0.750000  0.143852  0.392140  1
  I  I11  1  0.250000  0.856148  0.607860  1
  I  I12  1  0.250000  0.425278  0.133391  1
  I  I13  1  0.750000  0.574722  0.866609  1
