# generated using pymatgen
data_Ac2Al16RuPt8
_symmetry_space_group_name_H-M   'P 1'
_cell_length_a   11.16151488
_cell_length_b   11.16151631
_cell_length_c   11.16151700
_cell_angle_alpha   158.49952572
_cell_angle_beta   115.92505046
_cell_angle_gamma   68.43173215
_symmetry_Int_Tables_number   1
_chemical_formula_structural   Ac2Al16RuPt8
_chemical_formula_sum   'Ac2 Al16 Ru1 Pt8'
_cell_volume   455.09687472
_cell_formula_units_Z   1
loop_
 _symmetry_equiv_pos_site_id
 _symmetry_equiv_pos_as_xyz
  1  'x, y, z'
loop_
 _atom_site_type_symbol
 _atom_site_label
 _atom_site_symmetry_multiplicity
 _atom_site_fract_x
 _atom_site_fract_y
 _atom_site_fract_z
 _atom_site_occupancy
  Ac  Ac0  1  0.228682  0.228501  0.000182  1
  Ac  Ac1  1  0.771681  0.771499  0.000182  1
  Al  Al2  1  0.279505  0.393418  0.886087  1
  Al  Al3  1  0.092442  0.926250  0.166193  1
  Al  Al4  1  0.501868  0.199683  0.302184  1
  Al  Al5  1  0.239941  0.073750  0.166193  1
  Al  Al6  1  0.910656  0.418182  0.492474  1
  Al  Al7  1  0.722698  0.599176  0.123521  1
  Al  Al8  1  0.905790  0.208716  0.697074  1
  Al  Al9  1  0.488360  0.791284  0.697074  1
  Al  Al10  1  0.389455  0.000000  0.389455  1
  Al  Al11  1  0.625149  0.000000  0.625149  1
  Al  Al12  1  0.492670  0.606582  0.886087  1
  Al  Al13  1  0.102501  0.800317  0.302184  1
  Al  Al14  1  0.899547  0.082318  0.817228  1
  Al  Al15  1  0.734910  0.917682  0.817228  1
  Al  Al16  1  0.524345  0.400824  0.123521  1
  Al  Al17  1  0.074292  0.581818  0.492474  1
  Ru  Ru18  1  0.775780  0.500000  0.275780  1
  Pt  Pt19  1  0.032375  0.345697  0.686678  1
  Pt  Pt20  1  0.627547  0.123533  0.504014  1
  Pt  Pt21  1  0.257796  0.500000  0.757796  1
  Pt  Pt22  1  0.380480  0.876467  0.504014  1
  Pt  Pt23  1  0.983077  0.000000  0.983077  1
  Pt  Pt24  1  0.645649  0.336910  0.308737  1
  Pt  Pt25  1  0.340979  0.654303  0.686678  1
  Pt  Pt26  1  0.971827  0.663090  0.308737  1
