# generated using pymatgen
data_Ca3Al2GePd6
_symmetry_space_group_name_H-M   'P 1'
_cell_length_a   8.74244791
_cell_length_b   8.74244592
_cell_length_c   8.74244700
_cell_angle_alpha   37.67359551
_cell_angle_beta   37.67361245
_cell_angle_gamma   37.67359999
_symmetry_Int_Tables_number   1
_chemical_formula_structural   Ca3Al2GePd6
_chemical_formula_sum   'Ca3 Al2 Ge1 Pd6'
_cell_volume   223.90167163
_cell_formula_units_Z   1
loop_
 _symmetry_equiv_pos_site_id
 _symmetry_equiv_pos_as_xyz
  1  'x, y, z'
loop_
 _atom_site_type_symbol
 _atom_site_label
 _atom_site_symmetry_multiplicity
 _atom_site_fract_x
 _atom_site_fract_y
 _atom_site_fract_z
 _atom_site_occupancy
  Ca  Ca0  1  0.359913  0.359913  0.359913  1
  Ca  Ca1  1  0.500000  0.500000  0.500000  1
  Ca  Ca2  1  0.640087  0.640087  0.640087  1
  Al  Al3  1  0.167355  0.167355  0.167355  1
  Al  Al4  1  0.832645  0.832645  0.832645  1
  Ge  Ge5  1  0.000000  0.000000  0.000000  1
  Pd  Pd6  1  0.580459  0.080603  0.080603  1
  Pd  Pd7  1  0.080603  0.580459  0.080603  1
  Pd  Pd8  1  0.919397  0.919397  0.419541  1
  Pd  Pd9  1  0.080603  0.080603  0.580459  1
  Pd  Pd10  1  0.919397  0.419541  0.919397  1
  Pd  Pd11  1  0.419541  0.919397  0.919397  1
