# generated using pymatgen
data_Yb2EuDy(Ga2Ag)4
_symmetry_space_group_name_H-M   'P 1'
_cell_length_a   4.37158600
_cell_length_b   7.01206288
_cell_length_c   10.45712378
_cell_angle_alpha   90.33152795
_cell_angle_beta   90.00000000
_cell_angle_gamma   90.00000000
_symmetry_Int_Tables_number   1
_chemical_formula_structural   Yb2EuDy(Ga2Ag)4
_chemical_formula_sum   'Yb2 Eu1 Dy1 Ga8 Ag4'
_cell_volume   320.54559044
_cell_formula_units_Z   1
loop_
 _symmetry_equiv_pos_site_id
 _symmetry_equiv_pos_as_xyz
  1  'x, y, z'
loop_
 _atom_site_type_symbol
 _atom_site_label
 _atom_site_symmetry_multiplicity
 _atom_site_fract_x
 _atom_site_fract_y
 _atom_site_fract_z
 _atom_site_occupancy
  Yb  Yb0  1  0.750000  0.725386  0.329470  1
  Yb  Yb1  1  0.250000  0.276057  0.671356  1
  Eu  Eu2  1  0.750000  0.221206  0.174007  1
  Dy  Dy3  1  0.250000  0.780005  0.828147  1
  Ga  Ga4  1  0.250000  0.701727  0.536117  1
  Ga  Ga5  1  0.750000  0.304493  0.469012  1
  Ga  Ga6  1  0.750000  0.792261  0.034395  1
  Ga  Ga7  1  0.250000  0.201294  0.961954  1
  Ga  Ga8  1  0.250000  0.919270  0.148486  1
  Ga  Ga9  1  0.750000  0.073886  0.847824  1
  Ga  Ga10  1  0.750000  0.574534  0.653180  1
  Ga  Ga11  1  0.250000  0.430328  0.350788  1
  Ag  Ag12  1  0.250000  0.540997  0.096989  1
  Ag  Ag13  1  0.750000  0.458567  0.896752  1
  Ag  Ag14  1  0.750000  0.959565  0.598656  1
  Ag  Ag15  1  0.250000  0.040426  0.402867  1
