# generated using pymatgen
data_NaLa2TbB24
_symmetry_space_group_name_H-M   'P 1'
_cell_length_a   7.16534089
_cell_length_b   7.16534169
_cell_length_c   5.87171600
_cell_angle_alpha   90.00000000
_cell_angle_beta   90.00000000
_cell_angle_gamma   109.32683771
_symmetry_Int_Tables_number   1
_chemical_formula_structural   NaLa2TbB24
_chemical_formula_sum   'Na1 La2 Tb1 B24'
_cell_volume   284.47749951
_cell_formula_units_Z   1
loop_
 _symmetry_equiv_pos_site_id
 _symmetry_equiv_pos_as_xyz
  1  'x, y, z'
loop_
 _atom_site_type_symbol
 _atom_site_label
 _atom_site_symmetry_multiplicity
 _atom_site_fract_x
 _atom_site_fract_y
 _atom_site_fract_z
 _atom_site_occupancy
  Na  Na0  1  0.000000  0.000000  0.000000  1
  La  La1  1  0.751244  0.248756  0.500000  1
  La  La2  1  0.248756  0.751244  0.500000  1
  Tb  Tb3  1  0.500000  0.500000  0.000000  1
  B  B4  1  0.175985  0.325445  0.650137  1
  B  B5  1  0.924466  0.575024  0.148951  1
  B  B6  1  0.674555  0.824015  0.650137  1
  B  B7  1  0.424976  0.075534  0.148951  1
  B  B8  1  0.175985  0.325445  0.349863  1
  B  B9  1  0.924466  0.575024  0.851049  1
  B  B10  1  0.674555  0.824015  0.349863  1
  B  B11  1  0.424976  0.075534  0.851049  1
  B  B12  1  0.400227  0.400227  0.500000  1
  B  B13  1  0.148680  0.650827  0.000000  1
  B  B14  1  0.899212  0.899212  0.500000  1
  B  B15  1  0.650827  0.148680  0.000000  1
  B  B16  1  0.325445  0.175985  0.650137  1
  B  B17  1  0.075534  0.424976  0.148951  1
  B  B18  1  0.824015  0.674555  0.650137  1
  B  B19  1  0.575024  0.924466  0.148951  1
  B  B20  1  0.100788  0.100788  0.500000  1
  B  B21  1  0.851320  0.349173  0.000000  1
  B  B22  1  0.599773  0.599773  0.500000  1
  B  B23  1  0.349173  0.851320  0.000000  1
  B  B24  1  0.325445  0.175985  0.349863  1
  B  B25  1  0.075534  0.424976  0.851049  1
  B  B26  1  0.824015  0.674555  0.349863  1
  B  B27  1  0.575024  0.924466  0.851049  1
