# generated using pymatgen
data_GaTc6As13
_symmetry_space_group_name_H-M   'P 1'
_cell_length_a   7.62450695
_cell_length_b   7.62450594
_cell_length_c   7.62450641
_cell_angle_alpha   110.14671303
_cell_angle_beta   108.12849438
_cell_angle_gamma   110.14671893
_symmetry_Int_Tables_number   1
_chemical_formula_structural   GaTc6As13
_chemical_formula_sum   'Ga1 Tc6 As13'
_cell_volume   341.06332676
_cell_formula_units_Z   1
loop_
 _symmetry_equiv_pos_site_id
 _symmetry_equiv_pos_as_xyz
  1  'x, y, z'
loop_
 _atom_site_type_symbol
 _atom_site_label
 _atom_site_symmetry_multiplicity
 _atom_site_fract_x
 _atom_site_fract_y
 _atom_site_fract_z
 _atom_site_occupancy
  Ga  Ga0  1  0.749999  0.500000  0.250001  1
  Tc  Tc1  1  0.342170  0.000000  0.342172  1
  Tc  Tc2  1  0.006043  0.336943  0.342986  1
  Tc  Tc3  1  0.006047  0.663062  0.669110  1
  Tc  Tc4  1  0.330890  0.336938  0.993953  1
  Tc  Tc5  1  0.657014  0.663057  0.993957  1
  Tc  Tc6  1  0.657828  0.000000  0.657830  1
  As  As7  1  0.500973  0.747576  0.248549  1
  As  As8  1  0.500973  0.252426  0.753398  1
  As  As9  1  0.751451  0.252424  0.499027  1
  As  As10  1  0.246602  0.747574  0.499027  1
  As  As11  1  0.250000  0.500000  0.750000  1
  As  As12  1  0.997640  0.994424  0.328158  1
  As  As13  1  0.671842  0.005576  0.002360  1
  As  As14  1  0.997640  0.669479  0.003211  1
  As  As15  1  0.333736  0.330520  0.328157  1
  As  As16  1  0.996789  0.330521  0.002360  1
  As  As17  1  0.671843  0.669480  0.666264  1
  As  As18  1  0.333733  0.005574  0.003211  1
  As  As19  1  0.996789  0.994426  0.666267  1
