# generated using pymatgen
data_Tm2LuMg3Ga2Hg
_symmetry_space_group_name_H-M   'P 1'
_cell_length_a   7.31502834
_cell_length_b   7.32269484
_cell_length_c   4.35847700
_cell_angle_alpha   90.00000000
_cell_angle_beta   90.00000000
_cell_angle_gamma   120.03467117
_symmetry_Int_Tables_number   1
_chemical_formula_structural   Tm2LuMg3Ga2Hg
_chemical_formula_sum   'Tm2 Lu1 Mg3 Ga2 Hg1'
_cell_volume   202.11591125
_cell_formula_units_Z   1
loop_
 _symmetry_equiv_pos_site_id
 _symmetry_equiv_pos_as_xyz
  1  'x, y, z'
loop_
 _atom_site_type_symbol
 _atom_site_label
 _atom_site_symmetry_multiplicity
 _atom_site_fract_x
 _atom_site_fract_y
 _atom_site_fract_z
 _atom_site_occupancy
  Tm  Tm0  1  0.428955  0.429014  0.000000  1
  Tm  Tm1  1  0.571045  0.000058  0.000000  1
  Lu  Lu2  1  0.000000  0.571118  0.000000  1
  Mg  Mg3  1  0.000000  0.249115  0.500000  1
  Mg  Mg4  1  0.751113  0.750986  0.500000  1
  Mg  Mg5  1  0.248887  0.999873  0.500000  1
  Ga  Ga6  1  0.667004  0.333567  0.500000  1
  Ga  Ga7  1  0.332996  0.666564  0.500000  1
  Hg  Hg8  1  0.000000  0.999706  0.000000  1
