# generated using pymatgen
data_Er6Al24ZnIr2Ru5
_symmetry_space_group_name_H-M   'P 1'
_cell_length_a   8.82569661
_cell_length_b   8.82569611
_cell_length_c   9.49219645
_cell_angle_alpha   89.85799895
_cell_angle_beta   90.14200179
_cell_angle_gamma   119.93945459
_symmetry_Int_Tables_number   1
_chemical_formula_structural   Er6Al24ZnIr2Ru5
_chemical_formula_sum   'Er6 Al24 Zn1 Ir2 Ru5'
_cell_volume   640.70508691
_cell_formula_units_Z   1
loop_
 _symmetry_equiv_pos_site_id
 _symmetry_equiv_pos_as_xyz
  1  'x, y, z'
loop_
 _atom_site_type_symbol
 _atom_site_label
 _atom_site_symmetry_multiplicity
 _atom_site_fract_x
 _atom_site_fract_y
 _atom_site_fract_z
 _atom_site_occupancy
  Er  Er0  1  0.193028  0.386416  0.247614  1
  Er  Er1  1  0.806972  0.613584  0.752386  1
  Er  Er2  1  0.613584  0.806972  0.247614  1
  Er  Er3  1  0.386416  0.193028  0.752386  1
  Er  Er4  1  0.194230  0.805770  0.253198  1
  Er  Er5  1  0.805770  0.194230  0.746802  1
  Al  Al6  1  0.328915  0.671085  0.023933  1
  Al  Al7  1  0.671085  0.328915  0.976067  1
  Al  Al8  1  0.665549  0.334451  0.521233  1
  Al  Al9  1  0.334451  0.665549  0.478767  1
  Al  Al10  1  0.163438  0.324643  0.575045  1
  Al  Al11  1  0.836562  0.675357  0.424955  1
  Al  Al12  1  0.675357  0.836562  0.575045  1
  Al  Al13  1  0.849675  0.677474  0.081466  1
  Al  Al14  1  0.324643  0.163438  0.424955  1
  Al  Al15  1  0.150325  0.322526  0.918534  1
  Al  Al16  1  0.162494  0.837506  0.577115  1
  Al  Al17  1  0.322526  0.150325  0.081466  1
  Al  Al18  1  0.837506  0.162494  0.422885  1
  Al  Al19  1  0.677474  0.849675  0.918534  1
  Al  Al20  1  0.837224  0.162776  0.078410  1
  Al  Al21  1  0.162776  0.837224  0.921590  1
  Al  Al22  1  0.562197  0.122087  0.248495  1
  Al  Al23  1  0.437803  0.877913  0.751505  1
  Al  Al24  1  0.877913  0.437803  0.248495  1
  Al  Al25  1  0.122087  0.562197  0.751505  1
  Al  Al26  1  0.563679  0.436321  0.256211  1
  Al  Al27  1  0.436321  0.563679  0.743789  1
  Al  Al28  1  0.999281  0.000719  0.250587  1
  Al  Al29  1  0.000719  0.999281  0.749413  1
  Zn  Zn30  1  0.500000  0.500000  0.000000  1
  Ir  Ir31  1  0.500000  0.000000  0.500000  1
  Ir  Ir32  1  0.000000  0.500000  0.500000  1
  Ru  Ru33  1  0.500000  0.000000  0.000000  1
  Ru  Ru34  1  0.000000  0.500000  0.000000  1
  Ru  Ru35  1  0.500000  0.500000  0.500000  1
  Ru  Ru36  1  0.000000  0.000000  0.000000  1
  Ru  Ru37  1  0.000000  0.000000  0.500000  1
