# generated using pymatgen
data_Sc4Co17(TcP4)3
_symmetry_space_group_name_H-M   'P 1'
_cell_length_a   3.63612300
_cell_length_b   10.20481818
_cell_length_c   11.67856622
_cell_angle_alpha   89.97806417
_cell_angle_beta   90.00000000
_cell_angle_gamma   90.00000000
_symmetry_Int_Tables_number   1
_chemical_formula_structural   Sc4Co17(TcP4)3
_chemical_formula_sum   'Sc4 Co17 Tc3 P12'
_cell_volume   433.34454394
_cell_formula_units_Z   1
loop_
 _symmetry_equiv_pos_site_id
 _symmetry_equiv_pos_as_xyz
  1  'x, y, z'
loop_
 _atom_site_type_symbol
 _atom_site_label
 _atom_site_symmetry_multiplicity
 _atom_site_fract_x
 _atom_site_fract_y
 _atom_site_fract_z
 _atom_site_occupancy
  Sc  Sc0  1  0.250000  0.580965  0.702540  1
  Sc  Sc1  1  0.250000  0.915799  0.204912  1
  Sc  Sc2  1  0.750000  0.415053  0.295750  1
  Sc  Sc3  1  0.750000  0.083067  0.795015  1
  Co  Co4  1  0.750000  0.217874  0.508770  1
  Co  Co5  1  0.250000  0.406825  0.486143  1
  Co  Co6  1  0.250000  0.092006  0.986215  1
  Co  Co7  1  0.750000  0.590974  0.513137  1
  Co  Co8  1  0.750000  0.908555  0.013842  1
  Co  Co9  1  0.250000  0.220237  0.178201  1
  Co  Co10  1  0.250000  0.277688  0.676526  1
  Co  Co11  1  0.750000  0.778624  0.821957  1
  Co  Co12  1  0.750000  0.721748  0.322716  1
  Co  Co13  1  0.250000  0.886829  0.702175  1
  Co  Co14  1  0.250000  0.613080  0.203397  1
  Co  Co15  1  0.750000  0.116051  0.300128  1
  Co  Co16  1  0.750000  0.386548  0.796429  1
  Co  Co17  1  0.250000  0.463921  0.931237  1
  Co  Co18  1  0.250000  0.036390  0.431260  1
  Co  Co19  1  0.750000  0.536600  0.069635  1
  Co  Co20  1  0.750000  0.966392  0.569811  1
  Tc  Tc21  1  0.250000  0.712690  0.989388  1
  Tc  Tc22  1  0.250000  0.787281  0.490082  1
  Tc  Tc23  1  0.750000  0.287185  0.010476  1
  P  P24  1  0.250000  0.419481  0.116714  1
  P  P25  1  0.250000  0.081768  0.614209  1
  P  P26  1  0.750000  0.579263  0.883375  1
  P  P27  1  0.750000  0.921389  0.384498  1
  P  P28  1  0.250000  0.264664  0.863632  1
  P  P29  1  0.250000  0.235070  0.368522  1
  P  P30  1  0.750000  0.735610  0.135598  1
  P  P31  1  0.750000  0.765495  0.634193  1
  P  P32  1  0.250000  0.592514  0.389686  1
  P  P33  1  0.250000  0.906927  0.888542  1
  P  P34  1  0.750000  0.401355  0.608514  1
  P  P35  1  0.750000  0.094083  0.112775  1
