# generated using pymatgen
data_Hf4GaTeRh10
_symmetry_space_group_name_H-M   'P 1'
_cell_length_a   4.11001200
_cell_length_b   5.62526721
_cell_length_c   11.03106738
_cell_angle_alpha   89.96935317
_cell_angle_beta   90.00000000
_cell_angle_gamma   90.00000000
_symmetry_Int_Tables_number   1
_chemical_formula_structural   Hf4GaTeRh10
_chemical_formula_sum   'Hf4 Ga1 Te1 Rh10'
_cell_volume   255.03731176
_cell_formula_units_Z   1
loop_
 _symmetry_equiv_pos_site_id
 _symmetry_equiv_pos_as_xyz
  1  'x, y, z'
loop_
 _atom_site_type_symbol
 _atom_site_label
 _atom_site_symmetry_multiplicity
 _atom_site_fract_x
 _atom_site_fract_y
 _atom_site_fract_z
 _atom_site_occupancy
  Hf  Hf0  1  0.500000  0.172963  0.648843  1
  Hf  Hf1  1  0.500000  0.827037  0.351157  1
  Hf  Hf2  1  0.500000  0.684884  0.864603  1
  Hf  Hf3  1  0.500000  0.315116  0.135397  1
  Ga  Ga4  1  0.000000  0.000000  0.000000  1
  Te  Te5  1  0.000000  0.500000  0.500000  1
  Rh  Rh6  1  0.500000  0.193899  0.891305  1
  Rh  Rh7  1  0.500000  0.806101  0.108695  1
  Rh  Rh8  1  0.500000  0.699035  0.612190  1
  Rh  Rh9  1  0.500000  0.300965  0.387810  1
  Rh  Rh10  1  0.000000  0.435023  0.747559  1
  Rh  Rh11  1  0.000000  0.564977  0.252441  1
  Rh  Rh12  1  0.000000  0.000000  0.500000  1
  Rh  Rh13  1  0.000000  0.500000  0.000000  1
  Rh  Rh14  1  0.000000  0.063995  0.243121  1
  Rh  Rh15  1  0.000000  0.936005  0.756879  1
