# generated using pymatgen
data_NaThAgTe3
_symmetry_space_group_name_H-M   'P 1'
_cell_length_a   7.78592488
_cell_length_b   7.78592508
_cell_length_c   11.62636500
_cell_angle_alpha   90.00000000
_cell_angle_beta   90.00000000
_cell_angle_gamma   146.48090434
_symmetry_Int_Tables_number   1
_chemical_formula_structural   NaThAgTe3
_chemical_formula_sum   'Na2 Th2 Ag2 Te6'
_cell_volume   389.19968769
_cell_formula_units_Z   2
loop_
 _symmetry_equiv_pos_site_id
 _symmetry_equiv_pos_as_xyz
  1  'x, y, z'
loop_
 _atom_site_type_symbol
 _atom_site_label
 _atom_site_symmetry_multiplicity
 _atom_site_fract_x
 _atom_site_fract_y
 _atom_site_fract_z
 _atom_site_occupancy
  Na  Na0  1  0.732494  0.267504  0.250000  1
  Na  Na1  1  0.267504  0.732494  0.750000  1
  Th  Th2  1  0.499999  0.499999  0.000000  1
  Th  Th3  1  0.499999  0.499999  0.500000  1
  Ag  Ag4  1  0.027818  0.972180  0.250000  1
  Ag  Ag5  1  0.972180  0.027818  0.750000  1
  Te  Te6  1  0.141513  0.858485  0.058595  1
  Te  Te7  1  0.409780  0.590218  0.250000  1
  Te  Te8  1  0.141513  0.858485  0.441405  1
  Te  Te9  1  0.858485  0.141513  0.558595  1
  Te  Te10  1  0.590218  0.409780  0.750000  1
  Te  Te11  1  0.858485  0.141513  0.941405  1
