# generated using pymatgen
data_Yb2Er3ZnPb3
_symmetry_space_group_name_H-M   'P 1'
_cell_length_a   9.13984200
_cell_length_b   9.13984269
_cell_length_c   6.91998600
_cell_angle_alpha   90.00000000
_cell_angle_beta   90.00000000
_cell_angle_gamma   120.00001198
_symmetry_Int_Tables_number   1
_chemical_formula_structural   Yb2Er3ZnPb3
_chemical_formula_sum   'Yb4 Er6 Zn2 Pb6'
_cell_volume   500.62577321
_cell_formula_units_Z   2
loop_
 _symmetry_equiv_pos_site_id
 _symmetry_equiv_pos_as_xyz
  1  'x, y, z'
loop_
 _atom_site_type_symbol
 _atom_site_label
 _atom_site_symmetry_multiplicity
 _atom_site_fract_x
 _atom_site_fract_y
 _atom_site_fract_z
 _atom_site_occupancy
  Yb  Yb0  1  0.333333  0.666667  0.000000  1
  Yb  Yb1  1  0.666667  0.333333  0.000000  1
  Yb  Yb2  1  0.666667  0.333333  0.500000  1
  Yb  Yb3  1  0.333333  0.666667  0.500000  1
  Er  Er4  1  0.257927  0.000000  0.250000  1
  Er  Er5  1  0.742073  0.000000  0.750000  1
  Er  Er6  1  0.000000  0.257927  0.250000  1
  Er  Er7  1  0.000000  0.742073  0.750000  1
  Er  Er8  1  0.742073  0.742073  0.250000  1
  Er  Er9  1  0.257927  0.257927  0.750000  1
  Zn  Zn10  1  0.000000  0.000000  0.000000  1
  Zn  Zn11  1  0.000000  0.000000  0.500000  1
  Pb  Pb12  1  0.612582  0.000000  0.250000  1
  Pb  Pb13  1  0.387418  0.000000  0.750000  1
  Pb  Pb14  1  0.000000  0.612582  0.250000  1
  Pb  Pb15  1  0.000000  0.387418  0.750000  1
  Pb  Pb16  1  0.387418  0.387418  0.250000  1
  Pb  Pb17  1  0.612582  0.612582  0.750000  1
