# generated using pymatgen
data_Ce2Ho(SnRh)3
_symmetry_space_group_name_H-M   'P 1'
_cell_length_a   7.50947999
_cell_length_b   7.47523353
_cell_length_c   4.02495800
_cell_angle_alpha   90.00000000
_cell_angle_beta   90.00000000
_cell_angle_gamma   119.84926008
_symmetry_Int_Tables_number   1
_chemical_formula_structural   Ce2Ho(SnRh)3
_chemical_formula_sum   'Ce2 Ho1 Sn3 Rh3'
_cell_volume   195.96760532
_cell_formula_units_Z   1
loop_
 _symmetry_equiv_pos_site_id
 _symmetry_equiv_pos_as_xyz
  1  'x, y, z'
loop_
 _atom_site_type_symbol
 _atom_site_label
 _atom_site_symmetry_multiplicity
 _atom_site_fract_x
 _atom_site_fract_y
 _atom_site_fract_z
 _atom_site_occupancy
  Ce  Ce0  1  0.586116  0.585562  0.000000  1
  Ce  Ce1  1  0.413884  0.999447  0.000000  1
  Ho  Ho2  1  0.000000  0.408591  0.000000  1
  Sn  Sn3  1  0.249943  0.255055  0.500000  1
  Sn  Sn4  1  0.000000  0.741425  0.500000  1
  Sn  Sn5  1  0.750057  0.005112  0.500000  1
  Rh  Rh6  1  0.659342  0.332232  0.500000  1
  Rh  Rh7  1  0.340658  0.672891  0.500000  1
  Rh  Rh8  1  0.000000  0.999685  0.000000  1
