# generated using pymatgen
data_Tm10GaBi5C2
_symmetry_space_group_name_H-M   'P 1'
_cell_length_a   8.96768529
_cell_length_b   8.96768350
_cell_length_c   6.44313800
_cell_angle_alpha   90.00000000
_cell_angle_beta   90.00000000
_cell_angle_gamma   120.59843273
_symmetry_Int_Tables_number   1
_chemical_formula_structural   Tm10GaBi5C2
_chemical_formula_sum   'Tm10 Ga1 Bi5 C2'
_cell_volume   446.00332652
_cell_formula_units_Z   1
loop_
 _symmetry_equiv_pos_site_id
 _symmetry_equiv_pos_as_xyz
  1  'x, y, z'
loop_
 _atom_site_type_symbol
 _atom_site_label
 _atom_site_symmetry_multiplicity
 _atom_site_fract_x
 _atom_site_fract_y
 _atom_site_fract_z
 _atom_site_occupancy
  Tm  Tm0  1  0.654195  0.335756  0.994587  1
  Tm  Tm1  1  0.335756  0.654195  0.994587  1
  Tm  Tm2  1  0.335756  0.654195  0.505413  1
  Tm  Tm3  1  0.654195  0.335756  0.505413  1
  Tm  Tm4  1  0.792613  0.792613  0.750000  1
  Tm  Tm5  1  0.215920  0.013461  0.750000  1
  Tm  Tm6  1  0.013461  0.215920  0.750000  1
  Tm  Tm7  1  0.209485  0.209485  0.250000  1
  Tm  Tm8  1  0.792842  0.999566  0.250000  1
  Tm  Tm9  1  0.999566  0.792842  0.250000  1
  Ga  Ga10  1  0.404875  0.404875  0.750000  1
  Bi  Bi11  1  0.601461  0.001401  0.750000  1
  Bi  Bi12  1  0.001401  0.601461  0.750000  1
  Bi  Bi13  1  0.594686  0.594686  0.250000  1
  Bi  Bi14  1  0.400311  0.994183  0.250000  1
  Bi  Bi15  1  0.994183  0.400311  0.250000  1
  C  C16  1  0.999647  0.999647  0.001244  1
  C  C17  1  0.999647  0.999647  0.498756  1
