# generated using pymatgen
data_HoEr3Tc2(B8Mo)2
_symmetry_space_group_name_H-M   'P 1'
_cell_length_a   3.59591000
_cell_length_b   5.97979439
_cell_length_c   11.56602507
_cell_angle_alpha   89.87705671
_cell_angle_beta   90.00000000
_cell_angle_gamma   90.00000000
_symmetry_Int_Tables_number   1
_chemical_formula_structural   HoEr3Tc2(B8Mo)2
_chemical_formula_sum   'Ho1 Er3 Tc2 B16 Mo2'
_cell_volume   248.70137945
_cell_formula_units_Z   1
loop_
 _symmetry_equiv_pos_site_id
 _symmetry_equiv_pos_as_xyz
  1  'x, y, z'
loop_
 _atom_site_type_symbol
 _atom_site_label
 _atom_site_symmetry_multiplicity
 _atom_site_fract_x
 _atom_site_fract_y
 _atom_site_fract_z
 _atom_site_occupancy
  Ho  Ho0  1  0.000000  0.627273  0.348484  1
  Er  Er1  1  0.000000  0.372671  0.651472  1
  Er  Er2  1  0.000000  0.127680  0.148662  1
  Er  Er3  1  0.000000  0.872308  0.851311  1
  Tc  Tc4  1  0.000000  0.634834  0.086528  1
  Tc  Tc5  1  0.000000  0.365166  0.913297  1
  B  B6  1  0.500000  0.785909  0.184373  1
  B  B7  1  0.500000  0.214147  0.815479  1
  B  B8  1  0.500000  0.289533  0.312640  1
  B  B9  1  0.500000  0.710089  0.687381  1
  B  B10  1  0.500000  0.864252  0.030873  1
  B  B11  1  0.500000  0.135779  0.969083  1
  B  B12  1  0.500000  0.367679  0.467710  1
  B  B13  1  0.500000  0.632138  0.532541  1
  B  B14  1  0.500000  0.884936  0.452329  1
  B  B15  1  0.500000  0.115456  0.547877  1
  B  B16  1  0.500000  0.386634  0.047273  1
  B  B17  1  0.500000  0.613305  0.952649  1
  B  B18  1  0.500000  0.976017  0.305020  1
  B  B19  1  0.500000  0.024241  0.695034  1
  B  B20  1  0.500000  0.477152  0.191564  1
  B  B21  1  0.500000  0.522705  0.808246  1
  Mo  Mo22  1  0.000000  0.129624  0.415145  1
  Mo  Mo23  1  0.000000  0.870471  0.585033  1
