# generated using pymatgen
data_Li4VNi9P7
_symmetry_space_group_name_H-M   'P 1'
_cell_length_a   9.06221677
_cell_length_b   9.01741219
_cell_length_c   3.59407900
_cell_angle_alpha   90.00000000
_cell_angle_beta   90.00000000
_cell_angle_gamma   119.96448371
_symmetry_Int_Tables_number   1
_chemical_formula_structural   Li4VNi9P7
_chemical_formula_sum   'Li4 V1 Ni9 P7'
_cell_volume   254.44266505
_cell_formula_units_Z   1
loop_
 _symmetry_equiv_pos_site_id
 _symmetry_equiv_pos_as_xyz
  1  'x, y, z'
loop_
 _atom_site_type_symbol
 _atom_site_label
 _atom_site_symmetry_multiplicity
 _atom_site_fract_x
 _atom_site_fract_y
 _atom_site_fract_z
 _atom_site_occupancy
  Li  Li0  1  0.898537  0.120157  0.500000  1
  Li  Li1  1  0.218592  0.099296  0.500000  1
  Li  Li2  1  0.334360  0.666057  0.000000  1
  Li  Li3  1  0.666330  0.333957  0.500000  1
  V  V4  1  0.876489  0.782701  0.500000  1
  Ni  Ni5  1  0.713161  0.882496  0.000000  1
  Ni  Ni6  1  0.163946  0.282416  0.000000  1
  Ni  Ni7  1  0.124210  0.834433  0.000000  1
  Ni  Ni8  1  0.628166  0.568210  0.000000  1
  Ni  Ni9  1  0.940161  0.372857  0.000000  1
  Ni  Ni10  1  0.430169  0.058332  0.000000  1
  Ni  Ni11  1  0.563603  0.953589  0.500000  1
  Ni  Ni12  1  0.390944  0.436702  0.500000  1
  Ni  Ni13  1  0.050644  0.610544  0.500000  1
  P  P14  1  0.588020  0.712546  0.500000  1
  P  P15  1  0.128778  0.416550  0.500000  1
  P  P16  1  0.289646  0.871397  0.500000  1
  P  P17  1  0.996881  0.992234  0.000000  1
  P  P18  1  0.878629  0.581825  0.000000  1
  P  P19  1  0.697878  0.124636  0.000000  1
  P  P20  1  0.420855  0.299067  0.000000  1
