# generated using pymatgen
data_EuU7(PbSe5)4
_symmetry_space_group_name_H-M   'P 1'
_cell_length_a   8.08339350
_cell_length_b   8.82616467
_cell_length_c   12.67724200
_cell_angle_alpha   90.00055828
_cell_angle_beta   90.02017269
_cell_angle_gamma   89.77233941
_symmetry_Int_Tables_number   1
_chemical_formula_structural   EuU7(PbSe5)4
_chemical_formula_sum   'Eu1 U7 Pb4 Se20'
_cell_volume   904.45522583
_cell_formula_units_Z   1
loop_
 _symmetry_equiv_pos_site_id
 _symmetry_equiv_pos_as_xyz
  1  'x, y, z'
loop_
 _atom_site_type_symbol
 _atom_site_label
 _atom_site_symmetry_multiplicity
 _atom_site_fract_x
 _atom_site_fract_y
 _atom_site_fract_z
 _atom_site_occupancy
  Eu  Eu0  1  0.022860  0.498696  0.320690  1
  U  U1  1  0.515121  0.499922  0.181650  1
  U  U2  1  0.984609  0.504845  0.682187  1
  U  U3  1  0.479363  0.496747  0.822004  1
  U  U4  1  0.066753  0.744074  0.002876  1
  U  U5  1  0.569458  0.258025  0.499546  1
  U  U6  1  0.929585  0.258436  0.996031  1
  U  U7  1  0.422175  0.740817  0.501865  1
  Pb  Pb8  1  0.983278  0.962733  0.295778  1
  Pb  Pb9  1  0.504501  0.030503  0.196752  1
  Pb  Pb10  1  0.019064  0.043931  0.671995  1
  Pb  Pb11  1  0.517695  0.954572  0.819538  1
  Se  Se12  1  0.164966  0.456384  0.089350  1
  Se  Se13  1  0.652654  0.540375  0.402381  1
  Se  Se14  1  0.837362  0.546275  0.900168  1
  Se  Se15  1  0.335595  0.453256  0.599989  1
  Se  Se16  1  0.444557  0.712428  0.998228  1
  Se  Se17  1  0.938460  0.284461  0.512244  1
  Se  Se18  1  0.554120  0.294388  0.999131  1
  Se  Se19  1  0.057048  0.722954  0.514055  1
  Se  Se20  1  0.350183  0.275839  0.316708  1
  Se  Se21  1  0.826279  0.724367  0.171162  1
  Se  Se22  1  0.651643  0.711777  0.683408  1
  Se  Se23  1  0.157875  0.284736  0.816022  1
  Se  Se24  1  0.654020  0.968116  0.414927  1
  Se  Se25  1  0.156114  0.033893  0.085350  1
  Se  Se26  1  0.356409  0.031469  0.593539  1
  Se  Se27  1  0.852460  0.969774  0.909355  1
  Se  Se28  1  0.312370  0.734694  0.284778  1
  Se  Se29  1  0.802854  0.262390  0.208595  1
  Se  Se30  1  0.686888  0.279438  0.718439  1
  Se  Se31  1  0.193676  0.719685  0.791264  1
