# generated using pymatgen
data_Ca4Sn2PdRh3
_symmetry_space_group_name_H-M   'P 1'
_cell_length_a   5.84749766
_cell_length_b   5.84028096
_cell_length_c   8.08430044
_cell_angle_alpha   102.32280164
_cell_angle_beta   102.80816593
_cell_angle_gamma   59.03498709
_symmetry_Int_Tables_number   1
_chemical_formula_structural   Ca4Sn2PdRh3
_chemical_formula_sum   'Ca4 Sn2 Pd1 Rh3'
_cell_volume   229.21346972
_cell_formula_units_Z   1
loop_
 _symmetry_equiv_pos_site_id
 _symmetry_equiv_pos_as_xyz
  1  'x, y, z'
loop_
 _atom_site_type_symbol
 _atom_site_label
 _atom_site_symmetry_multiplicity
 _atom_site_fract_x
 _atom_site_fract_y
 _atom_site_fract_z
 _atom_site_occupancy
  Ca  Ca0  1  0.507715  0.785701  0.151345  1
  Ca  Ca1  1  0.209329  0.498499  0.354163  1
  Ca  Ca2  1  0.791917  0.504034  0.644729  1
  Ca  Ca3  1  0.492016  0.208848  0.850638  1
  Sn  Sn4  1  0.868840  0.126017  0.253946  1
  Sn  Sn5  1  0.131514  0.865990  0.745024  1
  Pd  Pd6  1  0.995052  0.278705  0.005302  1
  Rh  Rh7  1  0.714634  0.005977  0.496300  1
  Rh  Rh8  1  0.281674  0.994866  0.506156  1
  Rh  Rh9  1  0.007310  0.731363  0.992395  1
