# generated using pymatgen
data_U4(PtAu3)3
_symmetry_space_group_name_H-M   'P 1'
_cell_length_a   6.65452841
_cell_length_b   6.65452812
_cell_length_c   9.25227300
_cell_angle_alpha   90.00000000
_cell_angle_beta   90.00000000
_cell_angle_gamma   125.93248497
_symmetry_Int_Tables_number   1
_chemical_formula_structural   U4(PtAu3)3
_chemical_formula_sum   'U4 Pt3 Au9'
_cell_volume   331.75080317
_cell_formula_units_Z   1
loop_
 _symmetry_equiv_pos_site_id
 _symmetry_equiv_pos_as_xyz
  1  'x, y, z'
loop_
 _atom_site_type_symbol
 _atom_site_label
 _atom_site_symmetry_multiplicity
 _atom_site_fract_x
 _atom_site_fract_y
 _atom_site_fract_z
 _atom_site_occupancy
  U  U0  1  0.005335  0.994665  0.484538  1
  U  U1  1  0.005335  0.994665  0.015462  1
  U  U2  1  0.364704  0.635296  0.750000  1
  U  U3  1  0.637407  0.362593  0.250000  1
  Pt  Pt4  1  0.504463  0.495537  0.501255  1
  Pt  Pt5  1  0.504463  0.495537  0.998745  1
  Pt  Pt6  1  0.168588  0.831412  0.250000  1
  Au  Au7  1  0.499715  0.001586  0.502262  1
  Au  Au8  1  0.998414  0.500285  0.502262  1
  Au  Au9  1  0.499715  0.001586  0.997738  1
  Au  Au10  1  0.998414  0.500285  0.997738  1
  Au  Au11  1  0.156377  0.374401  0.250000  1
  Au  Au12  1  0.625599  0.843623  0.250000  1
  Au  Au13  1  0.833209  0.166791  0.750000  1
  Au  Au14  1  0.846459  0.648196  0.750000  1
  Au  Au15  1  0.351804  0.153541  0.750000  1
