# generated using pymatgen
data_Eu3Ga3Ru2
_symmetry_space_group_name_H-M   'P 1'
_cell_length_a   5.86115400
_cell_length_b   8.27630900
_cell_length_c   14.66354100
_cell_angle_alpha   90.00000000
_cell_angle_beta   90.00000000
_cell_angle_gamma   90.00000000
_symmetry_Int_Tables_number   1
_chemical_formula_structural   Eu3Ga3Ru2
_chemical_formula_sum   'Eu12 Ga12 Ru8'
_cell_volume   711.30962805
_cell_formula_units_Z   4
loop_
 _symmetry_equiv_pos_site_id
 _symmetry_equiv_pos_as_xyz
  1  'x, y, z'
loop_
 _atom_site_type_symbol
 _atom_site_label
 _atom_site_symmetry_multiplicity
 _atom_site_fract_x
 _atom_site_fract_y
 _atom_site_fract_z
 _atom_site_occupancy
  Eu  Eu0  1  0.110882  0.547383  0.608862  1
  Eu  Eu1  1  0.608836  0.700660  0.750000  1
  Eu  Eu2  1  0.610882  0.952617  0.108862  1
  Eu  Eu3  1  0.389118  0.047383  0.891138  1
  Eu  Eu4  1  0.610882  0.952617  0.391138  1
  Eu  Eu5  1  0.891164  0.200660  0.750000  1
  Eu  Eu6  1  0.391164  0.299340  0.250000  1
  Eu  Eu7  1  0.389118  0.047383  0.608862  1
  Eu  Eu8  1  0.889118  0.452617  0.108862  1
  Eu  Eu9  1  0.110882  0.547383  0.891138  1
  Eu  Eu10  1  0.108836  0.799340  0.250000  1
  Eu  Eu11  1  0.889118  0.452617  0.391138  1
  Ga  Ga12  1  0.078341  0.850360  0.750000  1
  Ga  Ga13  1  0.872248  0.185352  0.960329  1
  Ga  Ga14  1  0.921659  0.149640  0.250000  1
  Ga  Ga15  1  0.578341  0.649640  0.250000  1
  Ga  Ga16  1  0.127752  0.814648  0.460329  1
  Ga  Ga17  1  0.372248  0.314648  0.039671  1
  Ga  Ga18  1  0.627752  0.685352  0.539671  1
  Ga  Ga19  1  0.627752  0.685352  0.960329  1
  Ga  Ga20  1  0.372248  0.314648  0.460329  1
  Ga  Ga21  1  0.127752  0.814648  0.039671  1
  Ga  Ga22  1  0.421659  0.350360  0.750000  1
  Ga  Ga23  1  0.872248  0.185352  0.539671  1
  Ru  Ru24  1  0.897921  0.898279  0.595797  1
  Ru  Ru25  1  0.602079  0.398279  0.904203  1
  Ru  Ru26  1  0.897921  0.898279  0.904203  1
  Ru  Ru27  1  0.397921  0.601721  0.095797  1
  Ru  Ru28  1  0.102079  0.101721  0.404203  1
  Ru  Ru29  1  0.397921  0.601721  0.404203  1
  Ru  Ru30  1  0.602079  0.398279  0.595797  1
  Ru  Ru31  1  0.102079  0.101721  0.095797  1
