# generated using pymatgen
data_Dy13Tm3(HgRh)4
_symmetry_space_group_name_H-M   'P 1'
_cell_length_a   9.56285494
_cell_length_b   9.56285589
_cell_length_c   9.57492980
_cell_angle_alpha   60.04170703
_cell_angle_beta   60.04170276
_cell_angle_gamma   59.99999685
_symmetry_Int_Tables_number   1
_chemical_formula_structural   Dy13Tm3(HgRh)4
_chemical_formula_sum   'Dy13 Tm3 Hg4 Rh4'
_cell_volume   619.53985223
_cell_formula_units_Z   1
loop_
 _symmetry_equiv_pos_site_id
 _symmetry_equiv_pos_as_xyz
  1  'x, y, z'
loop_
 _atom_site_type_symbol
 _atom_site_label
 _atom_site_symmetry_multiplicity
 _atom_site_fract_x
 _atom_site_fract_y
 _atom_site_fract_z
 _atom_site_occupancy
  Dy  Dy0  1  0.936313  0.936313  0.562958  1
  Dy  Dy1  1  0.148716  0.148716  0.553852  1
  Dy  Dy2  1  0.564416  0.936313  0.562958  1
  Dy  Dy3  1  0.147914  0.147914  0.149014  1
  Dy  Dy4  1  0.311855  0.311855  0.687700  1
  Dy  Dy5  1  0.936313  0.564416  0.562958  1
  Dy  Dy6  1  0.563580  0.563580  0.937257  1
  Dy  Dy7  1  0.563580  0.935583  0.937257  1
  Dy  Dy8  1  0.935583  0.563580  0.937257  1
  Dy  Dy9  1  0.147914  0.555158  0.149014  1
  Dy  Dy10  1  0.311855  0.688591  0.687700  1
  Dy  Dy11  1  0.688591  0.311855  0.687700  1
  Dy  Dy12  1  0.555158  0.147914  0.149014  1
  Tm  Tm13  1  0.687733  0.313090  0.311444  1
  Tm  Tm14  1  0.687733  0.687733  0.311444  1
  Tm  Tm15  1  0.313090  0.687733  0.311444  1
  Hg  Hg16  1  0.915760  0.915760  0.252718  1
  Hg  Hg17  1  0.252554  0.915630  0.916186  1
  Hg  Hg18  1  0.915630  0.252554  0.916186  1
  Hg  Hg19  1  0.915630  0.915630  0.916186  1
  Rh  Rh20  1  0.357861  0.357861  0.356718  1
  Rh  Rh21  1  0.927562  0.357861  0.356718  1
  Rh  Rh22  1  0.356800  0.356800  0.929601  1
  Rh  Rh23  1  0.357861  0.927562  0.356718  1
