# generated using pymatgen
data_Hf5Zr8Ta7Si16
_symmetry_space_group_name_H-M   'P 1'
_cell_length_a   6.96746508
_cell_length_b   6.97185511
_cell_length_c   12.82831521
_cell_angle_alpha   90.21002351
_cell_angle_beta   90.18652452
_cell_angle_gamma   89.83116027
_symmetry_Int_Tables_number   1
_chemical_formula_structural   Hf5Zr8Ta7Si16
_chemical_formula_sum   'Hf5 Zr8 Ta7 Si16'
_cell_volume   623.14008223
_cell_formula_units_Z   1
loop_
 _symmetry_equiv_pos_site_id
 _symmetry_equiv_pos_as_xyz
  1  'x, y, z'
loop_
 _atom_site_type_symbol
 _atom_site_label
 _atom_site_symmetry_multiplicity
 _atom_site_fract_x
 _atom_site_fract_y
 _atom_site_fract_z
 _atom_site_occupancy
  Hf  Hf0  1  0.997827  0.851227  0.625502  1
  Hf  Hf1  1  0.648409  0.495696  0.877320  1
  Hf  Hf2  1  0.502004  0.350945  0.622901  1
  Hf  Hf3  1  0.499750  0.647869  0.124354  1
  Hf  Hf4  1  0.147164  0.001021  0.873905  1
  Zr  Zr5  1  0.000865  0.654348  0.033410  1
  Zr  Zr6  1  0.000523  0.345058  0.527980  1
  Zr  Zr7  1  0.655260  0.998537  0.971410  1
  Zr  Zr8  1  0.153277  0.498356  0.783435  1
  Zr  Zr9  1  0.845359  0.498702  0.281007  1
  Zr  Zr10  1  0.501265  0.156119  0.220311  1
  Zr  Zr11  1  0.499452  0.845316  0.715319  1
  Zr  Zr12  1  0.343383  0.001439  0.466803  1
  Ta  Ta13  1  0.350826  0.505192  0.374803  1
  Ta  Ta14  1  0.852111  0.995342  0.374481  1
  Ta  Ta15  1  0.008284  0.148564  0.126245  1
  Ta  Ta16  1  0.671834  0.673018  0.498205  1
  Ta  Ta17  1  0.826363  0.172540  0.749912  1
  Ta  Ta18  1  0.171863  0.830368  0.251064  1
  Ta  Ta19  1  0.327381  0.325523  0.001785  1
  Si  Si20  1  0.047395  0.700846  0.434447  1
  Si  Si21  1  0.954399  0.298999  0.937646  1
  Si  Si22  1  0.700656  0.047692  0.562479  1
  Si  Si23  1  0.201197  0.451960  0.186593  1
  Si  Si24  1  0.800354  0.545790  0.685019  1
  Si  Si25  1  0.453612  0.197632  0.815081  1
  Si  Si26  1  0.548078  0.799207  0.314813  1
  Si  Si27  1  0.299592  0.954017  0.065411  1
  Si  Si28  1  0.853665  0.796309  0.821472  1
  Si  Si29  1  0.137356  0.207792  0.322465  1
  Si  Si30  1  0.797828  0.864558  0.178825  1
  Si  Si31  1  0.295013  0.642368  0.568266  1
  Si  Si32  1  0.710360  0.354761  0.074257  1
  Si  Si33  1  0.639564  0.293563  0.425442  1
  Si  Si34  1  0.356074  0.703851  0.929384  1
  Si  Si35  1  0.201656  0.145473  0.678245  1
