# generated using pymatgen
data_HfZr4Ti(NbP2)2
_symmetry_space_group_name_H-M   'P 1'
_cell_length_a   3.57896800
_cell_length_b   6.90837917
_cell_length_c   8.42065825
_cell_angle_alpha   89.69242158
_cell_angle_beta   90.00000000
_cell_angle_gamma   90.00000000
_symmetry_Int_Tables_number   1
_chemical_formula_structural   HfZr4Ti(NbP2)2
_chemical_formula_sum   'Hf1 Zr4 Ti1 Nb2 P4'
_cell_volume   208.19666350
_cell_formula_units_Z   1
loop_
 _symmetry_equiv_pos_site_id
 _symmetry_equiv_pos_as_xyz
  1  'x, y, z'
loop_
 _atom_site_type_symbol
 _atom_site_label
 _atom_site_symmetry_multiplicity
 _atom_site_fract_x
 _atom_site_fract_y
 _atom_site_fract_z
 _atom_site_occupancy
  Hf  Hf0  1  0.250000  0.138200  0.061144  1
  Zr  Zr1  1  0.250000  0.535702  0.829226  1
  Zr  Zr2  1  0.750000  0.965819  0.334919  1
  Zr  Zr3  1  0.250000  0.032965  0.665816  1
  Zr  Zr4  1  0.750000  0.473238  0.173948  1
  Ti  Ti5  1  0.250000  0.635481  0.440319  1
  Nb  Nb6  1  0.750000  0.855403  0.939130  1
  Nb  Nb7  1  0.750000  0.365305  0.559344  1
  P  P8  1  0.750000  0.737284  0.636073  1
  P  P9  1  0.250000  0.760992  0.145426  1
  P  P10  1  0.750000  0.236169  0.851963  1
  P  P11  1  0.250000  0.263443  0.362694  1
