# generated using pymatgen
data_Nb5Co16(P4Ru)3
_symmetry_space_group_name_H-M   'P 1'
_cell_length_a   11.77332000
_cell_length_b   11.77332069
_cell_length_c   3.61708900
_cell_angle_alpha   90.00000000
_cell_angle_beta   90.00000000
_cell_angle_gamma   119.99999807
_symmetry_Int_Tables_number   1
_chemical_formula_structural   Nb5Co16(P4Ru)3
_chemical_formula_sum   'Nb5 Co16 P12 Ru3'
_cell_volume   434.19793840
_cell_formula_units_Z   1
loop_
 _symmetry_equiv_pos_site_id
 _symmetry_equiv_pos_as_xyz
  1  'x, y, z'
loop_
 _atom_site_type_symbol
 _atom_site_label
 _atom_site_symmetry_multiplicity
 _atom_site_fract_x
 _atom_site_fract_y
 _atom_site_fract_z
 _atom_site_occupancy
  Nb  Nb0  1  0.666667  0.333333  0.000000  1
  Nb  Nb1  1  0.333333  0.666667  0.000000  1
  Nb  Nb2  1  0.823770  0.823770  0.500000  1
  Nb  Nb3  1  0.176230  0.000000  0.500000  1
  Nb  Nb4  1  0.000000  0.176230  0.500000  1
  Co  Co5  1  0.192246  0.373440  0.000000  1
  Co  Co6  1  0.181194  0.807754  0.000000  1
  Co  Co7  1  0.818806  0.626560  0.000000  1
  Co  Co8  1  0.807754  0.181194  0.000000  1
  Co  Co9  1  0.373440  0.192246  0.000000  1
  Co  Co10  1  0.129553  0.484427  0.500000  1
  Co  Co11  1  0.354875  0.870447  0.500000  1
  Co  Co12  1  0.515573  0.645125  0.500000  1
  Co  Co13  1  0.645125  0.515573  0.500000  1
  Co  Co14  1  0.870447  0.354875  0.500000  1
  Co  Co15  1  0.484427  0.129553  0.500000  1
  Co  Co16  1  0.000000  0.000000  0.000000  1
  Co  Co17  1  0.720788  0.000000  0.500000  1
  Co  Co18  1  0.000000  0.720788  0.500000  1
  Co  Co19  1  0.626560  0.818806  0.000000  1
  Co  Co20  1  0.279212  0.279212  0.500000  1
  P  P21  1  0.643511  0.643511  0.000000  1
  P  P22  1  0.356489  0.000000  0.000000  1
  P  P23  1  0.000000  0.356489  0.000000  1
  P  P24  1  0.482645  0.315301  0.500000  1
  P  P25  1  0.684699  0.167344  0.500000  1
  P  P26  1  0.832656  0.517355  0.500000  1
  P  P27  1  0.517355  0.832656  0.500000  1
  P  P28  1  0.167344  0.684699  0.500000  1
  P  P29  1  0.823284  0.000000  0.000000  1
  P  P30  1  0.000000  0.823284  0.000000  1
  P  P31  1  0.315301  0.482645  0.500000  1
  P  P32  1  0.176716  0.176716  0.000000  1
  Ru  Ru33  1  0.450045  0.450045  0.000000  1
  Ru  Ru34  1  0.549955  0.000000  0.000000  1
  Ru  Ru35  1  0.000000  0.549955  0.000000  1
