# generated using pymatgen
data_Ca6PrSm(Si3Au)4
_symmetry_space_group_name_H-M   'P 1'
_cell_length_a   8.31497600
_cell_length_b   8.31497648
_cell_length_c   8.52714600
_cell_angle_alpha   90.00000000
_cell_angle_beta   90.00000000
_cell_angle_gamma   119.99999810
_symmetry_Int_Tables_number   1
_chemical_formula_structural   Ca6PrSm(Si3Au)4
_chemical_formula_sum   'Ca6 Pr1 Sm1 Si12 Au4'
_cell_volume   510.57125909
_cell_formula_units_Z   1
loop_
 _symmetry_equiv_pos_site_id
 _symmetry_equiv_pos_as_xyz
  1  'x, y, z'
loop_
 _atom_site_type_symbol
 _atom_site_label
 _atom_site_symmetry_multiplicity
 _atom_site_fract_x
 _atom_site_fract_y
 _atom_site_fract_z
 _atom_site_occupancy
  Ca  Ca0  1  0.499405  0.500595  0.750000  1
  Ca  Ca1  1  0.500578  0.499422  0.250000  1
  Ca  Ca2  1  0.001190  0.500595  0.750000  1
  Ca  Ca3  1  0.998842  0.499422  0.250000  1
  Ca  Ca4  1  0.499405  0.998810  0.750000  1
  Ca  Ca5  1  0.500578  0.001158  0.250000  1
  Pr  Pr6  1  0.000000  0.000000  0.250000  1
  Sm  Sm7  1  0.000000  0.000000  0.750000  1
  Si  Si8  1  0.837457  0.162543  0.998320  1
  Si  Si9  1  0.162550  0.837450  0.997789  1
  Si  Si10  1  0.325087  0.162543  0.998320  1
  Si  Si11  1  0.162550  0.837450  0.502211  1
  Si  Si12  1  0.674899  0.837450  0.997789  1
  Si  Si13  1  0.837457  0.162543  0.501680  1
  Si  Si14  1  0.837457  0.674913  0.998320  1
  Si  Si15  1  0.674899  0.837450  0.502211  1
  Si  Si16  1  0.162550  0.325101  0.997789  1
  Si  Si17  1  0.325087  0.162543  0.501680  1
  Si  Si18  1  0.162550  0.325101  0.502211  1
  Si  Si19  1  0.837457  0.674913  0.501680  1
  Au  Au20  1  0.666667  0.333333  0.997252  1
  Au  Au21  1  0.333333  0.666667  0.002081  1
  Au  Au22  1  0.333333  0.666667  0.497919  1
  Au  Au23  1  0.666667  0.333333  0.502748  1
