# generated using pymatgen
data_Ho12Th4MgIn3Ir4
_symmetry_space_group_name_H-M   'P 1'
_cell_length_a   9.77647126
_cell_length_b   9.77534037
_cell_length_c   9.77534000
_cell_angle_alpha   60.00000126
_cell_angle_beta   60.00382767
_cell_angle_gamma   60.00382751
_symmetry_Int_Tables_number   1
_chemical_formula_structural   Ho12Th4MgIn3Ir4
_chemical_formula_sum   'Ho12 Th4 Mg1 In3 Ir4'
_cell_volume   660.62654069
_cell_formula_units_Z   1
loop_
 _symmetry_equiv_pos_site_id
 _symmetry_equiv_pos_as_xyz
  1  'x, y, z'
loop_
 _atom_site_type_symbol
 _atom_site_label
 _atom_site_symmetry_multiplicity
 _atom_site_fract_x
 _atom_site_fract_y
 _atom_site_fract_z
 _atom_site_occupancy
  Ho  Ho0  1  0.812296  0.187745  0.187745  1
  Ho  Ho1  1  0.186814  0.813097  0.813097  1
  Ho  Ho2  1  0.186814  0.813097  0.186992  1
  Ho  Ho3  1  0.812296  0.187745  0.812214  1
  Ho  Ho4  1  0.186814  0.186992  0.813097  1
  Ho  Ho5  1  0.812296  0.812214  0.187745  1
  Ho  Ho6  1  0.934130  0.565711  0.565711  1
  Ho  Ho7  1  0.565964  0.934573  0.934573  1
  Ho  Ho8  1  0.565964  0.934573  0.564890  1
  Ho  Ho9  1  0.934130  0.565711  0.934448  1
  Ho  Ho10  1  0.565964  0.564890  0.934573  1
  Ho  Ho11  1  0.934130  0.934448  0.565711  1
  Th  Th12  1  0.347581  0.348307  0.348307  1
  Th  Th13  1  0.347581  0.348307  0.955805  1
  Th  Th14  1  0.347581  0.955805  0.348307  1
  Th  Th15  1  0.955128  0.348290  0.348290  1
  Mg  Mg16  1  0.258785  0.580405  0.580405  1
  In  In17  1  0.582314  0.583348  0.583348  1
  In  In18  1  0.582314  0.583348  0.250988  1
  In  In19  1  0.582314  0.250988  0.583348  1
  Ir  Ir20  1  0.142137  0.142379  0.142379  1
  Ir  Ir21  1  0.142137  0.142379  0.573107  1
  Ir  Ir22  1  0.142137  0.573107  0.142379  1
  Ir  Ir23  1  0.572382  0.142540  0.142540  1
