# generated using pymatgen
data_Ba3LaBi2O9
_symmetry_space_group_name_H-M   'P 1'
_cell_length_a   6.28354790
_cell_length_b   6.28354816
_cell_length_c   15.34585812
_cell_angle_alpha   89.45072189
_cell_angle_beta   89.45072125
_cell_angle_gamma   59.71475390
_symmetry_Int_Tables_number   1
_chemical_formula_structural   Ba3LaBi2O9
_chemical_formula_sum   'Ba6 La2 Bi4 O18'
_cell_volume   523.17822411
_cell_formula_units_Z   2
loop_
 _symmetry_equiv_pos_site_id
 _symmetry_equiv_pos_as_xyz
  1  'x, y, z'
loop_
 _atom_site_type_symbol
 _atom_site_label
 _atom_site_symmetry_multiplicity
 _atom_site_fract_x
 _atom_site_fract_y
 _atom_site_fract_z
 _atom_site_occupancy
  Ba  Ba0  1  0.670173  0.670173  0.921169  1
  Ba  Ba1  1  0.003957  0.003957  0.249743  1
  Ba  Ba2  1  0.337227  0.337227  0.585123  1
  Ba  Ba3  1  0.996043  0.996043  0.750257  1
  Ba  Ba4  1  0.329827  0.329827  0.078831  1
  Ba  Ba5  1  0.662773  0.662773  0.414877  1
  La  La6  1  0.333205  0.333205  0.332818  1
  La  La7  1  0.666795  0.666795  0.667182  1
  Bi  Bi8  1  0.665494  0.665494  0.165815  1
  Bi  Bi9  1  0.000000  0.000000  0.500000  1
  Bi  Bi10  1  0.334506  0.334506  0.834185  1
  Bi  Bi11  1  0.000000  0.000000  0.000000  1
  O  O12  1  0.516374  0.516374  0.779388  1
  O  O13  1  0.850086  0.850086  0.109096  1
  O  O14  1  0.182648  0.182648  0.445420  1
  O  O15  1  0.149914  0.149914  0.890904  1
  O  O16  1  0.483626  0.483626  0.220612  1
  O  O17  1  0.817352  0.817352  0.554580  1
  O  O18  1  0.478173  0.958926  0.257818  1
  O  O19  1  0.811288  0.292315  0.592456  1
  O  O20  1  0.143361  0.631310  0.927653  1
  O  O21  1  0.368690  0.856639  0.072347  1
  O  O22  1  0.707685  0.188712  0.407544  1
  O  O23  1  0.041074  0.521827  0.742182  1
  O  O24  1  0.958926  0.478173  0.257818  1
  O  O25  1  0.292315  0.811288  0.592456  1
  O  O26  1  0.631310  0.143361  0.927653  1
  O  O27  1  0.856639  0.368690  0.072347  1
  O  O28  1  0.188712  0.707685  0.407544  1
  O  O29  1  0.521827  0.041074  0.742182  1
