# generated using pymatgen
data_CeNd7(CdOs)2
_symmetry_space_group_name_H-M   'P 1'
_cell_length_a   9.92561308
_cell_length_b   9.92679611
_cell_length_c   10.05521154
_cell_angle_alpha   59.51163221
_cell_angle_beta   59.50607913
_cell_angle_gamma   59.35666592
_symmetry_Int_Tables_number   1
_chemical_formula_structural   CeNd7(CdOs)2
_chemical_formula_sum   'Ce2 Nd14 Cd4 Os4'
_cell_volume   691.91675902
_cell_formula_units_Z   2
loop_
 _symmetry_equiv_pos_site_id
 _symmetry_equiv_pos_as_xyz
  1  'x, y, z'
loop_
 _atom_site_type_symbol
 _atom_site_label
 _atom_site_symmetry_multiplicity
 _atom_site_fract_x
 _atom_site_fract_y
 _atom_site_fract_z
 _atom_site_occupancy
  Ce  Ce0  1  0.339093  0.339030  0.342305  1
  Ce  Ce1  1  0.340060  0.339859  0.976875  1
  Nd  Nd2  1  0.346891  0.956259  0.347835  1
  Nd  Nd3  1  0.956290  0.346933  0.347905  1
  Nd  Nd4  1  0.809144  0.191597  0.191762  1
  Nd  Nd5  1  0.191525  0.809875  0.808147  1
  Nd  Nd6  1  0.191513  0.809160  0.191749  1
  Nd  Nd7  1  0.809927  0.191499  0.808141  1
  Nd  Nd8  1  0.193294  0.193365  0.806536  1
  Nd  Nd9  1  0.810386  0.810354  0.189752  1
  Nd  Nd10  1  0.942416  0.557352  0.561057  1
  Nd  Nd11  1  0.556820  0.944360  0.940064  1
  Nd  Nd12  1  0.557257  0.942465  0.560968  1
  Nd  Nd13  1  0.944378  0.556863  0.940114  1
  Nd  Nd14  1  0.556941  0.556987  0.943193  1
  Nd  Nd15  1  0.938588  0.938664  0.562492  1
  Cd  Cd16  1  0.578224  0.578248  0.581887  1
  Cd  Cd17  1  0.578358  0.578460  0.260426  1
  Cd  Cd18  1  0.576873  0.261823  0.580413  1
  Cd  Cd19  1  0.261839  0.576938  0.580323  1
  Os  Os20  1  0.147317  0.147396  0.128073  1
  Os  Os21  1  0.148115  0.148046  0.575137  1
  Os  Os22  1  0.152638  0.572002  0.137354  1
  Os  Os23  1  0.572106  0.152464  0.137489  1
