# generated using pymatgen
data_SmNi2(AsRh)3
_symmetry_space_group_name_H-M   'P 1'
_cell_length_a   3.92114500
_cell_length_b   11.20216900
_cell_length_c   12.71991300
_cell_angle_alpha   90.00000000
_cell_angle_beta   90.00000000
_cell_angle_gamma   90.00000000
_symmetry_Int_Tables_number   1
_chemical_formula_structural   SmNi2(AsRh)3
_chemical_formula_sum   'Sm4 Ni8 As12 Rh12'
_cell_volume   558.72636291
_cell_formula_units_Z   4
loop_
 _symmetry_equiv_pos_site_id
 _symmetry_equiv_pos_as_xyz
  1  'x, y, z'
loop_
 _atom_site_type_symbol
 _atom_site_label
 _atom_site_symmetry_multiplicity
 _atom_site_fract_x
 _atom_site_fract_y
 _atom_site_fract_z
 _atom_site_occupancy
  Sm  Sm0  1  0.250000  0.586841  0.706278  1
  Sm  Sm1  1  0.250000  0.913159  0.206278  1
  Sm  Sm2  1  0.750000  0.413159  0.293722  1
  Sm  Sm3  1  0.750000  0.086841  0.793722  1
  Ni  Ni4  1  0.250000  0.889546  0.693419  1
  Ni  Ni5  1  0.250000  0.610454  0.193419  1
  Ni  Ni6  1  0.750000  0.110454  0.306581  1
  Ni  Ni7  1  0.750000  0.389546  0.806581  1
  Ni  Ni8  1  0.250000  0.468656  0.933438  1
  Ni  Ni9  1  0.250000  0.031344  0.433438  1
  Ni  Ni10  1  0.750000  0.531344  0.066562  1
  Ni  Ni11  1  0.750000  0.968656  0.566562  1
  As  As12  1  0.250000  0.418026  0.112309  1
  As  As13  1  0.250000  0.081974  0.612309  1
  As  As14  1  0.750000  0.581974  0.887691  1
  As  As15  1  0.750000  0.918026  0.387691  1
  As  As16  1  0.250000  0.274467  0.876766  1
  As  As17  1  0.250000  0.225533  0.376766  1
  As  As18  1  0.750000  0.725533  0.123234  1
  As  As19  1  0.750000  0.774467  0.623234  1
  As  As20  1  0.250000  0.598748  0.383485  1
  As  As21  1  0.250000  0.901252  0.883485  1
  As  As22  1  0.750000  0.401252  0.616515  1
  As  As23  1  0.750000  0.098748  0.116515  1
  Rh  Rh24  1  0.250000  0.708771  0.983835  1
  Rh  Rh25  1  0.250000  0.791229  0.483835  1
  Rh  Rh26  1  0.750000  0.291229  0.016165  1
  Rh  Rh27  1  0.750000  0.208771  0.516165  1
  Rh  Rh28  1  0.250000  0.407765  0.483213  1
  Rh  Rh29  1  0.250000  0.092235  0.983213  1
  Rh  Rh30  1  0.750000  0.592235  0.516787  1
  Rh  Rh31  1  0.750000  0.907765  0.016787  1
  Rh  Rh32  1  0.250000  0.218374  0.184925  1
  Rh  Rh33  1  0.250000  0.281626  0.684925  1
  Rh  Rh34  1  0.750000  0.781626  0.815075  1
  Rh  Rh35  1  0.750000  0.718374  0.315075  1
