# generated using pymatgen
data_Tb14Dy6CoBi8Ru3
_symmetry_space_group_name_H-M   'P 1'
_cell_length_a   8.02892352
_cell_length_b   9.00870939
_cell_length_c   12.50266913
_cell_angle_alpha   89.98407646
_cell_angle_beta   90.25544972
_cell_angle_gamma   90.02967807
_symmetry_Int_Tables_number   1
_chemical_formula_structural   Tb14Dy6CoBi8Ru3
_chemical_formula_sum   'Tb14 Dy6 Co1 Bi8 Ru3'
_cell_volume   904.31189924
_cell_formula_units_Z   1
loop_
 _symmetry_equiv_pos_site_id
 _symmetry_equiv_pos_as_xyz
  1  'x, y, z'
loop_
 _atom_site_type_symbol
 _atom_site_label
 _atom_site_symmetry_multiplicity
 _atom_site_fract_x
 _atom_site_fract_y
 _atom_site_fract_z
 _atom_site_occupancy
  Tb  Tb0  1  0.845772  0.750215  0.799676  1
  Tb  Tb1  1  0.155415  0.249873  0.205217  1
  Tb  Tb2  1  0.344591  0.249946  0.706229  1
  Tb  Tb3  1  0.654316  0.750064  0.295057  1
  Tb  Tb4  1  0.377335  0.750042  0.693967  1
  Tb  Tb5  1  0.621426  0.249966  0.306764  1
  Tb  Tb6  1  0.877435  0.249730  0.807569  1
  Tb  Tb7  1  0.119994  0.750320  0.188968  1
  Tb  Tb8  1  0.945885  0.750012  0.504739  1
  Tb  Tb9  1  0.053690  0.249984  0.495860  1
  Tb  Tb10  1  0.449315  0.249818  0.996507  1
  Tb  Tb11  1  0.550610  0.750150  0.003568  1
  Tb  Tb12  1  0.824242  0.464145  0.062890  1
  Tb  Tb13  1  0.177072  0.541891  0.935721  1
  Dy  Dy14  1  0.675623  0.041078  0.564156  1
  Dy  Dy15  1  0.323865  0.958111  0.435835  1
  Dy  Dy16  1  0.176330  0.957776  0.935850  1
  Dy  Dy17  1  0.323849  0.541896  0.435879  1
  Dy  Dy18  1  0.825012  0.036167  0.062745  1
  Dy  Dy19  1  0.675663  0.458911  0.564089  1
  Co  Co20  1  0.932583  0.750338  0.009506  1
  Bi  Bi21  1  0.572250  0.492573  0.827499  1
  Bi  Bi22  1  0.428563  0.507701  0.172382  1
  Bi  Bi23  1  0.070146  0.507638  0.673273  1
  Bi  Bi24  1  0.428982  0.992290  0.172308  1
  Bi  Bi25  1  0.929181  0.492956  0.326599  1
  Bi  Bi26  1  0.571911  0.007459  0.827571  1
  Bi  Bi27  1  0.929057  0.007083  0.326521  1
  Bi  Bi28  1  0.070278  0.992359  0.673315  1
  Ru  Ru29  1  0.572384  0.750002  0.511545  1
  Ru  Ru30  1  0.426154  0.250007  0.488762  1
  Ru  Ru31  1  0.071068  0.249500  0.989431  1
