# generated using pymatgen
data_LaPr3Zn10SiSn
_symmetry_space_group_name_H-M   'P 1'
_cell_length_a   8.52056582
_cell_length_b   8.52056487
_cell_length_c   8.99689489
_cell_angle_alpha   90.14612741
_cell_angle_beta   89.85387150
_cell_angle_gamma   149.34825905
_symmetry_Int_Tables_number   1
_chemical_formula_structural   LaPr3Zn10SiSn
_chemical_formula_sum   'La1 Pr3 Zn10 Si1 Sn1'
_cell_volume   332.99947063
_cell_formula_units_Z   1
loop_
 _symmetry_equiv_pos_site_id
 _symmetry_equiv_pos_as_xyz
  1  'x, y, z'
loop_
 _atom_site_type_symbol
 _atom_site_label
 _atom_site_symmetry_multiplicity
 _atom_site_fract_x
 _atom_site_fract_y
 _atom_site_fract_z
 _atom_site_occupancy
  La  La0  1  0.000996  0.999004  0.012658  1
  Pr  Pr1  1  0.203974  0.796026  0.250271  1
  Pr  Pr2  1  0.793185  0.206815  0.749802  1
  Pr  Pr3  1  0.001000  0.999000  0.487300  1
  Zn  Zn4  1  0.814314  0.185686  0.390742  1
  Zn  Zn5  1  0.184940  0.815060  0.607681  1
  Zn  Zn6  1  0.813986  0.186014  0.109116  1
  Zn  Zn7  1  0.185256  0.814744  0.892429  1
  Zn  Zn8  1  0.651109  0.348891  0.475966  1
  Zn  Zn9  1  0.343871  0.656129  0.513274  1
  Zn  Zn10  1  0.651350  0.348650  0.024078  1
  Zn  Zn11  1  0.343749  0.656251  0.986703  1
  Zn  Zn12  1  0.406387  0.593613  0.250299  1
  Zn  Zn13  1  0.603113  0.396887  0.749831  1
  Si  Si14  1  0.559530  0.440470  0.250658  1
  Sn  Sn15  1  0.443239  0.556761  0.749192  1
