# generated using pymatgen
data_Y10Ga4Ru5Rh
_symmetry_space_group_name_H-M   'P 1'
_cell_length_a   8.35410686
_cell_length_b   8.35630989
_cell_length_c   8.35630986
_cell_angle_alpha   109.45172227
_cell_angle_beta   109.55138141
_cell_angle_gamma   109.42126938
_symmetry_Int_Tables_number   1
_chemical_formula_structural   Y10Ga4Ru5Rh
_chemical_formula_sum   'Y10 Ga4 Ru5 Rh1'
_cell_volume   449.00308634
_cell_formula_units_Z   1
loop_
 _symmetry_equiv_pos_site_id
 _symmetry_equiv_pos_as_xyz
  1  'x, y, z'
loop_
 _atom_site_type_symbol
 _atom_site_label
 _atom_site_symmetry_multiplicity
 _atom_site_fract_x
 _atom_site_fract_y
 _atom_site_fract_z
 _atom_site_occupancy
  Y  Y0  1  0.250000  0.681436  0.431436  1
  Y  Y1  1  0.750000  0.817846  0.067846  1
  Y  Y2  1  0.433807  0.250770  0.680867  1
  Y  Y3  1  0.683525  0.433097  0.251827  1
  Y  Y4  1  0.066193  0.747060  0.816963  1
  Y  Y5  1  0.816475  0.068302  0.749571  1
  Y  Y6  1  0.216194  0.217782  0.219024  1
  Y  Y7  1  0.500298  0.000139  0.283993  1
  Y  Y8  1  0.283806  0.502830  0.001587  1
  Y  Y9  1  0.999702  0.283695  0.499840  1
  Ga  Ga10  1  0.587112  0.587239  0.586962  1
  Ga  Ga11  1  0.501075  0.998432  0.912122  1
  Ga  Ga12  1  0.912888  0.499850  0.000127  1
  Ga  Ga13  1  0.998925  0.911047  0.497357  1
  Ru  Ru14  1  0.750000  0.376306  0.626306  1
  Ru  Ru15  1  0.872732  0.249965  0.122936  1
  Ru  Ru16  1  0.124553  0.875170  0.249898  1
  Ru  Ru17  1  0.627267  0.750202  0.377232  1
  Ru  Ru18  1  0.375447  0.625345  0.750618  1
  Rh  Rh19  1  0.250000  0.123490  0.873490  1
