# generated using pymatgen
data_Tb2MnSi14Ir5
_symmetry_space_group_name_H-M   'P 1'
_cell_length_a   8.01003317
_cell_length_b   7.96544011
_cell_length_c   7.96543992
_cell_angle_alpha   57.03782450
_cell_angle_beta   56.88975277
_cell_angle_gamma   56.88975765
_symmetry_Int_Tables_number   1
_chemical_formula_structural   Tb2MnSi14Ir5
_chemical_formula_sum   'Tb2 Mn1 Si14 Ir5'
_cell_volume   333.99518594
_cell_formula_units_Z   1
loop_
 _symmetry_equiv_pos_site_id
 _symmetry_equiv_pos_as_xyz
  1  'x, y, z'
loop_
 _atom_site_type_symbol
 _atom_site_label
 _atom_site_symmetry_multiplicity
 _atom_site_fract_x
 _atom_site_fract_y
 _atom_site_fract_z
 _atom_site_occupancy
  Tb  Tb0  1  0.505430  0.495284  0.498295  1
  Tb  Tb1  1  0.994570  0.001705  0.004716  1
  Mn  Mn2  1  0.750000  0.075913  0.424087  1
  Si  Si3  1  0.847664  0.063316  0.663876  1
  Si  Si4  1  0.672036  0.849967  0.065578  1
  Si  Si5  1  0.063391  0.671441  0.852412  1
  Si  Si6  1  0.652336  0.836124  0.436684  1
  Si  Si7  1  0.250000  0.248849  0.251151  1
  Si  Si8  1  0.750000  0.762427  0.737573  1
  Si  Si9  1  0.171836  0.566093  0.351315  1
  Si  Si10  1  0.571012  0.343764  0.179304  1
  Si  Si11  1  0.364215  0.168804  0.561173  1
  Si  Si12  1  0.928988  0.320696  0.156236  1
  Si  Si13  1  0.328164  0.148685  0.933907  1
  Si  Si14  1  0.135785  0.938827  0.331196  1
  Si  Si15  1  0.827964  0.434422  0.650033  1
  Si  Si16  1  0.436609  0.647588  0.828559  1
  Ir  Ir17  1  0.428989  0.750049  0.071163  1
  Ir  Ir18  1  0.071011  0.428837  0.749951  1
  Ir  Ir19  1  0.250000  0.926431  0.573569  1
  Ir  Ir20  1  0.571463  0.249455  0.928678  1
  Ir  Ir21  1  0.928537  0.571322  0.250545  1
