# generated using pymatgen
data_Li2Sn8RuRh
_symmetry_space_group_name_H-M   'P 1'
_cell_length_a   7.44351719
_cell_length_b   7.44351719
_cell_length_c   7.44351668
_cell_angle_alpha   126.81688578
_cell_angle_beta   126.81688189
_cell_angle_gamma   78.54962409
_symmetry_Int_Tables_number   1
_chemical_formula_structural   Li2Sn8RuRh
_chemical_formula_sum   'Li2 Sn8 Ru1 Rh1'
_cell_volume   255.87935354
_cell_formula_units_Z   1
loop_
 _symmetry_equiv_pos_site_id
 _symmetry_equiv_pos_as_xyz
  1  'x, y, z'
loop_
 _atom_site_type_symbol
 _atom_site_label
 _atom_site_symmetry_multiplicity
 _atom_site_fract_x
 _atom_site_fract_y
 _atom_site_fract_z
 _atom_site_occupancy
  Li  Li0  1  0.000042  0.000042  0.000000  1
  Li  Li1  1  0.499958  0.499958  0.000000  1
  Sn  Sn2  1  0.705815  0.526148  0.503138  1
  Sn  Sn3  1  0.526148  0.023010  0.820333  1
  Sn  Sn4  1  0.202677  0.705815  0.179667  1
  Sn  Sn5  1  0.794185  0.297323  0.820333  1
  Sn  Sn6  1  0.476990  0.973852  0.179667  1
  Sn  Sn7  1  0.297323  0.476990  0.503138  1
  Sn  Sn8  1  0.973852  0.794185  0.496862  1
  Sn  Sn9  1  0.023010  0.202677  0.496862  1
  Ru  Ru10  1  0.750000  0.750000  0.000000  1
  Rh  Rh11  1  0.250000  0.250000  0.000000  1
