# generated using pymatgen
data_PuTl2Cl5
_symmetry_space_group_name_H-M   'P 1'
_cell_length_a   13.02297700
_cell_length_b   8.87376800
_cell_length_c   8.09132000
_cell_angle_alpha   90.00000000
_cell_angle_beta   90.00000000
_cell_angle_gamma   90.00000000
_symmetry_Int_Tables_number   1
_chemical_formula_structural   PuTl2Cl5
_chemical_formula_sum   'Pu4 Tl8 Cl20'
_cell_volume   935.05621443
_cell_formula_units_Z   4
loop_
 _symmetry_equiv_pos_site_id
 _symmetry_equiv_pos_as_xyz
  1  'x, y, z'
loop_
 _atom_site_type_symbol
 _atom_site_label
 _atom_site_symmetry_multiplicity
 _atom_site_fract_x
 _atom_site_fract_y
 _atom_site_fract_z
 _atom_site_occupancy
  Pu  Pu0  1  0.504064  0.250000  0.063783  1
  Pu  Pu1  1  0.995936  0.750000  0.563784  1
  Pu  Pu2  1  0.004064  0.250000  0.436216  1
  Pu  Pu3  1  0.495936  0.750000  0.936216  1
  Tl  Tl4  1  0.669411  0.492491  0.560291  1
  Tl  Tl5  1  0.830589  0.507510  0.060291  1
  Tl  Tl6  1  0.169411  0.007509  0.939709  1
  Tl  Tl7  1  0.330589  0.992491  0.439709  1
  Tl  Tl8  1  0.330589  0.507510  0.439709  1
  Tl  Tl9  1  0.169411  0.492491  0.939709  1
  Tl  Tl10  1  0.830589  0.992491  0.060291  1
  Tl  Tl11  1  0.669411  0.007509  0.560291  1
  Cl  Cl12  1  0.007798  0.250000  0.086545  1
  Cl  Cl13  1  0.492201  0.750000  0.586545  1
  Cl  Cl14  1  0.507798  0.250000  0.413455  1
  Cl  Cl15  1  0.992201  0.750000  0.913455  1
  Cl  Cl16  1  0.573757  0.540611  0.165199  1
  Cl  Cl17  1  0.926243  0.459388  0.665199  1
  Cl  Cl18  1  0.073757  0.959387  0.334801  1
  Cl  Cl19  1  0.426243  0.040613  0.834801  1
  Cl  Cl20  1  0.426243  0.459388  0.834801  1
  Cl  Cl21  1  0.073757  0.540611  0.334801  1
  Cl  Cl22  1  0.926243  0.040613  0.665199  1
  Cl  Cl23  1  0.573757  0.959387  0.165199  1
  Cl  Cl24  1  0.798468  0.250000  0.347567  1
  Cl  Cl25  1  0.701533  0.750000  0.847567  1
  Cl  Cl26  1  0.298467  0.250000  0.152433  1
  Cl  Cl27  1  0.201533  0.750000  0.652433  1
  Cl  Cl28  1  0.681328  0.250000  0.883342  1
  Cl  Cl29  1  0.818672  0.750000  0.383342  1
  Cl  Cl30  1  0.181328  0.250000  0.616658  1
  Cl  Cl31  1  0.318671  0.750000  0.116658  1
