# generated using pymatgen
data_Tb3Th11(TcRu2)2
_symmetry_space_group_name_H-M   'P 1'
_cell_length_a   9.80599598
_cell_length_b   9.89752393
_cell_length_c   6.40130063
_cell_angle_alpha   89.96244508
_cell_angle_beta   89.87305463
_cell_angle_gamma   120.17098159
_symmetry_Int_Tables_number   1
_chemical_formula_structural   Tb3Th11(TcRu2)2
_chemical_formula_sum   'Tb3 Th11 Tc2 Ru4'
_cell_volume   537.11133008
_cell_formula_units_Z   1
loop_
 _symmetry_equiv_pos_site_id
 _symmetry_equiv_pos_as_xyz
  1  'x, y, z'
loop_
 _atom_site_type_symbol
 _atom_site_label
 _atom_site_symmetry_multiplicity
 _atom_site_fract_x
 _atom_site_fract_y
 _atom_site_fract_z
 _atom_site_occupancy
  Tb  Tb0  1  0.463010  0.537233  0.294077  1
  Tb  Tb1  1  0.073258  0.535336  0.299493  1
  Tb  Tb2  1  0.924166  0.460790  0.799850  1
  Th  Th3  1  0.249747  0.126786  0.509004  1
  Th  Th4  1  0.542265  0.081932  0.798212  1
  Th  Th5  1  0.749603  0.873491  0.013032  1
  Th  Th6  1  0.667383  0.334912  0.275887  1
  Th  Th7  1  0.124014  0.870113  0.007878  1
  Th  Th8  1  0.462673  0.920817  0.299055  1
  Th  Th9  1  0.538010  0.463341  0.796991  1
  Th  Th10  1  0.876302  0.129407  0.511740  1
  Th  Th11  1  0.122916  0.250664  0.012651  1
  Th  Th12  1  0.874835  0.749978  0.511233  1
  Th  Th13  1  0.333129  0.664821  0.772941  1
  Tc  Tc14  1  0.812369  0.635286  0.046804  1
  Tc  Tc15  1  0.811173  0.175451  0.048838  1
  Ru  Ru16  1  0.629796  0.816193  0.548422  1
  Ru  Ru17  1  0.367649  0.186338  0.041079  1
  Ru  Ru18  1  0.187333  0.365828  0.554014  1
  Ru  Ru19  1  0.190368  0.821286  0.542795  1
