# generated using pymatgen
data_Y10Al4Ru5Rh
_symmetry_space_group_name_H-M   'P 1'
_cell_length_a   8.36836354
_cell_length_b   8.37013150
_cell_length_c   8.37013135
_cell_angle_alpha   109.45070323
_cell_angle_beta   109.57398720
_cell_angle_gamma   109.39758765
_symmetry_Int_Tables_number   1
_chemical_formula_structural   Y10Al4Ru5Rh
_chemical_formula_sum   'Y10 Al4 Ru5 Rh1'
_cell_volume   451.26972707
_cell_formula_units_Z   1
loop_
 _symmetry_equiv_pos_site_id
 _symmetry_equiv_pos_as_xyz
  1  'x, y, z'
loop_
 _atom_site_type_symbol
 _atom_site_label
 _atom_site_symmetry_multiplicity
 _atom_site_fract_x
 _atom_site_fract_y
 _atom_site_fract_z
 _atom_site_occupancy
  Y  Y0  1  0.250000  0.680340  0.430340  1
  Y  Y1  1  0.750000  0.819097  0.069097  1
  Y  Y2  1  0.432748  0.251021  0.679728  1
  Y  Y3  1  0.682697  0.432277  0.252064  1
  Y  Y4  1  0.067252  0.746980  0.818273  1
  Y  Y5  1  0.817303  0.069366  0.749579  1
  Y  Y6  1  0.213554  0.215344  0.216590  1
  Y  Y7  1  0.500202  0.999957  0.286444  1
  Y  Y8  1  0.286446  0.503036  0.001789  1
  Y  Y9  1  0.999798  0.286243  0.499755  1
  Al  Al10  1  0.588585  0.588684  0.588352  1
  Al  Al11  1  0.500592  0.998751  0.910974  1
  Al  Al12  1  0.911415  0.499767  0.000100  1
  Al  Al13  1  0.999408  0.910381  0.498158  1
  Ru  Ru14  1  0.750000  0.378060  0.628060  1
  Ru  Ru15  1  0.870779  0.249909  0.120943  1
  Ru  Ru16  1  0.122746  0.873219  0.249842  1
  Ru  Ru17  1  0.629220  0.750163  0.379129  1
  Ru  Ru18  1  0.377254  0.627097  0.750475  1
  Rh  Rh19  1  0.250000  0.120308  0.870308  1
