# generated using pymatgen
data_Al10GePb3O20
_symmetry_space_group_name_H-M   'P 1'
_cell_length_a   9.62766930
_cell_length_b   9.62766953
_cell_length_c   5.01046998
_cell_angle_alpha   74.94434875
_cell_angle_beta   74.94434323
_cell_angle_gamma   73.10117238
_symmetry_Int_Tables_number   1
_chemical_formula_structural   Al10GePb3O20
_chemical_formula_sum   'Al10 Ge1 Pb3 O20'
_cell_volume   420.50411103
_cell_formula_units_Z   1
loop_
 _symmetry_equiv_pos_site_id
 _symmetry_equiv_pos_as_xyz
  1  'x, y, z'
loop_
 _atom_site_type_symbol
 _atom_site_label
 _atom_site_symmetry_multiplicity
 _atom_site_fract_x
 _atom_site_fract_y
 _atom_site_fract_z
 _atom_site_occupancy
  Al  Al0  1  0.634901  0.365099  0.500000  1
  Al  Al1  1  0.365099  0.634901  0.500000  1
  Al  Al2  1  0.281979  0.006391  0.369736  1
  Al  Al3  1  0.993609  0.718021  0.630264  1
  Al  Al4  1  0.718021  0.993609  0.630264  1
  Al  Al5  1  0.006391  0.281979  0.369736  1
  Al  Al6  1  0.577084  0.151349  0.104776  1
  Al  Al7  1  0.848651  0.422916  0.895224  1
  Al  Al8  1  0.422916  0.848651  0.895224  1
  Al  Al9  1  0.151349  0.577084  0.104776  1
  Ge  Ge10  1  0.500000  0.500000  0.000000  1
  Pb  Pb11  1  0.000000  0.000000  0.000000  1
  Pb  Pb12  1  0.724639  0.724639  0.229113  1
  Pb  Pb13  1  0.275361  0.275361  0.770887  1
  O  O14  1  0.565698  0.565698  0.262086  1
  O  O15  1  0.434302  0.434302  0.737914  1
  O  O16  1  0.101416  0.101416  0.314179  1
  O  O17  1  0.898584  0.898584  0.685821  1
  O  O18  1  0.400393  0.118334  0.147212  1
  O  O19  1  0.881666  0.599607  0.852788  1
  O  O20  1  0.599607  0.881666  0.852788  1
  O  O21  1  0.118334  0.400393  0.147212  1
  O  O22  1  0.340258  0.828666  0.266935  1
  O  O23  1  0.171334  0.659742  0.733065  1
  O  O24  1  0.659742  0.171334  0.733065  1
  O  O25  1  0.828666  0.340258  0.266935  1
  O  O26  1  0.986142  0.288250  0.726918  1
  O  O27  1  0.711750  0.013858  0.273082  1
  O  O28  1  0.013858  0.711750  0.273082  1
  O  O29  1  0.288250  0.986142  0.726918  1
  O  O30  1  0.688986  0.450095  0.753639  1
  O  O31  1  0.549905  0.311014  0.246361  1
  O  O32  1  0.311014  0.549905  0.246361  1
  O  O33  1  0.450095  0.688986  0.753639  1
