# generated using pymatgen
data_Yb5Pr(DyRu)4
_symmetry_space_group_name_H-M   'P 1'
_cell_length_a   8.55751297
_cell_length_b   8.52840695
_cell_length_c   7.41618196
_cell_angle_alpha   83.39718066
_cell_angle_beta   83.30606308
_cell_angle_gamma   43.82059407
_symmetry_Int_Tables_number   1
_chemical_formula_structural   Yb5Pr(DyRu)4
_chemical_formula_sum   'Yb5 Pr1 Dy4 Ru4'
_cell_volume   371.83085008
_cell_formula_units_Z   1
loop_
 _symmetry_equiv_pos_site_id
 _symmetry_equiv_pos_as_xyz
  1  'x, y, z'
loop_
 _atom_site_type_symbol
 _atom_site_label
 _atom_site_symmetry_multiplicity
 _atom_site_fract_x
 _atom_site_fract_y
 _atom_site_fract_z
 _atom_site_occupancy
  Yb  Yb0  1  0.020841  0.797493  0.917821  1
  Yb  Yb1  1  0.202739  0.367867  0.314505  1
  Yb  Yb2  1  0.635985  0.797893  0.182333  1
  Yb  Yb3  1  0.805142  0.627009  0.680318  1
  Yb  Yb4  1  0.372345  0.196386  0.824046  1
  Pr  Pr5  1  0.203214  0.975083  0.583041  1
  Dy  Dy6  1  0.969182  0.197910  0.081786  1
  Dy  Dy7  1  0.795708  0.028368  0.417807  1
  Dy  Dy8  1  0.565940  0.430294  0.753415  1
  Dy  Dy9  1  0.420349  0.578355  0.247858  1
  Ru  Ru10  1  0.178645  0.613879  0.571354  1
  Ru  Ru11  1  0.393297  0.825376  0.923159  1
  Ru  Ru12  1  0.815547  0.382692  0.421844  1
  Ru  Ru13  1  0.621064  0.181397  0.080714  1
