# generated using pymatgen
data_Yb2HoTm(MnB4)4
_symmetry_space_group_name_H-M   'P 1'
_cell_length_a   3.37359400
_cell_length_b   5.89436840
_cell_length_c   11.39172800
_cell_angle_alpha   89.97763080
_cell_angle_beta   90.00000000
_cell_angle_gamma   90.00000000
_symmetry_Int_Tables_number   1
_chemical_formula_structural   Yb2HoTm(MnB4)4
_chemical_formula_sum   'Yb2 Ho1 Tm1 Mn4 B16'
_cell_volume   226.52683911
_cell_formula_units_Z   1
loop_
 _symmetry_equiv_pos_site_id
 _symmetry_equiv_pos_as_xyz
  1  'x, y, z'
loop_
 _atom_site_type_symbol
 _atom_site_label
 _atom_site_symmetry_multiplicity
 _atom_site_fract_x
 _atom_site_fract_y
 _atom_site_fract_z
 _atom_site_occupancy
  Yb  Yb0  1  0.500000  0.374628  0.849388  1
  Yb  Yb1  1  0.500000  0.125453  0.349034  1
  Ho  Ho2  1  0.500000  0.874078  0.651004  1
  Tm  Tm3  1  0.500000  0.625936  0.150893  1
  Mn  Mn4  1  0.500000  0.624058  0.418805  1
  Mn  Mn5  1  0.500000  0.376084  0.580870  1
  Mn  Mn6  1  0.500000  0.124122  0.081468  1
  Mn  Mn7  1  0.500000  0.875593  0.919556  1
  B  B8  1  0.000000  0.974629  0.191297  1
  B  B9  1  0.000000  0.024283  0.809467  1
  B  B10  1  0.000000  0.476192  0.308632  1
  B  B11  1  0.000000  0.524702  0.691121  1
  B  B12  1  0.000000  0.779850  0.316282  1
  B  B13  1  0.000000  0.220049  0.683245  1
  B  B14  1  0.000000  0.280787  0.183274  1
  B  B15  1  0.000000  0.720052  0.817033  1
  B  B16  1  0.000000  0.861598  0.467054  1
  B  B17  1  0.000000  0.137991  0.532179  1
  B  B18  1  0.000000  0.362569  0.032614  1
  B  B19  1  0.000000  0.638030  0.967792  1
  B  B20  1  0.000000  0.886943  0.046738  1
  B  B21  1  0.000000  0.113055  0.953335  1
  B  B22  1  0.000000  0.386929  0.452740  1
  B  B23  1  0.000000  0.612385  0.546178  1
