# generated using pymatgen
data_DyTm11ZnGaCo4
_symmetry_space_group_name_H-M   'P 1'
_cell_length_a   8.15781181
_cell_length_b   8.15735829
_cell_length_c   8.15735943
_cell_angle_alpha   106.49396157
_cell_angle_beta   109.99674766
_cell_angle_gamma   111.96741220
_symmetry_Int_Tables_number   1
_chemical_formula_structural   DyTm11ZnGaCo4
_chemical_formula_sum   'Dy1 Tm11 Zn1 Ga1 Co4'
_cell_volume   416.92114217
_cell_formula_units_Z   1
loop_
 _symmetry_equiv_pos_site_id
 _symmetry_equiv_pos_as_xyz
  1  'x, y, z'
loop_
 _atom_site_type_symbol
 _atom_site_label
 _atom_site_symmetry_multiplicity
 _atom_site_fract_x
 _atom_site_fract_y
 _atom_site_fract_z
 _atom_site_occupancy
  Dy  Dy0  1  0.600692  0.781350  0.819342  1
  Tm  Tm1  1  0.304246  0.261221  0.566465  1
  Tm  Tm2  1  0.695198  0.738007  0.431911  1
  Tm  Tm3  1  0.304246  0.737779  0.043025  1
  Tm  Tm4  1  0.695198  0.263289  0.957191  1
  Tm  Tm5  1  0.187638  0.514505  0.325457  1
  Tm  Tm6  1  0.187638  0.862181  0.673133  1
  Tm  Tm7  1  0.811928  0.484783  0.673418  1
  Tm  Tm8  1  0.811928  0.138511  0.327145  1
  Tm  Tm9  1  0.399848  0.219165  0.180683  1
  Tm  Tm10  1  0.039110  0.219749  0.819363  1
  Tm  Tm11  1  0.961940  0.780544  0.181395  1
  Zn  Zn12  1  0.499144  0.498790  0.000354  1
  Ga  Ga13  1  0.499861  0.999840  0.500021  1
  Co  Co14  1  0.162467  0.498970  0.663496  1
  Co  Co15  1  0.835596  0.499549  0.336047  1
  Co  Co16  1  0.001661  0.117301  0.117194  1
  Co  Co17  1  0.001661  0.884467  0.884361  1
