# generated using pymatgen
data_Ce2Mn2Al20PdRu
_symmetry_space_group_name_H-M   'P 1'
_cell_length_a   6.87272433
_cell_length_b   6.84248686
_cell_length_c   9.12607968
_cell_angle_alpha   90.16514058
_cell_angle_beta   90.22099837
_cell_angle_gamma   97.41805483
_symmetry_Int_Tables_number   1
_chemical_formula_structural   Ce2Mn2Al20PdRu
_chemical_formula_sum   'Ce2 Mn2 Al20 Pd1 Ru1'
_cell_volume   425.57027592
_cell_formula_units_Z   1
loop_
 _symmetry_equiv_pos_site_id
 _symmetry_equiv_pos_as_xyz
  1  'x, y, z'
loop_
 _atom_site_type_symbol
 _atom_site_label
 _atom_site_symmetry_multiplicity
 _atom_site_fract_x
 _atom_site_fract_y
 _atom_site_fract_z
 _atom_site_occupancy
  Ce  Ce0  1  0.882959  0.132039  0.750471  1
  Ce  Ce1  1  0.117041  0.867961  0.249529  1
  Mn  Mn2  1  0.000000  0.500000  0.000000  1
  Mn  Mn3  1  0.000000  0.500000  0.500000  1
  Al  Al4  1  0.591773  0.858850  0.252499  1
  Al  Al5  1  0.780899  0.517726  0.250024  1
  Al  Al6  1  0.154529  0.835174  0.897481  1
  Al  Al7  1  0.408227  0.141150  0.747501  1
  Al  Al8  1  0.628994  0.384808  0.947963  1
  Al  Al9  1  0.842961  0.161642  0.400486  1
  Al  Al10  1  0.780448  0.768569  0.002588  1
  Al  Al11  1  0.865585  0.589047  0.748944  1
  Al  Al12  1  0.845471  0.164826  0.102519  1
  Al  Al13  1  0.219101  0.482274  0.749976  1
  Al  Al14  1  0.157039  0.838358  0.599514  1
  Al  Al15  1  0.779666  0.772367  0.498870  1
  Al  Al16  1  0.478267  0.225107  0.256380  1
  Al  Al17  1  0.628179  0.379829  0.548253  1
  Al  Al18  1  0.220334  0.227633  0.501130  1
  Al  Al19  1  0.371821  0.620171  0.451747  1
  Al  Al20  1  0.134415  0.410953  0.251056  1
  Al  Al21  1  0.521733  0.774893  0.743620  1
  Al  Al22  1  0.371006  0.615192  0.052037  1
  Al  Al23  1  0.219552  0.231431  0.997412  1
  Pd  Pd24  1  0.500000  0.000000  0.000000  1
  Ru  Ru25  1  0.500000  0.000000  0.500000  1
