# generated using pymatgen
data_Ta8V2GeB4As
_symmetry_space_group_name_H-M   'P 1'
_cell_length_a   7.25153762
_cell_length_b   7.25153793
_cell_length_c   7.25153820
_cell_angle_alpha   129.73352405
_cell_angle_beta   129.73352328
_cell_angle_gamma   73.83313465
_symmetry_Int_Tables_number   1
_chemical_formula_structural   Ta8V2GeB4As
_chemical_formula_sum   'Ta8 V2 Ge1 B4 As1'
_cell_volume   219.98335144
_cell_formula_units_Z   1
loop_
 _symmetry_equiv_pos_site_id
 _symmetry_equiv_pos_as_xyz
  1  'x, y, z'
loop_
 _atom_site_type_symbol
 _atom_site_label
 _atom_site_symmetry_multiplicity
 _atom_site_fract_x
 _atom_site_fract_y
 _atom_site_fract_z
 _atom_site_occupancy
  Ta  Ta0  1  0.532354  0.697678  0.499999  1
  Ta  Ta1  1  0.197679  0.032354  0.500001  1
  Ta  Ta2  1  0.032354  0.532354  0.834675  1
  Ta  Ta3  1  0.697678  0.197679  0.165325  1
  Ta  Ta4  1  0.467646  0.302321  0.499999  1
  Ta  Ta5  1  0.802322  0.967646  0.500001  1
  Ta  Ta6  1  0.967646  0.467646  0.165325  1
  Ta  Ta7  1  0.302321  0.802322  0.834675  1
  V  V8  1  0.500367  0.500367  0.000000  1
  V  V9  1  0.999633  0.999633  0.000000  1
  Ge  Ge10  1  0.750000  0.750000  0.000000  1
  B  B11  1  0.876835  0.623165  0.500000  1
  B  B12  1  0.123165  0.376835  0.500000  1
  B  B13  1  0.376835  0.876835  0.253668  1
  B  B14  1  0.623165  0.123165  0.746332  1
  As  As15  1  0.250000  0.250000  0.000000  1
