# generated using pymatgen
data_BPb3ClO4
_symmetry_space_group_name_H-M   'P 1'
_cell_length_a   7.08886600
_cell_length_b   8.58775000
_cell_length_c   11.89665600
_cell_angle_alpha   90.00000000
_cell_angle_beta   90.00000000
_cell_angle_gamma   90.00000000
_symmetry_Int_Tables_number   1
_chemical_formula_structural   BPb3ClO4
_chemical_formula_sum   'B4 Pb12 Cl4 O16'
_cell_volume   724.23759294
_cell_formula_units_Z   4
loop_
 _symmetry_equiv_pos_site_id
 _symmetry_equiv_pos_as_xyz
  1  'x, y, z'
loop_
 _atom_site_type_symbol
 _atom_site_label
 _atom_site_symmetry_multiplicity
 _atom_site_fract_x
 _atom_site_fract_y
 _atom_site_fract_z
 _atom_site_occupancy
  B  B0  1  0.250000  0.987237  0.500000  1
  B  B1  1  0.750000  0.012763  0.000000  1
  B  B2  1  0.750000  0.012763  0.500000  1
  B  B3  1  0.250000  0.987237  0.000000  1
  Pb  Pb4  1  0.486937  0.298712  0.404237  1
  Pb  Pb5  1  0.513063  0.701288  0.904237  1
  Pb  Pb6  1  0.013063  0.298712  0.595763  1
  Pb  Pb7  1  0.986937  0.701288  0.095763  1
  Pb  Pb8  1  0.513063  0.701288  0.595763  1
  Pb  Pb9  1  0.486937  0.298712  0.095763  1
  Pb  Pb10  1  0.986937  0.701288  0.404237  1
  Pb  Pb11  1  0.013063  0.298712  0.904237  1
  Pb  Pb12  1  0.414963  0.909848  0.250000  1
  Pb  Pb13  1  0.585037  0.090152  0.750000  1
  Pb  Pb14  1  0.085037  0.909848  0.750000  1
  Pb  Pb15  1  0.914963  0.090152  0.250000  1
  Cl  Cl16  1  0.170395  0.428652  0.250000  1
  Cl  Cl17  1  0.829605  0.571348  0.750000  1
  Cl  Cl18  1  0.329605  0.428652  0.750000  1
  Cl  Cl19  1  0.670395  0.571348  0.250000  1
  O  O20  1  0.586377  0.177271  0.250000  1
  O  O21  1  0.413623  0.822729  0.750000  1
  O  O22  1  0.913623  0.177271  0.750000  1
  O  O23  1  0.086377  0.822729  0.250000  1
  O  O24  1  0.305608  0.067811  0.404517  1
  O  O25  1  0.694392  0.932189  0.904517  1
  O  O26  1  0.194392  0.067811  0.595483  1
  O  O27  1  0.805608  0.932189  0.095483  1
  O  O28  1  0.694392  0.932189  0.595483  1
  O  O29  1  0.305608  0.067811  0.095483  1
  O  O30  1  0.805608  0.932189  0.404517  1
  O  O31  1  0.194392  0.067811  0.904517  1
  O  O32  1  0.750000  0.175245  0.500000  1
  O  O33  1  0.250000  0.824755  0.000000  1
  O  O34  1  0.250000  0.824755  0.500000  1
  O  O35  1  0.750000  0.175245  0.000000  1
