# generated using pymatgen
data_AcHgPdPt3
_symmetry_space_group_name_H-M   'P 1'
_cell_length_a   5.55312710
_cell_length_b   5.55312806
_cell_length_c   5.55312700
_cell_angle_alpha   60.07966057
_cell_angle_beta   60.07964293
_cell_angle_gamma   60.07964940
_symmetry_Int_Tables_number   1
_chemical_formula_structural   AcHgPdPt3
_chemical_formula_sum   'Ac1 Hg1 Pd1 Pt3'
_cell_volume   121.30566860
_cell_formula_units_Z   1
loop_
 _symmetry_equiv_pos_site_id
 _symmetry_equiv_pos_as_xyz
  1  'x, y, z'
loop_
 _atom_site_type_symbol
 _atom_site_label
 _atom_site_symmetry_multiplicity
 _atom_site_fract_x
 _atom_site_fract_y
 _atom_site_fract_z
 _atom_site_occupancy
  Ac  Ac0  1  0.249519  0.249519  0.249519  1
  Hg  Hg1  1  0.999805  0.999805  0.999805  1
  Pd  Pd2  1  0.626009  0.626009  0.626009  1
  Pt  Pt3  1  0.625861  0.625861  0.122945  1
  Pt  Pt4  1  0.625861  0.122945  0.625861  1
  Pt  Pt5  1  0.122945  0.625861  0.625861  1
