# generated using pymatgen
data_Y3Tm5Re(B8Ir)3
_symmetry_space_group_name_H-M   'P 1'
_cell_length_a   3.63928500
_cell_length_b   9.13263716
_cell_length_c   11.48054400
_cell_angle_alpha   90.13986360
_cell_angle_beta   90.00000000
_cell_angle_gamma   90.00000000
_symmetry_Int_Tables_number   1
_chemical_formula_structural   Y3Tm5Re(B8Ir)3
_chemical_formula_sum   'Y3 Tm5 Re1 B24 Ir3'
_cell_volume   381.56931659
_cell_formula_units_Z   1
loop_
 _symmetry_equiv_pos_site_id
 _symmetry_equiv_pos_as_xyz
  1  'x, y, z'
loop_
 _atom_site_type_symbol
 _atom_site_label
 _atom_site_symmetry_multiplicity
 _atom_site_fract_x
 _atom_site_fract_y
 _atom_site_fract_z
 _atom_site_occupancy
  Y  Y0  1  0.000000  0.320403  0.413792  1
  Y  Y1  1  0.000000  0.683328  0.590322  1
  Y  Y2  1  0.000000  0.820329  0.082888  1
  Tm  Tm3  1  0.000000  0.176181  0.912294  1
  Tm  Tm4  1  0.000000  0.943824  0.373158  1
  Tm  Tm5  1  0.000000  0.053729  0.626581  1
  Tm  Tm6  1  0.000000  0.443320  0.125845  1
  Tm  Tm7  1  0.000000  0.557158  0.874843  1
  Re  Re8  1  0.000000  0.862904  0.821239  1
  B  B9  1  0.500000  0.553997  0.434022  1
  B  B10  1  0.500000  0.447163  0.567000  1
  B  B11  1  0.500000  0.054224  0.065943  1
  B  B12  1  0.500000  0.947284  0.933066  1
  B  B13  1  0.500000  0.750975  0.420159  1
  B  B14  1  0.500000  0.249747  0.579756  1
  B  B15  1  0.500000  0.249427  0.078554  1
  B  B16  1  0.500000  0.751299  0.919439  1
  B  B17  1  0.500000  0.792394  0.264983  1
  B  B18  1  0.500000  0.207293  0.734101  1
  B  B19  1  0.500000  0.293061  0.234584  1
  B  B20  1  0.500000  0.707905  0.766357  1
  B  B21  1  0.500000  0.630511  0.184136  1
  B  B22  1  0.500000  0.368060  0.816330  1
  B  B23  1  0.500000  0.131453  0.315621  1
  B  B24  1  0.500000  0.869663  0.685529  1
  B  B25  1  0.500000  0.981968  0.213330  1
  B  B26  1  0.500000  0.018228  0.786573  1
  B  B27  1  0.500000  0.481307  0.286817  1
  B  B28  1  0.500000  0.517798  0.714621  1
  B  B29  1  0.500000  0.606217  0.030407  1
  B  B30  1  0.500000  0.390178  0.970424  1
  B  B31  1  0.500000  0.107543  0.470008  1
  B  B32  1  0.500000  0.893509  0.528163  1
  Ir  Ir33  1  0.000000  0.637798  0.321640  1
  Ir  Ir34  1  0.000000  0.361835  0.679118  1
  Ir  Ir35  1  0.000000  0.137986  0.178354  1
