# generated using pymatgen
data_Zn(PtO3)2
_symmetry_space_group_name_H-M   'P 1'
_cell_length_a   4.60795200
_cell_length_b   4.60795200
_cell_length_c   9.53455500
_cell_angle_alpha   90.00000000
_cell_angle_beta   90.00000000
_cell_angle_gamma   90.00000000
_symmetry_Int_Tables_number   1
_chemical_formula_structural   Zn(PtO3)2
_chemical_formula_sum   'Zn2 Pt4 O12'
_cell_volume   202.44931950
_cell_formula_units_Z   2
loop_
 _symmetry_equiv_pos_site_id
 _symmetry_equiv_pos_as_xyz
  1  'x, y, z'
loop_
 _atom_site_type_symbol
 _atom_site_label
 _atom_site_symmetry_multiplicity
 _atom_site_fract_x
 _atom_site_fract_y
 _atom_site_fract_z
 _atom_site_occupancy
  Zn  Zn0  1  0.000000  0.000000  0.000000  1
  Zn  Zn1  1  0.500000  0.500000  0.500000  1
  Pt  Pt2  1  0.500000  0.500000  0.831780  1
  Pt  Pt3  1  0.000000  0.000000  0.331780  1
  Pt  Pt4  1  0.500000  0.500000  0.168220  1
  Pt  Pt5  1  0.000000  0.000000  0.668220  1
  O  O6  1  0.694644  0.694644  0.666905  1
  O  O7  1  0.305356  0.305356  0.666905  1
  O  O8  1  0.694644  0.694644  0.333095  1
  O  O9  1  0.194644  0.805356  0.166905  1
  O  O10  1  0.805356  0.194644  0.166905  1
  O  O11  1  0.805356  0.194644  0.833095  1
  O  O12  1  0.312502  0.312502  0.000000  1
  O  O13  1  0.187498  0.812502  0.500000  1
  O  O14  1  0.812502  0.187498  0.500000  1
  O  O15  1  0.687498  0.687498  0.000000  1
  O  O16  1  0.305356  0.305356  0.333095  1
  O  O17  1  0.194644  0.805356  0.833095  1
