# generated using pymatgen
data_Sr6Cd32Rh
_symmetry_space_group_name_H-M   'P 1'
_cell_length_a   9.90022200
_cell_length_b   9.90022200
_cell_length_c   9.90022200
_cell_angle_alpha   90.00000000
_cell_angle_beta   90.00000000
_cell_angle_gamma   90.00000000
_symmetry_Int_Tables_number   1
_chemical_formula_structural   Sr6Cd32Rh
_chemical_formula_sum   'Sr6 Cd32 Rh1'
_cell_volume   970.36427612
_cell_formula_units_Z   1
loop_
 _symmetry_equiv_pos_site_id
 _symmetry_equiv_pos_as_xyz
  1  'x, y, z'
loop_
 _atom_site_type_symbol
 _atom_site_label
 _atom_site_symmetry_multiplicity
 _atom_site_fract_x
 _atom_site_fract_y
 _atom_site_fract_z
 _atom_site_occupancy
  Sr  Sr0  1  0.207340  0.000000  0.500000  1
  Sr  Sr1  1  0.792660  0.000000  0.500000  1
  Sr  Sr2  1  0.500000  0.207340  0.000000  1
  Sr  Sr3  1  0.500000  0.792660  0.000000  1
  Sr  Sr4  1  0.000000  0.500000  0.207340  1
  Sr  Sr5  1  0.000000  0.500000  0.792660  1
  Cd  Cd6  1  0.317273  0.500000  0.000000  1
  Cd  Cd7  1  0.682727  0.500000  0.000000  1
  Cd  Cd8  1  0.000000  0.317273  0.500000  1
  Cd  Cd9  1  0.000000  0.682727  0.500000  1
  Cd  Cd10  1  0.500000  0.000000  0.317273  1
  Cd  Cd11  1  0.500000  0.000000  0.682727  1
  Cd  Cd12  1  0.282427  0.282427  0.282427  1
  Cd  Cd13  1  0.717573  0.717573  0.717573  1
  Cd  Cd14  1  0.717573  0.717573  0.282427  1
  Cd  Cd15  1  0.717573  0.282427  0.717573  1
  Cd  Cd16  1  0.282427  0.282427  0.717573  1
  Cd  Cd17  1  0.282427  0.717573  0.282427  1
  Cd  Cd18  1  0.282427  0.717573  0.717573  1
  Cd  Cd19  1  0.717573  0.282427  0.282427  1
  Cd  Cd20  1  0.259289  0.500000  0.500000  1
  Cd  Cd21  1  0.740711  0.500000  0.500000  1
  Cd  Cd22  1  0.500000  0.259289  0.500000  1
  Cd  Cd23  1  0.500000  0.740711  0.500000  1
  Cd  Cd24  1  0.500000  0.500000  0.259289  1
  Cd  Cd25  1  0.500000  0.500000  0.740711  1
  Cd  Cd26  1  0.000000  0.150705  0.254527  1
  Cd  Cd27  1  0.000000  0.849295  0.745473  1
  Cd  Cd28  1  0.000000  0.849295  0.254527  1
  Cd  Cd29  1  0.000000  0.150705  0.745473  1
  Cd  Cd30  1  0.254527  0.000000  0.150705  1
  Cd  Cd31  1  0.745473  0.000000  0.849295  1
  Cd  Cd32  1  0.254527  0.000000  0.849295  1
  Cd  Cd33  1  0.745473  0.000000  0.150705  1
  Cd  Cd34  1  0.150705  0.254527  0.000000  1
  Cd  Cd35  1  0.849295  0.745473  0.000000  1
  Cd  Cd36  1  0.150705  0.745473  0.000000  1
  Cd  Cd37  1  0.849295  0.254527  0.000000  1
  Rh  Rh38  1  0.000000  0.000000  0.000000  1
