# generated using pymatgen
data_Ho2Lu14In6CoAu
_symmetry_space_group_name_H-M   'P 1'
_cell_length_a   10.30513300
_cell_length_b   10.30513414
_cell_length_c   6.83704900
_cell_angle_alpha   90.00000000
_cell_angle_beta   90.00000000
_cell_angle_gamma   119.99999954
_symmetry_Int_Tables_number   1
_chemical_formula_structural   Ho2Lu14In6CoAu
_chemical_formula_sum   'Ho2 Lu14 In6 Co1 Au1'
_cell_volume   628.79137631
_cell_formula_units_Z   1
loop_
 _symmetry_equiv_pos_site_id
 _symmetry_equiv_pos_as_xyz
  1  'x, y, z'
loop_
 _atom_site_type_symbol
 _atom_site_label
 _atom_site_symmetry_multiplicity
 _atom_site_fract_x
 _atom_site_fract_y
 _atom_site_fract_z
 _atom_site_occupancy
  Ho  Ho0  1  0.000000  0.000000  0.489776  1
  Ho  Ho1  1  0.000000  0.000000  0.989843  1
  Lu  Lu2  1  0.525800  0.051598  0.511399  1
  Lu  Lu3  1  0.948402  0.474200  0.511399  1
  Lu  Lu4  1  0.525800  0.474200  0.511399  1
  Lu  Lu5  1  0.464620  0.929239  0.006816  1
  Lu  Lu6  1  0.070761  0.535380  0.006816  1
  Lu  Lu7  1  0.464620  0.535380  0.006816  1
  Lu  Lu8  1  0.178559  0.357116  0.717152  1
  Lu  Lu9  1  0.642884  0.821441  0.717152  1
  Lu  Lu10  1  0.178559  0.821441  0.717152  1
  Lu  Lu11  1  0.826259  0.652520  0.214529  1
  Lu  Lu12  1  0.347480  0.173741  0.214529  1
  Lu  Lu13  1  0.826259  0.173741  0.214529  1
  Lu  Lu14  1  0.666667  0.333333  0.871530  1
  Lu  Lu15  1  0.333333  0.666667  0.397655  1
  In  In16  1  0.837052  0.674103  0.747553  1
  In  In17  1  0.325897  0.162948  0.747553  1
  In  In18  1  0.837052  0.162948  0.747553  1
  In  In19  1  0.163426  0.326851  0.251374  1
  In  In20  1  0.673149  0.836574  0.251374  1
  In  In21  1  0.163426  0.836574  0.251374  1
  Co  Co22  1  0.333333  0.666667  0.782387  1
  Au  Au23  1  0.666667  0.333333  0.280382  1
