# generated using pymatgen
data_CsLiPuS3
_symmetry_space_group_name_H-M   'P 1'
_cell_length_a   7.59524800
_cell_length_b   7.59524699
_cell_length_c   10.43411900
_cell_angle_alpha   90.00000000
_cell_angle_beta   90.00000000
_cell_angle_gamma   148.95938854
_symmetry_Int_Tables_number   1
_chemical_formula_structural   CsLiPuS3
_chemical_formula_sum   'Cs2 Li2 Pu2 S6'
_cell_volume   310.37796789
_cell_formula_units_Z   2
loop_
 _symmetry_equiv_pos_site_id
 _symmetry_equiv_pos_as_xyz
  1  'x, y, z'
loop_
 _atom_site_type_symbol
 _atom_site_label
 _atom_site_symmetry_multiplicity
 _atom_site_fract_x
 _atom_site_fract_y
 _atom_site_fract_z
 _atom_site_occupancy
  Cs  Cs0  1  0.238348  0.761651  0.250000  1
  Cs  Cs1  1  0.761651  0.238348  0.750000  1
  Li  Li2  1  0.961085  0.038914  0.250000  1
  Li  Li3  1  0.038914  0.961085  0.750000  1
  Pu  Pu4  1  0.499999  0.499999  0.000000  1
  Pu  Pu5  1  0.499999  0.499999  0.500000  1
  S  S6  1  0.885770  0.114228  0.048401  1
  S  S7  1  0.545311  0.454688  0.250000  1
  S  S8  1  0.885770  0.114228  0.451599  1
  S  S9  1  0.114228  0.885770  0.548401  1
  S  S10  1  0.454688  0.545311  0.750000  1
  S  S11  1  0.114228  0.885770  0.951599  1
