# generated using pymatgen
data_Pr3Y2In4IrPd
_symmetry_space_group_name_H-M   'P 1'
_cell_length_a   3.78669000
_cell_length_b   8.28646675
_cell_length_c   18.47906764
_cell_angle_alpha   90.28015362
_cell_angle_beta   90.00000000
_cell_angle_gamma   90.00000000
_symmetry_Int_Tables_number   1
_chemical_formula_structural   Pr3Y2In4IrPd
_chemical_formula_sum   'Pr6 Y4 In8 Ir2 Pd2'
_cell_volume   579.83444163
_cell_formula_units_Z   2
loop_
 _symmetry_equiv_pos_site_id
 _symmetry_equiv_pos_as_xyz
  1  'x, y, z'
loop_
 _atom_site_type_symbol
 _atom_site_label
 _atom_site_symmetry_multiplicity
 _atom_site_fract_x
 _atom_site_fract_y
 _atom_site_fract_z
 _atom_site_occupancy
  Pr  Pr0  1  0.500000  0.227340  0.783112  1
  Pr  Pr1  1  0.500000  0.772660  0.216888  1
  Pr  Pr2  1  0.500000  0.252360  0.285088  1
  Pr  Pr3  1  0.500000  0.747640  0.714912  1
  Pr  Pr4  1  0.500000  0.000000  0.000000  1
  Pr  Pr5  1  0.500000  0.500000  0.500000  1
  Y  Y6  1  0.500000  0.114576  0.589122  1
  Y  Y7  1  0.500000  0.885424  0.410878  1
  Y  Y8  1  0.500000  0.380520  0.086137  1
  Y  Y9  1  0.500000  0.619480  0.913863  1
  In  In10  1  0.000000  0.084952  0.151579  1
  In  In11  1  0.000000  0.915048  0.848421  1
  In  In12  1  0.000000  0.413824  0.653033  1
  In  In13  1  0.000000  0.586176  0.346967  1
  In  In14  1  0.000000  0.193318  0.437369  1
  In  In15  1  0.000000  0.806682  0.562631  1
  In  In16  1  0.000000  0.305973  0.937648  1
  In  In17  1  0.000000  0.694027  0.062352  1
  Ir  Ir18  1  0.000000  0.019353  0.694346  1
  Ir  Ir19  1  0.000000  0.980647  0.305654  1
  Pd  Pd20  1  0.000000  0.479185  0.194036  1
  Pd  Pd21  1  0.000000  0.520815  0.805964  1
