# generated using pymatgen
data_HoEr3Tm4In3Co
_symmetry_space_group_name_H-M   'P 1'
_cell_length_a   10.23995300
_cell_length_b   10.23995324
_cell_length_c   6.98295300
_cell_angle_alpha   90.00000000
_cell_angle_beta   90.00000000
_cell_angle_gamma   119.99999599
_symmetry_Int_Tables_number   1
_chemical_formula_structural   HoEr3Tm4In3Co
_chemical_formula_sum   'Ho2 Er6 Tm8 In6 Co2'
_cell_volume   634.11161041
_cell_formula_units_Z   2
loop_
 _symmetry_equiv_pos_site_id
 _symmetry_equiv_pos_as_xyz
  1  'x, y, z'
loop_
 _atom_site_type_symbol
 _atom_site_label
 _atom_site_symmetry_multiplicity
 _atom_site_fract_x
 _atom_site_fract_y
 _atom_site_fract_z
 _atom_site_occupancy
  Ho  Ho0  1  0.000000  0.000000  0.493403  1
  Ho  Ho1  1  0.000000  0.000000  0.993403  1
  Er  Er2  1  0.534866  0.069732  0.504436  1
  Er  Er3  1  0.930268  0.465134  0.504436  1
  Er  Er4  1  0.534866  0.465134  0.504436  1
  Er  Er5  1  0.465134  0.930268  0.004436  1
  Er  Er6  1  0.069732  0.534866  0.004436  1
  Er  Er7  1  0.465134  0.534866  0.004436  1
  Tm  Tm8  1  0.178792  0.357584  0.710940  1
  Tm  Tm9  1  0.642416  0.821208  0.710940  1
  Tm  Tm10  1  0.178792  0.821208  0.710940  1
  Tm  Tm11  1  0.821208  0.642416  0.210940  1
  Tm  Tm12  1  0.357584  0.178792  0.210940  1
  Tm  Tm13  1  0.821208  0.178792  0.210940  1
  Tm  Tm14  1  0.666667  0.333333  0.897586  1
  Tm  Tm15  1  0.333333  0.666667  0.397586  1
  In  In16  1  0.836956  0.673913  0.754238  1
  In  In17  1  0.326087  0.163044  0.754238  1
  In  In18  1  0.836956  0.163044  0.754238  1
  In  In19  1  0.163044  0.326087  0.254238  1
  In  In20  1  0.673913  0.836956  0.254238  1
  In  In21  1  0.163044  0.836956  0.254238  1
  Co  Co22  1  0.666667  0.333333  0.279191  1
  Co  Co23  1  0.333333  0.666667  0.779191  1
