# generated using pymatgen
data_Ho17Lu3(SiBi2)4
_symmetry_space_group_name_H-M   'P 1'
_cell_length_a   8.01451297
_cell_length_b   9.11284201
_cell_length_c   12.00377343
_cell_angle_alpha   90.00017681
_cell_angle_beta   89.94387655
_cell_angle_gamma   90.00462464
_symmetry_Int_Tables_number   1
_chemical_formula_structural   Ho17Lu3(SiBi2)4
_chemical_formula_sum   'Ho17 Lu3 Si4 Bi8'
_cell_volume   876.69505498
_cell_formula_units_Z   1
loop_
 _symmetry_equiv_pos_site_id
 _symmetry_equiv_pos_as_xyz
  1  'x, y, z'
loop_
 _atom_site_type_symbol
 _atom_site_label
 _atom_site_symmetry_multiplicity
 _atom_site_fract_x
 _atom_site_fract_y
 _atom_site_fract_z
 _atom_site_occupancy
  Ho  Ho0  1  0.321037  0.446512  0.437295  1
  Ho  Ho1  1  0.179732  0.446753  0.937254  1
  Ho  Ho2  1  0.320316  0.053195  0.437208  1
  Ho  Ho3  1  0.820179  0.946752  0.062769  1
  Ho  Ho4  1  0.679364  0.553525  0.562705  1
  Ho  Ho5  1  0.164785  0.749646  0.211599  1
  Ho  Ho6  1  0.335156  0.750309  0.711598  1
  Ho  Ho7  1  0.835148  0.249593  0.788462  1
  Ho  Ho8  1  0.665112  0.250081  0.288224  1
  Ho  Ho9  1  0.460693  0.750220  0.001080  1
  Ho  Ho10  1  0.038770  0.750074  0.501133  1
  Ho  Ho11  1  0.539046  0.250024  0.998836  1
  Ho  Ho12  1  0.960337  0.249664  0.498962  1
  Ho  Ho13  1  0.637446  0.749759  0.295206  1
  Ho  Ho14  1  0.862452  0.749943  0.795283  1
  Ho  Ho15  1  0.362966  0.249595  0.705070  1
  Ho  Ho16  1  0.137358  0.249757  0.204199  1
  Lu  Lu17  1  0.821994  0.554643  0.062733  1
  Lu  Lu18  1  0.678049  0.944984  0.562785  1
  Lu  Lu19  1  0.178116  0.054760  0.936994  1
  Si  Si20  1  0.412660  0.751133  0.479122  1
  Si  Si21  1  0.087731  0.751293  0.978550  1
  Si  Si22  1  0.588689  0.247315  0.521756  1
  Si  Si23  1  0.911759  0.251363  0.021318  1
  Bi  Bi24  1  0.931761  0.510542  0.325223  1
  Bi  Bi25  1  0.567988  0.989183  0.825614  1
  Bi  Bi26  1  0.067997  0.010482  0.674691  1
  Bi  Bi27  1  0.432474  0.489227  0.174158  1
  Bi  Bi28  1  0.067696  0.489487  0.674533  1
  Bi  Bi29  1  0.432980  0.010370  0.174540  1
  Bi  Bi30  1  0.932780  0.989306  0.325424  1
  Bi  Bi31  1  0.567428  0.510508  0.825674  1
