# generated using pymatgen
data_Zr10InSnPb4
_symmetry_space_group_name_H-M   'P 1'
_cell_length_a   5.72492227
_cell_length_b   8.57273137
_cell_length_c   8.57273088
_cell_angle_alpha   96.40128839
_cell_angle_beta   109.50584213
_cell_angle_gamma   70.49414881
_symmetry_Int_Tables_number   1
_chemical_formula_structural   Zr10InSnPb4
_chemical_formula_sum   'Zr10 In1 Sn1 Pb4'
_cell_volume   373.82617837
_cell_formula_units_Z   1
loop_
 _symmetry_equiv_pos_site_id
 _symmetry_equiv_pos_as_xyz
  1  'x, y, z'
loop_
 _atom_site_type_symbol
 _atom_site_label
 _atom_site_symmetry_multiplicity
 _atom_site_fract_x
 _atom_site_fract_y
 _atom_site_fract_z
 _atom_site_occupancy
  Zr  Zr0  1  0.422642  0.855660  0.700983  1
  Zr  Zr1  1  0.577319  0.144340  0.299017  1
  Zr  Zr2  1  0.922681  0.299017  0.144340  1
  Zr  Zr3  1  0.077358  0.700983  0.855660  1
  Zr  Zr4  1  0.721658  0.700983  0.144340  1
  Zr  Zr5  1  0.278301  0.299017  0.855660  1
  Zr  Zr6  1  0.778342  0.144340  0.700983  1
  Zr  Zr7  1  0.221699  0.855660  0.299017  1
  Zr  Zr8  1  0.250000  0.500000  0.500000  1
  Zr  Zr9  1  0.750000  0.500000  0.500000  1
  In  In10  1  0.750000  0.000000  0.000000  1
  Sn  Sn11  1  0.250000  0.000000  0.000000  1
  Pb  Pb12  1  0.334963  0.500000  0.169927  1
  Pb  Pb13  1  0.665037  0.500000  0.830073  1
  Pb  Pb14  1  0.834963  0.830073  0.500000  1
  Pb  Pb15  1  0.165037  0.169927  0.500000  1
