# generated using pymatgen
data_Ho2Er6In3Tc
_symmetry_space_group_name_H-M   'P 1'
_cell_length_a   10.34476400
_cell_length_b   10.34384948
_cell_length_c   7.00475247
_cell_angle_alpha   90.03634200
_cell_angle_beta   90.00003340
_cell_angle_gamma   120.00125541
_symmetry_Int_Tables_number   1
_chemical_formula_structural   Ho2Er6In3Tc
_chemical_formula_sum   'Ho4 Er12 In6 Tc2'
_cell_volume   649.11342851
_cell_formula_units_Z   2
loop_
 _symmetry_equiv_pos_site_id
 _symmetry_equiv_pos_as_xyz
  1  'x, y, z'
loop_
 _atom_site_type_symbol
 _atom_site_label
 _atom_site_symmetry_multiplicity
 _atom_site_fract_x
 _atom_site_fract_y
 _atom_site_fract_z
 _atom_site_occupancy
  Ho  Ho0  1  0.530743  0.061484  0.796283  1
  Ho  Ho1  1  0.938535  0.469213  0.796548  1
  Ho  Ho2  1  0.530678  0.469215  0.796547  1
  Ho  Ho3  1  0.468963  0.937927  0.296523  1
  Er  Er4  1  0.062198  0.531036  0.296834  1
  Er  Er5  1  0.468842  0.531029  0.296829  1
  Er  Er6  1  0.822517  0.645020  0.499293  1
  Er  Er7  1  0.354794  0.177501  0.499375  1
  Er  Er8  1  0.822709  0.177497  0.499377  1
  Er  Er9  1  0.177586  0.355174  0.999923  1
  Er  Er10  1  0.645089  0.822430  0.999815  1
  Er  Er11  1  0.177358  0.822445  0.999812  1
  Er  Er12  1  0.666776  0.333532  0.168029  1
  Er  Er13  1  0.333235  0.666471  0.667327  1
  Er  Er14  1  0.000017  0.000042  0.775516  1
  Er  Er15  1  0.000038  0.000075  0.275417  1
  In  In16  1  0.837263  0.674627  0.038827  1
  In  In17  1  0.325467  0.162718  0.038781  1
  In  In18  1  0.837289  0.162740  0.038838  1
  In  In19  1  0.162910  0.325807  0.538426  1
  In  In20  1  0.674332  0.837104  0.538554  1
  In  In21  1  0.162743  0.837088  0.538579  1
  Tc  Tc22  1  0.666639  0.333272  0.570380  1
  Tc  Tc23  1  0.333278  0.666551  0.070075  1
