# generated using pymatgen
data_Y7Ho3Os4
_symmetry_space_group_name_H-M   'P 1'
_cell_length_a   6.38127343
_cell_length_b   7.36740089
_cell_length_c   8.46199774
_cell_angle_alpha   96.83095041
_cell_angle_beta   112.30582226
_cell_angle_gamma   90.10076124
_symmetry_Int_Tables_number   1
_chemical_formula_structural   Y7Ho3Os4
_chemical_formula_sum   'Y7 Ho3 Os4'
_cell_volume   364.96896467
_cell_formula_units_Z   1
loop_
 _symmetry_equiv_pos_site_id
 _symmetry_equiv_pos_as_xyz
  1  'x, y, z'
loop_
 _atom_site_type_symbol
 _atom_site_label
 _atom_site_symmetry_multiplicity
 _atom_site_fract_x
 _atom_site_fract_y
 _atom_site_fract_z
 _atom_site_occupancy
  Y  Y0  1  0.976393  0.916139  0.183185  1
  Y  Y1  1  0.793035  0.583646  0.816190  1
  Y  Y2  1  0.023388  0.084132  0.816630  1
  Y  Y3  1  0.207082  0.416166  0.183682  1
  Y  Y4  1  0.639588  0.816690  0.435552  1
  Y  Y5  1  0.203386  0.683054  0.564893  1
  Y  Y6  1  0.360621  0.183448  0.564319  1
  Ho  Ho7  1  0.796221  0.317232  0.434519  1
  Ho  Ho8  1  0.422520  0.749626  0.999761  1
  Ho  Ho9  1  0.577573  0.250467  0.000457  1
  Os  Os10  1  0.819714  0.575994  0.218813  1
  Os  Os11  1  0.602214  0.923176  0.782186  1
  Os  Os12  1  0.178841  0.422496  0.781133  1
  Os  Os13  1  0.399423  0.077736  0.218678  1
