# generated using pymatgen
data_Ce5Th3(ZnSi3)4
_symmetry_space_group_name_H-M   'P 1'
_cell_length_a   8.21171414
_cell_length_b   8.21431931
_cell_length_c   8.43686100
_cell_angle_alpha   90.00000000
_cell_angle_beta   90.00000000
_cell_angle_gamma   120.01049667
_symmetry_Int_Tables_number   1
_chemical_formula_structural   Ce5Th3(ZnSi3)4
_chemical_formula_sum   'Ce5 Th3 Zn4 Si12'
_cell_volume   492.80032274
_cell_formula_units_Z   1
loop_
 _symmetry_equiv_pos_site_id
 _symmetry_equiv_pos_as_xyz
  1  'x, y, z'
loop_
 _atom_site_type_symbol
 _atom_site_label
 _atom_site_symmetry_multiplicity
 _atom_site_fract_x
 _atom_site_fract_y
 _atom_site_fract_z
 _atom_site_occupancy
  Ce  Ce0  1  0.000019  0.000010  0.750000  1
  Ce  Ce1  1  0.000907  0.500453  0.250000  1
  Ce  Ce2  1  0.500500  0.499508  0.750000  1
  Ce  Ce3  1  0.500500  0.000993  0.750000  1
  Ce  Ce4  1  0.999046  0.499524  0.750000  1
  Th  Th5  1  0.000012  0.000006  0.250000  1
  Th  Th6  1  0.499484  0.500474  0.250000  1
  Th  Th7  1  0.499484  0.999009  0.250000  1
  Zn  Zn8  1  0.332606  0.666304  0.503621  1
  Zn  Zn9  1  0.667421  0.333710  0.500100  1
  Zn  Zn10  1  0.667421  0.333710  0.999900  1
  Zn  Zn11  1  0.332606  0.666304  0.996379  1
  Si  Si12  1  0.165892  0.833040  0.501830  1
  Si  Si13  1  0.165892  0.332853  0.501830  1
  Si  Si14  1  0.667621  0.833810  0.503140  1
  Si  Si15  1  0.834090  0.166964  0.501117  1
  Si  Si16  1  0.834090  0.667126  0.501117  1
  Si  Si17  1  0.332411  0.166206  0.502422  1
  Si  Si18  1  0.834090  0.166964  0.998883  1
  Si  Si19  1  0.834090  0.667126  0.998883  1
  Si  Si20  1  0.332411  0.166206  0.997578  1
  Si  Si21  1  0.165892  0.833040  0.998170  1
  Si  Si22  1  0.165892  0.332853  0.998170  1
  Si  Si23  1  0.667621  0.833810  0.996860  1
