# generated using pymatgen
data_Ta4MnAl6Cu
_symmetry_space_group_name_H-M   'P 1'
_cell_length_a   5.02572542
_cell_length_b   4.99477003
_cell_length_c   8.28812200
_cell_angle_alpha   90.00000000
_cell_angle_beta   90.00000000
_cell_angle_gamma   119.17831247
_symmetry_Int_Tables_number   1
_chemical_formula_structural   Ta4MnAl6Cu
_chemical_formula_sum   'Ta4 Mn1 Al6 Cu1'
_cell_volume   181.65096130
_cell_formula_units_Z   1
loop_
 _symmetry_equiv_pos_site_id
 _symmetry_equiv_pos_as_xyz
  1  'x, y, z'
loop_
 _atom_site_type_symbol
 _atom_site_label
 _atom_site_symmetry_multiplicity
 _atom_site_fract_x
 _atom_site_fract_y
 _atom_site_fract_z
 _atom_site_occupancy
  Ta  Ta0  1  0.336214  0.666310  0.059222  1
  Ta  Ta1  1  0.659437  0.332404  0.564081  1
  Ta  Ta2  1  0.659437  0.332404  0.935919  1
  Ta  Ta3  1  0.336214  0.666310  0.440778  1
  Mn  Mn4  1  0.165105  0.335032  0.750000  1
  Al  Al5  1  0.998453  0.017461  0.999872  1
  Al  Al6  1  0.998453  0.017461  0.500128  1
  Al  Al7  1  0.837586  0.652219  0.250000  1
  Al  Al8  1  0.164493  0.823024  0.750000  1
  Al  Al9  1  0.650531  0.823905  0.750000  1
  Al  Al10  1  0.355001  0.166861  0.250000  1
  Cu  Cu11  1  0.839077  0.166611  0.250000  1
