# generated using pymatgen
data_Ca20SiGe3Sb8
_symmetry_space_group_name_H-M   'P 1'
_cell_length_a   8.03615304
_cell_length_b   9.48968900
_cell_length_c   12.80706807
_cell_angle_alpha   90.00000000
_cell_angle_beta   90.01185703
_cell_angle_gamma   90.00000000
_symmetry_Int_Tables_number   1
_chemical_formula_structural   Ca20SiGe3Sb8
_chemical_formula_sum   'Ca20 Si1 Ge3 Sb8'
_cell_volume   976.67458631
_cell_formula_units_Z   1
loop_
 _symmetry_equiv_pos_site_id
 _symmetry_equiv_pos_as_xyz
  1  'x, y, z'
loop_
 _atom_site_type_symbol
 _atom_site_label
 _atom_site_symmetry_multiplicity
 _atom_site_fract_x
 _atom_site_fract_y
 _atom_site_fract_z
 _atom_site_occupancy
  Ca  Ca0  1  0.326792  0.972702  0.078170  1
  Ca  Ca1  1  0.826350  0.026918  0.421678  1
  Ca  Ca2  1  0.673392  0.473677  0.921824  1
  Ca  Ca3  1  0.173647  0.526908  0.578320  1
  Ca  Ca4  1  0.673392  0.026323  0.921824  1
  Ca  Ca5  1  0.173647  0.973092  0.578320  1
  Ca  Ca6  1  0.326792  0.527298  0.078170  1
  Ca  Ca7  1  0.826350  0.473082  0.421678  1
  Ca  Ca8  1  0.674372  0.750000  0.217200  1
  Ca  Ca9  1  0.174562  0.250000  0.282398  1
  Ca  Ca10  1  0.325428  0.250000  0.782412  1
  Ca  Ca11  1  0.825371  0.750000  0.717676  1
  Ca  Ca12  1  0.150152  0.750000  0.304690  1
  Ca  Ca13  1  0.650152  0.250000  0.195330  1
  Ca  Ca14  1  0.849861  0.250000  0.695331  1
  Ca  Ca15  1  0.350322  0.750000  0.805084  1
  Ca  Ca16  1  0.552487  0.750000  0.500872  1
  Ca  Ca17  1  0.052518  0.250000  0.999123  1
  Ca  Ca18  1  0.447505  0.250000  0.499135  1
  Ca  Ca19  1  0.946857  0.750000  0.000838  1
  Si  Si20  1  0.558083  0.750000  0.992248  1
  Ge  Ge21  1  0.057994  0.250000  0.507681  1
  Ge  Ge22  1  0.441990  0.250000  0.007681  1
  Ge  Ge23  1  0.941999  0.750000  0.492324  1
  Sb  Sb24  1  0.946895  0.006927  0.169218  1
  Sb  Sb25  1  0.446907  0.993057  0.330795  1
  Sb  Sb26  1  0.053099  0.506934  0.830777  1
  Sb  Sb27  1  0.553091  0.493066  0.669206  1
  Sb  Sb28  1  0.053099  0.993066  0.830777  1
  Sb  Sb29  1  0.553091  0.006934  0.669206  1
  Sb  Sb30  1  0.946895  0.493073  0.169218  1
  Sb  Sb31  1  0.446907  0.506943  0.330795  1
