# generated using pymatgen
data_YbTmLu6(B6Os)4
_symmetry_space_group_name_H-M   'P 1'
_cell_length_a   3.60038000
_cell_length_b   9.04711005
_cell_length_c   11.42428101
_cell_angle_alpha   89.94776142
_cell_angle_beta   90.00000000
_cell_angle_gamma   90.00000000
_symmetry_Int_Tables_number   1
_chemical_formula_structural   YbTmLu6(B6Os)4
_chemical_formula_sum   'Yb1 Tm1 Lu6 B24 Os4'
_cell_volume   372.12333987
_cell_formula_units_Z   1
loop_
 _symmetry_equiv_pos_site_id
 _symmetry_equiv_pos_as_xyz
  1  'x, y, z'
loop_
 _atom_site_type_symbol
 _atom_site_label
 _atom_site_symmetry_multiplicity
 _atom_site_fract_x
 _atom_site_fract_y
 _atom_site_fract_z
 _atom_site_occupancy
  Yb  Yb0  1  0.000000  0.322484  0.413425  1
  Tm  Tm1  1  0.000000  0.676991  0.585205  1
  Lu  Lu2  1  0.000000  0.821288  0.086440  1
  Lu  Lu3  1  0.000000  0.179410  0.914548  1
  Lu  Lu4  1  0.000000  0.944489  0.372046  1
  Lu  Lu5  1  0.000000  0.057100  0.627323  1
  Lu  Lu6  1  0.000000  0.443663  0.128088  1
  Lu  Lu7  1  0.000000  0.555691  0.873311  1
  B  B8  1  0.500000  0.554043  0.433054  1
  B  B9  1  0.500000  0.446289  0.567189  1
  B  B10  1  0.500000  0.052821  0.065584  1
  B  B11  1  0.500000  0.946201  0.933389  1
  B  B12  1  0.500000  0.749684  0.419800  1
  B  B13  1  0.500000  0.250794  0.580908  1
  B  B14  1  0.500000  0.248676  0.079573  1
  B  B15  1  0.500000  0.750621  0.920399  1
  B  B16  1  0.500000  0.792826  0.265513  1
  B  B17  1  0.500000  0.208226  0.734996  1
  B  B18  1  0.500000  0.291053  0.233467  1
  B  B19  1  0.500000  0.708031  0.766124  1
  B  B20  1  0.500000  0.631775  0.184807  1
  B  B21  1  0.500000  0.368928  0.816189  1
  B  B22  1  0.500000  0.130431  0.314406  1
  B  B23  1  0.500000  0.868930  0.684567  1
  B  B24  1  0.500000  0.981567  0.211987  1
  B  B25  1  0.500000  0.018168  0.787039  1
  B  B26  1  0.500000  0.482815  0.286908  1
  B  B27  1  0.500000  0.517902  0.713370  1
  B  B28  1  0.500000  0.606112  0.029497  1
  B  B29  1  0.500000  0.394284  0.971098  1
  B  B30  1  0.500000  0.101810  0.471779  1
  B  B31  1  0.500000  0.896273  0.528686  1
  Os  Os32  1  0.000000  0.640013  0.320097  1
  Os  Os33  1  0.000000  0.361850  0.680748  1
  Os  Os34  1  0.000000  0.136433  0.177270  1
  Os  Os35  1  0.000000  0.862328  0.821175  1
