# generated using pymatgen
data_Ho3TmCoCu3
_symmetry_space_group_name_H-M   'P 1'
_cell_length_a   4.34391300
_cell_length_b   5.40033837
_cell_length_c   7.05818001
_cell_angle_alpha   90.36121513
_cell_angle_beta   90.00000000
_cell_angle_gamma   90.00000000
_symmetry_Int_Tables_number   1
_chemical_formula_structural   Ho3TmCoCu3
_chemical_formula_sum   'Ho3 Tm1 Co1 Cu3'
_cell_volume   165.57173155
_cell_formula_units_Z   1
loop_
 _symmetry_equiv_pos_site_id
 _symmetry_equiv_pos_as_xyz
  1  'x, y, z'
loop_
 _atom_site_type_symbol
 _atom_site_label
 _atom_site_symmetry_multiplicity
 _atom_site_fract_x
 _atom_site_fract_y
 _atom_site_fract_z
 _atom_site_occupancy
  Ho  Ho0  1  0.000000  0.629137  0.325811  1
  Ho  Ho1  1  0.000000  0.874470  0.812135  1
  Ho  Ho2  1  0.500000  0.135322  0.194049  1
  Tm  Tm3  1  0.500000  0.358902  0.669469  1
  Co  Co4  1  0.000000  0.130240  0.468598  1
  Cu  Cu5  1  0.000000  0.379088  0.963775  1
  Cu  Cu6  1  0.500000  0.869047  0.536612  1
  Cu  Cu7  1  0.500000  0.623794  0.029554  1
