# generated using pymatgen
data_HfCdSi2O7
_symmetry_space_group_name_H-M   'P 1'
_cell_length_a   5.51724030
_cell_length_b   5.51724046
_cell_length_c   4.77210782
_cell_angle_alpha   97.81099064
_cell_angle_beta   97.81099144
_cell_angle_gamma   103.01371432
_symmetry_Int_Tables_number   1
_chemical_formula_structural   HfCdSi2O7
_chemical_formula_sum   'Hf1 Cd1 Si2 O7'
_cell_volume   138.11669575
_cell_formula_units_Z   1
loop_
 _symmetry_equiv_pos_site_id
 _symmetry_equiv_pos_as_xyz
  1  'x, y, z'
loop_
 _atom_site_type_symbol
 _atom_site_label
 _atom_site_symmetry_multiplicity
 _atom_site_fract_x
 _atom_site_fract_y
 _atom_site_fract_z
 _atom_site_occupancy
  Hf  Hf0  1  0.682736  0.317264  0.000000  1
  Cd  Cd1  1  0.293245  0.706755  0.000000  1
  Si  Si2  1  0.218184  0.202516  0.415548  1
  Si  Si3  1  0.797486  0.781817  0.584452  1
  O  O4  1  0.410257  0.114117  0.206490  1
  O  O5  1  0.025954  0.337945  0.239399  1
  O  O6  1  0.621634  0.620001  0.283955  1
  O  O7  1  0.061947  0.938053  0.500001  1
  O  O8  1  0.379999  0.378366  0.716045  1
  O  O9  1  0.662055  0.974046  0.760601  1
  O  O10  1  0.885883  0.589743  0.793510  1
