# generated using pymatgen
data_Y4Tc2(OsRu)3
_symmetry_space_group_name_H-M   'P 1'
_cell_length_a   5.32421162
_cell_length_b   5.32607060
_cell_length_c   9.13379700
_cell_angle_alpha   90.00000000
_cell_angle_beta   90.00000000
_cell_angle_gamma   122.30743147
_symmetry_Int_Tables_number   1
_chemical_formula_structural   Y4Tc2(OsRu)3
_chemical_formula_sum   'Y4 Tc2 Os3 Ru3'
_cell_volume   218.91182784
_cell_formula_units_Z   1
loop_
 _symmetry_equiv_pos_site_id
 _symmetry_equiv_pos_as_xyz
  1  'x, y, z'
loop_
 _atom_site_type_symbol
 _atom_site_label
 _atom_site_symmetry_multiplicity
 _atom_site_fract_x
 _atom_site_fract_y
 _atom_site_fract_z
 _atom_site_occupancy
  Y  Y0  1  0.331939  0.662963  0.434238  1
  Y  Y1  1  0.665098  0.331837  0.565692  1
  Y  Y2  1  0.665098  0.331837  0.934308  1
  Y  Y3  1  0.331939  0.662963  0.065762  1
  Tc  Tc4  1  0.829342  0.670900  0.250000  1
  Tc  Tc5  1  0.663985  0.832225  0.750000  1
  Os  Os6  1  0.174530  0.346028  0.750000  1
  Os  Os7  1  0.167968  0.834131  0.750000  1
  Os  Os8  1  0.341013  0.176690  0.250000  1
  Ru  Ru9  1  0.001489  0.987307  0.000982  1
  Ru  Ru10  1  0.826110  0.175812  0.250000  1
  Ru  Ru11  1  0.001489  0.987307  0.499018  1
