# generated using pymatgen
data_La8Nd9Sm3Si16
_symmetry_space_group_name_H-M   'P 1'
_cell_length_a   7.91425204
_cell_length_b   7.91425204
_cell_length_c   15.30786005
_cell_angle_alpha   89.99331666
_cell_angle_beta   90.00668334
_cell_angle_gamma   89.99147198
_symmetry_Int_Tables_number   1
_chemical_formula_structural   La8Nd9Sm3Si16
_chemical_formula_sum   'La8 Nd9 Sm3 Si16'
_cell_volume   958.81368850
_cell_formula_units_Z   1
loop_
 _symmetry_equiv_pos_site_id
 _symmetry_equiv_pos_as_xyz
  1  'x, y, z'
loop_
 _atom_site_type_symbol
 _atom_site_label
 _atom_site_symmetry_multiplicity
 _atom_site_fract_x
 _atom_site_fract_y
 _atom_site_fract_z
 _atom_site_occupancy
  La  La0  1  0.986924  0.623308  0.051960  1
  La  La1  1  0.013546  0.376825  0.551952  1
  La  La2  1  0.623308  0.986924  0.948040  1
  La  La3  1  0.123142  0.513738  0.801835  1
  La  La4  1  0.876732  0.486396  0.301931  1
  La  La5  1  0.513738  0.123142  0.198165  1
  La  La6  1  0.486396  0.876732  0.698069  1
  La  La7  1  0.376825  0.013546  0.448048  1
  Nd  Nd8  1  0.373070  0.481175  0.373115  1
  Nd  Nd9  1  0.873081  0.018758  0.377190  1
  Nd  Nd10  1  0.981248  0.126947  0.123282  1
  Nd  Nd11  1  0.018758  0.873081  0.622810  1
  Nd  Nd12  1  0.626753  0.518911  0.872745  1
  Nd  Nd13  1  0.481175  0.373070  0.626885  1
  Nd  Nd14  1  0.518911  0.626753  0.127255  1
  Nd  Nd15  1  0.126947  0.981248  0.876718  1
  Nd  Nd16  1  0.308431  0.308431  0.000000  1
  Sm  Sm17  1  0.690139  0.690139  0.500000  1
  Sm  Sm18  1  0.809548  0.190291  0.749839  1
  Sm  Sm19  1  0.190291  0.809548  0.250161  1
  Si  Si20  1  0.078646  0.714037  0.438541  1
  Si  Si21  1  0.919846  0.285645  0.938192  1
  Si  Si22  1  0.714037  0.078646  0.561459  1
  Si  Si23  1  0.213669  0.422126  0.189690  1
  Si  Si24  1  0.786030  0.578895  0.688355  1
  Si  Si25  1  0.422126  0.213669  0.810310  1
  Si  Si26  1  0.578895  0.786030  0.311645  1
  Si  Si27  1  0.285645  0.919846  0.061808  1
  Si  Si28  1  0.830711  0.806821  0.795609  1
  Si  Si29  1  0.169300  0.193286  0.296089  1
  Si  Si30  1  0.806821  0.830711  0.204391  1
  Si  Si31  1  0.306759  0.669519  0.545637  1
  Si  Si32  1  0.694468  0.331278  0.046079  1
  Si  Si33  1  0.669519  0.306759  0.454363  1
  Si  Si34  1  0.331278  0.694468  0.953921  1
  Si  Si35  1  0.193286  0.169300  0.703911  1
