# generated using pymatgen
data_DyEr3(NCl3)2
_symmetry_space_group_name_H-M   'P 1'
_cell_length_a   8.69311771
_cell_length_b   8.69311736
_cell_length_c   10.95475792
_cell_angle_alpha   122.81466897
_cell_angle_beta   122.81466784
_cell_angle_gamma   25.23489817
_symmetry_Int_Tables_number   1
_chemical_formula_structural   DyEr3(NCl3)2
_chemical_formula_sum   'Dy1 Er3 N2 Cl6'
_cell_volume   293.51393170
_cell_formula_units_Z   1
loop_
 _symmetry_equiv_pos_site_id
 _symmetry_equiv_pos_as_xyz
  1  'x, y, z'
loop_
 _atom_site_type_symbol
 _atom_site_label
 _atom_site_symmetry_multiplicity
 _atom_site_fract_x
 _atom_site_fract_y
 _atom_site_fract_z
 _atom_site_occupancy
  Dy  Dy0  1  0.861855  0.861855  0.207666  1
  Er  Er1  1  0.580349  0.580349  0.458837  1
  Er  Er2  1  0.420089  0.420089  0.541969  1
  Er  Er3  1  0.137511  0.137511  0.791351  1
  N  N4  1  0.424073  0.424073  0.344047  1
  N  N5  1  0.576713  0.576713  0.657515  1
  Cl  Cl6  1  0.668550  0.668550  0.010860  1
  Cl  Cl7  1  0.041419  0.041419  0.253397  1
  Cl  Cl8  1  0.784816  0.784816  0.385797  1
  Cl  Cl9  1  0.215127  0.215127  0.614626  1
  Cl  Cl10  1  0.959144  0.959144  0.746896  1
  Cl  Cl11  1  0.330353  0.330353  0.987039  1
