# generated using pymatgen
data_Pr20Ga3Si8Ru
_symmetry_space_group_name_H-M   'P 1'
_cell_length_a   7.87269289
_cell_length_b   7.87125790
_cell_length_c   14.45872355
_cell_angle_alpha   89.63548315
_cell_angle_beta   89.79709599
_cell_angle_gamma   90.42652483
_symmetry_Int_Tables_number   1
_chemical_formula_structural   Pr20Ga3Si8Ru
_chemical_formula_sum   'Pr20 Ga3 Si8 Ru1'
_cell_volume   895.92939655
_cell_formula_units_Z   1
loop_
 _symmetry_equiv_pos_site_id
 _symmetry_equiv_pos_as_xyz
  1  'x, y, z'
loop_
 _atom_site_type_symbol
 _atom_site_label
 _atom_site_symmetry_multiplicity
 _atom_site_fract_x
 _atom_site_fract_y
 _atom_site_fract_z
 _atom_site_occupancy
  Pr  Pr0  1  0.817379  0.829361  0.604840  1
  Pr  Pr1  1  0.182157  0.831430  0.105178  1
  Pr  Pr2  1  0.166293  0.813491  0.397103  1
  Pr  Pr3  1  0.999836  0.498689  0.728413  1
  Pr  Pr4  1  0.832363  0.195546  0.389795  1
  Pr  Pr5  1  0.680242  0.659542  0.390738  1
  Pr  Pr6  1  0.675916  0.317822  0.608232  1
  Pr  Pr7  1  0.326317  0.681745  0.606238  1
  Pr  Pr8  1  0.997083  0.496623  0.226339  1
  Pr  Pr9  1  0.663656  0.676558  0.111692  1
  Pr  Pr10  1  0.685540  0.329082  0.889892  1
  Pr  Pr11  1  0.831521  0.812412  0.892989  1
  Pr  Pr12  1  0.318839  0.337214  0.390482  1
  Pr  Pr13  1  0.183773  0.173583  0.604822  1
  Pr  Pr14  1  0.809430  0.168639  0.111038  1
  Pr  Pr15  1  0.316168  0.668567  0.891675  1
  Pr  Pr16  1  0.338730  0.321947  0.110823  1
  Pr  Pr17  1  0.504408  0.004955  0.274113  1
  Pr  Pr18  1  0.166639  0.186377  0.892597  1
  Pr  Pr19  1  0.500916  0.999764  0.772125  1
  Ga  Ga20  1  0.499248  0.999358  0.495160  1
  Ga  Ga21  1  0.498115  0.999919  0.993876  1
  Ga  Ga22  1  0.000884  0.500919  0.004874  1
  Si  Si23  1  0.113966  0.887140  0.748489  1
  Si  Si24  1  0.386798  0.385866  0.748425  1
  Si  Si25  1  0.381824  0.618101  0.251538  1
  Si  Si26  1  0.889368  0.883771  0.252834  1
  Si  Si27  1  0.612954  0.614650  0.748115  1
  Si  Si28  1  0.999450  0.501878  0.508075  1
  Si  Si29  1  0.886795  0.111955  0.748525  1
  Si  Si30  1  0.116529  0.110245  0.250079  1
  Ru  Ru31  1  0.616862  0.382849  0.250887  1
