# generated using pymatgen
data_Zr6Zn18Cu3SiPdPt
_symmetry_space_group_name_H-M   'P 1'
_cell_length_a   8.77294431
_cell_length_b   8.74475389
_cell_length_c   8.76020300
_cell_angle_alpha   59.86463388
_cell_angle_beta   59.83535073
_cell_angle_gamma   60.00996651
_symmetry_Int_Tables_number   1
_chemical_formula_structural   Zr6Zn18Cu3SiPdPt
_chemical_formula_sum   'Zr6 Zn18 Cu3 Si1 Pd1 Pt1'
_cell_volume   474.17231814
_cell_formula_units_Z   1
loop_
 _symmetry_equiv_pos_site_id
 _symmetry_equiv_pos_as_xyz
  1  'x, y, z'
loop_
 _atom_site_type_symbol
 _atom_site_label
 _atom_site_symmetry_multiplicity
 _atom_site_fract_x
 _atom_site_fract_y
 _atom_site_fract_z
 _atom_site_occupancy
  Zr  Zr0  1  0.712505  0.287495  0.287495  1
  Zr  Zr1  1  0.287495  0.712505  0.712505  1
  Zr  Zr2  1  0.291705  0.712327  0.287673  1
  Zr  Zr3  1  0.708295  0.287673  0.712327  1
  Zr  Zr4  1  0.289994  0.286123  0.713877  1
  Zr  Zr5  1  0.710006  0.713877  0.286123  1
  Zn  Zn6  1  0.121526  0.120159  0.127682  1
  Zn  Zn7  1  0.878474  0.879841  0.872318  1
  Zn  Zn8  1  0.117900  0.125985  0.630843  1
  Zn  Zn9  1  0.125272  0.630843  0.125985  1
  Zn  Zn10  1  0.882100  0.874015  0.369157  1
  Zn  Zn11  1  0.874728  0.369157  0.874015  1
  Zn  Zn12  1  0.630632  0.127682  0.120159  1
  Zn  Zn13  1  0.369368  0.872318  0.879841  1
  Zn  Zn14  1  0.000000  0.500000  0.000000  1
  Zn  Zn15  1  0.500000  0.000000  0.500000  1
  Zn  Zn16  1  0.333923  0.341167  0.334879  1
  Zn  Zn17  1  0.666077  0.658833  0.665121  1
  Zn  Zn18  1  0.336942  0.341772  0.990437  1
  Zn  Zn19  1  0.330848  0.990437  0.341772  1
  Zn  Zn20  1  0.663058  0.658228  0.009563  1
  Zn  Zn21  1  0.669152  0.009563  0.658228  1
  Zn  Zn22  1  0.990030  0.334879  0.341167  1
  Zn  Zn23  1  0.009970  0.665121  0.658833  1
  Cu  Cu24  1  0.000000  0.500000  0.500000  1
  Cu  Cu25  1  0.000000  0.000000  0.500000  1
  Cu  Cu26  1  0.500000  0.500000  0.000000  1
  Si  Si27  1  0.500000  0.500000  0.500000  1
  Pd  Pd28  1  0.000000  0.000000  0.000000  1
  Pt  Pt29  1  0.500000  0.000000  0.000000  1
