# generated using pymatgen
data_Ho9TmIrOs3
_symmetry_space_group_name_H-M   'P 1'
_cell_length_a   6.36722052
_cell_length_b   7.32123167
_cell_length_c   8.35457633
_cell_angle_alpha   96.71789833
_cell_angle_beta   112.28187487
_cell_angle_gamma   90.02351843
_symmetry_Int_Tables_number   1
_chemical_formula_structural   Ho9TmIrOs3
_chemical_formula_sum   'Ho9 Tm1 Ir1 Os3'
_cell_volume   357.47610722
_cell_formula_units_Z   1
loop_
 _symmetry_equiv_pos_site_id
 _symmetry_equiv_pos_as_xyz
  1  'x, y, z'
loop_
 _atom_site_type_symbol
 _atom_site_label
 _atom_site_symmetry_multiplicity
 _atom_site_fract_x
 _atom_site_fract_y
 _atom_site_fract_z
 _atom_site_occupancy
  Ho  Ho0  1  0.970361  0.915684  0.179803  1
  Ho  Ho1  1  0.789712  0.581880  0.817901  1
  Ho  Ho2  1  0.025336  0.083869  0.814936  1
  Ho  Ho3  1  0.208470  0.418624  0.180230  1
  Ho  Ho4  1  0.649432  0.816938  0.439191  1
  Ho  Ho5  1  0.210281  0.681913  0.562310  1
  Ho  Ho6  1  0.351572  0.181776  0.563956  1
  Ho  Ho7  1  0.792924  0.319378  0.438463  1
  Ho  Ho8  1  0.421964  0.748778  0.999273  1
  Tm  Tm9  1  0.577477  0.250593  0.999424  1
  Ir  Ir10  1  0.395342  0.077421  0.220613  1
  Os  Os11  1  0.822800  0.575521  0.217463  1
  Os  Os12  1  0.607313  0.925025  0.782785  1
  Os  Os13  1  0.177018  0.422599  0.783653  1
