# generated using pymatgen
data_Cu6BS5Br
_symmetry_space_group_name_H-M   'P 1'
_cell_length_a   6.72456226
_cell_length_b   6.72456198
_cell_length_c   11.64397560
_cell_angle_alpha   73.32811450
_cell_angle_beta   73.32811605
_cell_angle_gamma   60.04922622
_symmetry_Int_Tables_number   1
_chemical_formula_structural   Cu6BS5Br
_chemical_formula_sum   'Cu12 B2 S10 Br2'
_cell_volume   430.44723225
_cell_formula_units_Z   2
loop_
 _symmetry_equiv_pos_site_id
 _symmetry_equiv_pos_as_xyz
  1  'x, y, z'
loop_
 _atom_site_type_symbol
 _atom_site_label
 _atom_site_symmetry_multiplicity
 _atom_site_fract_x
 _atom_site_fract_y
 _atom_site_fract_z
 _atom_site_occupancy
  Cu  Cu0  1  0.032890  0.962159  0.890703  1
  Cu  Cu1  1  0.259789  0.367798  0.615295  1
  Cu  Cu2  1  0.995182  0.538087  0.882876  1
  Cu  Cu3  1  0.367798  0.259789  0.115295  1
  Cu  Cu4  1  0.462666  0.492685  0.887166  1
  Cu  Cu5  1  0.538087  0.995182  0.382876  1
  Cu  Cu6  1  0.854734  0.144001  0.613911  1
  Cu  Cu7  1  0.764357  0.627525  0.113552  1
  Cu  Cu8  1  0.627525  0.764357  0.613552  1
  Cu  Cu9  1  0.144001  0.854734  0.113911  1
  Cu  Cu10  1  0.492685  0.462666  0.387166  1
  Cu  Cu11  1  0.962159  0.032890  0.390703  1
  B  B12  1  0.000974  0.501747  0.372275  1
  B  B13  1  0.501747  0.000974  0.872275  1
  S  S14  1  0.940673  0.446299  0.547162  1
  S  S15  1  0.446299  0.940673  0.047162  1
  S  S16  1  0.194190  0.211446  0.316073  1
  S  S17  1  0.696027  0.153868  0.815993  1
  S  S18  1  0.153868  0.696027  0.315993  1
  S  S19  1  0.211446  0.194190  0.816073  1
  S  S20  1  0.712172  0.653772  0.314301  1
  S  S21  1  0.119605  0.614846  0.019560  1
  S  S22  1  0.614846  0.119605  0.519560  1
  S  S23  1  0.653772  0.712172  0.814301  1
  Br  Br24  1  0.752677  0.243823  0.128265  1
  Br  Br25  1  0.243823  0.752677  0.628265  1
