# generated using pymatgen
data_Rb3Ta2Br10N
_symmetry_space_group_name_H-M   'P 1'
_cell_length_a   7.53896500
_cell_length_b   7.53896500
_cell_length_c   19.96434000
_cell_angle_alpha   90.00000000
_cell_angle_beta   90.00000000
_cell_angle_gamma   90.00000000
_symmetry_Int_Tables_number   1
_chemical_formula_structural   Rb3Ta2Br10N
_chemical_formula_sum   'Rb6 Ta4 Br20 N2'
_cell_volume   1134.69309390
_cell_formula_units_Z   2
loop_
 _symmetry_equiv_pos_site_id
 _symmetry_equiv_pos_as_xyz
  1  'x, y, z'
loop_
 _atom_site_type_symbol
 _atom_site_label
 _atom_site_symmetry_multiplicity
 _atom_site_fract_x
 _atom_site_fract_y
 _atom_site_fract_z
 _atom_site_occupancy
  Rb  Rb0  1  0.500000  0.500000  0.000000  1
  Rb  Rb1  1  0.000000  0.000000  0.500000  1
  Rb  Rb2  1  0.000000  0.500000  0.250000  1
  Rb  Rb3  1  0.500000  0.000000  0.750000  1
  Rb  Rb4  1  0.500000  0.000000  0.250000  1
  Rb  Rb5  1  0.000000  0.500000  0.750000  1
  Ta  Ta6  1  0.500000  0.500000  0.406148  1
  Ta  Ta7  1  0.000000  0.000000  0.906148  1
  Ta  Ta8  1  0.500000  0.500000  0.593852  1
  Ta  Ta9  1  0.000000  0.000000  0.093852  1
  Br  Br10  1  0.782208  0.685898  0.395535  1
  Br  Br11  1  0.217792  0.314102  0.395535  1
  Br  Br12  1  0.717792  0.185898  0.895535  1
  Br  Br13  1  0.282208  0.814102  0.895535  1
  Br  Br14  1  0.685898  0.217792  0.395535  1
  Br  Br15  1  0.314102  0.782208  0.395535  1
  Br  Br16  1  0.185898  0.282208  0.895535  1
  Br  Br17  1  0.814102  0.717792  0.895535  1
  Br  Br18  1  0.217792  0.314102  0.604465  1
  Br  Br19  1  0.782208  0.685898  0.604465  1
  Br  Br20  1  0.282208  0.814102  0.104465  1
  Br  Br21  1  0.717792  0.185898  0.104465  1
  Br  Br22  1  0.314102  0.782208  0.604465  1
  Br  Br23  1  0.685898  0.217792  0.604465  1
  Br  Br24  1  0.814102  0.717792  0.104465  1
  Br  Br25  1  0.185898  0.282208  0.104465  1
  Br  Br26  1  0.500000  0.500000  0.264153  1
  Br  Br27  1  0.000000  0.000000  0.764153  1
  Br  Br28  1  0.500000  0.500000  0.735847  1
  Br  Br29  1  0.000000  0.000000  0.235847  1
  N  N30  1  0.500000  0.500000  0.500000  1
  N  N31  1  0.000000  0.000000  0.000000  1
