# generated using pymatgen
data_Tb2Hf5PtF30
_symmetry_space_group_name_H-M   'P 1'
_cell_length_a   8.13582359
_cell_length_b   8.13582490
_cell_length_c   8.10287700
_cell_angle_alpha   79.69661805
_cell_angle_beta   79.69660921
_cell_angle_gamma   100.03777335
_symmetry_Int_Tables_number   1
_chemical_formula_structural   Tb2Hf5PtF30
_chemical_formula_sum   'Tb2 Hf5 Pt1 F30'
_cell_volume   507.25839880
_cell_formula_units_Z   1
loop_
 _symmetry_equiv_pos_site_id
 _symmetry_equiv_pos_as_xyz
  1  'x, y, z'
loop_
 _atom_site_type_symbol
 _atom_site_label
 _atom_site_symmetry_multiplicity
 _atom_site_fract_x
 _atom_site_fract_y
 _atom_site_fract_z
 _atom_site_occupancy
  Tb  Tb0  1  0.176873  0.823127  0.250000  1
  Tb  Tb1  1  0.822624  0.177376  0.750000  1
  Hf  Hf2  1  0.247515  0.752485  0.750000  1
  Hf  Hf3  1  0.744778  0.677696  0.673434  1
  Hf  Hf4  1  0.322304  0.255222  0.826566  1
  Hf  Hf5  1  0.256397  0.323317  0.327870  1
  Hf  Hf6  1  0.676683  0.743603  0.172130  1
  Pt  Pt7  1  0.749588  0.250412  0.250000  1
  F  F8  1  0.313246  0.348549  0.057344  1
  F  F9  1  0.931068  0.809145  0.151983  1
  F  F10  1  0.840147  0.462791  0.684974  1
  F  F11  1  0.463362  0.838448  0.184456  1
  F  F12  1  0.811397  0.932208  0.654043  1
  F  F13  1  0.348990  0.317382  0.554661  1
  F  F14  1  0.682618  0.651010  0.945338  1
  F  F15  1  0.067792  0.188603  0.845957  1
  F  F16  1  0.161552  0.536638  0.315544  1
  F  F17  1  0.537209  0.159853  0.815026  1
  F  F18  1  0.190855  0.068932  0.348017  1
  F  F19  1  0.651451  0.686754  0.442656  1
  F  F20  1  0.775389  0.287903  0.999489  1
  F  F21  1  0.999987  0.274856  0.209936  1
  F  F22  1  0.786129  0.503724  0.221747  1
  F  F23  1  0.504838  0.774902  0.721794  1
  F  F24  1  0.276287  0.006516  0.720277  1
  F  F25  1  0.280190  0.773341  0.497862  1
  F  F26  1  0.226659  0.719810  0.002138  1
  F  F27  1  0.993484  0.723713  0.779723  1
  F  F28  1  0.225098  0.495162  0.778206  1
  F  F29  1  0.496276  0.213871  0.278253  1
  F  F30  1  0.725144  0.000013  0.290064  1
  F  F31  1  0.712097  0.224611  0.500511  1
  F  F32  1  0.472775  0.527225  0.250000  1
  F  F33  1  0.746322  0.953557  0.976321  1
  F  F34  1  0.046443  0.253678  0.523679  1
  F  F35  1  0.253522  0.048210  0.026370  1
  F  F36  1  0.951790  0.746478  0.473630  1
  F  F37  1  0.531123  0.468877  0.750000  1
