# generated using pymatgen
data_PrAg(MoO4)2
_symmetry_space_group_name_H-M   'P 1'
_cell_length_a   7.00275260
_cell_length_b   7.00275235
_cell_length_c   7.00275124
_cell_angle_alpha   134.58854178
_cell_angle_beta   134.58854534
_cell_angle_gamma   66.17019117
_symmetry_Int_Tables_number   1
_chemical_formula_structural   PrAg(MoO4)2
_chemical_formula_sum   'Pr1 Ag1 Mo2 O8'
_cell_volume   171.47815734
_cell_formula_units_Z   1
loop_
 _symmetry_equiv_pos_site_id
 _symmetry_equiv_pos_as_xyz
  1  'x, y, z'
loop_
 _atom_site_type_symbol
 _atom_site_label
 _atom_site_symmetry_multiplicity
 _atom_site_fract_x
 _atom_site_fract_y
 _atom_site_fract_z
 _atom_site_occupancy
  Pr  Pr0  1  0.750000  0.250000  0.500000  1
  Ag  Ag1  1  0.000000  0.000000  0.000000  1
  Mo  Mo2  1  0.500000  0.500000  0.000000  1
  Mo  Mo3  1  0.250000  0.750000  0.500000  1
  O  O4  1  0.649671  0.271598  0.096256  1
  O  O5  1  0.013557  0.430519  0.106369  1
  O  O6  1  0.728402  0.824658  0.378073  1
  O  O7  1  0.092813  0.986443  0.416963  1
  O  O8  1  0.569481  0.675850  0.583037  1
  O  O9  1  0.446585  0.350329  0.621927  1
  O  O10  1  0.324150  0.907187  0.893631  1
  O  O11  1  0.175342  0.553415  0.903744  1
