# generated using pymatgen
data_Nd4Sc4Re3B24Ru
_symmetry_space_group_name_H-M   'P 1'
_cell_length_a   3.63875500
_cell_length_b   9.08166263
_cell_length_c   11.53619680
_cell_angle_alpha   90.04270954
_cell_angle_beta   90.00000000
_cell_angle_gamma   90.00000000
_symmetry_Int_Tables_number   1
_chemical_formula_structural   Nd4Sc4Re3B24Ru
_chemical_formula_sum   'Nd4 Sc4 Re3 B24 Ru1'
_cell_volume   381.22442262
_cell_formula_units_Z   1
loop_
 _symmetry_equiv_pos_site_id
 _symmetry_equiv_pos_as_xyz
  1  'x, y, z'
loop_
 _atom_site_type_symbol
 _atom_site_label
 _atom_site_symmetry_multiplicity
 _atom_site_fract_x
 _atom_site_fract_y
 _atom_site_fract_z
 _atom_site_occupancy
  Nd  Nd0  1  0.000000  0.321134  0.415442  1
  Nd  Nd1  1  0.000000  0.678489  0.585824  1
  Nd  Nd2  1  0.000000  0.822060  0.084240  1
  Nd  Nd3  1  0.000000  0.178305  0.914637  1
  Sc  Sc4  1  0.000000  0.944637  0.369974  1
  Sc  Sc5  1  0.000000  0.055532  0.629929  1
  Sc  Sc6  1  0.000000  0.443356  0.129671  1
  Sc  Sc7  1  0.000000  0.555883  0.870123  1
  Re  Re8  1  0.000000  0.358819  0.682439  1
  Re  Re9  1  0.000000  0.141679  0.183619  1
  Re  Re10  1  0.000000  0.858176  0.816953  1
  B  B11  1  0.500000  0.556971  0.429233  1
  B  B12  1  0.500000  0.443780  0.570298  1
  B  B13  1  0.500000  0.056038  0.070098  1
  B  B14  1  0.500000  0.943681  0.929820  1
  B  B15  1  0.500000  0.754384  0.414966  1
  B  B16  1  0.500000  0.244858  0.584561  1
  B  B17  1  0.500000  0.255146  0.084484  1
  B  B18  1  0.500000  0.745148  0.915494  1
  B  B19  1  0.500000  0.793708  0.265492  1
  B  B20  1  0.500000  0.205189  0.734609  1
  B  B21  1  0.500000  0.294778  0.234844  1
  B  B22  1  0.500000  0.705177  0.765510  1
  B  B23  1  0.500000  0.628446  0.183815  1
  B  B24  1  0.500000  0.371855  0.816501  1
  B  B25  1  0.500000  0.128605  0.316986  1
  B  B26  1  0.500000  0.871664  0.683258  1
  B  B27  1  0.500000  0.982840  0.215232  1
  B  B28  1  0.500000  0.016952  0.784627  1
  B  B29  1  0.500000  0.484268  0.285080  1
  B  B30  1  0.500000  0.517364  0.715107  1
  B  B31  1  0.500000  0.594324  0.025567  1
  B  B32  1  0.500000  0.405739  0.975092  1
  B  B33  1  0.500000  0.093958  0.474644  1
  B  B34  1  0.500000  0.905327  0.525089  1
  Ru  Ru35  1  0.000000  0.641730  0.316741  1
