# generated using pymatgen
data_Hf4Mn5Cr2Si
_symmetry_space_group_name_H-M   'P 1'
_cell_length_a   4.93411174
_cell_length_b   4.89051502
_cell_length_c   8.16801574
_cell_angle_alpha   90.00000082
_cell_angle_beta   90.25975569
_cell_angle_gamma   119.70813969
_symmetry_Int_Tables_number   1
_chemical_formula_structural   Hf4Mn5Cr2Si
_chemical_formula_sum   'Hf4 Mn5 Cr2 Si1'
_cell_volume   171.18850988
_cell_formula_units_Z   1
loop_
 _symmetry_equiv_pos_site_id
 _symmetry_equiv_pos_as_xyz
  1  'x, y, z'
loop_
 _atom_site_type_symbol
 _atom_site_label
 _atom_site_symmetry_multiplicity
 _atom_site_fract_x
 _atom_site_fract_y
 _atom_site_fract_z
 _atom_site_occupancy
  Hf  Hf0  1  0.332639  0.667901  0.436455  1
  Hf  Hf1  1  0.666664  0.333318  0.933679  1
  Hf  Hf2  1  0.667361  0.335261  0.563545  1
  Hf  Hf3  1  0.333336  0.666655  0.066321  1
  Mn  Mn4  1  0.343061  0.171271  0.250481  1
  Mn  Mn5  1  0.656939  0.828210  0.749519  1
  Mn  Mn6  1  0.000000  0.000815  0.500000  1
  Mn  Mn7  1  0.830515  0.659826  0.250536  1
  Mn  Mn8  1  0.169485  0.829310  0.749464  1
  Cr  Cr9  1  0.169239  0.339032  0.747111  1
  Cr  Cr10  1  0.830761  0.169793  0.252889  1
  Si  Si11  1  0.000000  0.998611  0.000000  1
