# generated using pymatgen
data_SrU3(Si5Pt3)2
_symmetry_space_group_name_H-M   'P 1'
_cell_length_a   8.21502105
_cell_length_b   8.19566523
_cell_length_c   8.19566524
_cell_angle_alpha   136.05185435
_cell_angle_beta   104.80825175
_cell_angle_gamma   91.36302406
_symmetry_Int_Tables_number   1
_chemical_formula_structural   SrU3(Si5Pt3)2
_chemical_formula_sum   'Sr1 U3 Si10 Pt6'
_cell_volume   352.02653338
_cell_formula_units_Z   1
loop_
 _symmetry_equiv_pos_site_id
 _symmetry_equiv_pos_as_xyz
  1  'x, y, z'
loop_
 _atom_site_type_symbol
 _atom_site_label
 _atom_site_symmetry_multiplicity
 _atom_site_fract_x
 _atom_site_fract_y
 _atom_site_fract_z
 _atom_site_occupancy
  Sr  Sr0  1  0.896167  0.128084  0.768083  1
  U  U1  1  0.638075  0.368458  0.269617  1
  U  U2  1  0.361646  0.630925  0.730722  1
  U  U3  1  0.100682  0.871007  0.229675  1
  Si  Si4  1  0.274017  0.524846  0.251658  1
  Si  Si5  1  0.728215  0.478845  0.749431  1
  Si  Si6  1  0.728215  0.978784  0.249370  1
  Si  Si7  1  0.274017  0.022359  0.749171  1
  Si  Si8  1  0.460740  0.111254  0.349486  1
  Si  Si9  1  0.533930  0.884151  0.649779  1
  Si  Si10  1  0.762347  0.612003  0.150343  1
  Si  Si11  1  0.241465  0.392273  0.849192  1
  Si  Si12  1  0.999668  0.249918  0.253047  1
  Si  Si13  1  0.999668  0.746620  0.749749  1
  Pt  Pt14  1  0.248622  0.137625  0.110997  1
  Pt  Pt15  1  0.750921  0.862310  0.888611  1
  Pt  Pt16  1  0.027009  0.637302  0.389708  1
  Pt  Pt17  1  0.973852  0.362485  0.611367  1
  Pt  Pt18  1  0.500372  0.250466  0.750089  1
  Pt  Pt19  1  0.500372  0.750282  0.249906  1
