# generated using pymatgen
data_Nd2Zn14Ni3
_symmetry_space_group_name_H-M   'P 1'
_cell_length_a   6.71753230
_cell_length_b   6.71753406
_cell_length_c   6.71753200
_cell_angle_alpha   83.09293177
_cell_angle_beta   96.90706146
_cell_angle_gamma   96.90707122
_symmetry_Int_Tables_number   1
_chemical_formula_structural   Nd2Zn14Ni3
_chemical_formula_sum   'Nd2 Zn14 Ni3'
_cell_volume   297.02001187
_cell_formula_units_Z   1
loop_
 _symmetry_equiv_pos_site_id
 _symmetry_equiv_pos_as_xyz
  1  'x, y, z'
loop_
 _atom_site_type_symbol
 _atom_site_label
 _atom_site_symmetry_multiplicity
 _atom_site_fract_x
 _atom_site_fract_y
 _atom_site_fract_z
 _atom_site_occupancy
  Nd  Nd0  1  0.659182  0.340817  0.340818  1
  Nd  Nd1  1  0.340817  0.659182  0.659182  1
  Zn  Zn2  1  0.291956  0.291956  0.000000  1
  Zn  Zn3  1  0.708044  0.708044  0.000000  1
  Zn  Zn4  1  0.894103  0.105895  0.105896  1
  Zn  Zn5  1  0.345085  0.654916  0.146531  1
  Zn  Zn6  1  0.000000  0.708044  0.291955  1
  Zn  Zn7  1  0.291956  0.000000  0.291956  1
  Zn  Zn8  1  0.654916  0.853469  0.345083  1
  Zn  Zn9  1  0.146531  0.345084  0.345085  1
  Zn  Zn10  1  0.853469  0.654916  0.654915  1
  Zn  Zn11  1  0.345084  0.146530  0.654916  1
  Zn  Zn12  1  0.000000  0.291956  0.708043  1
  Zn  Zn13  1  0.708044  0.000000  0.708044  1
  Zn  Zn14  1  0.654916  0.345084  0.853469  1
  Zn  Zn15  1  0.105895  0.894105  0.894104  1
  Ni  Ni16  1  0.500000  0.000000  0.000000  1
  Ni  Ni17  1  0.000000  0.499999  0.000000  1
  Ni  Ni18  1  0.000000  0.000000  0.500000  1
