# generated using pymatgen
data_Y3AlGa2(FeO6)2
_symmetry_space_group_name_H-M   'P 1'
_cell_length_a   10.77074865
_cell_length_b   10.77074932
_cell_length_c   10.77074900
_cell_angle_alpha   109.36475355
_cell_angle_beta   109.36475481
_cell_angle_gamma   109.68437465
_symmetry_Int_Tables_number   1
_chemical_formula_structural   Y3AlGa2(FeO6)2
_chemical_formula_sum   'Y12 Al4 Ga8 Fe8 O48'
_cell_volume   961.85865439
_cell_formula_units_Z   4
loop_
 _symmetry_equiv_pos_site_id
 _symmetry_equiv_pos_as_xyz
  1  'x, y, z'
loop_
 _atom_site_type_symbol
 _atom_site_label
 _atom_site_symmetry_multiplicity
 _atom_site_fract_x
 _atom_site_fract_y
 _atom_site_fract_z
 _atom_site_occupancy
  Y  Y0  1  0.249988  0.374140  0.124174  1
  Y  Y1  1  0.750012  0.625860  0.875826  1
  Y  Y2  1  0.750034  0.125860  0.375847  1
  Y  Y3  1  0.125844  0.250000  0.375844  1
  Y  Y4  1  0.374197  0.750000  0.124197  1
  Y  Y5  1  0.249966  0.874140  0.624153  1
  Y  Y6  1  0.874156  0.750000  0.624156  1
  Y  Y7  1  0.625803  0.250000  0.875803  1
  Y  Y8  1  0.375039  0.125061  0.250008  1
  Y  Y9  1  0.624961  0.874939  0.749992  1
  Y  Y10  1  0.124947  0.374939  0.749978  1
  Y  Y11  1  0.875053  0.625061  0.250022  1
  Al  Al12  1  0.624995  0.375045  0.250027  1
  Al  Al13  1  0.375005  0.624955  0.749973  1
  Al  Al14  1  0.874982  0.124955  0.749951  1
  Al  Al15  1  0.125018  0.875045  0.250049  1
  Ga  Ga16  1  0.249986  0.624745  0.374769  1
  Ga  Ga17  1  0.750014  0.375255  0.625231  1
  Ga  Ga18  1  0.750024  0.875255  0.125241  1
  Ga  Ga19  1  0.375193  0.250000  0.625193  1
  Ga  Ga20  1  0.624807  0.750000  0.374807  1
  Ga  Ga21  1  0.249976  0.124745  0.874759  1
  Ga  Ga22  1  0.124778  0.750000  0.874778  1
  Ga  Ga23  1  0.875222  0.250000  0.125222  1
  Fe  Fe24  1  0.000000  0.000000  0.000000  1
  Fe  Fe25  1  0.500000  0.000000  0.500000  1
  Fe  Fe26  1  0.000000  0.500000  0.500000  1
  Fe  Fe27  1  0.500000  0.000000  0.000000  1
  Fe  Fe28  1  0.500000  0.500000  0.000000  1
  Fe  Fe29  1  0.500000  0.500000  0.500000  1
  Fe  Fe30  1  0.000000  0.000000  0.500000  1
  Fe  Fe31  1  0.000000  0.500000  0.000000  1
  O  O32  1  0.477606  0.377804  0.291582  1
  O  O33  1  0.522394  0.622196  0.708418  1
  O  O34  1  0.586207  0.186016  0.208352  1
  O  O35  1  0.913778  0.122196  0.599802  1
  O  O36  1  0.292415  0.470107  0.374585  1
  O  O37  1  0.313990  0.913823  0.291637  1
  O  O38  1  0.413793  0.813984  0.791648  1
  O  O39  1  0.086222  0.877804  0.400198  1
  O  O40  1  0.707585  0.529893  0.625415  1
  O  O41  1  0.686010  0.086177  0.708363  1
  O  O42  1  0.022335  0.313984  0.900191  1
  O  O43  1  0.207547  0.582127  0.177657  1
  O  O44  1  0.122168  0.022336  0.208352  1
  O  O45  1  0.977665  0.686016  0.099809  1
  O  O46  1  0.792453  0.417873  0.822343  1
  O  O47  1  0.877832  0.977664  0.791648  1
  O  O48  1  0.595529  0.917873  0.125420  1
  O  O49  1  0.186015  0.477664  0.599832  1
  O  O50  1  0.404471  0.082127  0.874580  1
  O  O51  1  0.813985  0.522336  0.400168  1
  O  O52  1  0.904477  0.029893  0.322307  1
  O  O53  1  0.377815  0.586177  0.900166  1
  O  O54  1  0.095523  0.970107  0.677693  1
  O  O55  1  0.622185  0.413823  0.099834  1
  O  O56  1  0.375965  0.291325  0.469954  1
  O  O57  1  0.582128  0.904461  0.374605  1
  O  O58  1  0.624035  0.708675  0.530046  1
  O  O59  1  0.417872  0.095539  0.625395  1
  O  O60  1  0.124043  0.594000  0.915326  1
  O  O61  1  0.029916  0.207617  0.125458  1
  O  O62  1  0.875957  0.406000  0.084674  1
  O  O63  1  0.970084  0.792383  0.874542  1
  O  O64  1  0.321327  0.906000  0.030043  1
  O  O65  1  0.917841  0.292383  0.322297  1
  O  O66  1  0.678673  0.094000  0.969957  1
  O  O67  1  0.082159  0.707617  0.677703  1
  O  O68  1  0.178629  0.208675  0.584641  1
  O  O69  1  0.470142  0.595539  0.177666  1
  O  O70  1  0.821371  0.791325  0.415359  1
  O  O71  1  0.529858  0.404461  0.822334  1
  O  O72  1  0.291220  0.321275  0.915271  1
  O  O73  1  0.708780  0.678725  0.084729  1
  O  O74  1  0.208713  0.124036  0.030058  1
  O  O75  1  0.791287  0.875964  0.969942  1
  O  O76  1  0.906022  0.375964  0.584678  1
  O  O77  1  0.093978  0.624036  0.415322  1
  O  O78  1  0.593997  0.178725  0.469945  1
  O  O79  1  0.406003  0.821275  0.530055  1
