# generated using pymatgen
data_TbAl2Pd4Pt
_symmetry_space_group_name_H-M   'P 1'
_cell_length_a   4.15626533
_cell_length_b   4.15386331
_cell_length_c   8.06164321
_cell_angle_alpha   104.92956554
_cell_angle_beta   104.93840194
_cell_angle_gamma   89.99999641
_symmetry_Int_Tables_number   1
_chemical_formula_structural   TbAl2Pd4Pt
_chemical_formula_sum   'Tb1 Al2 Pd4 Pt1'
_cell_volume   129.60820319
_cell_formula_units_Z   1
loop_
 _symmetry_equiv_pos_site_id
 _symmetry_equiv_pos_as_xyz
  1  'x, y, z'
loop_
 _atom_site_type_symbol
 _atom_site_label
 _atom_site_symmetry_multiplicity
 _atom_site_fract_x
 _atom_site_fract_y
 _atom_site_fract_z
 _atom_site_occupancy
  Tb  Tb0  1  0.000076  0.000076  0.000153  1
  Al  Al1  1  0.746285  0.746285  0.492571  1
  Al  Al2  1  0.253422  0.253422  0.506845  1
  Pd  Pd3  1  0.499928  0.499928  0.999856  1
  Pd  Pd4  1  0.144107  0.644106  0.288213  1
  Pd  Pd5  1  0.855685  0.355685  0.711369  1
  Pd  Pd6  1  0.355021  0.855021  0.710041  1
  Pt  Pt7  1  0.645474  0.145475  0.290951  1
