# generated using pymatgen
data_Lu3Zr3Sn6(Ir2Rh)2
_symmetry_space_group_name_H-M   'P 1'
_cell_length_a   7.48044500
_cell_length_b   7.48044663
_cell_length_c   7.43860600
_cell_angle_alpha   90.00000000
_cell_angle_beta   90.00000000
_cell_angle_gamma   119.99999720
_symmetry_Int_Tables_number   1
_chemical_formula_structural   Lu3Zr3Sn6(Ir2Rh)2
_chemical_formula_sum   'Lu3 Zr3 Sn6 Ir4 Rh2'
_cell_volume   360.47667059
_cell_formula_units_Z   1
loop_
 _symmetry_equiv_pos_site_id
 _symmetry_equiv_pos_as_xyz
  1  'x, y, z'
loop_
 _atom_site_type_symbol
 _atom_site_label
 _atom_site_symmetry_multiplicity
 _atom_site_fract_x
 _atom_site_fract_y
 _atom_site_fract_z
 _atom_site_occupancy
  Lu  Lu0  1  0.592828  0.998997  0.750000  1
  Lu  Lu1  1  0.406169  0.407172  0.750000  1
  Lu  Lu2  1  0.001003  0.593831  0.750000  1
  Zr  Zr3  1  0.604347  0.002178  0.250000  1
  Zr  Zr4  1  0.397831  0.395653  0.250000  1
  Zr  Zr5  1  0.997822  0.602169  0.250000  1
  Sn  Sn6  1  0.265104  0.999160  0.003437  1
  Sn  Sn7  1  0.734056  0.734896  0.496563  1
  Sn  Sn8  1  0.000840  0.265944  0.496563  1
  Sn  Sn9  1  0.000840  0.265944  0.003437  1
  Sn  Sn10  1  0.734056  0.734896  0.003437  1
  Sn  Sn11  1  0.265104  0.999160  0.496563  1
  Ir  Ir12  1  0.666667  0.333333  0.021483  1
  Ir  Ir13  1  0.666667  0.333333  0.478517  1
  Ir  Ir14  1  0.333333  0.666667  0.027814  1
  Ir  Ir15  1  0.333333  0.666667  0.472186  1
  Rh  Rh16  1  0.000000  0.000000  0.750000  1
  Rh  Rh17  1  0.000000  0.000000  0.250000  1
