# generated using pymatgen
data_Tb5Y11Cd4Ni3Os
_symmetry_space_group_name_H-M   'P 1'
_cell_length_a   9.63180590
_cell_length_b   9.64106012
_cell_length_c   9.64106098
_cell_angle_alpha   59.55361360
_cell_angle_beta   59.58124294
_cell_angle_gamma   59.58125102
_symmetry_Int_Tables_number   1
_chemical_formula_structural   Tb5Y11Cd4Ni3Os
_chemical_formula_sum   'Tb5 Y11 Cd4 Ni3 Os1'
_cell_volume   626.89734493
_cell_formula_units_Z   1
loop_
 _symmetry_equiv_pos_site_id
 _symmetry_equiv_pos_as_xyz
  1  'x, y, z'
loop_
 _atom_site_type_symbol
 _atom_site_label
 _atom_site_symmetry_multiplicity
 _atom_site_fract_x
 _atom_site_fract_y
 _atom_site_fract_z
 _atom_site_occupancy
  Tb  Tb0  1  0.597834  0.598169  0.598169  1
  Tb  Tb1  1  0.600848  0.600749  0.203090  1
  Tb  Tb2  1  0.600848  0.203090  0.600749  1
  Tb  Tb3  1  0.202995  0.600953  0.600953  1
  Tb  Tb4  1  0.060769  0.438299  0.438299  1
  Y  Y5  1  0.437243  0.060962  0.060962  1
  Y  Y6  1  0.438748  0.060069  0.438473  1
  Y  Y7  1  0.061025  0.437266  0.060720  1
  Y  Y8  1  0.438748  0.438473  0.060069  1
  Y  Y9  1  0.061025  0.060720  0.437266  1
  Y  Y10  1  0.186360  0.815153  0.815153  1
  Y  Y11  1  0.807652  0.188677  0.188677  1
  Y  Y12  1  0.815094  0.186541  0.815049  1
  Y  Y13  1  0.188741  0.807448  0.188744  1
  Y  Y14  1  0.815094  0.815049  0.186541  1
  Y  Y15  1  0.188741  0.188744  0.807448  1
  Cd  Cd16  1  0.830291  0.830258  0.830258  1
  Cd  Cd17  1  0.830168  0.830455  0.505974  1
  Cd  Cd18  1  0.830168  0.505974  0.830455  1
  Cd  Cd19  1  0.506013  0.830203  0.830203  1
  Ni  Ni20  1  0.392638  0.392637  0.823438  1
  Ni  Ni21  1  0.392638  0.823438  0.392637  1
  Ni  Ni22  1  0.823915  0.392838  0.392838  1
  Os  Os23  1  0.392402  0.393834  0.393834  1
