# generated using pymatgen
data_Tb8DyLu(SiB4)4
_symmetry_space_group_name_H-M   'P 1'
_cell_length_a   7.24112200
_cell_length_b   7.24112200
_cell_length_c   8.11092500
_cell_angle_alpha   90.00000000
_cell_angle_beta   90.00000000
_cell_angle_gamma   90.00000000
_symmetry_Int_Tables_number   1
_chemical_formula_structural   Tb8DyLu(SiB4)4
_chemical_formula_sum   'Tb8 Dy1 Lu1 Si4 B16'
_cell_volume   425.28700712
_cell_formula_units_Z   1
loop_
 _symmetry_equiv_pos_site_id
 _symmetry_equiv_pos_as_xyz
  1  'x, y, z'
loop_
 _atom_site_type_symbol
 _atom_site_label
 _atom_site_symmetry_multiplicity
 _atom_site_fract_x
 _atom_site_fract_y
 _atom_site_fract_z
 _atom_site_occupancy
  Tb  Tb0  1  0.679801  0.180511  0.224793  1
  Tb  Tb1  1  0.320199  0.819489  0.775207  1
  Tb  Tb2  1  0.320199  0.819489  0.224793  1
  Tb  Tb3  1  0.819489  0.679801  0.224793  1
  Tb  Tb4  1  0.819489  0.679801  0.775207  1
  Tb  Tb5  1  0.679801  0.180511  0.775207  1
  Tb  Tb6  1  0.180511  0.320199  0.775207  1
  Tb  Tb7  1  0.180511  0.320199  0.224793  1
  Dy  Dy8  1  0.000000  0.000000  0.500000  1
  Lu  Lu9  1  0.500000  0.500000  0.500000  1
  Si  Si10  1  0.116903  0.613428  0.500000  1
  Si  Si11  1  0.883097  0.386572  0.500000  1
  Si  Si12  1  0.386572  0.116903  0.500000  1
  Si  Si13  1  0.613428  0.883097  0.500000  1
  B  B14  1  0.172569  0.039126  0.000000  1
  B  B15  1  0.827431  0.960874  0.000000  1
  B  B16  1  0.960874  0.172569  0.000000  1
  B  B17  1  0.327440  0.538960  0.000000  1
  B  B18  1  0.039126  0.827431  0.000000  1
  B  B19  1  0.672560  0.461040  0.000000  1
  B  B20  1  0.538960  0.672560  0.000000  1
  B  B21  1  0.461040  0.327440  0.000000  1
  B  B22  1  0.089799  0.589959  0.000000  1
  B  B23  1  0.910201  0.410041  0.000000  1
  B  B24  1  0.410041  0.089799  0.000000  1
  B  B25  1  0.589959  0.910201  0.000000  1
  B  B26  1  0.000000  0.000000  0.161279  1
  B  B27  1  0.000000  0.000000  0.838721  1
  B  B28  1  0.500000  0.500000  0.837851  1
  B  B29  1  0.500000  0.500000  0.162149  1
