# generated using pymatgen
data_Er2CoSi5Rh2
_symmetry_space_group_name_H-M   'P 1'
_cell_length_a   8.04005649
_cell_length_b   8.01122851
_cell_length_c   8.01122806
_cell_angle_alpha   138.41837785
_cell_angle_beta   105.15226904
_cell_angle_gamma   89.40985877
_symmetry_Int_Tables_number   1
_chemical_formula_structural   Er2CoSi5Rh2
_chemical_formula_sum   'Er4 Co2 Si10 Rh4'
_cell_volume   316.44391916
_cell_formula_units_Z   2
loop_
 _symmetry_equiv_pos_site_id
 _symmetry_equiv_pos_as_xyz
  1  'x, y, z'
loop_
 _atom_site_type_symbol
 _atom_site_label
 _atom_site_symmetry_multiplicity
 _atom_site_fract_x
 _atom_site_fract_y
 _atom_site_fract_z
 _atom_site_occupancy
  Er  Er0  1  0.363181  0.632547  0.730635  1
  Er  Er1  1  0.901118  0.134048  0.767069  1
  Er  Er2  1  0.098882  0.865952  0.232931  1
  Er  Er3  1  0.636819  0.367453  0.269365  1
  Co  Co4  1  0.251597  0.139958  0.111641  1
  Co  Co5  1  0.748403  0.860042  0.888359  1
  Si  Si6  1  0.278869  0.513037  0.244528  1
  Si  Si7  1  0.721131  0.965659  0.234169  1
  Si  Si8  1  0.000000  0.777221  0.777221  1
  Si  Si9  1  0.234736  0.393774  0.840962  1
  Si  Si10  1  0.765264  0.606226  0.159038  1
  Si  Si11  1  0.442483  0.106884  0.335600  1
  Si  Si12  1  0.000000  0.222779  0.222779  1
  Si  Si13  1  0.557517  0.893116  0.664400  1
  Si  Si14  1  0.721131  0.486963  0.755472  1
  Si  Si15  1  0.278869  0.034341  0.765831  1
  Rh  Rh16  1  0.031713  0.636698  0.395015  1
  Rh  Rh17  1  0.968287  0.363302  0.604985  1
  Rh  Rh18  1  0.500000  0.750327  0.250327  1
  Rh  Rh19  1  0.500000  0.249673  0.749673  1
