# generated using pymatgen
data_LiTl(PO3)4
_symmetry_space_group_name_H-M   'P 1'
_cell_length_a   7.42608702
_cell_length_b   7.44706272
_cell_length_c   10.03665200
_cell_angle_alpha   80.83826829
_cell_angle_beta   70.17717927
_cell_angle_gamma   109.02138015
_symmetry_Int_Tables_number   1
_chemical_formula_structural   LiTl(PO3)4
_chemical_formula_sum   'Li2 Tl2 P8 O24'
_cell_volume   470.39853201
_cell_formula_units_Z   2
loop_
 _symmetry_equiv_pos_site_id
 _symmetry_equiv_pos_as_xyz
  1  'x, y, z'
loop_
 _atom_site_type_symbol
 _atom_site_label
 _atom_site_symmetry_multiplicity
 _atom_site_fract_x
 _atom_site_fract_y
 _atom_site_fract_z
 _atom_site_occupancy
  Li  Li0  1  0.001086  0.500669  0.999469  1
  Li  Li1  1  0.998819  0.998833  0.500498  1
  Tl  Tl2  1  0.199332  0.949068  0.749671  1
  Tl  Tl3  1  0.801665  0.051178  0.249649  1
  P  P4  1  0.996307  0.690336  0.303494  1
  P  P5  1  0.260006  0.719577  0.475121  1
  P  P6  1  0.695588  0.734686  0.024165  1
  P  P7  1  0.506055  0.699838  0.803452  1
  P  P8  1  0.495275  0.300682  0.195887  1
  P  P9  1  0.305946  0.265531  0.974884  1
  P  P10  1  0.741408  0.280544  0.524198  1
  P  P11  1  0.004766  0.310050  0.695988  1
  O  O12  1  0.024529  0.647026  0.161564  1
  O  O13  1  0.127161  0.802496  0.576881  1
  O  O14  1  0.200486  0.708667  0.336261  1
  O  O15  1  0.493372  0.818583  0.419443  1
  O  O16  1  0.296673  0.712829  0.827051  1
  O  O17  1  0.196536  0.489806  0.553456  1
  O  O18  1  0.120917  0.296029  0.077142  1
  O  O19  1  0.739131  0.912076  0.079592  1
  O  O20  1  0.543144  0.748898  0.946068  1
  O  O21  1  0.691828  0.813318  0.661908  1
  O  O22  1  0.546657  0.536990  0.163257  1
  O  O23  1  0.041016  0.124657  0.672093  1
  O  O24  1  0.958991  0.875047  0.327946  1
  O  O25  1  0.454722  0.463527  0.835997  1
  O  O26  1  0.309182  0.187044  0.337221  1
  O  O27  1  0.458611  0.251791  0.052836  1
  O  O28  1  0.262473  0.088200  0.919369  1
  O  O29  1  0.880283  0.703818  0.921965  1
  O  O30  1  0.804486  0.509958  0.445444  1
  O  O31  1  0.704770  0.287802  0.172319  1
  O  O32  1  0.508168  0.181068  0.579771  1
  O  O33  1  0.800606  0.291702  0.663216  1
  O  O34  1  0.874466  0.197608  0.422613  1
  O  O35  1  0.976871  0.354093  0.837651  1
