# generated using pymatgen
data_Pr11In9Ir4
_symmetry_space_group_name_H-M   'P 1'
_cell_length_a   13.46865889
_cell_length_b   13.46865910
_cell_length_c   3.91805100
_cell_angle_alpha   90.00000000
_cell_angle_beta   90.00000000
_cell_angle_gamma   112.29241485
_symmetry_Int_Tables_number   1
_chemical_formula_structural   Pr11In9Ir4
_chemical_formula_sum   'Pr11 In9 Ir4'
_cell_volume   657.63143008
_cell_formula_units_Z   1
loop_
 _symmetry_equiv_pos_site_id
 _symmetry_equiv_pos_as_xyz
  1  'x, y, z'
loop_
 _atom_site_type_symbol
 _atom_site_label
 _atom_site_symmetry_multiplicity
 _atom_site_fract_x
 _atom_site_fract_y
 _atom_site_fract_z
 _atom_site_occupancy
  Pr  Pr0  1  0.500000  0.500000  0.500000  1
  Pr  Pr1  1  0.813092  0.813092  0.500000  1
  Pr  Pr2  1  0.186908  0.186908  0.500000  1
  Pr  Pr3  1  0.579930  0.919234  0.500000  1
  Pr  Pr4  1  0.420070  0.080766  0.500000  1
  Pr  Pr5  1  0.919234  0.579930  0.500000  1
  Pr  Pr6  1  0.080766  0.420070  0.500000  1
  Pr  Pr7  1  0.126730  0.873270  0.500000  1
  Pr  Pr8  1  0.873270  0.126730  0.500000  1
  Pr  Pr9  1  0.339756  0.660244  0.500000  1
  Pr  Pr10  1  0.660244  0.339756  0.500000  1
  In  In11  1  0.338556  0.865549  0.000000  1
  In  In12  1  0.661444  0.134451  0.000000  1
  In  In13  1  0.865549  0.338556  0.000000  1
  In  In14  1  0.134451  0.661444  0.000000  1
  In  In15  1  0.578507  0.719800  0.000000  1
  In  In16  1  0.421493  0.280200  0.000000  1
  In  In17  1  0.719800  0.578507  0.000000  1
  In  In18  1  0.280200  0.421493  0.000000  1
  In  In19  1  0.000000  0.000000  0.000000  1
  Ir  Ir20  1  0.747690  0.954072  0.000000  1
  Ir  Ir21  1  0.252310  0.045928  0.000000  1
  Ir  Ir22  1  0.954072  0.747690  0.000000  1
  Ir  Ir23  1  0.045928  0.252310  0.000000  1
