# generated using pymatgen
data_Te13Ru
_symmetry_space_group_name_H-M   'P 1'
_cell_length_a   9.56541995
_cell_length_b   11.09891732
_cell_length_c   11.25237351
_cell_angle_alpha   110.53846848
_cell_angle_beta   99.37685402
_cell_angle_gamma   112.72823473
_symmetry_Int_Tables_number   1
_chemical_formula_structural   Te13Ru
_chemical_formula_sum   'Te26 Ru2'
_cell_volume   968.24798513
_cell_formula_units_Z   2
loop_
 _symmetry_equiv_pos_site_id
 _symmetry_equiv_pos_as_xyz
  1  'x, y, z'
loop_
 _atom_site_type_symbol
 _atom_site_label
 _atom_site_symmetry_multiplicity
 _atom_site_fract_x
 _atom_site_fract_y
 _atom_site_fract_z
 _atom_site_occupancy
  Te  Te0  1  0.873290  0.932907  0.669012  1
  Te  Te1  1  0.126710  0.067093  0.330988  1
  Te  Te2  1  0.181567  0.217615  0.818739  1
  Te  Te3  1  0.818433  0.782385  0.181261  1
  Te  Te4  1  0.672680  0.035283  0.778730  1
  Te  Te5  1  0.327320  0.964717  0.221270  1
  Te  Te6  1  0.962228  0.315568  0.054313  1
  Te  Te7  1  0.037772  0.684432  0.945687  1
  Te  Te8  1  0.193920  0.087822  0.009455  1
  Te  Te9  1  0.806080  0.912178  0.990545  1
  Te  Te10  1  0.668232  0.581683  0.689294  1
  Te  Te11  1  0.331768  0.418317  0.310706  1
  Te  Te12  1  0.132981  0.773628  0.667197  1
  Te  Te13  1  0.867019  0.226372  0.332803  1
  Te  Te14  1  0.478863  0.691573  0.570174  1
  Te  Te15  1  0.521137  0.308427  0.429826  1
  Te  Te16  1  0.905046  0.590996  0.386320  1
  Te  Te17  1  0.094954  0.409004  0.613680  1
  Te  Te18  1  0.838437  0.374489  0.730939  1
  Te  Te19  1  0.161563  0.625511  0.269061  1
  Te  Te20  1  0.633681  0.435184  0.909392  1
  Te  Te21  1  0.366319  0.564816  0.090608  1
  Te  Te22  1  0.336997  0.060263  0.696787  1
  Te  Te23  1  0.663003  0.939737  0.303213  1
  Te  Te24  1  0.326205  0.676364  0.900665  1
  Te  Te25  1  0.673795  0.323636  0.099335  1
  Ru  Ru26  1  0.958385  0.823407  0.824289  1
  Ru  Ru27  1  0.041615  0.176593  0.175711  1
