# generated using pymatgen
data_Rb3Pr(BiS3)2
_symmetry_space_group_name_H-M   'P 1'
_cell_length_a   7.28099796
_cell_length_b   7.28099954
_cell_length_c   8.15317900
_cell_angle_alpha   81.44177108
_cell_angle_beta   81.44176921
_cell_angle_gamma   120.01344735
_symmetry_Int_Tables_number   1
_chemical_formula_structural   Rb3Pr(BiS3)2
_chemical_formula_sum   'Rb3 Pr1 Bi2 S6'
_cell_volume   357.29804421
_cell_formula_units_Z   1
loop_
 _symmetry_equiv_pos_site_id
 _symmetry_equiv_pos_as_xyz
  1  'x, y, z'
loop_
 _atom_site_type_symbol
 _atom_site_label
 _atom_site_symmetry_multiplicity
 _atom_site_fract_x
 _atom_site_fract_y
 _atom_site_fract_z
 _atom_site_occupancy
  Rb  Rb0  1  0.668496  0.331504  0.500000  1
  Rb  Rb1  1  0.331504  0.668496  0.500000  1
  Rb  Rb2  1  0.000000  0.000000  0.500000  1
  Pr  Pr3  1  0.500000  0.500000  0.000000  1
  Bi  Bi4  1  0.833456  0.166544  0.000000  1
  Bi  Bi5  1  0.166544  0.833456  0.000000  1
  S  S6  1  0.767787  0.767787  0.200369  1
  S  S7  1  0.232213  0.232213  0.799631  1
  S  S8  1  0.433068  0.098753  0.200372  1
  S  S9  1  0.566932  0.901247  0.799628  1
  S  S10  1  0.901247  0.566932  0.799628  1
  S  S11  1  0.098753  0.433068  0.200372  1
