# generated using pymatgen
data_Tb16Tl6CoTc
_symmetry_space_group_name_H-M   'P 1'
_cell_length_a   10.45441603
_cell_length_b   10.45237304
_cell_length_c   7.04762700
_cell_angle_alpha   90.01044794
_cell_angle_beta   89.99596633
_cell_angle_gamma   120.00344719
_symmetry_Int_Tables_number   1
_chemical_formula_structural   Tb16Tl6CoTc
_chemical_formula_sum   'Tb16 Tl6 Co1 Tc1'
_cell_volume   666.91905754
_cell_formula_units_Z   1
loop_
 _symmetry_equiv_pos_site_id
 _symmetry_equiv_pos_as_xyz
  1  'x, y, z'
loop_
 _atom_site_type_symbol
 _atom_site_label
 _atom_site_symmetry_multiplicity
 _atom_site_fract_x
 _atom_site_fract_y
 _atom_site_fract_z
 _atom_site_occupancy
  Tb  Tb0  1  0.537160  0.074521  0.524749  1
  Tb  Tb1  1  0.926491  0.463057  0.525282  1
  Tb  Tb2  1  0.536638  0.462783  0.525050  1
  Tb  Tb3  1  0.462207  0.924194  0.025781  1
  Tb  Tb4  1  0.074904  0.537572  0.026093  1
  Tb  Tb5  1  0.462598  0.537865  0.025989  1
  Tb  Tb6  1  0.177735  0.355368  0.727434  1
  Tb  Tb7  1  0.644795  0.822421  0.726874  1
  Tb  Tb8  1  0.177720  0.822424  0.727080  1
  Tb  Tb9  1  0.825849  0.651740  0.223435  1
  Tb  Tb10  1  0.348342  0.174140  0.222912  1
  Tb  Tb11  1  0.825796  0.174103  0.223112  1
  Tb  Tb12  1  0.666655  0.333386  0.905922  1
  Tb  Tb13  1  0.333265  0.666555  0.414639  1
  Tb  Tb14  1  0.000161  0.000241  0.508875  1
  Tb  Tb15  1  0.000003  0.999958  0.008325  1
  Tl  Tl16  1  0.837615  0.675278  0.770215  1
  Tl  Tl17  1  0.324787  0.162384  0.770430  1
  Tl  Tl18  1  0.837582  0.162349  0.770410  1
  Tl  Tl19  1  0.164330  0.328656  0.273385  1
  Tl  Tl20  1  0.671120  0.835562  0.273747  1
  Tl  Tl21  1  0.164384  0.835608  0.273682  1
  Co  Co22  1  0.332801  0.666060  0.794979  1
  Tc  Tc23  1  0.667066  0.333774  0.287278  1
