# generated using pymatgen
data_YbCrF8
_symmetry_space_group_name_H-M   'P 1'
_cell_length_a   4.61439476
_cell_length_b   4.43143629
_cell_length_c   8.44314938
_cell_angle_alpha   52.72016700
_cell_angle_beta   68.31865596
_cell_angle_gamma   66.81260775
_symmetry_Int_Tables_number   1
_chemical_formula_structural   YbCrF8
_chemical_formula_sum   'Yb1 Cr1 F8'
_cell_volume   124.23714102
_cell_formula_units_Z   1
loop_
 _symmetry_equiv_pos_site_id
 _symmetry_equiv_pos_as_xyz
  1  'x, y, z'
loop_
 _atom_site_type_symbol
 _atom_site_label
 _atom_site_symmetry_multiplicity
 _atom_site_fract_x
 _atom_site_fract_y
 _atom_site_fract_z
 _atom_site_occupancy
  Yb  Yb0  1  0.313474  0.736183  0.914875  1
  Cr  Cr1  1  0.835548  0.377133  0.458174  1
  F  F2  1  0.059890  0.262601  0.957076  1
  F  F3  1  0.549085  0.140245  0.955947  1
  F  F4  1  0.474932  0.566312  0.578497  1
  F  F5  1  0.727674  0.899688  0.650867  1
  F  F6  1  0.617014  0.511212  0.284632  1
  F  F7  1  0.076007  0.166627  0.651404  1
  F  F8  1  0.924852  0.824811  0.340379  1
  F  F9  1  0.185644  0.302213  0.275975  1
