# generated using pymatgen
data_Hf3SnRh2N
_symmetry_space_group_name_H-M   'P 1'
_cell_length_a   8.66065367
_cell_length_b   8.66065356
_cell_length_c   8.66065500
_cell_angle_alpha   59.99999831
_cell_angle_beta   59.99999875
_cell_angle_gamma   60.00000093
_symmetry_Int_Tables_number   1
_chemical_formula_structural   Hf3SnRh2N
_chemical_formula_sum   'Hf12 Sn4 Rh8 N4'
_cell_volume   459.34296857
_cell_formula_units_Z   4
loop_
 _symmetry_equiv_pos_site_id
 _symmetry_equiv_pos_as_xyz
  1  'x, y, z'
loop_
 _atom_site_type_symbol
 _atom_site_label
 _atom_site_symmetry_multiplicity
 _atom_site_fract_x
 _atom_site_fract_y
 _atom_site_fract_z
 _atom_site_occupancy
  Hf  Hf0  1  0.815284  0.815284  0.184716  1
  Hf  Hf1  1  0.184716  0.184716  0.815284  1
  Hf  Hf2  1  0.815284  0.184716  0.815284  1
  Hf  Hf3  1  0.184716  0.815284  0.184716  1
  Hf  Hf4  1  0.184716  0.815284  0.815284  1
  Hf  Hf5  1  0.815284  0.184716  0.184716  1
  Hf  Hf6  1  0.434716  0.434716  0.065284  1
  Hf  Hf7  1  0.065284  0.065284  0.434716  1
  Hf  Hf8  1  0.434716  0.065284  0.434716  1
  Hf  Hf9  1  0.065284  0.434716  0.065284  1
  Hf  Hf10  1  0.065284  0.434716  0.434716  1
  Hf  Hf11  1  0.434716  0.065284  0.065284  1
  Sn  Sn12  1  0.125000  0.625000  0.625000  1
  Sn  Sn13  1  0.625000  0.125000  0.625000  1
  Sn  Sn14  1  0.625000  0.625000  0.125000  1
  Sn  Sn15  1  0.625000  0.625000  0.625000  1
  Rh  Rh16  1  0.775583  0.408139  0.408139  1
  Rh  Rh17  1  0.408139  0.775583  0.408139  1
  Rh  Rh18  1  0.408139  0.408139  0.775583  1
  Rh  Rh19  1  0.408139  0.408139  0.408139  1
  Rh  Rh20  1  0.474417  0.841861  0.841861  1
  Rh  Rh21  1  0.841861  0.474417  0.841861  1
  Rh  Rh22  1  0.841861  0.841861  0.474417  1
  Rh  Rh23  1  0.841861  0.841861  0.841861  1
  N  N24  1  0.625000  0.125000  0.125000  1
  N  N25  1  0.125000  0.625000  0.125000  1
  N  N26  1  0.125000  0.125000  0.625000  1
  N  N27  1  0.125000  0.125000  0.125000  1
