# generated using pymatgen
data_KSmH6Ru
_symmetry_space_group_name_H-M   'P 1'
_cell_length_a   5.25775527
_cell_length_b   5.25775665
_cell_length_c   5.25775700
_cell_angle_alpha   60.00001667
_cell_angle_beta   60.00000800
_cell_angle_gamma   60.00000673
_symmetry_Int_Tables_number   1
_chemical_formula_structural   KSmH6Ru
_chemical_formula_sum   'K1 Sm1 H6 Ru1'
_cell_volume   102.77475836
_cell_formula_units_Z   1
loop_
 _symmetry_equiv_pos_site_id
 _symmetry_equiv_pos_as_xyz
  1  'x, y, z'
loop_
 _atom_site_type_symbol
 _atom_site_label
 _atom_site_symmetry_multiplicity
 _atom_site_fract_x
 _atom_site_fract_y
 _atom_site_fract_z
 _atom_site_occupancy
  K  K0  1  0.750000  0.750000  0.750000  1
  Sm  Sm1  1  0.250000  0.250000  0.250000  1
  H  H2  1  0.768698  0.768698  0.231302  1
  H  H3  1  0.231302  0.768698  0.231302  1
  H  H4  1  0.768698  0.231302  0.231302  1
  H  H5  1  0.231302  0.231302  0.768698  1
  H  H6  1  0.768698  0.231302  0.768698  1
  H  H7  1  0.231302  0.768698  0.768698  1
  Ru  Ru8  1  0.000000  0.000000  0.000000  1
