# generated using pymatgen
data_Cu2NiRhO4
_symmetry_space_group_name_H-M   'P 1'
_cell_length_a   5.30209624
_cell_length_b   6.75340519
_cell_length_c   6.15547006
_cell_angle_alpha   117.12176133
_cell_angle_beta   89.99640730
_cell_angle_gamma   105.45970926
_symmetry_Int_Tables_number   1
_chemical_formula_structural   Cu2NiRhO4
_chemical_formula_sum   'Cu4 Ni2 Rh2 O8'
_cell_volume   187.17111312
_cell_formula_units_Z   2
loop_
 _symmetry_equiv_pos_site_id
 _symmetry_equiv_pos_as_xyz
  1  'x, y, z'
loop_
 _atom_site_type_symbol
 _atom_site_label
 _atom_site_symmetry_multiplicity
 _atom_site_fract_x
 _atom_site_fract_y
 _atom_site_fract_z
 _atom_site_occupancy
  Cu  Cu0  1  0.000243  0.999937  0.500727  1
  Cu  Cu1  1  0.999757  0.000062  0.999275  1
  Cu  Cu2  1  0.500000  0.000000  0.250000  1
  Cu  Cu3  1  0.500000  0.000000  0.750000  1
  Ni  Ni4  1  0.500000  0.500000  0.750000  1
  Ni  Ni5  1  0.500000  0.500001  0.250000  1
  Rh  Rh6  1  0.999926  0.499849  0.499969  1
  Rh  Rh7  1  0.000074  0.500151  0.000031  1
  O  O8  1  0.389703  0.680714  0.590554  1
  O  O9  1  0.389848  0.680834  0.090665  1
  O  O10  1  0.610152  0.319166  0.409335  1
  O  O11  1  0.610296  0.319286  0.909445  1
  O  O12  1  0.898847  0.681369  0.340697  1
  O  O13  1  0.898856  0.681509  0.840482  1
  O  O14  1  0.101144  0.318491  0.659518  1
  O  O15  1  0.101153  0.318631  0.159303  1
