# generated using pymatgen
data_Pa3Co3Bi3Sb
_symmetry_space_group_name_H-M   'P 1'
_cell_length_a   8.23261665
_cell_length_b   8.23347963
_cell_length_c   8.23261738
_cell_angle_alpha   109.49694075
_cell_angle_beta   109.43922903
_cell_angle_gamma   109.47323732
_symmetry_Int_Tables_number   1
_chemical_formula_structural   Pa3Co3Bi3Sb
_chemical_formula_sum   'Pa6 Co6 Bi6 Sb2'
_cell_volume   429.59584089
_cell_formula_units_Z   2
loop_
 _symmetry_equiv_pos_site_id
 _symmetry_equiv_pos_as_xyz
  1  'x, y, z'
loop_
 _atom_site_type_symbol
 _atom_site_label
 _atom_site_symmetry_multiplicity
 _atom_site_fract_x
 _atom_site_fract_y
 _atom_site_fract_z
 _atom_site_occupancy
  Pa  Pa0  1  0.884757  0.250000  0.134757  1
  Pa  Pa1  1  0.625344  0.750000  0.375344  1
  Pa  Pa2  1  0.245513  0.126729  0.877746  1
  Pa  Pa3  1  0.751017  0.373271  0.618784  1
  Pa  Pa4  1  0.125018  0.885796  0.250972  1
  Pa  Pa5  1  0.365175  0.614204  0.739221  1
  Co  Co6  1  0.365066  0.250000  0.615066  1
  Co  Co7  1  0.121692  0.750000  0.871692  1
  Co  Co8  1  0.253017  0.614392  0.382089  1
  Co  Co9  1  0.767697  0.885608  0.138625  1
  Co  Co10  1  0.620282  0.378158  0.254921  1
  Co  Co11  1  0.876764  0.121842  0.742124  1
  Bi  Bi12  1  0.666773  0.497290  0.997750  1
  Bi  Bi13  1  0.500459  0.002710  0.669482  1
  Bi  Bi14  1  0.000454  0.670993  0.497581  1
  Bi  Bi15  1  0.826588  0.829007  0.829461  1
  Bi  Bi16  1  0.500265  0.997479  0.162823  1
  Bi  Bi17  1  0.165344  0.502521  0.002787  1
  Sb  Sb18  1  0.000043  0.164234  0.502966  1
  Sb  Sb19  1  0.338732  0.335766  0.335809  1
