# generated using pymatgen
data_Dy2Ho3In4NiAu
_symmetry_space_group_name_H-M   'P 1'
_cell_length_a   8.13587505
_cell_length_b   18.25030068
_cell_length_c   3.59785100
_cell_angle_alpha   90.00000000
_cell_angle_beta   90.00000000
_cell_angle_gamma   90.03501368
_symmetry_Int_Tables_number   1
_chemical_formula_structural   Dy2Ho3In4NiAu
_chemical_formula_sum   'Dy4 Ho6 In8 Ni2 Au2'
_cell_volume   534.21660926
_cell_formula_units_Z   2
loop_
 _symmetry_equiv_pos_site_id
 _symmetry_equiv_pos_as_xyz
  1  'x, y, z'
loop_
 _atom_site_type_symbol
 _atom_site_label
 _atom_site_symmetry_multiplicity
 _atom_site_fract_x
 _atom_site_fract_y
 _atom_site_fract_z
 _atom_site_occupancy
  Dy  Dy0  1  0.500000  0.500000  0.000000  1
  Dy  Dy1  1  0.000000  0.000000  0.000000  1
  Dy  Dy2  1  0.764713  0.284486  0.000000  1
  Dy  Dy3  1  0.235287  0.715514  0.000000  1
  Ho  Ho4  1  0.771212  0.776226  0.000000  1
  Ho  Ho5  1  0.228788  0.223774  0.000000  1
  Ho  Ho6  1  0.622390  0.080536  0.000000  1
  Ho  Ho7  1  0.377610  0.919464  0.000000  1
  Ho  Ho8  1  0.882629  0.586420  0.000000  1
  Ho  Ho9  1  0.117371  0.413580  0.000000  1
  In  In10  1  0.708385  0.931445  0.500000  1
  In  In11  1  0.291615  0.068555  0.500000  1
  In  In12  1  0.796928  0.433975  0.500000  1
  In  In13  1  0.203072  0.566025  0.500000  1
  In  In14  1  0.577420  0.647584  0.500000  1
  In  In15  1  0.422580  0.352416  0.500000  1
  In  In16  1  0.927266  0.150991  0.500000  1
  In  In17  1  0.072734  0.849009  0.500000  1
  Ni  Ni18  1  0.968371  0.694917  0.500000  1
  Ni  Ni19  1  0.031629  0.305083  0.500000  1
  Au  Au20  1  0.531538  0.199245  0.500000  1
  Au  Au21  1  0.468462  0.800755  0.500000  1
