# generated using pymatgen
data_YbHo3(Ni5Sn)4
_symmetry_space_group_name_H-M   'P 1'
_cell_length_a   4.82719000
_cell_length_b   4.82718899
_cell_length_c   19.51196200
_cell_angle_alpha   90.00000000
_cell_angle_beta   90.00000000
_cell_angle_gamma   120.00000694
_symmetry_Int_Tables_number   1
_chemical_formula_structural   YbHo3(Ni5Sn)4
_chemical_formula_sum   'Yb1 Ho3 Ni20 Sn4'
_cell_volume   393.74970196
_cell_formula_units_Z   1
loop_
 _symmetry_equiv_pos_site_id
 _symmetry_equiv_pos_as_xyz
  1  'x, y, z'
loop_
 _atom_site_type_symbol
 _atom_site_label
 _atom_site_symmetry_multiplicity
 _atom_site_fract_x
 _atom_site_fract_y
 _atom_site_fract_z
 _atom_site_occupancy
  Yb  Yb0  1  0.000000  0.000000  0.000000  1
  Ho  Ho1  1  0.333333  0.666667  0.249463  1
  Ho  Ho2  1  0.666667  0.333333  0.750537  1
  Ho  Ho3  1  0.000000  0.000000  0.500000  1
  Ni  Ni4  1  0.000000  0.000000  0.250388  1
  Ni  Ni5  1  0.000000  0.000000  0.749612  1
  Ni  Ni6  1  0.333333  0.666667  0.749621  1
  Ni  Ni7  1  0.666667  0.333333  0.250379  1
  Ni  Ni8  1  0.333333  0.666667  0.956167  1
  Ni  Ni9  1  0.666667  0.333333  0.043833  1
  Ni  Ni10  1  0.666667  0.333333  0.458218  1
  Ni  Ni11  1  0.333333  0.666667  0.541782  1
  Ni  Ni12  1  0.834178  0.165822  0.353615  1
  Ni  Ni13  1  0.834178  0.668355  0.353615  1
  Ni  Ni14  1  0.331645  0.165822  0.353615  1
  Ni  Ni15  1  0.165822  0.834178  0.646385  1
  Ni  Ni16  1  0.165822  0.331645  0.646385  1
  Ni  Ni17  1  0.668355  0.834178  0.646385  1
  Ni  Ni18  1  0.165706  0.834294  0.852963  1
  Ni  Ni19  1  0.165706  0.331412  0.852963  1
  Ni  Ni20  1  0.668588  0.834294  0.852963  1
  Ni  Ni21  1  0.834294  0.165706  0.147037  1
  Ni  Ni22  1  0.834294  0.668588  0.147037  1
  Ni  Ni23  1  0.331412  0.165706  0.147037  1
  Sn  Sn24  1  0.333333  0.666667  0.412713  1
  Sn  Sn25  1  0.666667  0.333333  0.587287  1
  Sn  Sn26  1  0.666667  0.333333  0.914712  1
  Sn  Sn27  1  0.333333  0.666667  0.085288  1
