# generated using pymatgen
data_La9Pr11Ir12
_symmetry_space_group_name_H-M   'P 1'
_cell_length_a   11.40197087
_cell_length_b   11.41201378
_cell_length_c   6.65968169
_cell_angle_alpha   89.98234826
_cell_angle_beta   89.88045297
_cell_angle_gamma   89.87636306
_symmetry_Int_Tables_number   1
_chemical_formula_structural   La9Pr11Ir12
_chemical_formula_sum   'La9 Pr11 Ir12'
_cell_volume   866.55016516
_cell_formula_units_Z   1
loop_
 _symmetry_equiv_pos_site_id
 _symmetry_equiv_pos_as_xyz
  1  'x, y, z'
loop_
 _atom_site_type_symbol
 _atom_site_label
 _atom_site_symmetry_multiplicity
 _atom_site_fract_x
 _atom_site_fract_y
 _atom_site_fract_z
 _atom_site_occupancy
  La  La0  1  0.291224  0.092202  0.387961  1
  La  La1  1  0.291285  0.907198  0.888232  1
  La  La2  1  0.709000  0.092517  0.889391  1
  La  La3  1  0.709005  0.907204  0.389035  1
  La  La4  1  0.593101  0.790856  0.888618  1
  La  La5  1  0.593355  0.209300  0.389541  1
  La  La6  1  0.407198  0.790811  0.388193  1
  La  La7  1  0.407500  0.208750  0.889628  1
  La  La8  1  0.206715  0.409352  0.609807  1
  Pr  Pr9  1  0.207469  0.590540  0.112144  1
  Pr  Pr10  1  0.792891  0.410683  0.111729  1
  Pr  Pr11  1  0.792591  0.589635  0.612447  1
  Pr  Pr12  1  0.910541  0.707052  0.112231  1
  Pr  Pr13  1  0.908505  0.291622  0.611918  1
  Pr  Pr14  1  0.089414  0.708991  0.612937  1
  Pr  Pr15  1  0.088448  0.291765  0.112041  1
  Pr  Pr16  1  0.999537  0.000254  0.499280  1
  Pr  Pr17  1  0.000096  0.999862  0.998894  1
  Pr  Pr18  1  0.499983  0.499582  0.000839  1
  Pr  Pr19  1  0.500872  0.500821  0.499901  1
  Ir  Ir20  1  0.844528  0.152505  0.247810  1
  Ir  Ir21  1  0.845017  0.846696  0.748570  1
  Ir  Ir22  1  0.155372  0.153429  0.746908  1
  Ir  Ir23  1  0.155121  0.847282  0.247699  1
  Ir  Ir24  1  0.652909  0.344997  0.748555  1
  Ir  Ir25  1  0.653556  0.655048  0.247356  1
  Ir  Ir26  1  0.345582  0.345478  0.249986  1
  Ir  Ir27  1  0.347439  0.655849  0.748554  1
  Ir  Ir28  1  0.499905  0.000421  0.122490  1
  Ir  Ir29  1  0.500236  0.999687  0.622349  1
  Ir  Ir30  1  0.001291  0.499384  0.880367  1
  Ir  Ir31  1  0.000316  0.500228  0.384589  1
