# generated using pymatgen
data_BaCaMoH9
_symmetry_space_group_name_H-M   'P 1'
_cell_length_a   9.07290200
_cell_length_b   9.07290060
_cell_length_c   5.18646900
_cell_angle_alpha   90.00000000
_cell_angle_beta   90.00000000
_cell_angle_gamma   120.00000511
_symmetry_Int_Tables_number   1
_chemical_formula_structural   BaCaMoH9
_chemical_formula_sum   'Ba3 Ca3 Mo3 H27'
_cell_volume   369.73857962
_cell_formula_units_Z   3
loop_
 _symmetry_equiv_pos_site_id
 _symmetry_equiv_pos_as_xyz
  1  'x, y, z'
loop_
 _atom_site_type_symbol
 _atom_site_label
 _atom_site_symmetry_multiplicity
 _atom_site_fract_x
 _atom_site_fract_y
 _atom_site_fract_z
 _atom_site_occupancy
  Ba  Ba0  1  0.000000  0.610400  0.000000  1
  Ba  Ba1  1  0.389600  0.389600  0.000000  1
  Ba  Ba2  1  0.610400  0.000000  0.000000  1
  Ca  Ca3  1  0.000000  0.260525  0.500000  1
  Ca  Ca4  1  0.739475  0.739475  0.500000  1
  Ca  Ca5  1  0.260525  0.000000  0.500000  1
  Mo  Mo6  1  0.666667  0.333333  0.500000  1
  Mo  Mo7  1  0.333333  0.666667  0.500000  1
  Mo  Mo8  1  0.000000  0.000000  0.000000  1
  H  H9  1  0.803908  0.326229  0.741114  1
  H  H10  1  0.673771  0.477680  0.741114  1
  H  H11  1  0.522320  0.196092  0.741114  1
  H  H12  1  0.196092  0.522320  0.258886  1
  H  H13  1  0.522320  0.196092  0.258886  1
  H  H14  1  0.803908  0.326229  0.258886  1
  H  H15  1  0.673771  0.477680  0.258886  1
  H  H16  1  0.326229  0.803908  0.741114  1
  H  H17  1  0.477680  0.673771  0.741114  1
  H  H18  1  0.199693  0.000000  0.000000  1
  H  H19  1  0.800307  0.800307  0.000000  1
  H  H20  1  0.000000  0.199693  0.000000  1
  H  H21  1  0.861977  0.000000  0.259200  1
  H  H22  1  0.138023  0.138023  0.740800  1
  H  H23  1  0.000000  0.861977  0.740800  1
  H  H24  1  0.000000  0.861977  0.259200  1
  H  H25  1  0.138023  0.138023  0.259200  1
  H  H26  1  0.861977  0.000000  0.740800  1
  H  H27  1  0.140594  0.671270  0.500000  1
  H  H28  1  0.530677  0.859406  0.500000  1
  H  H29  1  0.328730  0.469323  0.500000  1
  H  H30  1  0.469323  0.328730  0.500000  1
  H  H31  1  0.859406  0.530677  0.500000  1
  H  H32  1  0.671270  0.140594  0.500000  1
  H  H33  1  0.196092  0.522320  0.741114  1
  H  H34  1  0.326229  0.803908  0.258886  1
  H  H35  1  0.477680  0.673771  0.258886  1
