# generated using pymatgen
data_CeTm3(B4Mo)4
_symmetry_space_group_name_H-M   'P 1'
_cell_length_a   3.62300000
_cell_length_b   6.01309018
_cell_length_c   11.62699416
_cell_angle_alpha   89.86298146
_cell_angle_beta   90.00000000
_cell_angle_gamma   90.00000000
_symmetry_Int_Tables_number   1
_chemical_formula_structural   CeTm3(B4Mo)4
_chemical_formula_sum   'Ce1 Tm3 B16 Mo4'
_cell_volume   253.29829340
_cell_formula_units_Z   1
loop_
 _symmetry_equiv_pos_site_id
 _symmetry_equiv_pos_as_xyz
  1  'x, y, z'
loop_
 _atom_site_type_symbol
 _atom_site_label
 _atom_site_symmetry_multiplicity
 _atom_site_fract_x
 _atom_site_fract_y
 _atom_site_fract_z
 _atom_site_occupancy
  Ce  Ce0  1  0.000000  0.373257  0.650869  1
  Tm  Tm1  1  0.000000  0.126938  0.149845  1
  Tm  Tm2  1  0.000000  0.873351  0.851512  1
  Tm  Tm3  1  0.000000  0.626654  0.348752  1
  B  B4  1  0.500000  0.023431  0.693590  1
  B  B5  1  0.500000  0.977065  0.304922  1
  B  B6  1  0.500000  0.524668  0.808249  1
  B  B7  1  0.500000  0.477010  0.193974  1
  B  B8  1  0.500000  0.112340  0.546164  1
  B  B9  1  0.500000  0.883816  0.450834  1
  B  B10  1  0.500000  0.615834  0.953300  1
  B  B11  1  0.500000  0.385215  0.048617  1
  B  B12  1  0.500000  0.287518  0.312391  1
  B  B13  1  0.500000  0.713330  0.686286  1
  B  B14  1  0.500000  0.788534  0.186132  1
  B  B15  1  0.500000  0.211270  0.815422  1
  B  B16  1  0.500000  0.365954  0.466488  1
  B  B17  1  0.500000  0.633831  0.531124  1
  B  B18  1  0.500000  0.867446  0.032665  1
  B  B19  1  0.500000  0.132410  0.969146  1
  Mo  Mo20  1  0.000000  0.129988  0.414561  1
  Mo  Mo21  1  0.000000  0.868569  0.584068  1
  Mo  Mo22  1  0.000000  0.631014  0.084589  1
  Mo  Mo23  1  0.000000  0.370561  0.916500  1
