# generated using pymatgen
data_Tm8MnCr3C8
_symmetry_space_group_name_H-M   'P 1'
_cell_length_a   4.96489300
_cell_length_b   6.36167470
_cell_length_c   9.63827949
_cell_angle_alpha   90.16770628
_cell_angle_beta   90.00000000
_cell_angle_gamma   90.00000000
_symmetry_Int_Tables_number   1
_chemical_formula_structural   Tm8MnCr3C8
_chemical_formula_sum   'Tm8 Mn1 Cr3 C8'
_cell_volume   304.42408325
_cell_formula_units_Z   1
loop_
 _symmetry_equiv_pos_site_id
 _symmetry_equiv_pos_as_xyz
  1  'x, y, z'
loop_
 _atom_site_type_symbol
 _atom_site_label
 _atom_site_symmetry_multiplicity
 _atom_site_fract_x
 _atom_site_fract_y
 _atom_site_fract_z
 _atom_site_occupancy
  Tm  Tm0  1  0.250000  0.818883  0.944318  1
  Tm  Tm1  1  0.250000  0.318125  0.555701  1
  Tm  Tm2  1  0.750000  0.180623  0.057240  1
  Tm  Tm3  1  0.750000  0.680665  0.443334  1
  Tm  Tm4  1  0.250000  0.467162  0.218172  1
  Tm  Tm5  1  0.250000  0.969070  0.283351  1
  Tm  Tm6  1  0.750000  0.534058  0.782246  1
  Tm  Tm7  1  0.750000  0.032538  0.719107  1
  Mn  Mn8  1  0.750000  0.225934  0.359515  1
  Cr  Cr9  1  0.250000  0.275008  0.861225  1
  Cr  Cr10  1  0.250000  0.774255  0.638582  1
  Cr  Cr11  1  0.750000  0.725162  0.140320  1
  C  C12  1  0.250000  0.042851  0.738135  1
  C  C13  1  0.250000  0.542423  0.760719  1
  C  C14  1  0.750000  0.960089  0.261514  1
  C  C15  1  0.750000  0.455786  0.239981  1
  C  C16  1  0.250000  0.687154  0.458320  1
  C  C17  1  0.250000  0.187322  0.041377  1
  C  C18  1  0.750000  0.310454  0.537210  1
  C  C19  1  0.750000  0.812436  0.959634  1
