# generated using pymatgen
data_Hf16Ir3Pd5N4
_symmetry_space_group_name_H-M   'P 1'
_cell_length_a   8.74960332
_cell_length_b   8.75299660
_cell_length_c   8.75299700
_cell_angle_alpha   60.00000228
_cell_angle_beta   59.98717244
_cell_angle_gamma   59.98717376
_symmetry_Int_Tables_number   1
_chemical_formula_structural   Hf16Ir3Pd5N4
_chemical_formula_sum   'Hf16 Ir3 Pd5 N4'
_cell_volume   473.91743445
_cell_formula_units_Z   1
loop_
 _symmetry_equiv_pos_site_id
 _symmetry_equiv_pos_as_xyz
  1  'x, y, z'
loop_
 _atom_site_type_symbol
 _atom_site_label
 _atom_site_symmetry_multiplicity
 _atom_site_fract_x
 _atom_site_fract_y
 _atom_site_fract_z
 _atom_site_occupancy
  Hf  Hf0  1  0.115141  0.628286  0.628286  1
  Hf  Hf1  1  0.629075  0.117584  0.626670  1
  Hf  Hf2  1  0.629075  0.626670  0.117584  1
  Hf  Hf3  1  0.629075  0.626670  0.626670  1
  Hf  Hf4  1  0.817985  0.818217  0.181899  1
  Hf  Hf5  1  0.178010  0.184819  0.818585  1
  Hf  Hf6  1  0.817985  0.181899  0.818217  1
  Hf  Hf7  1  0.178010  0.818585  0.184819  1
  Hf  Hf8  1  0.178010  0.818585  0.818585  1
  Hf  Hf9  1  0.817985  0.181899  0.181899  1
  Hf  Hf10  1  0.432626  0.431992  0.067691  1
  Hf  Hf11  1  0.066129  0.066848  0.433512  1
  Hf  Hf12  1  0.432626  0.067691  0.431992  1
  Hf  Hf13  1  0.066129  0.433512  0.066848  1
  Hf  Hf14  1  0.066129  0.433512  0.433512  1
  Hf  Hf15  1  0.432626  0.067691  0.067691  1
  Ir  Ir16  1  0.844875  0.467619  0.843753  1
  Ir  Ir17  1  0.844875  0.843753  0.467619  1
  Ir  Ir18  1  0.844875  0.843753  0.843753  1
  Pd  Pd19  1  0.769432  0.410189  0.410189  1
  Pd  Pd20  1  0.410145  0.770283  0.409787  1
  Pd  Pd21  1  0.410145  0.409787  0.770283  1
  Pd  Pd22  1  0.410145  0.409787  0.409787  1
  Pd  Pd23  1  0.474869  0.841710  0.841710  1
  N  N24  1  0.624357  0.125215  0.125215  1
  N  N25  1  0.126556  0.622805  0.125320  1
  N  N26  1  0.126556  0.125320  0.622805  1
  N  N27  1  0.126556  0.125320  0.125320  1
