# generated using pymatgen
data_Co2Mo3WN
_symmetry_space_group_name_H-M   'P 1'
_cell_length_a   7.96109344
_cell_length_b   7.96109290
_cell_length_c   7.96109200
_cell_angle_alpha   59.99999544
_cell_angle_beta   59.99999768
_cell_angle_gamma   60.00000102
_symmetry_Int_Tables_number   1
_chemical_formula_structural   Co2Mo3WN
_chemical_formula_sum   'Co8 Mo12 W4 N4'
_cell_volume   356.78208489
_cell_formula_units_Z   4
loop_
 _symmetry_equiv_pos_site_id
 _symmetry_equiv_pos_as_xyz
  1  'x, y, z'
loop_
 _atom_site_type_symbol
 _atom_site_label
 _atom_site_symmetry_multiplicity
 _atom_site_fract_x
 _atom_site_fract_y
 _atom_site_fract_z
 _atom_site_occupancy
  Co  Co0  1  0.918468  0.918468  0.244594  1
  Co  Co1  1  0.244594  0.918468  0.918468  1
  Co  Co2  1  0.918468  0.244594  0.918468  1
  Co  Co3  1  0.331532  0.005406  0.331532  1
  Co  Co4  1  0.331532  0.331532  0.005406  1
  Co  Co5  1  0.331532  0.331532  0.331532  1
  Co  Co6  1  0.918468  0.918468  0.918468  1
  Co  Co7  1  0.005406  0.331532  0.331532  1
  Mo  Mo8  1  0.561587  0.938413  0.938413  1
  Mo  Mo9  1  0.311587  0.688413  0.311587  1
  Mo  Mo10  1  0.938413  0.938413  0.561587  1
  Mo  Mo11  1  0.938413  0.561587  0.561587  1
  Mo  Mo12  1  0.688413  0.311587  0.688413  1
  Mo  Mo13  1  0.311587  0.311587  0.688413  1
  Mo  Mo14  1  0.688413  0.311587  0.311587  1
  Mo  Mo15  1  0.561587  0.938413  0.561587  1
  Mo  Mo16  1  0.311587  0.688413  0.688413  1
  Mo  Mo17  1  0.938413  0.561587  0.938413  1
  Mo  Mo18  1  0.561587  0.561587  0.938413  1
  Mo  Mo19  1  0.688413  0.688413  0.311587  1
  W  W20  1  0.625000  0.125000  0.125000  1
  W  W21  1  0.125000  0.125000  0.625000  1
  W  W22  1  0.125000  0.625000  0.125000  1
  W  W23  1  0.125000  0.125000  0.125000  1
  N  N24  1  0.625000  0.625000  0.625000  1
  N  N25  1  0.125000  0.625000  0.625000  1
  N  N26  1  0.625000  0.125000  0.625000  1
  N  N27  1  0.625000  0.625000  0.125000  1
