# generated using pymatgen
data_Dy2YCd3Sn2Au
_symmetry_space_group_name_H-M   'P 1'
_cell_length_a   7.49979200
_cell_length_b   7.49715217
_cell_length_c   4.53891200
_cell_angle_alpha   90.00000000
_cell_angle_beta   90.00000000
_cell_angle_gamma   120.01164843
_symmetry_Int_Tables_number   1
_chemical_formula_structural   Dy2YCd3Sn2Au
_chemical_formula_sum   'Dy2 Y1 Cd3 Sn2 Au1'
_cell_volume   220.99220267
_cell_formula_units_Z   1
loop_
 _symmetry_equiv_pos_site_id
 _symmetry_equiv_pos_as_xyz
  1  'x, y, z'
loop_
 _atom_site_type_symbol
 _atom_site_label
 _atom_site_symmetry_multiplicity
 _atom_site_fract_x
 _atom_site_fract_y
 _atom_site_fract_z
 _atom_site_occupancy
  Dy  Dy0  1  0.999986  0.593877  0.000000  1
  Dy  Dy1  1  0.406109  0.406123  0.000000  1
  Y  Y2  1  0.593645  0.000000  0.000000  1
  Cd  Cd3  1  0.240385  0.000000  0.500000  1
  Cd  Cd4  1  0.000060  0.240445  0.500000  1
  Cd  Cd5  1  0.759615  0.759555  0.500000  1
  Sn  Sn6  1  0.333167  0.666474  0.500000  1
  Sn  Sn7  1  0.666694  0.333526  0.500000  1
  Au  Au8  1  0.000339  0.000000  0.000000  1
