# generated using pymatgen
data_CsTbSc9(C2I9)2
_symmetry_space_group_name_H-M   'P 1'
_cell_length_a   11.34029167
_cell_length_b   11.27251421
_cell_length_c   11.17073850
_cell_angle_alpha   112.52548162
_cell_angle_beta   85.86647713
_cell_angle_gamma   121.05083095
_symmetry_Int_Tables_number   1
_chemical_formula_structural   CsTbSc9(C2I9)2
_chemical_formula_sum   'Cs1 Tb1 Sc9 C4 I18'
_cell_volume   1115.74040843
_cell_formula_units_Z   1
loop_
 _symmetry_equiv_pos_site_id
 _symmetry_equiv_pos_as_xyz
  1  'x, y, z'
loop_
 _atom_site_type_symbol
 _atom_site_label
 _atom_site_symmetry_multiplicity
 _atom_site_fract_x
 _atom_site_fract_y
 _atom_site_fract_z
 _atom_site_occupancy
  Cs  Cs0  1  0.498963  0.999984  0.501135  1
  Tb  Tb1  1  0.893489  0.056085  0.999449  1
  Sc  Sc2  1  0.696487  0.732821  0.722865  1
  Sc  Sc3  1  0.273547  0.346779  0.016594  1
  Sc  Sc4  1  0.093084  0.371513  0.280127  1
  Sc  Sc5  1  0.966657  0.036649  0.318422  1
  Sc  Sc6  1  0.909668  0.629439  0.721505  1
  Sc  Sc7  1  0.097366  0.946678  0.000645  1
  Sc  Sc8  1  0.035251  0.963063  0.681852  1
  Sc  Sc9  1  0.304022  0.263699  0.274590  1
  Sc  Sc10  1  0.727941  0.652421  0.983275  1
  C  C11  1  0.150156  0.214627  0.114569  1
  C  C12  1  0.851464  0.784161  0.885077  1
  C  C13  1  0.929779  0.862998  0.806968  1
  C  C14  1  0.071815  0.135543  0.192497  1
  I  I15  1  0.462918  0.534411  0.836270  1
  I  I16  1  0.371943  0.044981  0.154678  1
  I  I17  1  0.789051  0.858685  0.509382  1
  I  I18  1  0.847102  0.315902  0.162298  1
  I  I19  1  0.538679  0.464471  0.163422  1
  I  I20  1  0.213427  0.140125  0.489757  1
  I  I21  1  0.310433  0.102647  0.828996  1
  I  I22  1  0.686453  0.893875  0.175383  1
  I  I23  1  0.964684  0.757595  0.169080  1
  I  I24  1  0.936364  0.285447  0.489717  1
  I  I25  1  0.040660  0.247189  0.826673  1
  I  I26  1  0.066625  0.715300  0.511632  1
  I  I27  1  0.255031  0.605651  0.174857  1
  I  I28  1  0.746414  0.393785  0.825283  1
  I  I29  1  0.659404  0.456271  0.520001  1
  I  I30  1  0.153043  0.699002  0.849067  1
  I  I31  1  0.615423  0.946196  0.834700  1
  I  I32  1  0.342658  0.542007  0.479234  1
