# generated using pymatgen
data_LaPr15Cd4IrPt3
_symmetry_space_group_name_H-M   'P 1'
_cell_length_a   10.10283913
_cell_length_b   10.08039257
_cell_length_c   10.08039253
_cell_angle_alpha   60.03306131
_cell_angle_beta   60.06830910
_cell_angle_gamma   60.06831731
_symmetry_Int_Tables_number   1
_chemical_formula_structural   LaPr15Cd4IrPt3
_chemical_formula_sum   'La1 Pr15 Cd4 Ir1 Pt3'
_cell_volume   726.84132266
_cell_formula_units_Z   1
loop_
 _symmetry_equiv_pos_site_id
 _symmetry_equiv_pos_as_xyz
  1  'x, y, z'
loop_
 _atom_site_type_symbol
 _atom_site_label
 _atom_site_symmetry_multiplicity
 _atom_site_fract_x
 _atom_site_fract_y
 _atom_site_fract_z
 _atom_site_occupancy
  La  La0  1  0.351323  0.344971  0.344971  1
  Pr  Pr1  1  0.353381  0.349596  0.948054  1
  Pr  Pr2  1  0.353381  0.948054  0.349596  1
  Pr  Pr3  1  0.942709  0.352807  0.352807  1
  Pr  Pr4  1  0.807976  0.189955  0.189955  1
  Pr  Pr5  1  0.191655  0.808616  0.808616  1
  Pr  Pr6  1  0.191473  0.810645  0.190451  1
  Pr  Pr7  1  0.806101  0.189423  0.813707  1
  Pr  Pr8  1  0.191473  0.190451  0.810645  1
  Pr  Pr9  1  0.806101  0.813707  0.189423  1
  Pr  Pr10  1  0.941493  0.562472  0.562472  1
  Pr  Pr11  1  0.562906  0.937128  0.937128  1
  Pr  Pr12  1  0.564896  0.939206  0.561604  1
  Pr  Pr13  1  0.938139  0.560806  0.936612  1
  Pr  Pr14  1  0.564896  0.561604  0.939206  1
  Pr  Pr15  1  0.938139  0.936612  0.560806  1
  Cd  Cd16  1  0.580239  0.580712  0.580712  1
  Cd  Cd17  1  0.580750  0.581289  0.258047  1
  Cd  Cd18  1  0.580750  0.258047  0.581289  1
  Cd  Cd19  1  0.258897  0.580636  0.580636  1
  Ir  Ir20  1  0.570749  0.143537  0.143537  1
  Pt  Pt21  1  0.141920  0.145205  0.145205  1
  Pt  Pt22  1  0.140325  0.143475  0.571044  1
  Pt  Pt23  1  0.140325  0.571044  0.143475  1
