# generated using pymatgen
data_Be2V2Fe3Co
_symmetry_space_group_name_H-M   'P 1'
_cell_length_a   3.88485600
_cell_length_b   5.50338109
_cell_length_c   11.63980220
_cell_angle_alpha   89.97869859
_cell_angle_beta   89.99881937
_cell_angle_gamma   89.99998948
_symmetry_Int_Tables_number   1
_chemical_formula_structural   Be2V2Fe3Co
_chemical_formula_sum   'Be6 V6 Fe9 Co3'
_cell_volume   248.85712717
_cell_formula_units_Z   3
loop_
 _symmetry_equiv_pos_site_id
 _symmetry_equiv_pos_as_xyz
  1  'x, y, z'
loop_
 _atom_site_type_symbol
 _atom_site_label
 _atom_site_symmetry_multiplicity
 _atom_site_fract_x
 _atom_site_fract_y
 _atom_site_fract_z
 _atom_site_occupancy
  Be  Be0  1  0.000000  0.500185  0.000045  1
  Be  Be1  1  0.499874  0.000032  0.166882  1
  Be  Be2  1  0.999873  0.500066  0.332913  1
  Be  Be3  1  0.499995  0.000134  0.499641  1
  Be  Be4  1  0.000137  0.499632  0.667179  1
  Be  Be5  1  0.500124  0.000004  0.833360  1
  V  V6  1  0.000004  0.998397  0.998100  1
  V  V7  1  0.499864  0.504423  0.170090  1
  V  V8  1  0.999870  0.998047  0.334231  1
  V  V9  1  0.499994  0.499868  0.499480  1
  V  V10  1  0.000138  0.000192  0.667552  1
  V  V11  1  0.500124  0.499588  0.830554  1
  Fe  Fe12  1  0.999873  0.749570  0.165389  1
  Fe  Fe13  1  0.499871  0.250084  0.332625  1
  Fe  Fe14  1  0.499873  0.749823  0.332265  1
  Fe  Fe15  1  0.999995  0.250227  0.499898  1
  Fe  Fe16  1  0.999994  0.749787  0.500177  1
  Fe  Fe17  1  0.500134  0.250109  0.666760  1
  Fe  Fe18  1  0.500132  0.749728  0.666735  1
  Fe  Fe19  1  0.000126  0.250400  0.834842  1
  Fe  Fe20  1  0.000121  0.749993  0.834606  1
  Co  Co21  1  0.500005  0.249328  0.000854  1
  Co  Co22  1  0.500000  0.750475  0.000303  1
  Co  Co23  1  0.999874  0.249910  0.165520  1
