# generated using pymatgen
data_TbY11Os3Pd
_symmetry_space_group_name_H-M   'P 1'
_cell_length_a   6.46720314
_cell_length_b   7.39238981
_cell_length_c   9.15994100
_cell_angle_alpha   90.00000000
_cell_angle_beta   90.00000000
_cell_angle_gamma   90.35650940
_symmetry_Int_Tables_number   1
_chemical_formula_structural   TbY11Os3Pd
_chemical_formula_sum   'Tb1 Y11 Os3 Pd1'
_cell_volume   437.91077477
_cell_formula_units_Z   1
loop_
 _symmetry_equiv_pos_site_id
 _symmetry_equiv_pos_as_xyz
  1  'x, y, z'
loop_
 _atom_site_type_symbol
 _atom_site_label
 _atom_site_symmetry_multiplicity
 _atom_site_fract_x
 _atom_site_fract_y
 _atom_site_fract_z
 _atom_site_occupancy
  Tb  Tb0  1  0.124723  0.461864  0.750000  1
  Y  Y1  1  0.338148  0.669201  0.058676  1
  Y  Y2  1  0.172320  0.183713  0.441337  1
  Y  Y3  1  0.671299  0.323296  0.563430  1
  Y  Y4  1  0.822386  0.824312  0.931158  1
  Y  Y5  1  0.671299  0.323296  0.936570  1
  Y  Y6  1  0.822386  0.824312  0.568842  1
  Y  Y7  1  0.338148  0.669201  0.441324  1
  Y  Y8  1  0.172320  0.183713  0.058663  1
  Y  Y9  1  0.869381  0.533523  0.250000  1
  Y  Y10  1  0.623127  0.040793  0.250000  1
  Y  Y11  1  0.368028  0.960996  0.750000  1
  Os  Os12  1  0.463063  0.383253  0.250000  1
  Os  Os13  1  0.964794  0.115890  0.750000  1
  Os  Os14  1  0.531925  0.614371  0.750000  1
  Pd  Pd15  1  0.046651  0.888266  0.250000  1
