# generated using pymatgen
data_MgHg2(PO3)4
_symmetry_space_group_name_H-M   'P 1'
_cell_length_a   5.33557436
_cell_length_b   7.44180866
_cell_length_c   10.30964817
_cell_angle_alpha   108.52742953
_cell_angle_beta   110.33988431
_cell_angle_gamma   112.99529805
_symmetry_Int_Tables_number   1
_chemical_formula_structural   MgHg2(PO3)4
_chemical_formula_sum   'Mg1 Hg2 P4 O12'
_cell_volume   300.62191608
_cell_formula_units_Z   1
loop_
 _symmetry_equiv_pos_site_id
 _symmetry_equiv_pos_as_xyz
  1  'x, y, z'
loop_
 _atom_site_type_symbol
 _atom_site_label
 _atom_site_symmetry_multiplicity
 _atom_site_fract_x
 _atom_site_fract_y
 _atom_site_fract_z
 _atom_site_occupancy
  Mg  Mg0  1  0.000000  0.000000  0.000000  1
  Hg  Hg1  1  0.558301  0.662886  0.471284  1
  Hg  Hg2  1  0.441699  0.337114  0.528716  1
  P  P3  1  0.298119  0.813259  0.229216  1
  P  P4  1  0.735507  0.336164  0.084532  1
  P  P5  1  0.264493  0.663836  0.915468  1
  P  P6  1  0.701881  0.186741  0.770784  1
  O  O7  1  0.595168  0.901818  0.389160  1
  O  O8  1  0.337891  0.684145  0.088303  1
  O  O9  1  0.764738  0.013062  0.785901  1
  O  O10  1  0.990876  0.612481  0.207835  1
  O  O11  1  0.099232  0.780145  0.878400  1
  O  O12  1  0.558228  0.717425  0.909662  1
  O  O13  1  0.441772  0.282575  0.090338  1
  O  O14  1  0.900768  0.219855  0.121600  1
  O  O15  1  0.009124  0.387519  0.792165  1
  O  O16  1  0.235262  0.986938  0.214099  1
  O  O17  1  0.662109  0.315855  0.911697  1
  O  O18  1  0.404832  0.098182  0.610840  1
