# generated using pymatgen
data_Dy20Ir2Os3Rh7
_symmetry_space_group_name_H-M   'P 1'
_cell_length_a   10.86432950
_cell_length_b   10.86701107
_cell_length_c   6.41117527
_cell_angle_alpha   90.00642086
_cell_angle_beta   90.03282192
_cell_angle_gamma   89.98876737
_symmetry_Int_Tables_number   1
_chemical_formula_structural   Dy20Ir2Os3Rh7
_chemical_formula_sum   'Dy20 Ir2 Os3 Rh7'
_cell_volume   756.92108946
_cell_formula_units_Z   1
loop_
 _symmetry_equiv_pos_site_id
 _symmetry_equiv_pos_as_xyz
  1  'x, y, z'
loop_
 _atom_site_type_symbol
 _atom_site_label
 _atom_site_symmetry_multiplicity
 _atom_site_fract_x
 _atom_site_fract_y
 _atom_site_fract_z
 _atom_site_occupancy
  Dy  Dy0  1  0.294836  0.087597  0.377389  1
  Dy  Dy1  1  0.294842  0.912611  0.877614  1
  Dy  Dy2  1  0.705248  0.085986  0.877590  1
  Dy  Dy3  1  0.705258  0.913635  0.377552  1
  Dy  Dy4  1  0.584822  0.794109  0.877776  1
  Dy  Dy5  1  0.585247  0.205845  0.377554  1
  Dy  Dy6  1  0.412897  0.794258  0.378638  1
  Dy  Dy7  1  0.413333  0.205769  0.878914  1
  Dy  Dy8  1  0.208657  0.413673  0.624190  1
  Dy  Dy9  1  0.207987  0.586568  0.118341  1
  Dy  Dy10  1  0.793226  0.412350  0.118586  1
  Dy  Dy11  1  0.792607  0.587404  0.624663  1
  Dy  Dy12  1  0.912623  0.707055  0.118745  1
  Dy  Dy13  1  0.912870  0.292416  0.624907  1
  Dy  Dy14  1  0.088700  0.707292  0.625412  1
  Dy  Dy15  1  0.088770  0.293194  0.119243  1
  Dy  Dy16  1  0.000051  0.999965  0.499330  1
  Dy  Dy17  1  0.000063  0.000000  0.999575  1
  Dy  Dy18  1  0.499559  0.500153  0.999505  1
  Dy  Dy19  1  0.499541  0.499984  0.499120  1
  Ir  Ir20  1  0.346571  0.348497  0.250477  1
  Ir  Ir21  1  0.347001  0.651944  0.749645  1
  Os  Os22  1  0.500537  0.999971  0.124837  1
  Os  Os23  1  0.500546  0.000138  0.624256  1
  Os  Os24  1  0.998933  0.499941  0.875702  1
  Rh  Rh25  1  0.849084  0.153227  0.250572  1
  Rh  Rh26  1  0.848679  0.847180  0.749874  1
  Rh  Rh27  1  0.150869  0.152501  0.750091  1
  Rh  Rh28  1  0.150469  0.847226  0.250956  1
  Rh  Rh29  1  0.653409  0.348644  0.750171  1
  Rh  Rh30  1  0.653798  0.650811  0.250844  1
  Rh  Rh31  1  0.998967  0.500055  0.377928  1
