# generated using pymatgen
data_LaGe2PtAu
_symmetry_space_group_name_H-M   'P 1'
_cell_length_a   4.45462000
_cell_length_b   4.45462000
_cell_length_c   10.38640100
_cell_angle_alpha   90.00000000
_cell_angle_beta   90.00000000
_cell_angle_gamma   90.00000000
_symmetry_Int_Tables_number   1
_chemical_formula_structural   LaGe2PtAu
_chemical_formula_sum   'La2 Ge4 Pt2 Au2'
_cell_volume   206.10399553
_cell_formula_units_Z   2
loop_
 _symmetry_equiv_pos_site_id
 _symmetry_equiv_pos_as_xyz
  1  'x, y, z'
loop_
 _atom_site_type_symbol
 _atom_site_label
 _atom_site_symmetry_multiplicity
 _atom_site_fract_x
 _atom_site_fract_y
 _atom_site_fract_z
 _atom_site_occupancy
  La  La0  1  0.000000  0.500000  0.254120  1
  La  La1  1  0.500000  0.000000  0.745880  1
  Ge  Ge2  1  0.500000  0.500000  0.500000  1
  Ge  Ge3  1  0.000000  0.000000  0.500000  1
  Ge  Ge4  1  0.000000  0.500000  0.856426  1
  Ge  Ge5  1  0.500000  0.000000  0.143574  1
  Pt  Pt6  1  0.000000  0.500000  0.619008  1
  Pt  Pt7  1  0.500000  0.000000  0.380992  1
  Au  Au8  1  0.500000  0.500000  0.000000  1
  Au  Au9  1  0.000000  0.000000  0.000000  1
