# generated using pymatgen
data_Ho10In8Pd2RuPt
_symmetry_space_group_name_H-M   'P 1'
_cell_length_a   3.62359000
_cell_length_b   8.11036309
_cell_length_c   18.23523609
_cell_angle_alpha   90.05550751
_cell_angle_beta   90.00000000
_cell_angle_gamma   90.00000000
_symmetry_Int_Tables_number   1
_chemical_formula_structural   Ho10In8Pd2RuPt
_chemical_formula_sum   'Ho10 In8 Pd2 Ru1 Pt1'
_cell_volume   535.90836519
_cell_formula_units_Z   1
loop_
 _symmetry_equiv_pos_site_id
 _symmetry_equiv_pos_as_xyz
  1  'x, y, z'
loop_
 _atom_site_type_symbol
 _atom_site_label
 _atom_site_symmetry_multiplicity
 _atom_site_fract_x
 _atom_site_fract_y
 _atom_site_fract_z
 _atom_site_occupancy
  Ho  Ho0  1  0.000000  0.499708  0.499636  1
  Ho  Ho1  1  0.000000  0.000169  0.000633  1
  Ho  Ho2  1  0.000000  0.727466  0.277256  1
  Ho  Ho3  1  0.000000  0.262994  0.720948  1
  Ho  Ho4  1  0.000000  0.755718  0.779781  1
  Ho  Ho5  1  0.000000  0.253079  0.220294  1
  Ho  Ho6  1  0.000000  0.614784  0.087413  1
  Ho  Ho7  1  0.000000  0.384536  0.915154  1
  Ho  Ho8  1  0.000000  0.883878  0.584040  1
  Ho  Ho9  1  0.000000  0.118256  0.414856  1
  In  In10  1  0.500000  0.711001  0.932515  1
  In  In11  1  0.500000  0.292375  0.069203  1
  In  In12  1  0.500000  0.791238  0.432080  1
  In  In13  1  0.500000  0.209129  0.567825  1
  In  In14  1  0.500000  0.579576  0.648187  1
  In  In15  1  0.500000  0.425597  0.350020  1
  In  In16  1  0.500000  0.921643  0.150193  1
  In  In17  1  0.500000  0.076446  0.851094  1
  Pd  Pd18  1  0.500000  0.977719  0.695506  1
  Pd  Pd19  1  0.500000  0.018569  0.303990  1
  Ru  Ru20  1  0.500000  0.518608  0.195353  1
  Pt  Pt21  1  0.500000  0.477514  0.804025  1
