# generated using pymatgen
data_Tb7PrSc12Si15Tc
_symmetry_space_group_name_H-M   'P 1'
_cell_length_a   7.12024374
_cell_length_b   7.48114188
_cell_length_c   14.00301628
_cell_angle_alpha   90.08528377
_cell_angle_beta   90.05091114
_cell_angle_gamma   90.23421243
_symmetry_Int_Tables_number   1
_chemical_formula_structural   Tb7PrSc12Si15Tc
_chemical_formula_sum   'Tb7 Pr1 Sc12 Si15 Tc1'
_cell_volume   745.89906428
_cell_formula_units_Z   1
loop_
 _symmetry_equiv_pos_site_id
 _symmetry_equiv_pos_as_xyz
  1  'x, y, z'
loop_
 _atom_site_type_symbol
 _atom_site_label
 _atom_site_symmetry_multiplicity
 _atom_site_fract_x
 _atom_site_fract_y
 _atom_site_fract_z
 _atom_site_occupancy
  Tb  Tb0  1  0.990645  0.827108  0.902429  1
  Tb  Tb1  1  0.489480  0.675448  0.903195  1
  Tb  Tb2  1  0.990688  0.827174  0.596900  1
  Tb  Tb3  1  0.510624  0.324056  0.095951  1
  Tb  Tb4  1  0.011580  0.178682  0.403603  1
  Tb  Tb5  1  0.511129  0.323567  0.404674  1
  Tb  Tb6  1  0.488882  0.675454  0.596309  1
  Pr  Pr7  1  0.010493  0.176092  0.094421  1
  Sc  Sc8  1  0.155988  0.497843  0.749982  1
  Sc  Sc9  1  0.838700  0.496167  0.250506  1
  Sc  Sc10  1  0.339054  0.004604  0.250610  1
  Sc  Sc11  1  0.667689  0.999420  0.750040  1
  Sc  Sc12  1  0.316006  0.171246  0.628000  1
  Sc  Sc13  1  0.671514  0.826199  0.374395  1
  Sc  Sc14  1  0.172104  0.677514  0.374454  1
  Sc  Sc15  1  0.671489  0.825624  0.126405  1
  Sc  Sc16  1  0.837558  0.318990  0.627506  1
  Sc  Sc17  1  0.317044  0.171234  0.871398  1
  Sc  Sc18  1  0.836370  0.320363  0.872040  1
  Sc  Sc19  1  0.172149  0.677414  0.126260  1
  Si  Si20  1  0.968129  0.879961  0.251385  1
  Si  Si21  1  0.470452  0.614942  0.250364  1
  Si  Si22  1  0.529271  0.387487  0.749720  1
  Si  Si23  1  0.286759  0.868848  0.749603  1
  Si  Si24  1  0.709966  0.127243  0.252083  1
  Si  Si25  1  0.216510  0.373976  0.251885  1
  Si  Si26  1  0.779981  0.626939  0.749810  1
  Si  Si27  1  0.158994  0.468383  0.537023  1
  Si  Si28  1  0.845984  0.536606  0.461433  1
  Si  Si29  1  0.345143  0.965447  0.459846  1
  Si  Si30  1  0.844388  0.540870  0.037448  1
  Si  Si31  1  0.654048  0.033906  0.539156  1
  Si  Si32  1  0.159745  0.472264  0.961552  1
  Si  Si33  1  0.652880  0.033112  0.960054  1
  Si  Si34  1  0.349728  0.962656  0.039306  1
  Tc  Tc35  1  0.028832  0.113159  0.750256  1
