# generated using pymatgen
data_Lu4MgZn3(IrPt)2
_symmetry_space_group_name_H-M   'P 1'
_cell_length_a   4.01679000
_cell_length_b   6.88682302
_cell_length_c   8.26200414
_cell_angle_alpha   90.18504601
_cell_angle_beta   90.00000000
_cell_angle_gamma   90.00000000
_symmetry_Int_Tables_number   1
_chemical_formula_structural   Lu4MgZn3(IrPt)2
_chemical_formula_sum   'Lu4 Mg1 Zn3 Ir2 Pt2'
_cell_volume   228.54998283
_cell_formula_units_Z   1
loop_
 _symmetry_equiv_pos_site_id
 _symmetry_equiv_pos_as_xyz
  1  'x, y, z'
loop_
 _atom_site_type_symbol
 _atom_site_label
 _atom_site_symmetry_multiplicity
 _atom_site_fract_x
 _atom_site_fract_y
 _atom_site_fract_z
 _atom_site_occupancy
  Lu  Lu0  1  0.250000  0.539893  0.170966  1
  Lu  Lu1  1  0.750000  0.456359  0.830445  1
  Lu  Lu2  1  0.750000  0.957802  0.690679  1
  Lu  Lu3  1  0.250000  0.051161  0.314545  1
  Mg  Mg4  1  0.250000  0.630211  0.562164  1
  Zn  Zn5  1  0.750000  0.363266  0.430995  1
  Zn  Zn6  1  0.750000  0.867185  0.059913  1
  Zn  Zn7  1  0.250000  0.133685  0.940459  1
  Ir  Ir8  1  0.250000  0.749388  0.875577  1
  Ir  Ir9  1  0.750000  0.249489  0.125763  1
  Pt  Pt10  1  0.750000  0.756124  0.373274  1
  Pt  Pt11  1  0.250000  0.245437  0.625220  1
