# generated using pymatgen
data_La12Tb5Yb3Sn16
_symmetry_space_group_name_H-M   'P 1'
_cell_length_a   8.21168207
_cell_length_b   8.49179127
_cell_length_c   16.17860300
_cell_angle_alpha   89.99001415
_cell_angle_beta   89.97073699
_cell_angle_gamma   89.72035629
_symmetry_Int_Tables_number   1
_chemical_formula_structural   La12Tb5Yb3Sn16
_chemical_formula_sum   'La12 Tb5 Yb3 Sn16'
_cell_volume   1128.15096552
_cell_formula_units_Z   1
loop_
 _symmetry_equiv_pos_site_id
 _symmetry_equiv_pos_as_xyz
  1  'x, y, z'
loop_
 _atom_site_type_symbol
 _atom_site_label
 _atom_site_symmetry_multiplicity
 _atom_site_fract_x
 _atom_site_fract_y
 _atom_site_fract_z
 _atom_site_occupancy
  La  La0  1  0.348899  0.829559  0.377157  1
  La  La1  1  0.848872  0.667002  0.119487  1
  La  La2  1  0.650460  0.168317  0.877541  1
  La  La3  1  0.153871  0.329993  0.620948  1
  La  La4  1  0.494468  0.680160  0.598259  1
  La  La5  1  0.999578  0.819793  0.903561  1
  La  La6  1  0.501618  0.319561  0.097380  1
  La  La7  1  0.000132  0.183738  0.404018  1
  La  La8  1  0.504276  0.319769  0.404236  1
  La  La9  1  0.000950  0.183761  0.094872  1
  La  La10  1  0.494078  0.679700  0.902353  1
  La  La11  1  0.998344  0.820037  0.595894  1
  Tb  Tb12  1  0.654865  0.167754  0.625752  1
  Tb  Tb13  1  0.155813  0.333500  0.876427  1
  Tb  Tb14  1  0.346000  0.830188  0.124668  1
  Tb  Tb15  1  0.847145  0.665846  0.378383  1
  Tb  Tb16  1  0.821225  0.500005  0.748506  1
  Yb  Yb17  1  0.321596  0.999274  0.751451  1
  Yb  Yb18  1  0.179651  0.499941  0.248457  1
  Yb  Yb19  1  0.677622  0.999494  0.251940  1
  Sn  Sn20  1  0.692768  0.959502  0.464934  1
  Sn  Sn21  1  0.198958  0.540961  0.036109  1
  Sn  Sn22  1  0.307595  0.041094  0.965165  1
  Sn  Sn23  1  0.803169  0.461251  0.540682  1
  Sn  Sn24  1  0.330976  0.038393  0.541012  1
  Sn  Sn25  1  0.821469  0.464872  0.952628  1
  Sn  Sn26  1  0.669512  0.961561  0.042065  1
  Sn  Sn27  1  0.179116  0.537794  0.457324  1
  Sn  Sn28  1  0.455202  0.387910  0.751145  1
  Sn  Sn29  1  0.955015  0.118794  0.748821  1
  Sn  Sn30  1  0.549062  0.611846  0.252124  1
  Sn  Sn31  1  0.044709  0.887167  0.247242  1
  Sn  Sn32  1  0.699782  0.854973  0.748577  1
  Sn  Sn33  1  0.186669  0.637075  0.750867  1
  Sn  Sn34  1  0.301158  0.136539  0.248667  1
  Sn  Sn35  1  0.805380  0.362878  0.251349  1
