# generated using pymatgen
data_Dy2Ti3As7Pd9
_symmetry_space_group_name_H-M   'P 1'
_cell_length_a   3.93929700
_cell_length_b   10.26200919
_cell_length_c   10.26201100
_cell_angle_alpha   119.99999615
_cell_angle_beta   90.00000000
_cell_angle_gamma   90.00000000
_symmetry_Int_Tables_number   1
_chemical_formula_structural   Dy2Ti3As7Pd9
_chemical_formula_sum   'Dy2 Ti3 As7 Pd9'
_cell_volume   359.26445343
_cell_formula_units_Z   1
loop_
 _symmetry_equiv_pos_site_id
 _symmetry_equiv_pos_as_xyz
  1  'x, y, z'
loop_
 _atom_site_type_symbol
 _atom_site_label
 _atom_site_symmetry_multiplicity
 _atom_site_fract_x
 _atom_site_fract_y
 _atom_site_fract_z
 _atom_site_occupancy
  Dy  Dy0  1  0.000000  0.666667  0.333333  1
  Dy  Dy1  1  0.500000  0.333333  0.666667  1
  Ti  Ti2  1  0.500000  0.772704  0.900349  1
  Ti  Ti3  1  0.500000  0.127645  0.227296  1
  Ti  Ti4  1  0.500000  0.099651  0.872355  1
  As  As5  1  0.000000  0.000000  0.000000  1
  As  As6  1  0.500000  0.705050  0.115708  1
  As  As7  1  0.500000  0.410657  0.294950  1
  As  As8  1  0.500000  0.884292  0.589343  1
  As  As9  1  0.000000  0.592118  0.715204  1
  As  As10  1  0.000000  0.123085  0.407882  1
  As  As11  1  0.000000  0.284796  0.876915  1
  Pd  Pd12  1  0.000000  0.553108  0.931955  1
  Pd  Pd13  1  0.000000  0.378845  0.446892  1
  Pd  Pd14  1  0.000000  0.068045  0.621155  1
  Pd  Pd15  1  0.000000  0.875935  0.151756  1
  Pd  Pd16  1  0.000000  0.275822  0.124065  1
  Pd  Pd17  1  0.000000  0.848244  0.724178  1
  Pd  Pd18  1  0.500000  0.937264  0.378024  1
  Pd  Pd19  1  0.500000  0.440760  0.062736  1
  Pd  Pd20  1  0.500000  0.621976  0.559240  1
