# generated using pymatgen
data_MnMoF7
_symmetry_space_group_name_H-M   'P 1'
_cell_length_a   7.85886574
_cell_length_b   7.85886406
_cell_length_c   7.85886600
_cell_angle_alpha   124.67286561
_cell_angle_beta   121.45423920
_cell_angle_gamma   84.79568890
_symmetry_Int_Tables_number   1
_chemical_formula_structural   MnMoF7
_chemical_formula_sum   'Mn2 Mo2 F14'
_cell_volume   325.49142623
_cell_formula_units_Z   2
loop_
 _symmetry_equiv_pos_site_id
 _symmetry_equiv_pos_as_xyz
  1  'x, y, z'
loop_
 _atom_site_type_symbol
 _atom_site_label
 _atom_site_symmetry_multiplicity
 _atom_site_fract_x
 _atom_site_fract_y
 _atom_site_fract_z
 _atom_site_occupancy
  Mn  Mn0  1  0.500000  0.000000  0.000000  1
  Mn  Mn1  1  0.000000  0.000000  0.500000  1
  Mo  Mo2  1  0.500000  0.000000  0.500000  1
  Mo  Mo3  1  0.000000  0.500000  0.500000  1
  F  F4  1  0.250000  0.078576  0.828576  1
  F  F5  1  0.750000  0.921424  0.171424  1
  F  F6  1  0.534175  0.283858  0.749681  1
  F  F7  1  0.965825  0.715506  0.749681  1
  F  F8  1  0.062867  0.340068  0.637300  1
  F  F9  1  0.437133  0.074434  0.277201  1
  F  F10  1  0.297233  0.659932  0.722799  1
  F  F11  1  0.202767  0.925566  0.362700  1
  F  F12  1  0.937133  0.659932  0.362700  1
  F  F13  1  0.562867  0.925566  0.722799  1
  F  F14  1  0.702767  0.340068  0.277201  1
  F  F15  1  0.797233  0.074434  0.637300  1
  F  F16  1  0.034175  0.284494  0.250319  1
  F  F17  1  0.465825  0.716142  0.250319  1
