# generated using pymatgen
data_Hf7Ta(Ir2N)2
_symmetry_space_group_name_H-M   'P 1'
_cell_length_a   8.74004975
_cell_length_b   8.69439911
_cell_length_c   8.69439762
_cell_angle_alpha   59.54900697
_cell_angle_beta   59.82616281
_cell_angle_gamma   59.82615782
_symmetry_Int_Tables_number   1
_chemical_formula_structural   Hf7Ta(Ir2N)2
_chemical_formula_sum   'Hf14 Ta2 Ir8 N4'
_cell_volume   464.34144541
_cell_formula_units_Z   2
loop_
 _symmetry_equiv_pos_site_id
 _symmetry_equiv_pos_as_xyz
  1  'x, y, z'
loop_
 _atom_site_type_symbol
 _atom_site_label
 _atom_site_symmetry_multiplicity
 _atom_site_fract_x
 _atom_site_fract_y
 _atom_site_fract_z
 _atom_site_occupancy
  Hf  Hf0  1  0.625000  0.125000  0.625000  1
  Hf  Hf1  1  0.625000  0.625000  0.125000  1
  Hf  Hf2  1  0.815594  0.815335  0.185018  1
  Hf  Hf3  1  0.184052  0.185018  0.815335  1
  Hf  Hf4  1  0.815594  0.185018  0.815335  1
  Hf  Hf5  1  0.184052  0.815335  0.185018  1
  Hf  Hf6  1  0.185917  0.814083  0.814083  1
  Hf  Hf7  1  0.817034  0.182966  0.182966  1
  Hf  Hf8  1  0.434406  0.434665  0.064982  1
  Hf  Hf9  1  0.065948  0.064982  0.434665  1
  Hf  Hf10  1  0.434406  0.064982  0.434665  1
  Hf  Hf11  1  0.065948  0.434665  0.064982  1
  Hf  Hf12  1  0.064083  0.435917  0.435917  1
  Hf  Hf13  1  0.432966  0.067034  0.067034  1
  Ta  Ta14  1  0.125000  0.625000  0.625000  1
  Ta  Ta15  1  0.625000  0.625000  0.625000  1
  Ir  Ir16  1  0.771371  0.413389  0.413389  1
  Ir  Ir17  1  0.409650  0.762870  0.417831  1
  Ir  Ir18  1  0.409650  0.417831  0.762870  1
  Ir  Ir19  1  0.401852  0.413389  0.413389  1
  Ir  Ir20  1  0.478629  0.836611  0.836611  1
  Ir  Ir21  1  0.840350  0.487130  0.832169  1
  Ir  Ir22  1  0.840350  0.832169  0.487130  1
  Ir  Ir23  1  0.848148  0.836611  0.836611  1
  N  N24  1  0.625000  0.125000  0.125000  1
  N  N25  1  0.125000  0.625000  0.125000  1
  N  N26  1  0.125000  0.125000  0.625000  1
  N  N27  1  0.125000  0.125000  0.125000  1
