# generated using pymatgen
data_Ho12Tc2OsPt
_symmetry_space_group_name_H-M   'P 1'
_cell_length_a   6.29274711
_cell_length_b   7.35884537
_cell_length_c   9.10926900
_cell_angle_alpha   90.00000000
_cell_angle_beta   90.00000000
_cell_angle_gamma   89.86976561
_symmetry_Int_Tables_number   1
_chemical_formula_structural   Ho12Tc2OsPt
_chemical_formula_sum   'Ho12 Tc2 Os1 Pt1'
_cell_volume   421.82504479
_cell_formula_units_Z   1
loop_
 _symmetry_equiv_pos_site_id
 _symmetry_equiv_pos_as_xyz
  1  'x, y, z'
loop_
 _atom_site_type_symbol
 _atom_site_label
 _atom_site_symmetry_multiplicity
 _atom_site_fract_x
 _atom_site_fract_y
 _atom_site_fract_z
 _atom_site_occupancy
  Ho  Ho0  1  0.329691  0.676187  0.066880  1
  Ho  Ho1  1  0.165999  0.177916  0.436296  1
  Ho  Ho2  1  0.668460  0.318337  0.559313  1
  Ho  Ho3  1  0.837352  0.827458  0.939722  1
  Ho  Ho4  1  0.668460  0.318337  0.940687  1
  Ho  Ho5  1  0.837352  0.827458  0.560278  1
  Ho  Ho6  1  0.329691  0.676187  0.433120  1
  Ho  Ho7  1  0.165999  0.177916  0.063704  1
  Ho  Ho8  1  0.871679  0.541450  0.250000  1
  Ho  Ho9  1  0.623993  0.038697  0.250000  1
  Ho  Ho10  1  0.127617  0.455731  0.750000  1
  Ho  Ho11  1  0.370631  0.965177  0.750000  1
  Tc  Tc12  1  0.036944  0.886352  0.250000  1
  Tc  Tc13  1  0.464002  0.385944  0.250000  1
  Os  Os14  1  0.955854  0.113964  0.750000  1
  Pt  Pt15  1  0.546277  0.612887  0.750000  1
