# generated using pymatgen
data_Pr7GdNp4O24
_symmetry_space_group_name_H-M   'P 1'
_cell_length_a   5.64310937
_cell_length_b   9.61658854
_cell_length_c   10.61834000
_cell_angle_alpha   90.03205412
_cell_angle_beta   89.97934833
_cell_angle_gamma   90.00461114
_symmetry_Int_Tables_number   1
_chemical_formula_structural   Pr7GdNp4O24
_chemical_formula_sum   'Pr7 Gd1 Np4 O24'
_cell_volume   576.23022069
_cell_formula_units_Z   1
loop_
 _symmetry_equiv_pos_site_id
 _symmetry_equiv_pos_as_xyz
  1  'x, y, z'
loop_
 _atom_site_type_symbol
 _atom_site_label
 _atom_site_symmetry_multiplicity
 _atom_site_fract_x
 _atom_site_fract_y
 _atom_site_fract_z
 _atom_site_occupancy
  Pr  Pr0  1  0.475217  0.600494  0.534767  1
  Pr  Pr1  1  0.974507  0.898878  0.464135  1
  Pr  Pr2  1  0.525930  0.101408  0.964602  1
  Pr  Pr3  1  0.024650  0.398775  0.035736  1
  Pr  Pr4  1  0.960686  0.783870  0.868351  1
  Pr  Pr5  1  0.460597  0.717182  0.132568  1
  Pr  Pr6  1  0.041209  0.282407  0.630274  1
  Gd  Gd7  1  0.541019  0.215392  0.368387  1
  Np  Np8  1  0.462662  0.995836  0.647453  1
  Np  Np9  1  0.961104  0.502066  0.351193  1
  Np  Np10  1  0.538307  0.494862  0.851097  1
  Np  Np11  1  0.038135  0.007349  0.150757  1
  O  O12  1  0.258187  0.087447  0.503031  1
  O  O13  1  0.753480  0.411127  0.493517  1
  O  O14  1  0.746252  0.586817  0.994088  1
  O  O15  1  0.247273  0.914900  0.007844  1
  O  O16  1  0.734236  0.116387  0.562331  1
  O  O17  1  0.239818  0.380944  0.432243  1
  O  O18  1  0.265668  0.615703  0.935401  1
  O  O19  1  0.766267  0.885986  0.065633  1
  O  O20  1  0.588741  0.842127  0.531002  1
  O  O21  1  0.087944  0.655669  0.468495  1
  O  O22  1  0.411348  0.342197  0.968990  1
  O  O23  1  0.914371  0.157973  0.031124  1
  O  O24  1  0.175119  0.858158  0.261865  1
  O  O25  1  0.678789  0.642622  0.738906  1
  O  O26  1  0.815340  0.354465  0.240372  1
  O  O27  1  0.321840  0.142882  0.760406  1
  O  O28  1  0.821498  0.052069  0.302754  1
  O  O29  1  0.327716  0.451382  0.697941  1
  O  O30  1  0.168779  0.548799  0.198226  1
  O  O31  1  0.672413  0.952203  0.801427  1
  O  O32  1  0.329383  0.137833  0.187106  1
  O  O33  1  0.827371  0.363465  0.818850  1
  O  O34  1  0.672459  0.635245  0.319137  1
  O  O35  1  0.171685  0.865082  0.679994  1
