# generated using pymatgen
data_La2Ce(YCo2)2
_symmetry_space_group_name_H-M   'P 1'
_cell_length_a   6.07946081
_cell_length_b   6.07945923
_cell_length_c   9.29854001
_cell_angle_alpha   71.87242699
_cell_angle_beta   71.87243143
_cell_angle_gamma   37.97426071
_symmetry_Int_Tables_number   1
_chemical_formula_structural   La2Ce(YCo2)2
_chemical_formula_sum   'La2 Ce1 Y2 Co4'
_cell_volume   199.68934520
_cell_formula_units_Z   1
loop_
 _symmetry_equiv_pos_site_id
 _symmetry_equiv_pos_as_xyz
  1  'x, y, z'
loop_
 _atom_site_type_symbol
 _atom_site_label
 _atom_site_symmetry_multiplicity
 _atom_site_fract_x
 _atom_site_fract_y
 _atom_site_fract_z
 _atom_site_occupancy
  La  La0  1  0.726993  0.726993  0.685631  1
  La  La1  1  0.273007  0.273007  0.314369  1
  Ce  Ce2  1  0.500000  0.500000  0.500000  1
  Y  Y3  1  0.394658  0.394658  0.901015  1
  Y  Y4  1  0.605342  0.605342  0.098985  1
  Co  Co5  1  0.020363  0.020363  0.643308  1
  Co  Co6  1  0.979637  0.979637  0.356692  1
  Co  Co7  1  0.083709  0.083709  0.875308  1
  Co  Co8  1  0.916291  0.916291  0.124692  1
