# generated using pymatgen
data_Pr4CuIr2Au
_symmetry_space_group_name_H-M   'P 1'
_cell_length_a   4.50324900
_cell_length_b   5.85618222
_cell_length_c   7.53083503
_cell_angle_alpha   90.47089697
_cell_angle_beta   90.00000000
_cell_angle_gamma   90.00000000
_symmetry_Int_Tables_number   1
_chemical_formula_structural   Pr4CuIr2Au
_chemical_formula_sum   'Pr4 Cu1 Ir2 Au1'
_cell_volume   198.59531985
_cell_formula_units_Z   1
loop_
 _symmetry_equiv_pos_site_id
 _symmetry_equiv_pos_as_xyz
  1  'x, y, z'
loop_
 _atom_site_type_symbol
 _atom_site_label
 _atom_site_symmetry_multiplicity
 _atom_site_fract_x
 _atom_site_fract_y
 _atom_site_fract_z
 _atom_site_occupancy
  Pr  Pr0  1  0.000000  0.639831  0.325474  1
  Pr  Pr1  1  0.000000  0.865818  0.812733  1
  Pr  Pr2  1  0.500000  0.369128  0.689240  1
  Pr  Pr3  1  0.500000  0.136650  0.167211  1
  Cu  Cu4  1  0.500000  0.626121  0.038473  1
  Ir  Ir5  1  0.000000  0.373622  0.968492  1
  Ir  Ir6  1  0.500000  0.841774  0.544118  1
  Au  Au7  1  0.000000  0.147059  0.454261  1
