# generated using pymatgen
data_Pr5Cu4Ni15
_symmetry_space_group_name_H-M   'P 1'
_cell_length_a   5.05371068
_cell_length_b   5.05384617
_cell_length_c   16.50138705
_cell_angle_alpha   81.13619474
_cell_angle_beta   81.13792327
_cell_angle_gamma   59.96075147
_symmetry_Int_Tables_number   1
_chemical_formula_structural   Pr5Cu4Ni15
_chemical_formula_sum   'Pr5 Cu4 Ni15'
_cell_volume   359.02973714
_cell_formula_units_Z   1
loop_
 _symmetry_equiv_pos_site_id
 _symmetry_equiv_pos_as_xyz
  1  'x, y, z'
loop_
 _atom_site_type_symbol
 _atom_site_label
 _atom_site_symmetry_multiplicity
 _atom_site_fract_x
 _atom_site_fract_y
 _atom_site_fract_z
 _atom_site_occupancy
  Pr  Pr0  1  0.999995  0.999997  0.000015  1
  Pr  Pr1  1  0.921859  0.921850  0.234472  1
  Pr  Pr2  1  0.078151  0.078156  0.765518  1
  Pr  Pr3  1  0.848511  0.848481  0.454478  1
  Pr  Pr4  1  0.151494  0.151511  0.545522  1
  Cu  Cu5  1  0.748804  0.748777  0.753460  1
  Cu  Cu6  1  0.251227  0.251255  0.246525  1
  Cu  Cu7  1  0.666798  0.666756  0.999976  1
  Cu  Cu8  1  0.333205  0.333245  0.000025  1
  Ni  Ni9  1  0.499996  0.499987  0.500004  1
  Ni  Ni10  1  0.584843  0.584829  0.245404  1
  Ni  Ni11  1  0.415141  0.415145  0.754584  1
  Ni  Ni12  1  0.378460  0.378457  0.369099  1
  Ni  Ni13  1  0.873978  0.378573  0.369072  1
  Ni  Ni14  1  0.378576  0.873971  0.369065  1
  Ni  Ni15  1  0.621551  0.621541  0.630910  1
  Ni  Ni16  1  0.126006  0.621433  0.630938  1
  Ni  Ni17  1  0.621435  0.126019  0.630938  1
  Ni  Ni18  1  0.459576  0.459585  0.122644  1
  Ni  Ni19  1  0.957986  0.459400  0.122674  1
  Ni  Ni20  1  0.459397  0.957980  0.122670  1
  Ni  Ni21  1  0.540419  0.540426  0.877350  1
  Ni  Ni22  1  0.041998  0.540610  0.877328  1
  Ni  Ni23  1  0.540594  0.042017  0.877331  1
