# generated using pymatgen
data_Tb3SmTc3Os5
_symmetry_space_group_name_H-M   'P 1'
_cell_length_a   5.28611721
_cell_length_b   5.30972979
_cell_length_c   9.16457145
_cell_angle_alpha   90.00000054
_cell_angle_beta   90.03096852
_cell_angle_gamma   120.14788565
_symmetry_Int_Tables_number   1
_chemical_formula_structural   Tb3SmTc3Os5
_chemical_formula_sum   'Tb3 Sm1 Tc3 Os5'
_cell_volume   222.43483585
_cell_formula_units_Z   1
loop_
 _symmetry_equiv_pos_site_id
 _symmetry_equiv_pos_as_xyz
  1  'x, y, z'
loop_
 _atom_site_type_symbol
 _atom_site_label
 _atom_site_symmetry_multiplicity
 _atom_site_fract_x
 _atom_site_fract_y
 _atom_site_fract_z
 _atom_site_occupancy
  Tb  Tb0  1  0.337802  0.668902  0.436096  1
  Tb  Tb1  1  0.669332  0.334665  0.561985  1
  Tb  Tb2  1  0.669418  0.334708  0.937617  1
  Sm  Sm3  1  0.337723  0.668863  0.063243  1
  Tc  Tc4  1  0.164592  0.331842  0.749042  1
  Tc  Tc5  1  0.164592  0.832750  0.749042  1
  Tc  Tc6  1  0.324875  0.162437  0.251054  1
  Os  Os7  1  0.826008  0.654863  0.251478  1
  Os  Os8  1  0.651892  0.825946  0.748852  1
  Os  Os9  1  0.013907  0.006953  0.001421  1
  Os  Os10  1  0.826008  0.171145  0.251478  1
  Os  Os11  1  0.013851  0.006925  0.498693  1
