# generated using pymatgen
data_Lu4ZrTi3Ir4
_symmetry_space_group_name_H-M   'P 1'
_cell_length_a   4.34821500
_cell_length_b   6.89927262
_cell_length_c   8.05312934
_cell_angle_alpha   89.60649798
_cell_angle_beta   90.00000000
_cell_angle_gamma   90.00000000
_symmetry_Int_Tables_number   1
_chemical_formula_structural   Lu4ZrTi3Ir4
_chemical_formula_sum   'Lu4 Zr1 Ti3 Ir4'
_cell_volume   241.58432260
_cell_formula_units_Z   1
loop_
 _symmetry_equiv_pos_site_id
 _symmetry_equiv_pos_as_xyz
  1  'x, y, z'
loop_
 _atom_site_type_symbol
 _atom_site_label
 _atom_site_symmetry_multiplicity
 _atom_site_fract_x
 _atom_site_fract_y
 _atom_site_fract_z
 _atom_site_occupancy
  Lu  Lu0  1  0.750000  0.477661  0.815703  1
  Lu  Lu1  1  0.250000  0.024768  0.326855  1
  Lu  Lu2  1  0.750000  0.980961  0.678031  1
  Lu  Lu3  1  0.250000  0.512100  0.181039  1
  Zr  Zr4  1  0.750000  0.854190  0.070194  1
  Ti  Ti5  1  0.250000  0.638828  0.566369  1
  Ti  Ti6  1  0.250000  0.144899  0.933582  1
  Ti  Ti7  1  0.750000  0.359169  0.433507  1
  Ir  Ir8  1  0.250000  0.775015  0.885485  1
  Ir  Ir9  1  0.250000  0.275265  0.601963  1
  Ir  Ir10  1  0.750000  0.722344  0.405501  1
  Ir  Ir11  1  0.750000  0.234801  0.101772  1
