# generated using pymatgen
data_Y2Lu2TcB12Ir
_symmetry_space_group_name_H-M   'P 1'
_cell_length_a   3.63724200
_cell_length_b   9.08866367
_cell_length_c   11.48848765
_cell_angle_alpha   89.78291968
_cell_angle_beta   90.00000000
_cell_angle_gamma   90.00000000
_symmetry_Int_Tables_number   1
_chemical_formula_structural   Y2Lu2TcB12Ir
_chemical_formula_sum   'Y4 Lu4 Tc2 B24 Ir2'
_cell_volume   379.77989875
_cell_formula_units_Z   2
loop_
 _symmetry_equiv_pos_site_id
 _symmetry_equiv_pos_as_xyz
  1  'x, y, z'
loop_
 _atom_site_type_symbol
 _atom_site_label
 _atom_site_symmetry_multiplicity
 _atom_site_fract_x
 _atom_site_fract_y
 _atom_site_fract_z
 _atom_site_occupancy
  Y  Y0  1  0.000000  0.324669  0.417383  1
  Y  Y1  1  0.000000  0.675331  0.582617  1
  Y  Y2  1  0.000000  0.816735  0.088716  1
  Y  Y3  1  0.000000  0.183265  0.911284  1
  Lu  Lu4  1  0.000000  0.940624  0.373840  1
  Lu  Lu5  1  0.000000  0.059376  0.626160  1
  Lu  Lu6  1  0.000000  0.446858  0.128222  1
  Lu  Lu7  1  0.000000  0.553142  0.871778  1
  Tc  Tc8  1  0.000000  0.638986  0.318896  1
  Tc  Tc9  1  0.000000  0.361014  0.681104  1
  B  B10  1  0.500000  0.554005  0.432493  1
  B  B11  1  0.500000  0.445995  0.567507  1
  B  B12  1  0.500000  0.054836  0.066363  1
  B  B13  1  0.500000  0.945164  0.933637  1
  B  B14  1  0.500000  0.749415  0.418554  1
  B  B15  1  0.500000  0.250585  0.581446  1
  B  B16  1  0.500000  0.251449  0.079868  1
  B  B17  1  0.500000  0.748551  0.920132  1
  B  B18  1  0.500000  0.792608  0.265113  1
  B  B19  1  0.500000  0.207392  0.734887  1
  B  B20  1  0.500000  0.291499  0.234745  1
  B  B21  1  0.500000  0.708501  0.765255  1
  B  B22  1  0.500000  0.630470  0.184265  1
  B  B23  1  0.500000  0.369530  0.815735  1
  B  B24  1  0.500000  0.129980  0.316788  1
  B  B25  1  0.500000  0.870020  0.683212  1
  B  B26  1  0.500000  0.981691  0.213352  1
  B  B27  1  0.500000  0.018309  0.786648  1
  B  B28  1  0.500000  0.482234  0.286257  1
  B  B29  1  0.500000  0.517766  0.713743  1
  B  B30  1  0.500000  0.603194  0.027541  1
  B  B31  1  0.500000  0.396806  0.972459  1
  B  B32  1  0.500000  0.102427  0.471333  1
  B  B33  1  0.500000  0.897573  0.528667  1
  Ir  Ir34  1  0.000000  0.137566  0.179026  1
  Ir  Ir35  1  0.000000  0.862434  0.820974  1
