# generated using pymatgen
data_Dy3Y17(Cd3Ni)2
_symmetry_space_group_name_H-M   'P 1'
_cell_length_a   9.65928300
_cell_length_b   9.65928408
_cell_length_c   9.76377900
_cell_angle_alpha   90.00000000
_cell_angle_beta   90.00000000
_cell_angle_gamma   119.99999287
_symmetry_Int_Tables_number   1
_chemical_formula_structural   Dy3Y17(Cd3Ni)2
_chemical_formula_sum   'Dy3 Y17 Cd6 Ni2'
_cell_volume   788.92993110
_cell_formula_units_Z   1
loop_
 _symmetry_equiv_pos_site_id
 _symmetry_equiv_pos_as_xyz
  1  'x, y, z'
loop_
 _atom_site_type_symbol
 _atom_site_label
 _atom_site_symmetry_multiplicity
 _atom_site_fract_x
 _atom_site_fract_y
 _atom_site_fract_z
 _atom_site_occupancy
  Dy  Dy0  1  0.210759  0.789241  0.436199  1
  Dy  Dy1  1  0.210759  0.421518  0.436199  1
  Dy  Dy2  1  0.578482  0.789241  0.436199  1
  Y  Y3  1  0.000000  0.000000  0.499684  1
  Y  Y4  1  0.000000  0.000000  0.000217  1
  Y  Y5  1  0.543459  0.456541  0.250235  1
  Y  Y6  1  0.543459  0.086919  0.250235  1
  Y  Y7  1  0.913081  0.456541  0.250235  1
  Y  Y8  1  0.456347  0.543653  0.749779  1
  Y  Y9  1  0.456347  0.912694  0.749779  1
  Y  Y10  1  0.087306  0.543653  0.749779  1
  Y  Y11  1  0.789861  0.210139  0.563379  1
  Y  Y12  1  0.789861  0.579722  0.563379  1
  Y  Y13  1  0.420278  0.210139  0.563379  1
  Y  Y14  1  0.789691  0.210309  0.936504  1
  Y  Y15  1  0.789691  0.579380  0.936504  1
  Y  Y16  1  0.420620  0.210309  0.936504  1
  Y  Y17  1  0.210254  0.789746  0.063414  1
  Y  Y18  1  0.210254  0.420510  0.063414  1
  Y  Y19  1  0.579490  0.789746  0.063414  1
  Cd  Cd20  1  0.884152  0.115848  0.249953  1
  Cd  Cd21  1  0.884152  0.768304  0.249953  1
  Cd  Cd22  1  0.231696  0.115848  0.249953  1
  Cd  Cd23  1  0.115970  0.884030  0.750155  1
  Cd  Cd24  1  0.115970  0.231941  0.750155  1
  Cd  Cd25  1  0.768059  0.884030  0.750155  1
  Ni  Ni26  1  0.333333  0.666667  0.251395  1
  Ni  Ni27  1  0.666667  0.333333  0.749851  1
