# generated using pymatgen
data_Tb3Y13Cd2Ni3Ag2Os
_symmetry_space_group_name_H-M   'P 1'
_cell_length_a   9.61884867
_cell_length_b   9.62641045
_cell_length_c   9.62635800
_cell_angle_alpha   59.55479496
_cell_angle_beta   59.52141962
_cell_angle_gamma   59.51683822
_symmetry_Int_Tables_number   1
_chemical_formula_structural   Tb3Y13Cd2Ni3Ag2Os
_chemical_formula_sum   'Tb3 Y13 Cd2 Ni3 Ag2 Os1'
_cell_volume   623.55995268
_cell_formula_units_Z   1
loop_
 _symmetry_equiv_pos_site_id
 _symmetry_equiv_pos_as_xyz
  1  'x, y, z'
loop_
 _atom_site_type_symbol
 _atom_site_label
 _atom_site_symmetry_multiplicity
 _atom_site_fract_x
 _atom_site_fract_y
 _atom_site_fract_z
 _atom_site_occupancy
  Tb  Tb0  1  0.596852  0.597078  0.599743  1
  Tb  Tb1  1  0.600284  0.600470  0.204388  1
  Tb  Tb2  1  0.601982  0.204367  0.601405  1
  Y  Y3  1  0.202798  0.602710  0.601763  1
  Y  Y4  1  0.060479  0.438393  0.437700  1
  Y  Y5  1  0.437741  0.059975  0.059736  1
  Y  Y6  1  0.438388  0.060287  0.437646  1
  Y  Y7  1  0.059891  0.437713  0.060046  1
  Y  Y8  1  0.437649  0.437704  0.061286  1
  Y  Y9  1  0.059770  0.059966  0.436554  1
  Y  Y10  1  0.184699  0.814802  0.815509  1
  Y  Y11  1  0.808250  0.185606  0.190623  1
  Y  Y12  1  0.814381  0.184609  0.815270  1
  Y  Y13  1  0.185660  0.808511  0.190330  1
  Y  Y14  1  0.813672  0.813839  0.186691  1
  Y  Y15  1  0.188367  0.187777  0.807481  1
  Cd  Cd16  1  0.830290  0.509307  0.828776  1
  Cd  Cd17  1  0.509630  0.829810  0.828515  1
  Ni  Ni18  1  0.393200  0.392153  0.824694  1
  Ni  Ni19  1  0.393531  0.824312  0.392004  1
  Ni  Ni20  1  0.823526  0.392976  0.393104  1
  Ag  Ag21  1  0.832347  0.831820  0.831108  1
  Ag  Ag22  1  0.833012  0.832830  0.501115  1
  Os  Os23  1  0.393602  0.392983  0.394512  1
