# generated using pymatgen
data_Ti6AlTc2Os3
_symmetry_space_group_name_H-M   'P 1'
_cell_length_a   4.38713000
_cell_length_b   6.28811100
_cell_length_c   13.11547800
_cell_angle_alpha   89.99990639
_cell_angle_beta   89.99810297
_cell_angle_gamma   90.00000000
_symmetry_Int_Tables_number   1
_chemical_formula_structural   Ti6AlTc2Os3
_chemical_formula_sum   'Ti12 Al2 Tc4 Os6'
_cell_volume   361.81354917
_cell_formula_units_Z   2
loop_
 _symmetry_equiv_pos_site_id
 _symmetry_equiv_pos_as_xyz
  1  'x, y, z'
loop_
 _atom_site_type_symbol
 _atom_site_label
 _atom_site_symmetry_multiplicity
 _atom_site_fract_x
 _atom_site_fract_y
 _atom_site_fract_z
 _atom_site_occupancy
  Ti  Ti0  1  0.499995  0.256237  0.995506  1
  Ti  Ti1  1  0.499995  0.743763  0.995506  1
  Ti  Ti2  1  0.000028  0.243762  0.171155  1
  Ti  Ti3  1  0.000028  0.756237  0.171156  1
  Ti  Ti4  1  0.500052  0.245971  0.337960  1
  Ti  Ti5  1  0.500052  0.754028  0.337961  1
  Ti  Ti6  1  0.000006  0.248921  0.500898  1
  Ti  Ti7  1  0.000006  0.751079  0.500899  1
  Ti  Ti8  1  0.499962  0.251073  0.665779  1
  Ti  Ti9  1  0.499962  0.748926  0.665778  1
  Ti  Ti10  1  0.999950  0.254022  0.828712  1
  Ti  Ti11  1  0.999951  0.745977  0.828711  1
  Al  Al12  1  0.999999  0.000001  0.999220  1
  Al  Al13  1  0.500012  0.499999  0.167447  1
  Tc  Tc14  1  0.000058  0.999998  0.331988  1
  Tc  Tc15  1  0.500013  0.500002  0.498066  1
  Tc  Tc16  1  0.999954  0.999998  0.668601  1
  Tc  Tc17  1  0.499958  0.500000  0.834667  1
  Os  Os18  1  0.999993  0.499999  0.005257  1
  Os  Os19  1  0.500059  0.000000  0.161392  1
  Os  Os20  1  0.000060  0.500001  0.327630  1
  Os  Os21  1  0.500004  0.999997  0.500615  1
  Os  Os22  1  0.999965  0.500002  0.666063  1
  Os  Os23  1  0.499941  0.000000  0.839035  1
