# generated using pymatgen
data_Pr3Sm2MnRuO12
_symmetry_space_group_name_H-M   'P 1'
_cell_length_a   7.08674338
_cell_length_b   7.08674126
_cell_length_c   7.55811441
_cell_angle_alpha   74.14806365
_cell_angle_beta   74.14807038
_cell_angle_gamma   49.99378141
_symmetry_Int_Tables_number   1
_chemical_formula_structural   Pr3Sm2MnRuO12
_chemical_formula_sum   'Pr3 Sm2 Mn1 Ru1 O12'
_cell_volume   277.23199809
_cell_formula_units_Z   1
loop_
 _symmetry_equiv_pos_site_id
 _symmetry_equiv_pos_as_xyz
  1  'x, y, z'
loop_
 _atom_site_type_symbol
 _atom_site_label
 _atom_site_symmetry_multiplicity
 _atom_site_fract_x
 _atom_site_fract_y
 _atom_site_fract_z
 _atom_site_occupancy
  Pr  Pr0  1  0.694670  0.694910  0.164981  1
  Pr  Pr1  1  0.305090  0.305330  0.835019  1
  Pr  Pr2  1  0.998261  0.001739  0.500000  1
  Sm  Sm3  1  0.309649  0.298907  0.358106  1
  Sm  Sm4  1  0.701093  0.690351  0.641894  1
  Mn  Mn5  1  0.749164  0.250836  0.000000  1
  Ru  Ru6  1  0.239928  0.760072  0.000000  1
  O  O7  1  0.095394  0.595142  0.573094  1
  O  O8  1  0.995924  0.003885  0.172271  1
  O  O9  1  0.404858  0.904606  0.426906  1
  O  O10  1  0.501353  0.495857  0.174591  1
  O  O11  1  0.101176  0.579585  0.082252  1
  O  O12  1  0.909203  0.403972  0.425534  1
  O  O13  1  0.996115  0.004076  0.827729  1
  O  O14  1  0.596028  0.090796  0.574466  1
  O  O15  1  0.504143  0.498647  0.825409  1
  O  O16  1  0.582277  0.104741  0.080592  1
  O  O17  1  0.420415  0.898824  0.917748  1
  O  O18  1  0.895259  0.417723  0.919408  1
