# generated using pymatgen
data_LaPr2Hg2Pd3Au
_symmetry_space_group_name_H-M   'P 1'
_cell_length_a   7.77818878
_cell_length_b   7.77819033
_cell_length_c   4.00673900
_cell_angle_alpha   90.00000000
_cell_angle_beta   90.00000000
_cell_angle_gamma   118.80783412
_symmetry_Int_Tables_number   1
_chemical_formula_structural   LaPr2Hg2Pd3Au
_chemical_formula_sum   'La1 Pr2 Hg2 Pd3 Au1'
_cell_volume   212.40834266
_cell_formula_units_Z   1
loop_
 _symmetry_equiv_pos_site_id
 _symmetry_equiv_pos_as_xyz
  1  'x, y, z'
loop_
 _atom_site_type_symbol
 _atom_site_label
 _atom_site_symmetry_multiplicity
 _atom_site_fract_x
 _atom_site_fract_y
 _atom_site_fract_z
 _atom_site_occupancy
  La  La0  1  0.408853  0.408853  0.500000  1
  Pr  Pr1  1  0.606567  0.991356  0.500000  1
  Pr  Pr2  1  0.991356  0.606567  0.500000  1
  Hg  Hg3  1  0.262886  0.998996  0.000000  1
  Hg  Hg4  1  0.998996  0.262886  0.000000  1
  Pd  Pd5  1  0.662904  0.329287  0.000000  1
  Pd  Pd6  1  0.329287  0.662904  0.000000  1
  Pd  Pd7  1  0.002812  0.002812  0.500000  1
  Au  Au8  1  0.736338  0.736338  0.000000  1
