# generated using pymatgen
data_Dy6Er10Cd3AgIr4
_symmetry_space_group_name_H-M   'P 1'
_cell_length_a   9.57282671
_cell_length_b   9.57282746
_cell_length_c   9.57282654
_cell_angle_alpha   59.84230593
_cell_angle_beta   59.84230615
_cell_angle_gamma   59.84230347
_symmetry_Int_Tables_number   1
_chemical_formula_structural   Dy6Er10Cd3AgIr4
_chemical_formula_sum   'Dy6 Er10 Cd3 Ag1 Ir4'
_cell_volume   618.08549230
_cell_formula_units_Z   1
loop_
 _symmetry_equiv_pos_site_id
 _symmetry_equiv_pos_as_xyz
  1  'x, y, z'
loop_
 _atom_site_type_symbol
 _atom_site_label
 _atom_site_symmetry_multiplicity
 _atom_site_fract_x
 _atom_site_fract_y
 _atom_site_fract_z
 _atom_site_occupancy
  Dy  Dy0  1  0.186745  0.811215  0.811215  1
  Dy  Dy1  1  0.811450  0.187467  0.187467  1
  Dy  Dy2  1  0.811215  0.186745  0.811215  1
  Dy  Dy3  1  0.187467  0.811450  0.187467  1
  Dy  Dy4  1  0.811215  0.811215  0.186745  1
  Dy  Dy5  1  0.187467  0.187467  0.811450  1
  Er  Er6  1  0.598596  0.598596  0.598596  1
  Er  Er7  1  0.599905  0.599905  0.202706  1
  Er  Er8  1  0.599905  0.202706  0.599905  1
  Er  Er9  1  0.202706  0.599905  0.599905  1
  Er  Er10  1  0.060385  0.438835  0.438835  1
  Er  Er11  1  0.437385  0.060744  0.060744  1
  Er  Er12  1  0.438835  0.060385  0.438835  1
  Er  Er13  1  0.060744  0.437385  0.060744  1
  Er  Er14  1  0.438835  0.438835  0.060385  1
  Er  Er15  1  0.060744  0.060744  0.437385  1
  Cd  Cd16  1  0.831192  0.831192  0.508605  1
  Cd  Cd17  1  0.831192  0.508605  0.831192  1
  Cd  Cd18  1  0.508605  0.831192  0.831192  1
  Ag  Ag19  1  0.832793  0.832793  0.832793  1
  Ir  Ir20  1  0.391807  0.391807  0.391807  1
  Ir  Ir21  1  0.392635  0.392635  0.825542  1
  Ir  Ir22  1  0.392635  0.825542  0.392635  1
  Ir  Ir23  1  0.825542  0.392635  0.392635  1
