# generated using pymatgen
data_La4Pr4Zn8Ir7Rh
_symmetry_space_group_name_H-M   'P 1'
_cell_length_a   4.10030900
_cell_length_b   7.37071601
_cell_length_c   16.68542300
_cell_angle_alpha   89.95836548
_cell_angle_beta   90.00000000
_cell_angle_gamma   90.00000000
_symmetry_Int_Tables_number   1
_chemical_formula_structural   La4Pr4Zn8Ir7Rh
_chemical_formula_sum   'La4 Pr4 Zn8 Ir7 Rh1'
_cell_volume   504.27027819
_cell_formula_units_Z   1
loop_
 _symmetry_equiv_pos_site_id
 _symmetry_equiv_pos_as_xyz
  1  'x, y, z'
loop_
 _atom_site_type_symbol
 _atom_site_label
 _atom_site_symmetry_multiplicity
 _atom_site_fract_x
 _atom_site_fract_y
 _atom_site_fract_z
 _atom_site_occupancy
  La  La0  1  0.750000  0.453996  0.217493  1
  La  La1  1  0.750000  0.953894  0.283225  1
  La  La2  1  0.750000  0.831883  0.059478  1
  La  La3  1  0.250000  0.045759  0.717312  1
  Pr  Pr4  1  0.250000  0.167216  0.939618  1
  Pr  Pr5  1  0.250000  0.546160  0.782903  1
  Pr  Pr6  1  0.750000  0.332103  0.440928  1
  Pr  Pr7  1  0.250000  0.666535  0.560387  1
  Zn  Zn8  1  0.250000  0.999976  0.441143  1
  Zn  Zn9  1  0.750000  0.499728  0.938932  1
  Zn  Zn10  1  0.750000  0.001145  0.559493  1
  Zn  Zn11  1  0.250000  0.625413  0.351681  1
  Zn  Zn12  1  0.750000  0.376126  0.649736  1
  Zn  Zn13  1  0.750000  0.872265  0.850949  1
  Zn  Zn14  1  0.250000  0.496232  0.059262  1
  Zn  Zn15  1  0.250000  0.127343  0.149361  1
  Ir  Ir16  1  0.250000  0.243288  0.565766  1
  Ir  Ir17  1  0.750000  0.259863  0.065708  1
  Ir  Ir18  1  0.250000  0.243663  0.312754  1
  Ir  Ir19  1  0.750000  0.254329  0.812137  1
  Ir  Ir20  1  0.250000  0.741782  0.935735  1
  Ir  Ir21  1  0.750000  0.757563  0.686072  1
  Ir  Ir22  1  0.250000  0.744846  0.186194  1
  Rh  Rh23  1  0.750000  0.758893  0.433734  1
