# generated using pymatgen
data_HoLuMn4Fe8P7
_symmetry_space_group_name_H-M   'P 1'
_cell_length_a   9.06336501
_cell_length_b   9.03833537
_cell_length_c   3.59466500
_cell_angle_alpha   90.00000000
_cell_angle_beta   90.00000000
_cell_angle_gamma   119.21692154
_symmetry_Int_Tables_number   1
_chemical_formula_structural   HoLuMn4Fe8P7
_chemical_formula_sum   'Ho1 Lu1 Mn4 Fe8 P7'
_cell_volume   257.00413719
_cell_formula_units_Z   1
loop_
 _symmetry_equiv_pos_site_id
 _symmetry_equiv_pos_as_xyz
  1  'x, y, z'
loop_
 _atom_site_type_symbol
 _atom_site_label
 _atom_site_symmetry_multiplicity
 _atom_site_fract_x
 _atom_site_fract_y
 _atom_site_fract_z
 _atom_site_occupancy
  Ho  Ho0  1  0.339014  0.670145  0.500000  1
  Lu  Lu1  1  0.659637  0.329010  0.000000  1
  Mn  Mn2  1  0.951353  0.561619  0.500000  1
  Mn  Mn3  1  0.107237  0.231887  0.500000  1
  Mn  Mn4  1  0.776137  0.878557  0.500000  1
  Mn  Mn5  1  0.123360  0.896726  0.500000  1
  Fe  Fe6  1  0.051746  0.428968  0.000000  1
  Fe  Fe7  1  0.573206  0.630474  0.000000  1
  Fe  Fe8  1  0.372660  0.946418  0.000000  1
  Fe  Fe9  1  0.271484  0.153628  0.000000  1
  Fe  Fe10  1  0.846279  0.118866  0.000000  1
  Fe  Fe11  1  0.880166  0.720532  0.000000  1
  Fe  Fe12  1  0.435018  0.384000  0.500000  1
  Fe  Fe13  1  0.613361  0.050213  0.500000  1
  P  P14  1  0.303202  0.413284  0.000000  1
  P  P15  1  0.589143  0.890308  0.000000  1
  P  P16  1  0.123799  0.711358  0.000000  1
  P  P17  1  0.407143  0.119343  0.500000  1
  P  P18  1  0.871445  0.277829  0.500000  1
  P  P19  1  0.704752  0.589356  0.500000  1
  P  P20  1  0.999855  0.997480  0.000000  1
