# generated using pymatgen
data_NdInHPt
_symmetry_space_group_name_H-M   'P 1'
_cell_length_a   4.35222300
_cell_length_b   7.57461100
_cell_length_c   8.91861300
_cell_angle_alpha   90.00000000
_cell_angle_beta   90.00000000
_cell_angle_gamma   90.00000000
_symmetry_Int_Tables_number   1
_chemical_formula_structural   NdInHPt
_chemical_formula_sum   'Nd4 In4 H4 Pt4'
_cell_volume   294.01452980
_cell_formula_units_Z   4
loop_
 _symmetry_equiv_pos_site_id
 _symmetry_equiv_pos_as_xyz
  1  'x, y, z'
loop_
 _atom_site_type_symbol
 _atom_site_label
 _atom_site_symmetry_multiplicity
 _atom_site_fract_x
 _atom_site_fract_y
 _atom_site_fract_z
 _atom_site_occupancy
  Nd  Nd0  1  0.750000  0.023713  0.689309  1
  Nd  Nd1  1  0.250000  0.976287  0.310691  1
  Nd  Nd2  1  0.250000  0.476287  0.189309  1
  Nd  Nd3  1  0.750000  0.523713  0.810691  1
  In  In4  1  0.750000  0.645219  0.429360  1
  In  In5  1  0.250000  0.354781  0.570640  1
  In  In6  1  0.250000  0.854781  0.929360  1
  In  In7  1  0.750000  0.145219  0.070640  1
  H  H8  1  0.250000  0.455584  0.924096  1
  H  H9  1  0.750000  0.544416  0.075904  1
  H  H10  1  0.750000  0.044416  0.424096  1
  H  H11  1  0.250000  0.955584  0.575904  1
  Pt  Pt12  1  0.750000  0.769524  0.115177  1
  Pt  Pt13  1  0.250000  0.230476  0.884823  1
  Pt  Pt14  1  0.250000  0.730476  0.615177  1
  Pt  Pt15  1  0.750000  0.269524  0.384823  1
