# generated using pymatgen
data_Tb6Hf2Co15NiP12
_symmetry_space_group_name_H-M   'P 1'
_cell_length_a   3.72462400
_cell_length_b   10.68598800
_cell_length_c   12.41028000
_cell_angle_alpha   90.00000000
_cell_angle_beta   90.00000000
_cell_angle_gamma   90.00000000
_symmetry_Int_Tables_number   1
_chemical_formula_structural   Tb6Hf2Co15NiP12
_chemical_formula_sum   'Tb6 Hf2 Co15 Ni1 P12'
_cell_volume   493.94512060
_cell_formula_units_Z   1
loop_
 _symmetry_equiv_pos_site_id
 _symmetry_equiv_pos_as_xyz
  1  'x, y, z'
loop_
 _atom_site_type_symbol
 _atom_site_label
 _atom_site_symmetry_multiplicity
 _atom_site_fract_x
 _atom_site_fract_y
 _atom_site_fract_z
 _atom_site_occupancy
  Tb  Tb0  1  0.000000  0.500000  0.526312  1
  Tb  Tb1  1  0.500000  0.000000  0.471764  1
  Tb  Tb2  1  0.500000  0.821631  0.205016  1
  Tb  Tb3  1  0.500000  0.178369  0.205016  1
  Tb  Tb4  1  0.000000  0.679878  0.795928  1
  Tb  Tb5  1  0.000000  0.320122  0.795928  1
  Hf  Hf6  1  0.500000  0.500000  0.156537  1
  Hf  Hf7  1  0.000000  0.000000  0.843151  1
  Co  Co8  1  0.000000  0.000000  0.297040  1
  Co  Co9  1  0.000000  0.500000  0.986937  1
  Co  Co10  1  0.500000  0.000000  0.013430  1
  Co  Co11  1  0.500000  0.332350  0.993335  1
  Co  Co12  1  0.500000  0.667650  0.993335  1
  Co  Co13  1  0.000000  0.167738  0.006357  1
  Co  Co14  1  0.000000  0.832262  0.006357  1
  Co  Co15  1  0.500000  0.295711  0.433270  1
  Co  Co16  1  0.500000  0.704289  0.433270  1
  Co  Co17  1  0.000000  0.204261  0.566931  1
  Co  Co18  1  0.000000  0.795739  0.566931  1
  Co  Co19  1  0.500000  0.877906  0.703861  1
  Co  Co20  1  0.500000  0.122094  0.703861  1
  Co  Co21  1  0.000000  0.621923  0.296209  1
  Co  Co22  1  0.000000  0.378077  0.296209  1
  Ni  Ni23  1  0.500000  0.500000  0.702713  1
  P  P24  1  0.500000  0.500000  0.884507  1
  P  P25  1  0.000000  0.000000  0.116768  1
  P  P26  1  0.500000  0.500000  0.360386  1
  P  P27  1  0.000000  0.000000  0.639176  1
  P  P28  1  0.500000  0.308465  0.614739  1
  P  P29  1  0.500000  0.691535  0.614739  1
  P  P30  1  0.000000  0.190197  0.384304  1
  P  P31  1  0.000000  0.809803  0.384304  1
  P  P32  1  0.500000  0.839275  0.894206  1
  P  P33  1  0.500000  0.160725  0.894206  1
  P  P34  1  0.000000  0.661419  0.106482  1
  P  P35  1  0.000000  0.338581  0.106482  1
