# generated using pymatgen
data_NdSn4IrRh
_symmetry_space_group_name_H-M   'P 1'
_cell_length_a   4.53524700
_cell_length_b   7.24822100
_cell_length_c   18.67079900
_cell_angle_alpha   90.00000000
_cell_angle_beta   90.00000000
_cell_angle_gamma   90.00000000
_symmetry_Int_Tables_number   1
_chemical_formula_structural   NdSn4IrRh
_chemical_formula_sum   'Nd4 Sn16 Ir4 Rh4'
_cell_volume   613.75532753
_cell_formula_units_Z   4
loop_
 _symmetry_equiv_pos_site_id
 _symmetry_equiv_pos_as_xyz
  1  'x, y, z'
loop_
 _atom_site_type_symbol
 _atom_site_label
 _atom_site_symmetry_multiplicity
 _atom_site_fract_x
 _atom_site_fract_y
 _atom_site_fract_z
 _atom_site_occupancy
  Nd  Nd0  1  0.250000  0.998837  0.858380  1
  Nd  Nd1  1  0.250000  0.501163  0.358380  1
  Nd  Nd2  1  0.750000  0.001163  0.141620  1
  Nd  Nd3  1  0.750000  0.498837  0.641620  1
  Sn  Sn4  1  0.250000  0.302200  0.182133  1
  Sn  Sn5  1  0.250000  0.197800  0.682133  1
  Sn  Sn6  1  0.750000  0.697800  0.817867  1
  Sn  Sn7  1  0.750000  0.802200  0.317867  1
  Sn  Sn8  1  0.250000  0.722480  0.194715  1
  Sn  Sn9  1  0.250000  0.777520  0.694715  1
  Sn  Sn10  1  0.750000  0.277520  0.805285  1
  Sn  Sn11  1  0.750000  0.222480  0.305285  1
  Sn  Sn12  1  0.250000  0.865339  0.032049  1
  Sn  Sn13  1  0.250000  0.634661  0.532049  1
  Sn  Sn14  1  0.750000  0.134661  0.967951  1
  Sn  Sn15  1  0.750000  0.365339  0.467951  1
  Sn  Sn16  1  0.250000  0.519251  0.931754  1
  Sn  Sn17  1  0.250000  0.980749  0.431754  1
  Sn  Sn18  1  0.750000  0.480749  0.068246  1
  Sn  Sn19  1  0.750000  0.019251  0.568246  1
  Ir  Ir20  1  0.250000  0.250475  0.034905  1
  Ir  Ir21  1  0.250000  0.249525  0.534905  1
  Ir  Ir22  1  0.750000  0.749525  0.965095  1
  Ir  Ir23  1  0.750000  0.750475  0.465095  1
  Rh  Rh24  1  0.250000  0.017530  0.286796  1
  Rh  Rh25  1  0.250000  0.482470  0.786796  1
  Rh  Rh26  1  0.750000  0.982470  0.713204  1
  Rh  Rh27  1  0.750000  0.517530  0.213204  1
