# generated using pymatgen
data_Lu10Ga3Bi2Ru
_symmetry_space_group_name_H-M   'P 1'
_cell_length_a   8.57248059
_cell_length_b   8.57247997
_cell_length_c   8.65069487
_cell_angle_alpha   125.98382504
_cell_angle_beta   125.98381956
_cell_angle_gamma   79.29016790
_symmetry_Int_Tables_number   1
_chemical_formula_structural   Lu10Ga3Bi2Ru
_chemical_formula_sum   'Lu10 Ga3 Bi2 Ru1'
_cell_volume   403.73223226
_cell_formula_units_Z   1
loop_
 _symmetry_equiv_pos_site_id
 _symmetry_equiv_pos_as_xyz
  1  'x, y, z'
loop_
 _atom_site_type_symbol
 _atom_site_label
 _atom_site_symmetry_multiplicity
 _atom_site_fract_x
 _atom_site_fract_y
 _atom_site_fract_z
 _atom_site_occupancy
  Lu  Lu0  1  0.009360  0.005427  0.014787  1
  Lu  Lu1  1  0.494573  0.490640  0.985213  1
  Lu  Lu2  1  0.782548  0.294854  0.799634  1
  Lu  Lu3  1  0.205146  0.717452  0.200366  1
  Lu  Lu4  1  0.482915  0.995221  0.200366  1
  Lu  Lu5  1  0.304900  0.462997  0.500000  1
  Lu  Lu6  1  0.037003  0.195100  0.500000  1
  Lu  Lu7  1  0.504779  0.017085  0.799634  1
  Lu  Lu8  1  0.703423  0.515714  0.500000  1
  Lu  Lu9  1  0.984286  0.796577  0.500000  1
  Ga  Ga10  1  0.135084  0.642447  0.777531  1
  Ga  Ga11  1  0.857553  0.364916  0.222469  1
  Ga  Ga12  1  0.636678  0.863322  0.500000  1
  Bi  Bi13  1  0.245187  0.254813  0.000000  1
  Bi  Bi14  1  0.745187  0.754813  0.000000  1
  Ru  Ru15  1  0.371379  0.128621  0.500000  1
