# generated using pymatgen
data_NaTbYbI6
_symmetry_space_group_name_H-M   'P 1'
_cell_length_a   8.62917967
_cell_length_b   8.62918088
_cell_length_c   8.62910200
_cell_angle_alpha   54.55328741
_cell_angle_beta   54.55316759
_cell_angle_gamma   54.55322933
_symmetry_Int_Tables_number   1
_chemical_formula_structural   NaTbYbI6
_chemical_formula_sum   'Na1 Tb1 Yb1 I6'
_cell_volume   396.66648410
_cell_formula_units_Z   1
loop_
 _symmetry_equiv_pos_site_id
 _symmetry_equiv_pos_as_xyz
  1  'x, y, z'
loop_
 _atom_site_type_symbol
 _atom_site_label
 _atom_site_symmetry_multiplicity
 _atom_site_fract_x
 _atom_site_fract_y
 _atom_site_fract_z
 _atom_site_occupancy
  Na  Na0  1  0.669602  0.669602  0.669607  1
  Tb  Tb1  1  0.999686  0.999688  0.999679  1
  Yb  Yb2  1  0.331137  0.331143  0.331142  1
  I  I3  1  0.236645  0.597707  0.927929  1
  I  I4  1  0.597711  0.927934  0.236630  1
  I  I5  1  0.927943  0.236629  0.597698  1
  I  I6  1  0.751585  0.389578  0.096132  1
  I  I7  1  0.389568  0.096131  0.751600  1
  I  I8  1  0.096126  0.751588  0.389583  1
