# generated using pymatgen
data_DyY6Pa(ReB6)4
_symmetry_space_group_name_H-M   'P 1'
_cell_length_a   3.69810500
_cell_length_b   9.19128179
_cell_length_c   11.56334400
_cell_angle_alpha   90.17624004
_cell_angle_beta   90.00000000
_cell_angle_gamma   90.00000000
_symmetry_Int_Tables_number   1
_chemical_formula_structural   DyY6Pa(ReB6)4
_chemical_formula_sum   'Dy1 Y6 Pa1 Re4 B24'
_cell_volume   393.03996307
_cell_formula_units_Z   1
loop_
 _symmetry_equiv_pos_site_id
 _symmetry_equiv_pos_as_xyz
  1  'x, y, z'
loop_
 _atom_site_type_symbol
 _atom_site_label
 _atom_site_symmetry_multiplicity
 _atom_site_fract_x
 _atom_site_fract_y
 _atom_site_fract_z
 _atom_site_occupancy
  Dy  Dy0  1  0.000000  0.557223  0.870010  1
  Y  Y1  1  0.000000  0.678868  0.586902  1
  Y  Y2  1  0.000000  0.823636  0.085480  1
  Y  Y3  1  0.000000  0.175663  0.913505  1
  Y  Y4  1  0.000000  0.942607  0.371815  1
  Y  Y5  1  0.000000  0.055301  0.629009  1
  Y  Y6  1  0.000000  0.443447  0.127571  1
  Pa  Pa7  1  0.000000  0.323769  0.414017  1
  Re  Re8  1  0.000000  0.635158  0.322316  1
  Re  Re9  1  0.000000  0.362338  0.675853  1
  Re  Re10  1  0.000000  0.141032  0.181863  1
  Re  Re11  1  0.000000  0.861611  0.821306  1
  B  B12  1  0.500000  0.552383  0.431929  1
  B  B13  1  0.500000  0.445552  0.566910  1
  B  B14  1  0.500000  0.053936  0.067822  1
  B  B15  1  0.500000  0.947023  0.933417  1
  B  B16  1  0.500000  0.747971  0.418537  1
  B  B17  1  0.500000  0.251543  0.580796  1
  B  B18  1  0.500000  0.248234  0.080986  1
  B  B19  1  0.500000  0.751570  0.918760  1
  B  B20  1  0.500000  0.791059  0.266279  1
  B  B21  1  0.500000  0.208505  0.734187  1
  B  B22  1  0.500000  0.291576  0.234632  1
  B  B23  1  0.500000  0.708535  0.766015  1
  B  B24  1  0.500000  0.631311  0.185399  1
  B  B25  1  0.500000  0.369342  0.813455  1
  B  B26  1  0.500000  0.132593  0.314687  1
  B  B27  1  0.500000  0.868401  0.686429  1
  B  B28  1  0.500000  0.983198  0.212420  1
  B  B29  1  0.500000  0.017201  0.788155  1
  B  B30  1  0.500000  0.482864  0.287732  1
  B  B31  1  0.500000  0.517171  0.712600  1
  B  B32  1  0.500000  0.602555  0.028079  1
  B  B33  1  0.500000  0.397539  0.970546  1
  B  B34  1  0.500000  0.106646  0.470538  1
  B  B35  1  0.500000  0.892639  0.530043  1
