# generated using pymatgen
data_Y5Er7IrOs3
_symmetry_space_group_name_H-M   'P 1'
_cell_length_a   6.34305437
_cell_length_b   7.37874324
_cell_length_c   8.99661510
_cell_angle_alpha   89.95709215
_cell_angle_beta   90.20399368
_cell_angle_gamma   90.08780136
_symmetry_Int_Tables_number   1
_chemical_formula_structural   Y5Er7IrOs3
_chemical_formula_sum   'Y5 Er7 Ir1 Os3'
_cell_volume   421.07222093
_cell_formula_units_Z   1
loop_
 _symmetry_equiv_pos_site_id
 _symmetry_equiv_pos_as_xyz
  1  'x, y, z'
loop_
 _atom_site_type_symbol
 _atom_site_label
 _atom_site_symmetry_multiplicity
 _atom_site_fract_x
 _atom_site_fract_y
 _atom_site_fract_z
 _atom_site_occupancy
  Y  Y0  1  0.332980  0.673546  0.061652  1
  Y  Y1  1  0.873675  0.537164  0.250879  1
  Y  Y2  1  0.626557  0.038567  0.250186  1
  Y  Y3  1  0.125897  0.462517  0.749020  1
  Y  Y4  1  0.372440  0.962325  0.749175  1
  Er  Er5  1  0.168789  0.176071  0.438019  1
  Er  Er6  1  0.668530  0.325370  0.562758  1
  Er  Er7  1  0.828141  0.825612  0.934995  1
  Er  Er8  1  0.669033  0.325525  0.936323  1
  Er  Er9  1  0.829630  0.825799  0.564768  1
  Er  Er10  1  0.333938  0.672178  0.438120  1
  Er  Er11  1  0.168650  0.175495  0.061954  1
  Ir  Ir12  1  0.042548  0.885442  0.251661  1
  Os  Os13  1  0.457970  0.382187  0.251634  1
  Os  Os14  1  0.959149  0.115696  0.750848  1
  Os  Os15  1  0.542072  0.616509  0.748006  1
