# generated using pymatgen
data_Pr3Sn2BiRh3
_symmetry_space_group_name_H-M   'P 1'
_cell_length_a   7.70798700
_cell_length_b   7.65866030
_cell_length_c   4.12622200
_cell_angle_alpha   90.00000000
_cell_angle_beta   90.00000000
_cell_angle_gamma   120.21328015
_symmetry_Int_Tables_number   1
_chemical_formula_structural   Pr3Sn2BiRh3
_chemical_formula_sum   'Pr3 Sn2 Bi1 Rh3'
_cell_volume   210.49395074
_cell_formula_units_Z   1
loop_
 _symmetry_equiv_pos_site_id
 _symmetry_equiv_pos_as_xyz
  1  'x, y, z'
loop_
 _atom_site_type_symbol
 _atom_site_label
 _atom_site_symmetry_multiplicity
 _atom_site_fract_x
 _atom_site_fract_y
 _atom_site_fract_z
 _atom_site_occupancy
  Pr  Pr0  1  0.593921  0.000000  0.500000  1
  Pr  Pr1  1  0.410873  0.415608  0.500000  1
  Pr  Pr2  1  0.995265  0.584392  0.500000  1
  Sn  Sn3  1  0.744881  0.746662  0.000000  1
  Sn  Sn4  1  0.998220  0.253338  0.000000  1
  Bi  Bi5  1  0.253636  0.000000  0.000000  1
  Rh  Rh6  1  0.990368  0.000000  0.500000  1
  Rh  Rh7  1  0.336515  0.660194  0.000000  1
  Rh  Rh8  1  0.676321  0.339806  0.000000  1
