# generated using pymatgen
data_Ac3Nd(Ge2Pt)4
_symmetry_space_group_name_H-M   'P 1'
_cell_length_a   9.87427377
_cell_length_b   9.87427413
_cell_length_c   9.87427412
_cell_angle_alpha   153.21935224
_cell_angle_beta   125.60637375
_cell_angle_gamma   61.64381259
_symmetry_Int_Tables_number   1
_chemical_formula_structural   Ac3Nd(Ge2Pt)4
_chemical_formula_sum   'Ac3 Nd1 Ge8 Pt4'
_cell_volume   350.04143546
_cell_formula_units_Z   1
loop_
 _symmetry_equiv_pos_site_id
 _symmetry_equiv_pos_as_xyz
  1  'x, y, z'
loop_
 _atom_site_type_symbol
 _atom_site_label
 _atom_site_symmetry_multiplicity
 _atom_site_fract_x
 _atom_site_fract_y
 _atom_site_fract_z
 _atom_site_occupancy
  Ac  Ac0  1  0.758352  0.999442  0.758910  1
  Ac  Ac1  1  0.240533  0.999442  0.241090  1
  Ac  Ac2  1  0.204388  0.204388  0.000000  1
  Nd  Nd3  1  0.795927  0.795927  0.000000  1
  Ge  Ge4  1  0.424836  0.424836  0.000000  1
  Ge  Ge5  1  0.574400  0.574400  0.000000  1
  Ge  Ge6  1  0.922254  0.422254  0.500000  1
  Ge  Ge7  1  0.073184  0.573184  0.500000  1
  Ge  Ge8  1  0.846512  0.199790  0.646722  1
  Ge  Ge9  1  0.147436  0.802771  0.344664  1
  Ge  Ge10  1  0.553067  0.199790  0.353278  1
  Ge  Ge11  1  0.458107  0.802771  0.655336  1
  Pt  Pt12  1  0.101684  0.349555  0.752130  1
  Pt  Pt13  1  0.894229  0.650947  0.243281  1
  Pt  Pt14  1  0.597425  0.349555  0.247870  1
  Pt  Pt15  1  0.407665  0.650947  0.756719  1
