# generated using pymatgen
data_SmP12IrOs3
_symmetry_space_group_name_H-M   'P 1'
_cell_length_a   7.02893426
_cell_length_b   7.04498373
_cell_length_c   7.02893300
_cell_angle_alpha   109.51747301
_cell_angle_beta   109.42491914
_cell_angle_gamma   109.51748552
_symmetry_Int_Tables_number   1
_chemical_formula_structural   SmP12IrOs3
_chemical_formula_sum   'Sm1 P12 Ir1 Os3'
_cell_volume   267.78654495
_cell_formula_units_Z   1
loop_
 _symmetry_equiv_pos_site_id
 _symmetry_equiv_pos_as_xyz
  1  'x, y, z'
loop_
 _atom_site_type_symbol
 _atom_site_label
 _atom_site_symmetry_multiplicity
 _atom_site_fract_x
 _atom_site_fract_y
 _atom_site_fract_z
 _atom_site_occupancy
  Sm  Sm0  1  0.000000  0.000000  0.000000  1
  P  P1  1  0.857490  0.645481  0.502487  1
  P  P2  1  0.142510  0.354519  0.497513  1
  P  P3  1  0.143526  0.646140  0.785937  1
  P  P4  1  0.856474  0.353860  0.214063  1
  P  P5  1  0.642411  0.502613  0.856474  1
  P  P6  1  0.357589  0.497387  0.143526  1
  P  P7  1  0.644997  0.787990  0.142510  1
  P  P8  1  0.355003  0.212010  0.857490  1
  P  P9  1  0.502487  0.857008  0.644997  1
  P  P10  1  0.497513  0.142992  0.355003  1
  P  P11  1  0.785937  0.139797  0.642411  1
  P  P12  1  0.214063  0.860203  0.357589  1
  Ir  Ir13  1  0.000000  0.500000  0.000000  1
  Os  Os14  1  0.500000  0.500000  0.500000  1
  Os  Os15  1  0.500000  0.000000  0.000000  1
  Os  Os16  1  0.000000  0.000000  0.500000  1
