# generated using pymatgen
data_Ti8CuTc4Ru3
_symmetry_space_group_name_H-M   'P 1'
_cell_length_a   6.19539300
_cell_length_b   6.19537400
_cell_length_c   6.18809500
_cell_angle_alpha   90.00000000
_cell_angle_beta   90.00029611
_cell_angle_gamma   90.00000000
_symmetry_Int_Tables_number   1
_chemical_formula_structural   Ti8CuTc4Ru3
_chemical_formula_sum   'Ti8 Cu1 Tc4 Ru3'
_cell_volume   237.51626866
_cell_formula_units_Z   1
loop_
 _symmetry_equiv_pos_site_id
 _symmetry_equiv_pos_as_xyz
  1  'x, y, z'
loop_
 _atom_site_type_symbol
 _atom_site_label
 _atom_site_symmetry_multiplicity
 _atom_site_fract_x
 _atom_site_fract_y
 _atom_site_fract_z
 _atom_site_occupancy
  Ti  Ti0  1  0.502324  0.997672  0.252604  1
  Ti  Ti1  1  0.502324  0.502325  0.252604  1
  Ti  Ti2  1  0.997674  0.997675  0.252604  1
  Ti  Ti3  1  0.997674  0.502329  0.252604  1
  Ti  Ti4  1  0.997672  0.997671  0.747397  1
  Ti  Ti5  1  0.997672  0.502326  0.747397  1
  Ti  Ti6  1  0.502330  0.997673  0.747397  1
  Ti  Ti7  1  0.502330  0.502331  0.747397  1
  Cu  Cu8  1  0.250002  0.250000  0.999999  1
  Tc  Tc9  1  0.750001  0.250000  0.999999  1
  Tc  Tc10  1  0.249998  0.750001  0.000002  1
  Tc  Tc11  1  0.750001  0.250000  0.499996  1
  Tc  Tc12  1  0.249998  0.750001  0.500004  1
  Ru  Ru13  1  0.749999  0.750001  0.999999  1
  Ru  Ru14  1  0.750001  0.750001  0.499992  1
  Ru  Ru15  1  0.249999  0.250000  0.500010  1
