# generated using pymatgen
data_Cs7TaP4
_symmetry_space_group_name_H-M   'P 1'
_cell_length_a   8.84778000
_cell_length_b   9.96342600
_cell_length_c   11.06882600
_cell_angle_alpha   90.00000000
_cell_angle_beta   90.00000000
_cell_angle_gamma   90.00000000
_symmetry_Int_Tables_number   1
_chemical_formula_structural   Cs7TaP4
_chemical_formula_sum   'Cs14 Ta2 P8'
_cell_volume   975.76351530
_cell_formula_units_Z   2
loop_
 _symmetry_equiv_pos_site_id
 _symmetry_equiv_pos_as_xyz
  1  'x, y, z'
loop_
 _atom_site_type_symbol
 _atom_site_label
 _atom_site_symmetry_multiplicity
 _atom_site_fract_x
 _atom_site_fract_y
 _atom_site_fract_z
 _atom_site_occupancy
  Cs  Cs0  1  0.882414  0.023150  0.000000  1
  Cs  Cs1  1  0.708927  0.826744  0.716162  1
  Cs  Cs2  1  0.389063  0.885844  0.000000  1
  Cs  Cs3  1  0.382414  0.976850  0.500000  1
  Cs  Cs4  1  0.875926  0.464627  0.292063  1
  Cs  Cs5  1  0.889063  0.114156  0.500000  1
  Cs  Cs6  1  0.665938  0.345338  0.000000  1
  Cs  Cs7  1  0.165938  0.654662  0.500000  1
  Cs  Cs8  1  0.208927  0.173256  0.216162  1
  Cs  Cs9  1  0.375926  0.535373  0.207937  1
  Cs  Cs10  1  0.375926  0.535373  0.792063  1
  Cs  Cs11  1  0.875926  0.464627  0.707937  1
  Cs  Cs12  1  0.708927  0.826744  0.283838  1
  Cs  Cs13  1  0.208927  0.173256  0.783838  1
  Ta  Ta14  1  0.995991  0.669968  0.000000  1
  Ta  Ta15  1  0.495991  0.330032  0.500000  1
  P  P16  1  0.722160  0.684181  0.000000  1
  P  P17  1  0.222160  0.315819  0.500000  1
  P  P18  1  0.068263  0.434311  0.000000  1
  P  P19  1  0.568263  0.565689  0.500000  1
  P  P20  1  0.083784  0.789701  0.180526  1
  P  P21  1  0.583784  0.210299  0.319474  1
  P  P22  1  0.583784  0.210299  0.680526  1
  P  P23  1  0.083784  0.789701  0.819474  1
