# generated using pymatgen
data_Sm2Dy3Bi3C
_symmetry_space_group_name_H-M   'P 1'
_cell_length_a   9.29125600
_cell_length_b   9.29125400
_cell_length_c   6.53489700
_cell_angle_alpha   90.00000000
_cell_angle_beta   90.00000000
_cell_angle_gamma   119.99999999
_symmetry_Int_Tables_number   1
_chemical_formula_structural   Sm2Dy3Bi3C
_chemical_formula_sum   'Sm4 Dy6 Bi6 C2'
_cell_volume   488.56025957
_cell_formula_units_Z   2
loop_
 _symmetry_equiv_pos_site_id
 _symmetry_equiv_pos_as_xyz
  1  'x, y, z'
loop_
 _atom_site_type_symbol
 _atom_site_label
 _atom_site_symmetry_multiplicity
 _atom_site_fract_x
 _atom_site_fract_y
 _atom_site_fract_z
 _atom_site_occupancy
  Sm  Sm0  1  0.666667  0.333333  0.000000  1
  Sm  Sm1  1  0.333333  0.666667  0.000000  1
  Sm  Sm2  1  0.333333  0.666667  0.500000  1
  Sm  Sm3  1  0.666667  0.333333  0.500000  1
  Dy  Dy4  1  0.794920  0.794920  0.750000  1
  Dy  Dy5  1  0.205080  0.000000  0.750000  1
  Dy  Dy6  1  0.000000  0.205080  0.750000  1
  Dy  Dy7  1  0.205080  0.205080  0.250000  1
  Dy  Dy8  1  0.794920  0.000000  0.250000  1
  Dy  Dy9  1  0.000000  0.794920  0.250000  1
  Bi  Bi10  1  0.397630  0.397630  0.750000  1
  Bi  Bi11  1  0.602370  0.000000  0.750000  1
  Bi  Bi12  1  0.000000  0.602370  0.750000  1
  Bi  Bi13  1  0.602370  0.602370  0.250000  1
  Bi  Bi14  1  0.397630  0.000000  0.250000  1
  Bi  Bi15  1  0.000000  0.397630  0.250000  1
  C  C16  1  0.000000  0.000000  0.000000  1
  C  C17  1  0.000000  0.000000  0.500000  1
