# generated using pymatgen
data_Hf2Zr3SnRh10
_symmetry_space_group_name_H-M   'P 1'
_cell_length_a   4.21585400
_cell_length_b   5.67381749
_cell_length_c   11.09439507
_cell_angle_alpha   88.81898208
_cell_angle_beta   90.00000000
_cell_angle_gamma   90.00000000
_symmetry_Int_Tables_number   1
_chemical_formula_structural   Hf2Zr3SnRh10
_chemical_formula_sum   'Hf2 Zr3 Sn1 Rh10'
_cell_volume   265.32140145
_cell_formula_units_Z   1
loop_
 _symmetry_equiv_pos_site_id
 _symmetry_equiv_pos_as_xyz
  1  'x, y, z'
loop_
 _atom_site_type_symbol
 _atom_site_label
 _atom_site_symmetry_multiplicity
 _atom_site_fract_x
 _atom_site_fract_y
 _atom_site_fract_z
 _atom_site_occupancy
  Hf  Hf0  1  0.500000  0.335227  0.145506  1
  Hf  Hf1  1  0.000000  0.001145  0.000744  1
  Zr  Zr2  1  0.500000  0.175491  0.643209  1
  Zr  Zr3  1  0.500000  0.824422  0.356438  1
  Zr  Zr4  1  0.500000  0.665593  0.855175  1
  Sn  Sn5  1  0.000000  0.499794  0.499614  1
  Rh  Rh6  1  0.500000  0.188637  0.892352  1
  Rh  Rh7  1  0.500000  0.810164  0.108568  1
  Rh  Rh8  1  0.500000  0.700642  0.612394  1
  Rh  Rh9  1  0.500000  0.299272  0.386391  1
  Rh  Rh10  1  0.000000  0.425473  0.747511  1
  Rh  Rh11  1  0.000000  0.574154  0.252139  1
  Rh  Rh12  1  0.000000  0.000108  0.499663  1
  Rh  Rh13  1  0.000000  0.497827  0.001484  1
  Rh  Rh14  1  0.000000  0.080555  0.243264  1
  Rh  Rh15  1  0.000000  0.921497  0.755548  1
