# generated using pymatgen
data_Cs3Dy(PO4)2
_symmetry_space_group_name_H-M   'P 1'
_cell_length_a   5.81139000
_cell_length_b   5.81138881
_cell_length_c   8.72254500
_cell_angle_alpha   90.00000000
_cell_angle_beta   90.00000000
_cell_angle_gamma   120.00000676
_symmetry_Int_Tables_number   1
_chemical_formula_structural   Cs3Dy(PO4)2
_chemical_formula_sum   'Cs3 Dy1 P2 O8'
_cell_volume   255.11369647
_cell_formula_units_Z   1
loop_
 _symmetry_equiv_pos_site_id
 _symmetry_equiv_pos_as_xyz
  1  'x, y, z'
loop_
 _atom_site_type_symbol
 _atom_site_label
 _atom_site_symmetry_multiplicity
 _atom_site_fract_x
 _atom_site_fract_y
 _atom_site_fract_z
 _atom_site_occupancy
  Cs  Cs0  1  0.333333  0.666667  0.772036  1
  Cs  Cs1  1  0.666667  0.333333  0.227964  1
  Cs  Cs2  1  0.000000  0.000000  0.000000  1
  Dy  Dy3  1  0.000000  0.000000  0.500000  1
  P  P4  1  0.333333  0.666667  0.293267  1
  P  P5  1  0.666667  0.333333  0.706733  1
  O  O6  1  0.333333  0.666667  0.116615  1
  O  O7  1  0.666667  0.333333  0.883385  1
  O  O8  1  0.186683  0.813317  0.353292  1
  O  O9  1  0.813317  0.186683  0.646708  1
  O  O10  1  0.186683  0.373367  0.353292  1
  O  O11  1  0.813317  0.626633  0.646708  1
  O  O12  1  0.626633  0.813317  0.353292  1
  O  O13  1  0.373367  0.186683  0.646708  1
