# generated using pymatgen
data_Nd8Y2Ir5Au
_symmetry_space_group_name_H-M   'P 1'
_cell_length_a   11.38281116
_cell_length_b   11.32912700
_cell_length_c   6.49005360
_cell_angle_alpha   90.00000000
_cell_angle_beta   90.07807817
_cell_angle_gamma   90.00000000
_symmetry_Int_Tables_number   1
_chemical_formula_structural   Nd8Y2Ir5Au
_chemical_formula_sum   'Nd16 Y4 Ir10 Au2'
_cell_volume   836.93909795
_cell_formula_units_Z   2
loop_
 _symmetry_equiv_pos_site_id
 _symmetry_equiv_pos_as_xyz
  1  'x, y, z'
loop_
 _atom_site_type_symbol
 _atom_site_label
 _atom_site_symmetry_multiplicity
 _atom_site_fract_x
 _atom_site_fract_y
 _atom_site_fract_z
 _atom_site_occupancy
  Nd  Nd0  1  0.290059  0.088873  0.376122  1
  Nd  Nd1  1  0.290059  0.911127  0.876122  1
  Nd  Nd2  1  0.698671  0.093019  0.865975  1
  Nd  Nd3  1  0.698671  0.906981  0.365975  1
  Nd  Nd4  1  0.578738  0.786728  0.880041  1
  Nd  Nd5  1  0.578738  0.213272  0.380041  1
  Nd  Nd6  1  0.407736  0.789477  0.380242  1
  Nd  Nd7  1  0.407736  0.210523  0.880242  1
  Nd  Nd8  1  0.212729  0.411070  0.618038  1
  Nd  Nd9  1  0.212729  0.588930  0.118038  1
  Nd  Nd10  1  0.788729  0.418743  0.120028  1
  Nd  Nd11  1  0.788729  0.581257  0.620028  1
  Nd  Nd12  1  0.917445  0.706626  0.136456  1
  Nd  Nd13  1  0.917445  0.293374  0.636456  1
  Nd  Nd14  1  0.096321  0.703624  0.621413  1
  Nd  Nd15  1  0.096321  0.296376  0.121413  1
  Y  Y16  1  0.008469  0.997492  0.500358  1
  Y  Y17  1  0.008469  0.002508  0.000358  1
  Y  Y18  1  0.500152  0.498145  0.000443  1
  Y  Y19  1  0.500152  0.501855  0.500443  1
  Ir  Ir20  1  0.149495  0.149891  0.750913  1
  Ir  Ir21  1  0.149495  0.850109  0.250913  1
  Ir  Ir22  1  0.652244  0.350361  0.749136  1
  Ir  Ir23  1  0.652244  0.649639  0.249136  1
  Ir  Ir24  1  0.350757  0.349435  0.250557  1
  Ir  Ir25  1  0.350757  0.650565  0.750557  1
  Ir  Ir26  1  0.499691  0.999728  0.115754  1
  Ir  Ir27  1  0.499691  0.000272  0.615754  1
  Ir  Ir28  1  0.000609  0.501734  0.884349  1
  Ir  Ir29  1  0.000609  0.498266  0.384349  1
  Au  Au30  1  0.848153  0.150488  0.250177  1
  Au  Au31  1  0.848153  0.849512  0.750177  1
