# generated using pymatgen
data_Ca13Si14O
_symmetry_space_group_name_H-M   'P 1'
_cell_length_a   10.77966187
_cell_length_b   10.77966205
_cell_length_c   16.03982100
_cell_angle_alpha   55.81885212
_cell_angle_beta   55.81885146
_cell_angle_gamma   24.61677459
_symmetry_Int_Tables_number   1
_chemical_formula_structural   Ca13Si14O
_chemical_formula_sum   'Ca13 Si14 O1'
_cell_volume   635.18152248
_cell_formula_units_Z   1
loop_
 _symmetry_equiv_pos_site_id
 _symmetry_equiv_pos_as_xyz
  1  'x, y, z'
loop_
 _atom_site_type_symbol
 _atom_site_label
 _atom_site_symmetry_multiplicity
 _atom_site_fract_x
 _atom_site_fract_y
 _atom_site_fract_z
 _atom_site_occupancy
  Ca  Ca0  1  0.190891  0.190891  0.857248  1
  Ca  Ca1  1  0.997302  0.997302  0.353787  1
  Ca  Ca2  1  0.998402  0.998402  0.120905  1
  Ca  Ca3  1  0.189575  0.189575  0.610307  1
  Ca  Ca4  1  0.181416  0.181416  0.111985  1
  Ca  Ca5  1  0.152357  0.152357  0.383562  1
  Ca  Ca6  1  0.500000  0.500000  0.500000  1
  Ca  Ca7  1  0.847643  0.847643  0.616438  1
  Ca  Ca8  1  0.810425  0.810425  0.389693  1
  Ca  Ca9  1  0.818584  0.818584  0.888015  1
  Ca  Ca10  1  0.809109  0.809109  0.142752  1
  Ca  Ca11  1  0.001598  0.001598  0.879095  1
  Ca  Ca12  1  0.002698  0.002698  0.646213  1
  Si  Si13  1  0.434539  0.434539  0.809699  1
  Si  Si14  1  0.568738  0.568738  0.947454  1
  Si  Si15  1  0.427847  0.427847  0.293088  1
  Si  Si16  1  0.565461  0.565461  0.190301  1
  Si  Si17  1  0.572153  0.572153  0.706912  1
  Si  Si18  1  0.431262  0.431262  0.052546  1
  Si  Si19  1  0.644109  0.644109  0.011506  1
  Si  Si20  1  0.651463  0.651463  0.767497  1
  Si  Si21  1  0.348537  0.348537  0.232503  1
  Si  Si22  1  0.367533  0.367533  0.732575  1
  Si  Si23  1  0.365387  0.365387  0.470107  1
  Si  Si24  1  0.634613  0.634613  0.529893  1
  Si  Si25  1  0.632467  0.632467  0.267425  1
  Si  Si26  1  0.355891  0.355891  0.988494  1
  O  O27  1  0.000000  0.000000  0.500000  1
