# generated using pymatgen
data_CsTmSb2Se5
_symmetry_space_group_name_H-M   'P 1'
_cell_length_a   4.09815500
_cell_length_b   12.33201400
_cell_length_c   22.96203700
_cell_angle_alpha   90.00000000
_cell_angle_beta   90.00000000
_cell_angle_gamma   90.00000000
_symmetry_Int_Tables_number   1
_chemical_formula_structural   CsTmSb2Se5
_chemical_formula_sum   'Cs4 Tm4 Sb8 Se20'
_cell_volume   1160.46701793
_cell_formula_units_Z   4
loop_
 _symmetry_equiv_pos_site_id
 _symmetry_equiv_pos_as_xyz
  1  'x, y, z'
loop_
 _atom_site_type_symbol
 _atom_site_label
 _atom_site_symmetry_multiplicity
 _atom_site_fract_x
 _atom_site_fract_y
 _atom_site_fract_z
 _atom_site_occupancy
  Cs  Cs0  1  0.250000  0.490774  0.209640  1
  Cs  Cs1  1  0.750000  0.509226  0.790360  1
  Cs  Cs2  1  0.750000  0.990774  0.290360  1
  Cs  Cs3  1  0.250000  0.009226  0.709640  1
  Tm  Tm4  1  0.250000  0.365075  0.022090  1
  Tm  Tm5  1  0.750000  0.634925  0.977910  1
  Tm  Tm6  1  0.750000  0.865075  0.477910  1
  Tm  Tm7  1  0.250000  0.134925  0.522090  1
  Sb  Sb8  1  0.250000  0.810873  0.120564  1
  Sb  Sb9  1  0.750000  0.189127  0.879436  1
  Sb  Sb10  1  0.750000  0.310873  0.379436  1
  Sb  Sb11  1  0.250000  0.689127  0.620564  1
  Sb  Sb12  1  0.250000  0.596440  0.429475  1
  Sb  Sb13  1  0.750000  0.403560  0.570525  1
  Sb  Sb14  1  0.750000  0.096440  0.070525  1
  Sb  Sb15  1  0.250000  0.903560  0.929475  1
  Se  Se16  1  0.250000  0.804102  0.395038  1
  Se  Se17  1  0.750000  0.195898  0.604962  1
  Se  Se18  1  0.750000  0.304102  0.104962  1
  Se  Se19  1  0.250000  0.695898  0.895038  1
  Se  Se20  1  0.250000  0.255803  0.305884  1
  Se  Se21  1  0.750000  0.744197  0.694116  1
  Se  Se22  1  0.750000  0.755803  0.194116  1
  Se  Se23  1  0.250000  0.244197  0.805884  1
  Se  Se24  1  0.250000  0.354250  0.482189  1
  Se  Se25  1  0.750000  0.645750  0.517811  1
  Se  Se26  1  0.750000  0.854250  0.017811  1
  Se  Se27  1  0.250000  0.145750  0.982189  1
  Se  Se28  1  0.250000  0.026423  0.151630  1
  Se  Se29  1  0.750000  0.973577  0.848370  1
  Se  Se30  1  0.750000  0.526423  0.348370  1
  Se  Se31  1  0.250000  0.473577  0.651630  1
  Se  Se32  1  0.250000  0.582845  0.057884  1
  Se  Se33  1  0.750000  0.417155  0.942116  1
  Se  Se34  1  0.750000  0.082845  0.442116  1
  Se  Se35  1  0.250000  0.917155  0.557884  1
