# generated using pymatgen
data_CePrAlZnIr2
_symmetry_space_group_name_H-M   'P 1'
_cell_length_a   7.05680700
_cell_length_b   4.19477800
_cell_length_c   8.24544600
_cell_angle_alpha   90.00000000
_cell_angle_beta   90.00000000
_cell_angle_gamma   90.00000000
_symmetry_Int_Tables_number   1
_chemical_formula_structural   CePrAlZnIr2
_chemical_formula_sum   'Ce2 Pr2 Al2 Zn2 Ir4'
_cell_volume   244.07953840
_cell_formula_units_Z   2
loop_
 _symmetry_equiv_pos_site_id
 _symmetry_equiv_pos_as_xyz
  1  'x, y, z'
loop_
 _atom_site_type_symbol
 _atom_site_label
 _atom_site_symmetry_multiplicity
 _atom_site_fract_x
 _atom_site_fract_y
 _atom_site_fract_z
 _atom_site_occupancy
  Ce  Ce0  1  0.965833  0.250000  0.184829  1
  Ce  Ce1  1  0.465833  0.250000  0.315171  1
  Pr  Pr2  1  0.039752  0.750000  0.815062  1
  Pr  Pr3  1  0.539752  0.750000  0.684938  1
  Al  Al4  1  0.132492  0.750000  0.437347  1
  Al  Al5  1  0.632492  0.750000  0.062653  1
  Zn  Zn6  1  0.858902  0.250000  0.563160  1
  Zn  Zn7  1  0.358902  0.250000  0.936840  1
  Ir  Ir8  1  0.740300  0.250000  0.903273  1
  Ir  Ir9  1  0.240300  0.250000  0.596727  1
  Ir  Ir10  1  0.262721  0.750000  0.136948  1
  Ir  Ir11  1  0.762721  0.750000  0.363052  1
