# generated using pymatgen
data_Sc3Zn2Ni6Ag
_symmetry_space_group_name_H-M   'P 1'
_cell_length_a   4.97610000
_cell_length_b   4.97609999
_cell_length_c   7.91961200
_cell_angle_alpha   90.00000000
_cell_angle_beta   90.00000000
_cell_angle_gamma   120.00000007
_symmetry_Int_Tables_number   1
_chemical_formula_structural   Sc3Zn2Ni6Ag
_chemical_formula_sum   'Sc3 Zn2 Ni6 Ag1'
_cell_volume   169.82934487
_cell_formula_units_Z   1
loop_
 _symmetry_equiv_pos_site_id
 _symmetry_equiv_pos_as_xyz
  1  'x, y, z'
loop_
 _atom_site_type_symbol
 _atom_site_label
 _atom_site_symmetry_multiplicity
 _atom_site_fract_x
 _atom_site_fract_y
 _atom_site_fract_z
 _atom_site_occupancy
  Sc  Sc0  1  0.666667  0.333333  0.069887  1
  Sc  Sc1  1  0.666667  0.333333  0.453407  1
  Sc  Sc2  1  0.333333  0.666667  0.909423  1
  Zn  Zn3  1  0.000000  0.000000  0.005513  1
  Zn  Zn4  1  0.000000  0.000000  0.500877  1
  Ni  Ni5  1  0.171954  0.343908  0.246485  1
  Ni  Ni6  1  0.830926  0.169074  0.756129  1
  Ni  Ni7  1  0.338148  0.169074  0.756129  1
  Ni  Ni8  1  0.656092  0.828046  0.246485  1
  Ni  Ni9  1  0.171954  0.828046  0.246485  1
  Ni  Ni10  1  0.830926  0.661852  0.756129  1
  Ag  Ag11  1  0.333333  0.666667  0.553049  1
