# generated using pymatgen
data_La5MgCdRu3
_symmetry_space_group_name_H-M   'P 1'
_cell_length_a   8.72112039
_cell_length_b   8.72112110
_cell_length_c   8.80176300
_cell_angle_alpha   109.50231359
_cell_angle_beta   109.47530319
_cell_angle_gamma   109.06161120
_symmetry_Int_Tables_number   1
_chemical_formula_structural   La5MgCdRu3
_chemical_formula_sum   'La10 Mg2 Cd2 Ru6'
_cell_volume   517.69872398
_cell_formula_units_Z   2
loop_
 _symmetry_equiv_pos_site_id
 _symmetry_equiv_pos_as_xyz
  1  'x, y, z'
loop_
 _atom_site_type_symbol
 _atom_site_label
 _atom_site_symmetry_multiplicity
 _atom_site_fract_x
 _atom_site_fract_y
 _atom_site_fract_z
 _atom_site_occupancy
  La  La0  1  0.788501  0.000718  0.002332  1
  La  La1  1  0.252310  0.315248  0.069036  1
  La  La2  1  0.712053  0.710044  0.211625  1
  La  La3  1  0.184548  0.934548  0.250000  1
  La  La4  1  0.998420  0.500429  0.288376  1
  La  La5  1  0.746213  0.183273  0.430964  1
  La  La6  1  0.498387  0.786169  0.497669  1
  La  La7  1  0.933128  0.752200  0.686694  1
  La  La8  1  0.317476  0.567476  0.750000  1
  La  La9  1  0.565507  0.246434  0.813305  1
  Mg  Mg10  1  0.088792  0.091755  0.590832  1
  Mg  Mg11  1  0.000922  0.497960  0.909168  1
  Cd  Cd12  1  0.405357  0.998008  0.997744  1
  Cd  Cd13  1  0.500265  0.407613  0.502256  1
  Ru  Ru14  1  0.381220  0.741182  0.134519  1
  Ru  Ru15  1  0.642001  0.392001  0.250000  1
  Ru  Ru16  1  0.106662  0.246701  0.365481  1
  Ru  Ru17  1  0.252594  0.868929  0.609821  1
  Ru  Ru18  1  0.866541  0.116542  0.750000  1
  Ru  Ru19  1  0.759109  0.642774  0.890180  1
