# generated using pymatgen
data_CaY5PuO12
_symmetry_space_group_name_H-M   'P 1'
_cell_length_a   6.59864768
_cell_length_b   6.60786371
_cell_length_c   6.60317200
_cell_angle_alpha   98.71229925
_cell_angle_beta   98.52178029
_cell_angle_gamma   98.96095985
_symmetry_Int_Tables_number   1
_chemical_formula_structural   CaY5PuO12
_chemical_formula_sum   'Ca1 Y5 Pu1 O12'
_cell_volume   276.73729908
_cell_formula_units_Z   1
loop_
 _symmetry_equiv_pos_site_id
 _symmetry_equiv_pos_as_xyz
  1  'x, y, z'
loop_
 _atom_site_type_symbol
 _atom_site_label
 _atom_site_symmetry_multiplicity
 _atom_site_fract_x
 _atom_site_fract_y
 _atom_site_fract_z
 _atom_site_occupancy
  Ca  Ca0  1  0.394118  0.674460  0.852377  1
  Y  Y1  1  0.855287  0.389093  0.673438  1
  Y  Y2  1  0.671370  0.851330  0.390197  1
  Y  Y3  1  0.609881  0.327172  0.146169  1
  Y  Y4  1  0.151716  0.610236  0.328167  1
  Y  Y5  1  0.327147  0.148213  0.612467  1
  Pu  Pu6  1  0.998234  0.001499  0.001487  1
  O  O7  1  0.173017  0.419345  0.581283  1
  O  O8  1  0.595022  0.177445  0.426522  1
  O  O9  1  0.431036  0.588698  0.181586  1
  O  O10  1  0.824181  0.573658  0.408396  1
  O  O11  1  0.405059  0.826078  0.565862  1
  O  O12  1  0.576904  0.392502  0.822710  1
  O  O13  1  0.918760  0.039269  0.699023  1
  O  O14  1  0.963593  0.302495  0.078932  1
  O  O15  1  0.296146  0.084926  0.963686  1
  O  O16  1  0.079620  0.960564  0.300699  1
  O  O17  1  0.026313  0.703017  0.921018  1
  O  O18  1  0.702599  0.930002  0.045982  1
