# generated using pymatgen
data_Hf4Ga2Ir9Rh
_symmetry_space_group_name_H-M   'P 1'
_cell_length_a   4.07866500
_cell_length_b   5.57597117
_cell_length_c   11.04326215
_cell_angle_alpha   89.66386499
_cell_angle_beta   90.00000000
_cell_angle_gamma   90.00000000
_symmetry_Int_Tables_number   1
_chemical_formula_structural   Hf4Ga2Ir9Rh
_chemical_formula_sum   'Hf4 Ga2 Ir9 Rh1'
_cell_volume   251.14727127
_cell_formula_units_Z   1
loop_
 _symmetry_equiv_pos_site_id
 _symmetry_equiv_pos_as_xyz
  1  'x, y, z'
loop_
 _atom_site_type_symbol
 _atom_site_label
 _atom_site_symmetry_multiplicity
 _atom_site_fract_x
 _atom_site_fract_y
 _atom_site_fract_z
 _atom_site_occupancy
  Hf  Hf0  1  0.500000  0.194914  0.637030  1
  Hf  Hf1  1  0.500000  0.805086  0.362970  1
  Hf  Hf2  1  0.500000  0.691456  0.863250  1
  Hf  Hf3  1  0.500000  0.308544  0.136750  1
  Ga  Ga4  1  0.000000  0.500000  0.500000  1
  Ga  Ga5  1  0.000000  0.000000  0.000000  1
  Ir  Ir6  1  0.500000  0.195844  0.887344  1
  Ir  Ir7  1  0.500000  0.804156  0.112656  1
  Ir  Ir8  1  0.500000  0.699480  0.613369  1
  Ir  Ir9  1  0.500000  0.300520  0.386631  1
  Ir  Ir10  1  0.000000  0.444839  0.750818  1
  Ir  Ir11  1  0.000000  0.555161  0.249182  1
  Ir  Ir12  1  0.000000  0.000000  0.500000  1
  Ir  Ir13  1  0.000000  0.055232  0.250856  1
  Ir  Ir14  1  0.000000  0.944768  0.749144  1
  Rh  Rh15  1  0.000000  0.500000  0.000000  1
