# generated using pymatgen
data_Lu8Ti4Nb3Si16Mo5
_symmetry_space_group_name_H-M   'P 1'
_cell_length_a   6.72008220
_cell_length_b   6.93313287
_cell_length_c   13.14155036
_cell_angle_alpha   90.03719165
_cell_angle_beta   89.89220932
_cell_angle_gamma   89.94397164
_symmetry_Int_Tables_number   1
_chemical_formula_structural   Lu8Ti4Nb3Si16Mo5
_chemical_formula_sum   'Lu8 Ti4 Nb3 Si16 Mo5'
_cell_volume   612.27939503
_cell_formula_units_Z   1
loop_
 _symmetry_equiv_pos_site_id
 _symmetry_equiv_pos_as_xyz
  1  'x, y, z'
loop_
 _atom_site_type_symbol
 _atom_site_label
 _atom_site_symmetry_multiplicity
 _atom_site_fract_x
 _atom_site_fract_y
 _atom_site_fract_z
 _atom_site_occupancy
  Lu  Lu0  1  0.501690  0.328661  0.095940  1
  Lu  Lu1  1  0.001342  0.172627  0.403995  1
  Lu  Lu2  1  0.499133  0.673138  0.594724  1
  Lu  Lu3  1  0.999220  0.828922  0.905341  1
  Lu  Lu4  1  0.497257  0.672417  0.904427  1
  Lu  Lu5  1  0.000085  0.828800  0.594300  1
  Lu  Lu6  1  0.501432  0.327877  0.405670  1
  Lu  Lu7  1  0.002578  0.173503  0.096148  1
  Ti  Ti8  1  0.665546  0.828973  0.373996  1
  Ti  Ti9  1  0.169127  0.671340  0.375266  1
  Ti  Ti10  1  0.666280  0.827775  0.126249  1
  Ti  Ti11  1  0.832816  0.327703  0.873108  1
  Nb  Nb12  1  0.835760  0.327449  0.625434  1
  Nb  Nb13  1  0.331438  0.171589  0.873243  1
  Nb  Nb14  1  0.168346  0.671803  0.125620  1
  Si  Si15  1  0.658853  0.036220  0.542290  1
  Si  Si16  1  0.162185  0.461947  0.958100  1
  Si  Si17  1  0.337191  0.962789  0.042579  1
  Si  Si18  1  0.836365  0.540360  0.456650  1
  Si  Si19  1  0.334373  0.959629  0.458396  1
  Si  Si20  1  0.835112  0.537045  0.041897  1
  Si  Si21  1  0.664176  0.037168  0.958493  1
  Si  Si22  1  0.167305  0.460307  0.541660  1
  Si  Si23  1  0.533116  0.376789  0.748495  1
  Si  Si24  1  0.035899  0.121242  0.749734  1
  Si  Si25  1  0.465876  0.622999  0.251460  1
  Si  Si26  1  0.963609  0.876972  0.251038  1
  Si  Si27  1  0.797008  0.632226  0.749990  1
  Si  Si28  1  0.299156  0.868419  0.749075  1
  Si  Si29  1  0.203458  0.369083  0.251146  1
  Si  Si30  1  0.702665  0.130651  0.250257  1
  Mo  Mo31  1  0.331807  0.169810  0.625144  1
  Mo  Mo32  1  0.663314  0.008272  0.749649  1
  Mo  Mo33  1  0.159503  0.493289  0.749340  1
  Mo  Mo34  1  0.339390  0.994442  0.250839  1
  Mo  Mo35  1  0.837587  0.507762  0.250308  1
