# generated using pymatgen
data_PrAs12Os3Rh
_symmetry_space_group_name_H-M   'P 1'
_cell_length_a   7.46940050
_cell_length_b   7.46940126
_cell_length_c   7.46940137
_cell_angle_alpha   109.42239324
_cell_angle_beta   109.42239888
_cell_angle_gamma   109.42239781
_symmetry_Int_Tables_number   1
_chemical_formula_structural   PrAs12Os3Rh
_chemical_formula_sum   'Pr1 As12 Os3 Rh1'
_cell_volume   321.37939144
_cell_formula_units_Z   1
loop_
 _symmetry_equiv_pos_site_id
 _symmetry_equiv_pos_as_xyz
  1  'x, y, z'
loop_
 _atom_site_type_symbol
 _atom_site_label
 _atom_site_symmetry_multiplicity
 _atom_site_fract_x
 _atom_site_fract_y
 _atom_site_fract_z
 _atom_site_occupancy
  Pr  Pr0  1  0.000000  0.000000  0.000000  1
  As  As1  1  0.149909  0.802668  0.653235  1
  As  As2  1  0.850091  0.197332  0.346765  1
  As  As3  1  0.147270  0.496890  0.347262  1
  As  As4  1  0.852730  0.503110  0.652738  1
  As  As5  1  0.653235  0.149909  0.802668  1
  As  As6  1  0.346765  0.850091  0.197332  1
  As  As7  1  0.347262  0.147270  0.496890  1
  As  As8  1  0.652738  0.852730  0.503110  1
  As  As9  1  0.802668  0.653235  0.149909  1
  As  As10  1  0.197332  0.346765  0.850091  1
  As  As11  1  0.496890  0.347262  0.147270  1
  As  As12  1  0.503110  0.652738  0.852730  1
  Os  Os13  1  0.500000  0.000000  0.000000  1
  Os  Os14  1  0.000000  0.000000  0.500000  1
  Os  Os15  1  0.000000  0.500000  0.000000  1
  Rh  Rh16  1  0.500000  0.500000  0.500000  1
