# generated using pymatgen
data_Ba2SiAuI
_symmetry_space_group_name_H-M   'P 1'
_cell_length_a   4.58622800
_cell_length_b   4.58622890
_cell_length_c   18.64943900
_cell_angle_alpha   90.00000000
_cell_angle_beta   90.00000000
_cell_angle_gamma   119.99999348
_symmetry_Int_Tables_number   1
_chemical_formula_structural   Ba2SiAuI
_chemical_formula_sum   'Ba4 Si2 Au2 I2'
_cell_volume   339.70958519
_cell_formula_units_Z   2
loop_
 _symmetry_equiv_pos_site_id
 _symmetry_equiv_pos_as_xyz
  1  'x, y, z'
loop_
 _atom_site_type_symbol
 _atom_site_label
 _atom_site_symmetry_multiplicity
 _atom_site_fract_x
 _atom_site_fract_y
 _atom_site_fract_z
 _atom_site_occupancy
  Ba  Ba0  1  0.000000  0.000000  0.111289  1
  Ba  Ba1  1  0.000000  0.000000  0.388711  1
  Ba  Ba2  1  0.000000  0.000000  0.611547  1
  Ba  Ba3  1  0.000000  0.000000  0.888453  1
  Si  Si4  1  0.666668  0.333335  0.500861  1
  Si  Si5  1  0.666668  0.333335  0.999139  1
  Au  Au6  1  0.333333  0.666667  0.000105  1
  Au  Au7  1  0.333333  0.666667  0.499895  1
  I  I8  1  0.666668  0.333335  0.250000  1
  I  I9  1  0.333333  0.666667  0.750000  1
