# generated using pymatgen
data_Dy5Tm(Lu2Pb3)2
_symmetry_space_group_name_H-M   'P 1'
_cell_length_a   6.52299500
_cell_length_b   8.99156712
_cell_length_c   8.99876931
_cell_angle_alpha   120.02301663
_cell_angle_beta   90.00019308
_cell_angle_gamma   89.99997915
_symmetry_Int_Tables_number   1
_chemical_formula_structural   Dy5Tm(Lu2Pb3)2
_chemical_formula_sum   'Dy5 Tm1 Lu4 Pb6'
_cell_volume   456.97812726
_cell_formula_units_Z   1
loop_
 _symmetry_equiv_pos_site_id
 _symmetry_equiv_pos_as_xyz
  1  'x, y, z'
loop_
 _atom_site_type_symbol
 _atom_site_label
 _atom_site_symmetry_multiplicity
 _atom_site_fract_x
 _atom_site_fract_y
 _atom_site_fract_z
 _atom_site_occupancy
  Dy  Dy0  1  0.750002  0.237149  0.999688  1
  Dy  Dy1  1  0.750011  0.762816  0.762363  1
  Dy  Dy2  1  0.749996  0.000098  0.238248  1
  Dy  Dy3  1  0.250007  0.762556  0.999767  1
  Dy  Dy4  1  0.250009  0.237536  0.237379  1
  Tm  Tm5  1  0.250006  0.999928  0.762560  1
  Lu  Lu6  1  0.499866  0.333325  0.666802  1
  Lu  Lu7  1  0.499867  0.666627  0.333191  1
  Lu  Lu8  1  0.000123  0.666650  0.333192  1
  Lu  Lu9  1  0.000124  0.333342  0.666787  1
  Pb  Pb10  1  0.749986  0.603639  0.999978  1
  Pb  Pb11  1  0.750012  0.396205  0.396183  1
  Pb  Pb12  1  0.750003  0.999929  0.603404  1
  Pb  Pb13  1  0.249980  0.394735  0.998975  1
  Pb  Pb14  1  0.250016  0.605455  0.604358  1
  Pb  Pb15  1  0.249990  0.000011  0.397124  1
