# generated using pymatgen
data_La12DyErRh6
_symmetry_space_group_name_H-M   'P 1'
_cell_length_a   10.24479600
_cell_length_b   10.24479772
_cell_length_c   6.44834900
_cell_angle_alpha   90.00000000
_cell_angle_beta   90.00000000
_cell_angle_gamma   120.00000091
_symmetry_Int_Tables_number   1
_chemical_formula_structural   La12DyErRh6
_chemical_formula_sum   'La12 Dy1 Er1 Rh6'
_cell_volume   586.11908763
_cell_formula_units_Z   1
loop_
 _symmetry_equiv_pos_site_id
 _symmetry_equiv_pos_as_xyz
  1  'x, y, z'
loop_
 _atom_site_type_symbol
 _atom_site_label
 _atom_site_symmetry_multiplicity
 _atom_site_fract_x
 _atom_site_fract_y
 _atom_site_fract_z
 _atom_site_occupancy
  La  La0  1  0.873149  0.746298  0.764151  1
  La  La1  1  0.253702  0.126851  0.764151  1
  La  La2  1  0.873149  0.126851  0.764151  1
  La  La3  1  0.127111  0.254223  0.263912  1
  La  La4  1  0.745777  0.872889  0.263912  1
  La  La5  1  0.127111  0.872889  0.263912  1
  La  La6  1  0.457182  0.914367  0.595634  1
  La  La7  1  0.085633  0.542818  0.595634  1
  La  La8  1  0.457182  0.542818  0.595634  1
  La  La9  1  0.542582  0.085162  0.095490  1
  La  La10  1  0.914838  0.457418  0.095490  1
  La  La11  1  0.542582  0.457418  0.095490  1
  Dy  Dy12  1  0.666667  0.333333  0.567280  1
  Er  Er13  1  0.333333  0.666667  0.065930  1
  Rh  Rh14  1  0.190933  0.381866  0.854395  1
  Rh  Rh15  1  0.618134  0.809067  0.854395  1
  Rh  Rh16  1  0.190933  0.809067  0.854395  1
  Rh  Rh17  1  0.809418  0.618836  0.353696  1
  Rh  Rh18  1  0.381164  0.190582  0.353696  1
  Rh  Rh19  1  0.809418  0.190582  0.353696  1
