# generated using pymatgen
data_HoScCo3P7Ru9
_symmetry_space_group_name_H-M   'P 1'
_cell_length_a   9.29871600
_cell_length_b   9.29871662
_cell_length_c   3.80368300
_cell_angle_alpha   90.00000000
_cell_angle_beta   90.00000000
_cell_angle_gamma   119.99999778
_symmetry_Int_Tables_number   1
_chemical_formula_structural   HoScCo3P7Ru9
_chemical_formula_sum   'Ho1 Sc1 Co3 P7 Ru9'
_cell_volume   284.82686757
_cell_formula_units_Z   1
loop_
 _symmetry_equiv_pos_site_id
 _symmetry_equiv_pos_as_xyz
  1  'x, y, z'
loop_
 _atom_site_type_symbol
 _atom_site_label
 _atom_site_symmetry_multiplicity
 _atom_site_fract_x
 _atom_site_fract_y
 _atom_site_fract_z
 _atom_site_occupancy
  Ho  Ho0  1  0.333333  0.666667  0.000000  1
  Sc  Sc1  1  0.666667  0.333333  0.500000  1
  Co  Co2  1  0.729007  0.888235  0.000000  1
  Co  Co3  1  0.111765  0.840770  0.000000  1
  Co  Co4  1  0.159230  0.270993  0.000000  1
  P  P5  1  0.599419  0.716120  0.500000  1
  P  P6  1  0.000000  0.000000  0.000000  1
  P  P7  1  0.283880  0.883299  0.500000  1
  P  P8  1  0.116701  0.400581  0.500000  1
  P  P9  1  0.887586  0.584986  0.000000  1
  P  P10  1  0.415014  0.302600  0.000000  1
  P  P11  1  0.697400  0.112414  0.000000  1
  Ru  Ru12  1  0.563918  0.948984  0.500000  1
  Ru  Ru13  1  0.385067  0.436082  0.500000  1
  Ru  Ru14  1  0.914654  0.120168  0.500000  1
  Ru  Ru15  1  0.205514  0.085346  0.500000  1
  Ru  Ru16  1  0.879832  0.794486  0.500000  1
  Ru  Ru17  1  0.427705  0.065666  0.000000  1
  Ru  Ru18  1  0.934334  0.362040  0.000000  1
  Ru  Ru19  1  0.637960  0.572295  0.000000  1
  Ru  Ru20  1  0.051016  0.614933  0.500000  1
