# generated using pymatgen
data_Pr3(GaIr)2
_symmetry_space_group_name_H-M   'P 1'
_cell_length_a   5.80439400
_cell_length_b   8.19957900
_cell_length_c   13.67217900
_cell_angle_alpha   90.00000000
_cell_angle_beta   90.00000000
_cell_angle_gamma   90.00000000
_symmetry_Int_Tables_number   1
_chemical_formula_structural   Pr3(GaIr)2
_chemical_formula_sum   'Pr12 Ga8 Ir8'
_cell_volume   650.70804277
_cell_formula_units_Z   4
loop_
 _symmetry_equiv_pos_site_id
 _symmetry_equiv_pos_as_xyz
  1  'x, y, z'
loop_
 _atom_site_type_symbol
 _atom_site_label
 _atom_site_symmetry_multiplicity
 _atom_site_fract_x
 _atom_site_fract_y
 _atom_site_fract_z
 _atom_site_occupancy
  Pr  Pr0  1  0.144803  0.894839  0.599175  1
  Pr  Pr1  1  0.855197  0.105161  0.099175  1
  Pr  Pr2  1  0.144803  0.605161  0.400825  1
  Pr  Pr3  1  0.855197  0.394839  0.900825  1
  Pr  Pr4  1  0.855197  0.105161  0.400825  1
  Pr  Pr5  1  0.144803  0.894839  0.900825  1
  Pr  Pr6  1  0.855197  0.394839  0.599175  1
  Pr  Pr7  1  0.144803  0.605161  0.099175  1
  Pr  Pr8  1  0.372675  0.251521  0.750000  1
  Pr  Pr9  1  0.627325  0.748479  0.250000  1
  Pr  Pr10  1  0.372675  0.248479  0.250000  1
  Pr  Pr11  1  0.627325  0.751521  0.750000  1
  Ga  Ga12  1  0.866025  0.102224  0.750000  1
  Ga  Ga13  1  0.133975  0.897776  0.250000  1
  Ga  Ga14  1  0.866025  0.397776  0.250000  1
  Ga  Ga15  1  0.133975  0.602224  0.750000  1
  Ga  Ga16  1  0.379301  0.250000  0.500000  1
  Ga  Ga17  1  0.620699  0.750000  0.000000  1
  Ga  Ga18  1  0.620699  0.750000  0.500000  1
  Ga  Ga19  1  0.379301  0.250000  0.000000  1
  Ir  Ir20  1  0.644388  0.030444  0.591797  1
  Ir  Ir21  1  0.355612  0.969556  0.091797  1
  Ir  Ir22  1  0.644388  0.469556  0.408203  1
  Ir  Ir23  1  0.355612  0.530444  0.908203  1
  Ir  Ir24  1  0.355612  0.969556  0.408203  1
  Ir  Ir25  1  0.644388  0.030444  0.908203  1
  Ir  Ir26  1  0.355612  0.530444  0.591797  1
  Ir  Ir27  1  0.644388  0.469556  0.091797  1
