# generated using pymatgen
data_TbNd2PaPt4
_symmetry_space_group_name_H-M   'P 1'
_cell_length_a   4.59743700
_cell_length_b   5.69379460
_cell_length_c   7.17432814
_cell_angle_alpha   91.40794169
_cell_angle_beta   90.00000000
_cell_angle_gamma   90.00000000
_symmetry_Int_Tables_number   1
_chemical_formula_structural   TbNd2PaPt4
_chemical_formula_sum   'Tb1 Nd2 Pa1 Pt4'
_cell_volume   187.74469908
_cell_formula_units_Z   1
loop_
 _symmetry_equiv_pos_site_id
 _symmetry_equiv_pos_as_xyz
  1  'x, y, z'
loop_
 _atom_site_type_symbol
 _atom_site_label
 _atom_site_symmetry_multiplicity
 _atom_site_fract_x
 _atom_site_fract_y
 _atom_site_fract_z
 _atom_site_occupancy
  Tb  Tb0  1  0.750000  0.854238  0.818298  1
  Nd  Nd1  1  0.250000  0.141384  0.184328  1
  Nd  Nd2  1  0.750000  0.645195  0.317192  1
  Pa  Pa3  1  0.250000  0.356560  0.683361  1
  Pt  Pt4  1  0.250000  0.840081  0.562746  1
  Pt  Pt5  1  0.250000  0.648399  0.024249  1
  Pt  Pt6  1  0.750000  0.171406  0.477809  1
  Pt  Pt7  1  0.750000  0.342736  0.932016  1
