# generated using pymatgen
data_DyTmB6Os
_symmetry_space_group_name_H-M   'P 1'
_cell_length_a   3.63402900
_cell_length_b   9.10955400
_cell_length_c   11.50068900
_cell_angle_alpha   90.00000000
_cell_angle_beta   90.00000000
_cell_angle_gamma   90.00000000
_symmetry_Int_Tables_number   1
_chemical_formula_structural   DyTmB6Os
_chemical_formula_sum   'Dy4 Tm4 B24 Os4'
_cell_volume   380.72321817
_cell_formula_units_Z   4
loop_
 _symmetry_equiv_pos_site_id
 _symmetry_equiv_pos_as_xyz
  1  'x, y, z'
loop_
 _atom_site_type_symbol
 _atom_site_label
 _atom_site_symmetry_multiplicity
 _atom_site_fract_x
 _atom_site_fract_y
 _atom_site_fract_z
 _atom_site_occupancy
  Dy  Dy0  1  0.000000  0.322097  0.413781  1
  Dy  Dy1  1  0.000000  0.677903  0.586219  1
  Dy  Dy2  1  0.000000  0.822097  0.086219  1
  Dy  Dy3  1  0.000000  0.177903  0.913781  1
  Tm  Tm4  1  0.000000  0.944246  0.373170  1
  Tm  Tm5  1  0.000000  0.055754  0.626831  1
  Tm  Tm6  1  0.000000  0.444246  0.126830  1
  Tm  Tm7  1  0.000000  0.555754  0.873169  1
  B  B8  1  0.500000  0.554107  0.432907  1
  B  B9  1  0.500000  0.445893  0.567093  1
  B  B10  1  0.500000  0.054107  0.067093  1
  B  B11  1  0.500000  0.945893  0.932907  1
  B  B12  1  0.500000  0.748934  0.419825  1
  B  B13  1  0.500000  0.251066  0.580175  1
  B  B14  1  0.500000  0.248934  0.080175  1
  B  B15  1  0.500000  0.751066  0.919825  1
  B  B16  1  0.500000  0.791805  0.266580  1
  B  B17  1  0.500000  0.208195  0.733420  1
  B  B18  1  0.500000  0.291804  0.233420  1
  B  B19  1  0.500000  0.708195  0.766580  1
  B  B20  1  0.500000  0.631469  0.185067  1
  B  B21  1  0.500000  0.368531  0.814933  1
  B  B22  1  0.500000  0.131469  0.314933  1
  B  B23  1  0.500000  0.868531  0.685067  1
  B  B24  1  0.500000  0.983049  0.213536  1
  B  B25  1  0.500000  0.016951  0.786464  1
  B  B26  1  0.500000  0.483049  0.286464  1
  B  B27  1  0.500000  0.516951  0.713536  1
  B  B28  1  0.500000  0.605843  0.029320  1
  B  B29  1  0.500000  0.394157  0.970680  1
  B  B30  1  0.500000  0.105843  0.470680  1
  B  B31  1  0.500000  0.894157  0.529320  1
  Os  Os32  1  0.000000  0.637996  0.320791  1
  Os  Os33  1  0.000000  0.362004  0.679209  1
  Os  Os34  1  0.000000  0.137996  0.179209  1
  Os  Os35  1  0.000000  0.862004  0.820791  1
