# generated using pymatgen
data_LaTm4Th3(ReB6)4
_symmetry_space_group_name_H-M   'P 1'
_cell_length_a   3.74902500
_cell_length_b   9.23528993
_cell_length_c   11.68598802
_cell_angle_alpha   89.92379683
_cell_angle_beta   90.00000000
_cell_angle_gamma   90.00000000
_symmetry_Int_Tables_number   1
_chemical_formula_structural   LaTm4Th3(ReB6)4
_chemical_formula_sum   'La1 Tm4 Th3 Re4 B24'
_cell_volume   404.60749492
_cell_formula_units_Z   1
loop_
 _symmetry_equiv_pos_site_id
 _symmetry_equiv_pos_as_xyz
  1  'x, y, z'
loop_
 _atom_site_type_symbol
 _atom_site_label
 _atom_site_symmetry_multiplicity
 _atom_site_fract_x
 _atom_site_fract_y
 _atom_site_fract_z
 _atom_site_occupancy
  La  La0  1  0.000000  0.322382  0.413917  1
  Tm  Tm1  1  0.000000  0.944552  0.370997  1
  Tm  Tm2  1  0.000000  0.056667  0.628419  1
  Tm  Tm3  1  0.000000  0.444280  0.128294  1
  Tm  Tm4  1  0.000000  0.554939  0.873127  1
  Th  Th5  1  0.000000  0.676213  0.585469  1
  Th  Th6  1  0.000000  0.821640  0.085435  1
  Th  Th7  1  0.000000  0.178513  0.914825  1
  Re  Re8  1  0.000000  0.642123  0.318705  1
  Re  Re9  1  0.000000  0.359982  0.682534  1
  Re  Re10  1  0.000000  0.137967  0.179215  1
  Re  Re11  1  0.000000  0.860441  0.818975  1
  B  B12  1  0.500000  0.557805  0.429313  1
  B  B13  1  0.500000  0.443931  0.571651  1
  B  B14  1  0.500000  0.055830  0.070068  1
  B  B15  1  0.500000  0.943300  0.928820  1
  B  B16  1  0.500000  0.750984  0.416084  1
  B  B17  1  0.500000  0.250018  0.585261  1
  B  B18  1  0.500000  0.250542  0.083424  1
  B  B19  1  0.500000  0.748978  0.916242  1
  B  B20  1  0.500000  0.792061  0.266005  1
  B  B21  1  0.500000  0.208613  0.734525  1
  B  B22  1  0.500000  0.291111  0.232766  1
  B  B23  1  0.500000  0.708217  0.766490  1
  B  B24  1  0.500000  0.630653  0.185676  1
  B  B25  1  0.500000  0.369871  0.815020  1
  B  B26  1  0.500000  0.129339  0.313049  1
  B  B27  1  0.500000  0.869850  0.685689  1
  B  B28  1  0.500000  0.984401  0.213454  1
  B  B29  1  0.500000  0.015021  0.785682  1
  B  B30  1  0.500000  0.485919  0.285144  1
  B  B31  1  0.500000  0.515081  0.714960  1
  B  B32  1  0.500000  0.601686  0.027697  1
  B  B33  1  0.500000  0.398338  0.972861  1
  B  B34  1  0.500000  0.097177  0.473136  1
  B  B35  1  0.500000  0.901575  0.527072  1
