# generated using pymatgen
data_Tb2CeU(Al3Ir)6
_symmetry_space_group_name_H-M   'P 1'
_cell_length_a   7.57036100
_cell_length_b   7.58287610
_cell_length_c   9.41756500
_cell_angle_alpha   90.00000000
_cell_angle_beta   90.00000000
_cell_angle_gamma   119.51195458
_symmetry_Int_Tables_number   1
_chemical_formula_structural   Tb2CeU(Al3Ir)6
_chemical_formula_sum   'Tb2 Ce1 U1 Al18 Ir6'
_cell_volume   470.47296531
_cell_formula_units_Z   1
loop_
 _symmetry_equiv_pos_site_id
 _symmetry_equiv_pos_as_xyz
  1  'x, y, z'
loop_
 _atom_site_type_symbol
 _atom_site_label
 _atom_site_symmetry_multiplicity
 _atom_site_fract_x
 _atom_site_fract_y
 _atom_site_fract_z
 _atom_site_occupancy
  Tb  Tb0  1  0.005504  0.328224  0.250000  1
  Tb  Tb1  1  0.671004  0.994428  0.750000  1
  Ce  Ce2  1  0.997007  0.671079  0.750000  1
  U  U3  1  0.327325  0.002350  0.250000  1
  Al  Al4  1  0.128831  0.129430  0.750000  1
  Al  Al5  1  0.869412  0.869902  0.250000  1
  Al  Al6  1  0.000592  0.333368  0.575001  1
  Al  Al7  1  0.996411  0.661784  0.422264  1
  Al  Al8  1  0.996411  0.661784  0.077736  1
  Al  Al9  1  0.337491  0.003347  0.925406  1
  Al  Al10  1  0.000592  0.333368  0.924999  1
  Al  Al11  1  0.666012  0.999928  0.076043  1
  Al  Al12  1  0.666012  0.999928  0.423957  1
  Al  Al13  1  0.337491  0.003347  0.574594  1
  Al  Al14  1  0.333806  0.335460  0.053194  1
  Al  Al15  1  0.665867  0.667258  0.948093  1
  Al  Al16  1  0.665867  0.667258  0.551907  1
  Al  Al17  1  0.333806  0.335460  0.446806  1
  Al  Al18  1  0.341433  0.548408  0.750000  1
  Al  Al19  1  0.656677  0.450096  0.250000  1
  Al  Al20  1  0.548964  0.340523  0.750000  1
  Al  Al21  1  0.451670  0.660845  0.250000  1
  Ir  Ir22  1  0.671357  0.327900  0.498932  1
  Ir  Ir23  1  0.327415  0.672875  0.498973  1
  Ir  Ir24  1  0.327415  0.672875  0.001027  1
  Ir  Ir25  1  0.671357  0.327900  0.001068  1
  Ir  Ir26  1  0.002134  0.000440  0.497983  1
  Ir  Ir27  1  0.002134  0.000440  0.002017  1
