# generated using pymatgen
data_CaTbUAs3
_symmetry_space_group_name_H-M   'P 1'
_cell_length_a   7.20897533
_cell_length_b   7.20897475
_cell_length_c   7.20897384
_cell_angle_alpha   146.36719341
_cell_angle_beta   132.19382931
_cell_angle_gamma   59.71875753
_symmetry_Int_Tables_number   1
_chemical_formula_structural   CaTbUAs3
_chemical_formula_sum   'Ca1 Tb1 U1 As3'
_cell_volume   152.34969478
_cell_formula_units_Z   1
loop_
 _symmetry_equiv_pos_site_id
 _symmetry_equiv_pos_as_xyz
  1  'x, y, z'
loop_
 _atom_site_type_symbol
 _atom_site_label
 _atom_site_symmetry_multiplicity
 _atom_site_fract_x
 _atom_site_fract_y
 _atom_site_fract_z
 _atom_site_occupancy
  Ca  Ca0  1  0.667673  0.667673  0.000000  1
  Tb  Tb1  1  0.331623  0.331623  0.000000  1
  U  U2  1  0.001502  0.001502  0.000000  1
  As  As3  1  0.493789  0.993789  0.500000  1
  As  As4  1  0.160185  0.660185  0.500000  1
  As  As5  1  0.845229  0.345229  0.500000  1
