# generated using pymatgen
data_Nb12Ga8FeCu2RuN4
_symmetry_space_group_name_H-M   'P 1'
_cell_length_a   8.26038224
_cell_length_b   8.26038222
_cell_length_c   8.26038300
_cell_angle_alpha   59.54842444
_cell_angle_beta   59.54842451
_cell_angle_gamma   59.54842081
_symmetry_Int_Tables_number   1
_chemical_formula_structural   Nb12Ga8FeCu2RuN4
_chemical_formula_sum   'Nb12 Ga8 Fe1 Cu2 Ru1 N4'
_cell_volume   394.46048563
_cell_formula_units_Z   1
loop_
 _symmetry_equiv_pos_site_id
 _symmetry_equiv_pos_as_xyz
  1  'x, y, z'
loop_
 _atom_site_type_symbol
 _atom_site_label
 _atom_site_symmetry_multiplicity
 _atom_site_fract_x
 _atom_site_fract_y
 _atom_site_fract_z
 _atom_site_occupancy
  Nb  Nb0  1  0.807265  0.807888  0.192551  1
  Nb  Nb1  1  0.191488  0.189786  0.809384  1
  Nb  Nb2  1  0.807265  0.192551  0.807888  1
  Nb  Nb3  1  0.191488  0.809384  0.189786  1
  Nb  Nb4  1  0.191477  0.810451  0.810451  1
  Nb  Nb5  1  0.807187  0.192551  0.192551  1
  Nb  Nb6  1  0.442735  0.442112  0.057449  1
  Nb  Nb7  1  0.058512  0.060214  0.440616  1
  Nb  Nb8  1  0.442735  0.057449  0.442112  1
  Nb  Nb9  1  0.058512  0.440616  0.060214  1
  Nb  Nb10  1  0.058523  0.439549  0.439549  1
  Nb  Nb11  1  0.442813  0.057449  0.057449  1
  Ga  Ga12  1  0.754424  0.416225  0.416225  1
  Ga  Ga13  1  0.418974  0.755405  0.414840  1
  Ga  Ga14  1  0.418974  0.414840  0.755405  1
  Ga  Ga15  1  0.416914  0.412263  0.412263  1
  Ga  Ga16  1  0.495576  0.833775  0.833775  1
  Ga  Ga17  1  0.831026  0.494595  0.835160  1
  Ga  Ga18  1  0.831026  0.835160  0.494595  1
  Ga  Ga19  1  0.833086  0.837737  0.837737  1
  Fe  Fe20  1  0.625000  0.625000  0.625000  1
  Cu  Cu21  1  0.625000  0.125000  0.625000  1
  Cu  Cu22  1  0.625000  0.625000  0.125000  1
  Ru  Ru23  1  0.125000  0.625000  0.625000  1
  N  N24  1  0.625000  0.125000  0.125000  1
  N  N25  1  0.125000  0.625000  0.125000  1
  N  N26  1  0.125000  0.125000  0.625000  1
  N  N27  1  0.125000  0.125000  0.125000  1
