# generated using pymatgen
data_Sr2CaRhO6
_symmetry_space_group_name_H-M   'P 1'
_cell_length_a   5.93080300
_cell_length_b   5.80714046
_cell_length_c   10.04069141
_cell_angle_alpha   55.23463640
_cell_angle_beta   90.00000000
_cell_angle_gamma   90.00000000
_symmetry_Int_Tables_number   1
_chemical_formula_structural   Sr2CaRhO6
_chemical_formula_sum   'Sr4 Ca2 Rh2 O12'
_cell_volume   284.08210651
_cell_formula_units_Z   2
loop_
 _symmetry_equiv_pos_site_id
 _symmetry_equiv_pos_as_xyz
  1  'x, y, z'
loop_
 _atom_site_type_symbol
 _atom_site_label
 _atom_site_symmetry_multiplicity
 _atom_site_fract_x
 _atom_site_fract_y
 _atom_site_fract_z
 _atom_site_occupancy
  Sr  Sr0  1  0.547774  0.739304  0.749735  1
  Sr  Sr1  1  0.047774  0.260696  0.750265  1
  Sr  Sr2  1  0.952226  0.739304  0.249735  1
  Sr  Sr3  1  0.452226  0.260696  0.250265  1
  Ca  Ca4  1  0.000000  0.000000  0.500000  1
  Ca  Ca5  1  0.500000  0.000000  0.000000  1
  Rh  Rh6  1  0.000000  0.500000  0.000000  1
  Rh  Rh7  1  0.500000  0.500000  0.500000  1
  O  O8  1  0.526463  0.812330  0.271111  1
  O  O9  1  0.026463  0.187670  0.228889  1
  O  O10  1  0.473537  0.187670  0.728889  1
  O  O11  1  0.973537  0.812330  0.771111  1
  O  O12  1  0.770960  0.638809  0.548353  1
  O  O13  1  0.270960  0.361191  0.951647  1
  O  O14  1  0.229040  0.361191  0.451647  1
  O  O15  1  0.729040  0.638809  0.048353  1
  O  O16  1  0.190893  0.728847  0.041491  1
  O  O17  1  0.690893  0.271153  0.458509  1
  O  O18  1  0.809107  0.271153  0.958509  1
  O  O19  1  0.309107  0.728847  0.541491  1
