# generated using pymatgen
data_LuSc2NbRu4
_symmetry_space_group_name_H-M   'P 1'
_cell_length_a   6.46042200
_cell_length_b   4.56086400
_cell_length_c   9.16353000
_cell_angle_alpha   90.00000000
_cell_angle_beta   89.99787906
_cell_angle_gamma   90.00000000
_symmetry_Int_Tables_number   1
_chemical_formula_structural   LuSc2NbRu4
_chemical_formula_sum   'Lu2 Sc4 Nb2 Ru8'
_cell_volume   270.00438383
_cell_formula_units_Z   2
loop_
 _symmetry_equiv_pos_site_id
 _symmetry_equiv_pos_as_xyz
  1  'x, y, z'
loop_
 _atom_site_type_symbol
 _atom_site_label
 _atom_site_symmetry_multiplicity
 _atom_site_fract_x
 _atom_site_fract_y
 _atom_site_fract_z
 _atom_site_occupancy
  Lu  Lu0  1  0.250036  0.250001  0.124447  1
  Lu  Lu1  1  0.750020  0.750000  0.375548  1
  Sc  Sc2  1  0.750031  0.250001  0.124008  1
  Sc  Sc3  1  0.250037  0.750000  0.375986  1
  Sc  Sc4  1  0.749977  0.250001  0.625669  1
  Sc  Sc5  1  0.249951  0.750000  0.874334  1
  Nb  Nb6  1  0.249980  0.250001  0.623328  1
  Nb  Nb7  1  0.749946  0.750000  0.876670  1
  Ru  Ru8  1  0.506930  0.750000  0.116177  1
  Ru  Ru9  1  0.993109  0.750000  0.116189  1
  Ru  Ru10  1  0.493112  0.250001  0.383812  1
  Ru  Ru11  1  0.006916  0.250001  0.383821  1
  Ru  Ru12  1  0.006642  0.750000  0.633348  1
  Ru  Ru13  1  0.493351  0.750000  0.633350  1
  Ru  Ru14  1  0.993324  0.250001  0.866663  1
  Ru  Ru15  1  0.506636  0.250001  0.866652  1
