# generated using pymatgen
data_LiLa7Nd9Cd3Ir4
_symmetry_space_group_name_H-M   'P 1'
_cell_length_a   10.05059477
_cell_length_b   10.04900632
_cell_length_c   10.07605152
_cell_angle_alpha   59.68100951
_cell_angle_beta   60.05395769
_cell_angle_gamma   60.18153065
_symmetry_Int_Tables_number   1
_chemical_formula_structural   LiLa7Nd9Cd3Ir4
_chemical_formula_sum   'Li1 La7 Nd9 Cd3 Ir4'
_cell_volume   719.11473115
_cell_formula_units_Z   1
loop_
 _symmetry_equiv_pos_site_id
 _symmetry_equiv_pos_as_xyz
  1  'x, y, z'
loop_
 _atom_site_type_symbol
 _atom_site_label
 _atom_site_symmetry_multiplicity
 _atom_site_fract_x
 _atom_site_fract_y
 _atom_site_fract_z
 _atom_site_occupancy
  Li  Li0  1  0.571709  0.570624  0.570517  1
  La  La1  1  0.348071  0.347392  0.349340  1
  La  La2  1  0.348255  0.346560  0.957657  1
  La  La3  1  0.348712  0.957507  0.347111  1
  La  La4  1  0.957750  0.348203  0.348301  1
  La  La5  1  0.810522  0.190576  0.189352  1
  La  La6  1  0.185391  0.813882  0.812197  1
  La  La7  1  0.190452  0.810751  0.190667  1
  Nd  Nd8  1  0.811445  0.187020  0.811699  1
  Nd  Nd9  1  0.191342  0.192796  0.808533  1
  Nd  Nd10  1  0.809654  0.811630  0.187365  1
  Nd  Nd11  1  0.937277  0.562723  0.563909  1
  Nd  Nd12  1  0.563058  0.937614  0.936462  1
  Nd  Nd13  1  0.562915  0.937741  0.563130  1
  Nd  Nd14  1  0.936909  0.562591  0.937191  1
  Nd  Nd15  1  0.563618  0.562463  0.937184  1
  Nd  Nd16  1  0.936772  0.937973  0.563031  1
  Cd  Cd17  1  0.581965  0.581820  0.257588  1
  Cd  Cd18  1  0.581067  0.257385  0.582288  1
  Cd  Cd19  1  0.257345  0.580562  0.581946  1
  Ir  Ir20  1  0.140789  0.140827  0.143977  1
  Ir  Ir21  1  0.144213  0.140032  0.576155  1
  Ir  Ir22  1  0.144834  0.577371  0.140504  1
  Ir  Ir23  1  0.575938  0.143955  0.143896  1
