# generated using pymatgen
data_PrEr5Al24(IrOs3)2
_symmetry_space_group_name_H-M   'P 1'
_cell_length_a   8.80819519
_cell_length_b   8.79013337
_cell_length_c   9.59113600
_cell_angle_alpha   90.00000000
_cell_angle_beta   90.00000000
_cell_angle_gamma   119.56723957
_symmetry_Int_Tables_number   1
_chemical_formula_structural   PrEr5Al24(IrOs3)2
_chemical_formula_sum   'Pr1 Er5 Al24 Ir2 Os6'
_cell_volume   645.89283808
_cell_formula_units_Z   1
loop_
 _symmetry_equiv_pos_site_id
 _symmetry_equiv_pos_as_xyz
  1  'x, y, z'
loop_
 _atom_site_type_symbol
 _atom_site_label
 _atom_site_symmetry_multiplicity
 _atom_site_fract_x
 _atom_site_fract_y
 _atom_site_fract_z
 _atom_site_occupancy
  Pr  Pr0  1  0.185155  0.378946  0.250000  1
  Er  Er1  1  0.813168  0.613398  0.750000  1
  Er  Er2  1  0.610788  0.811829  0.250000  1
  Er  Er3  1  0.387855  0.189102  0.750000  1
  Er  Er4  1  0.196342  0.805777  0.250000  1
  Er  Er5  1  0.805908  0.195931  0.750000  1
  Al  Al6  1  0.332738  0.668113  0.021395  1
  Al  Al7  1  0.667395  0.333145  0.973836  1
  Al  Al8  1  0.667395  0.333145  0.526164  1
  Al  Al9  1  0.332738  0.668113  0.478605  1
  Al  Al10  1  0.163458  0.326691  0.579193  1
  Al  Al11  1  0.836761  0.673641  0.425271  1
  Al  Al12  1  0.673933  0.837147  0.576199  1
  Al  Al13  1  0.836761  0.673641  0.074729  1
  Al  Al14  1  0.327912  0.162646  0.426304  1
  Al  Al15  1  0.163458  0.326691  0.920807  1
  Al  Al16  1  0.164538  0.836058  0.574284  1
  Al  Al17  1  0.327912  0.162646  0.073696  1
  Al  Al18  1  0.833003  0.163785  0.427725  1
  Al  Al19  1  0.673933  0.837147  0.923801  1
  Al  Al20  1  0.833003  0.163785  0.072275  1
  Al  Al21  1  0.164538  0.836058  0.925716  1
  Al  Al22  1  0.560964  0.125307  0.250000  1
  Al  Al23  1  0.440244  0.876492  0.750000  1
  Al  Al24  1  0.873796  0.440380  0.250000  1
  Al  Al25  1  0.125051  0.561694  0.750000  1
  Al  Al26  1  0.563619  0.440125  0.250000  1
  Al  Al27  1  0.440821  0.561732  0.750000  1
  Al  Al28  1  0.993368  0.990545  0.250000  1
  Al  Al29  1  0.001305  0.000183  0.750000  1
  Ir  Ir30  1  0.502021  0.501296  0.998666  1
  Ir  Ir31  1  0.502021  0.501296  0.501334  1
  Os  Os32  1  0.500080  0.000572  0.999577  1
  Os  Os33  1  0.998758  0.500766  0.997999  1
  Os  Os34  1  0.500080  0.000572  0.500423  1
  Os  Os35  1  0.998758  0.500766  0.502001  1
  Os  Os36  1  0.000211  0.000420  0.999615  1
  Os  Os37  1  0.000211  0.000420  0.500385  1
