# generated using pymatgen
data_Yb2CuPd5O8
_symmetry_space_group_name_H-M   'P 1'
_cell_length_a   5.75885300
_cell_length_b   5.75820600
_cell_length_c   5.75820600
_cell_angle_alpha   90.00000000
_cell_angle_beta   90.00000000
_cell_angle_gamma   90.00000000
_symmetry_Int_Tables_number   1
_chemical_formula_structural   Yb2CuPd5O8
_chemical_formula_sum   'Yb2 Cu1 Pd5 O8'
_cell_volume   190.94592230
_cell_formula_units_Z   1
loop_
 _symmetry_equiv_pos_site_id
 _symmetry_equiv_pos_as_xyz
  1  'x, y, z'
loop_
 _atom_site_type_symbol
 _atom_site_label
 _atom_site_symmetry_multiplicity
 _atom_site_fract_x
 _atom_site_fract_y
 _atom_site_fract_z
 _atom_site_occupancy
  Yb  Yb0  1  0.497946  0.500000  0.500000  1
  Yb  Yb1  1  0.002054  0.000000  0.000000  1
  Cu  Cu2  1  0.250000  0.500000  0.000000  1
  Pd  Pd3  1  0.496759  0.000000  0.749600  1
  Pd  Pd4  1  0.496759  0.000000  0.250400  1
  Pd  Pd5  1  0.750000  0.500000  0.000000  1
  Pd  Pd6  1  0.003241  0.750400  0.500000  1
  Pd  Pd7  1  0.003241  0.249600  0.500000  1
  O  O8  1  0.750000  0.750166  0.749834  1
  O  O9  1  0.750000  0.249834  0.749834  1
  O  O10  1  0.750000  0.750166  0.250166  1
  O  O11  1  0.750000  0.249834  0.250166  1
  O  O12  1  0.250000  0.744415  0.755585  1
  O  O13  1  0.250000  0.744415  0.244415  1
  O  O14  1  0.250000  0.255585  0.755585  1
  O  O15  1  0.250000  0.255585  0.244415  1
