# generated using pymatgen
data_La7Pr(Sc3Pt4)4
_symmetry_space_group_name_H-M   'P 1'
_cell_length_a   7.62129320
_cell_length_b   7.55426669
_cell_length_c   13.74501100
_cell_angle_alpha   90.02362590
_cell_angle_beta   90.01326150
_cell_angle_gamma   89.99328220
_symmetry_Int_Tables_number   1
_chemical_formula_structural   La7Pr(Sc3Pt4)4
_chemical_formula_sum   'La7 Pr1 Sc12 Pt16'
_cell_volume   791.34529249
_cell_formula_units_Z   1
loop_
 _symmetry_equiv_pos_site_id
 _symmetry_equiv_pos_as_xyz
  1  'x, y, z'
loop_
 _atom_site_type_symbol
 _atom_site_label
 _atom_site_symmetry_multiplicity
 _atom_site_fract_x
 _atom_site_fract_y
 _atom_site_fract_z
 _atom_site_occupancy
  La  La0  1  0.511629  0.326656  0.402653  1
  La  La1  1  0.488749  0.673211  0.902172  1
  La  La2  1  0.488676  0.673177  0.597823  1
  La  La3  1  0.988432  0.827265  0.597373  1
  La  La4  1  0.988546  0.826914  0.902270  1
  La  La5  1  0.511298  0.326632  0.097973  1
  La  La6  1  0.011316  0.173125  0.098174  1
  Pr  Pr7  1  0.010534  0.172434  0.401928  1
  Sc  Sc8  1  0.332071  0.160610  0.625009  1
  Sc  Sc9  1  0.667446  0.840154  0.375006  1
  Sc  Sc10  1  0.664741  0.010968  0.749379  1
  Sc  Sc11  1  0.166687  0.660840  0.374814  1
  Sc  Sc12  1  0.833246  0.339662  0.874425  1
  Sc  Sc13  1  0.834470  0.339004  0.624563  1
  Sc  Sc14  1  0.835516  0.509897  0.250705  1
  Sc  Sc15  1  0.334301  0.989785  0.250627  1
  Sc  Sc16  1  0.333530  0.160502  0.874471  1
  Sc  Sc17  1  0.166814  0.660255  0.125675  1
  Sc  Sc18  1  0.665998  0.838841  0.125900  1
  Sc  Sc19  1  0.165116  0.489550  0.749518  1
  Pt  Pt20  1  0.290124  0.862253  0.750060  1
  Pt  Pt21  1  0.466889  0.638730  0.250418  1
  Pt  Pt22  1  0.033366  0.138803  0.750321  1
  Pt  Pt23  1  0.533904  0.361286  0.749560  1
  Pt  Pt24  1  0.165632  0.449986  0.546092  1
  Pt  Pt25  1  0.966059  0.861187  0.250011  1
  Pt  Pt26  1  0.709174  0.137001  0.250106  1
  Pt  Pt27  1  0.834370  0.550564  0.046636  1
  Pt  Pt28  1  0.334150  0.949373  0.046489  1
  Pt  Pt29  1  0.165358  0.449366  0.953317  1
  Pt  Pt30  1  0.665437  0.050994  0.546070  1
  Pt  Pt31  1  0.334256  0.949819  0.453472  1
  Pt  Pt32  1  0.835066  0.550159  0.453588  1
  Pt  Pt33  1  0.790561  0.637861  0.749880  1
  Pt  Pt34  1  0.210775  0.362549  0.250019  1
  Pt  Pt35  1  0.665762  0.050588  0.953505  1
