# generated using pymatgen
data_Nd2DyHo5(CdIr)2
_symmetry_space_group_name_H-M   'P 1'
_cell_length_a   9.70295994
_cell_length_b   9.67198291
_cell_length_c   9.67212354
_cell_angle_alpha   59.92888990
_cell_angle_beta   59.89477209
_cell_angle_gamma   59.89450237
_symmetry_Int_Tables_number   1
_chemical_formula_structural   Nd2DyHo5(CdIr)2
_chemical_formula_sum   'Nd4 Dy2 Ho10 Cd4 Ir4'
_cell_volume   640.47166852
_cell_formula_units_Z   2
loop_
 _symmetry_equiv_pos_site_id
 _symmetry_equiv_pos_as_xyz
  1  'x, y, z'
loop_
 _atom_site_type_symbol
 _atom_site_label
 _atom_site_symmetry_multiplicity
 _atom_site_fract_x
 _atom_site_fract_y
 _atom_site_fract_z
 _atom_site_occupancy
  Nd  Nd0  1  0.563727  0.936504  0.562199  1
  Nd  Nd1  1  0.937559  0.562210  0.936519  1
  Nd  Nd2  1  0.563709  0.562213  0.936516  1
  Nd  Nd3  1  0.937570  0.936508  0.562196  1
  Dy  Dy4  1  0.946329  0.553670  0.553668  1
  Dy  Dy5  1  0.554369  0.945638  0.945629  1
  Ho  Ho6  1  0.351106  0.347523  0.347516  1
  Ho  Ho7  1  0.345458  0.352311  0.956772  1
  Ho  Ho8  1  0.345452  0.956776  0.352315  1
  Ho  Ho9  1  0.953859  0.347520  0.347514  1
  Ho  Ho10  1  0.813798  0.186202  0.186202  1
  Ho  Ho11  1  0.186337  0.813648  0.813675  1
  Ho  Ho12  1  0.190494  0.811385  0.187058  1
  Ho  Ho13  1  0.811072  0.187048  0.811380  1
  Ho  Ho14  1  0.190503  0.187049  0.811381  1
  Ho  Ho15  1  0.811069  0.811384  0.187055  1
  Cd  Cd16  1  0.582627  0.577886  0.577888  1
  Cd  Cd17  1  0.579200  0.582726  0.258874  1
  Cd  Cd18  1  0.579200  0.258876  0.582723  1
  Cd  Cd19  1  0.261601  0.577884  0.577886  1
  Ir  Ir20  1  0.145012  0.140273  0.140278  1
  Ir  Ir21  1  0.137754  0.148606  0.575884  1
  Ir  Ir22  1  0.137760  0.575883  0.148596  1
  Ir  Ir23  1  0.574434  0.140274  0.140276  1
