# generated using pymatgen
data_Tb2Sn(AsRh2)6
_symmetry_space_group_name_H-M   'P 1'
_cell_length_a   10.06670900
_cell_length_b   10.06670812
_cell_length_c   3.95306800
_cell_angle_alpha   90.00000000
_cell_angle_beta   90.00000000
_cell_angle_gamma   119.99999960
_symmetry_Int_Tables_number   1
_chemical_formula_structural   Tb2Sn(AsRh2)6
_chemical_formula_sum   'Tb2 Sn1 As6 Rh12'
_cell_volume   346.92844515
_cell_formula_units_Z   1
loop_
 _symmetry_equiv_pos_site_id
 _symmetry_equiv_pos_as_xyz
  1  'x, y, z'
loop_
 _atom_site_type_symbol
 _atom_site_label
 _atom_site_symmetry_multiplicity
 _atom_site_fract_x
 _atom_site_fract_y
 _atom_site_fract_z
 _atom_site_occupancy
  Tb  Tb0  1  0.666667  0.333333  0.750646  1
  Tb  Tb1  1  0.333333  0.666667  0.246590  1
  Sn  Sn2  1  0.000000  0.000000  0.620351  1
  As  As3  1  0.288318  0.881964  0.746351  1
  As  As4  1  0.118036  0.406354  0.746351  1
  As  As5  1  0.593646  0.711682  0.746351  1
  As  As6  1  0.710817  0.115782  0.251749  1
  As  As7  1  0.884218  0.595034  0.251749  1
  As  As8  1  0.404966  0.289183  0.251749  1
  Rh  Rh9  1  0.067182  0.618572  0.748899  1
  Rh  Rh10  1  0.381428  0.448610  0.748899  1
  Rh  Rh11  1  0.551390  0.932818  0.748899  1
  Rh  Rh12  1  0.936716  0.386159  0.250998  1
  Rh  Rh13  1  0.613841  0.550557  0.250998  1
  Rh  Rh14  1  0.449443  0.063284  0.250998  1
  Rh  Rh15  1  0.289782  0.126654  0.754263  1
  Rh  Rh16  1  0.873346  0.163128  0.754263  1
  Rh  Rh17  1  0.836872  0.710218  0.754263  1
  Rh  Rh18  1  0.730461  0.880085  0.243086  1
  Rh  Rh19  1  0.119915  0.850376  0.243086  1
  Rh  Rh20  1  0.149624  0.269539  0.243086  1
