# generated using pymatgen
data_Tb5PrHo10(CdPt)4
_symmetry_space_group_name_H-M   'P 1'
_cell_length_a   9.69106296
_cell_length_b   9.69106241
_cell_length_c   9.67703800
_cell_angle_alpha   60.04784611
_cell_angle_beta   60.04784799
_cell_angle_gamma   59.70443235
_symmetry_Int_Tables_number   1
_chemical_formula_structural   Tb5PrHo10(CdPt)4
_chemical_formula_sum   'Tb5 Pr1 Ho10 Cd4 Pt4'
_cell_volume   641.65718812
_cell_formula_units_Z   1
loop_
 _symmetry_equiv_pos_site_id
 _symmetry_equiv_pos_as_xyz
  1  'x, y, z'
loop_
 _atom_site_type_symbol
 _atom_site_label
 _atom_site_symmetry_multiplicity
 _atom_site_fract_x
 _atom_site_fract_y
 _atom_site_fract_z
 _atom_site_occupancy
  Tb  Tb0  1  0.936863  0.560618  0.564201  1
  Tb  Tb1  1  0.560618  0.936863  0.938318  1
  Tb  Tb2  1  0.560618  0.936863  0.564201  1
  Tb  Tb3  1  0.936863  0.560618  0.938318  1
  Tb  Tb4  1  0.565020  0.565020  0.934980  1
  Pr  Pr5  1  0.935356  0.935356  0.564644  1
  Ho  Ho6  1  0.351760  0.351760  0.349535  1
  Ho  Ho7  1  0.351760  0.351760  0.946947  1
  Ho  Ho8  1  0.354453  0.942784  0.351382  1
  Ho  Ho9  1  0.942784  0.354453  0.351382  1
  Ho  Ho10  1  0.811179  0.190452  0.187472  1
  Ho  Ho11  1  0.190452  0.811179  0.810898  1
  Ho  Ho12  1  0.190452  0.811179  0.187472  1
  Ho  Ho13  1  0.811179  0.190452  0.810898  1
  Ho  Ho14  1  0.189708  0.189708  0.810292  1
  Ho  Ho15  1  0.811929  0.811929  0.188071  1
  Cd  Cd16  1  0.581300  0.581300  0.581342  1
  Cd  Cd17  1  0.581300  0.581300  0.256058  1
  Cd  Cd18  1  0.577884  0.257423  0.582346  1
  Cd  Cd19  1  0.257423  0.577884  0.582346  1
  Pt  Pt20  1  0.143972  0.143972  0.142570  1
  Pt  Pt21  1  0.143972  0.143972  0.569486  1
  Pt  Pt22  1  0.141904  0.571253  0.143422  1
  Pt  Pt23  1  0.571253  0.141904  0.143422  1
