# generated using pymatgen
data_Ca20Cd3HgPd8
_symmetry_space_group_name_H-M   'P 1'
_cell_length_a   7.86180000
_cell_length_b   7.86180000
_cell_length_c   14.85534600
_cell_angle_alpha   90.00000000
_cell_angle_beta   90.00000000
_cell_angle_gamma   90.00000000
_symmetry_Int_Tables_number   1
_chemical_formula_structural   Ca20Cd3HgPd8
_chemical_formula_sum   'Ca20 Cd3 Hg1 Pd8'
_cell_volume   918.17772874
_cell_formula_units_Z   1
loop_
 _symmetry_equiv_pos_site_id
 _symmetry_equiv_pos_as_xyz
  1  'x, y, z'
loop_
 _atom_site_type_symbol
 _atom_site_label
 _atom_site_symmetry_multiplicity
 _atom_site_fract_x
 _atom_site_fract_y
 _atom_site_fract_z
 _atom_site_occupancy
  Ca  Ca0  1  0.669826  0.162746  0.113239  1
  Ca  Ca1  1  0.166727  0.665545  0.616339  1
  Ca  Ca2  1  0.330174  0.837254  0.113239  1
  Ca  Ca3  1  0.833273  0.334455  0.616339  1
  Ca  Ca4  1  0.837254  0.669826  0.113239  1
  Ca  Ca5  1  0.334455  0.166727  0.616339  1
  Ca  Ca6  1  0.162746  0.330174  0.113239  1
  Ca  Ca7  1  0.665545  0.833273  0.616339  1
  Ca  Ca8  1  0.837254  0.330174  0.886761  1
  Ca  Ca9  1  0.334455  0.833273  0.383661  1
  Ca  Ca10  1  0.162746  0.669826  0.886761  1
  Ca  Ca11  1  0.665545  0.166727  0.383661  1
  Ca  Ca12  1  0.669826  0.837254  0.886761  1
  Ca  Ca13  1  0.166727  0.334455  0.383661  1
  Ca  Ca14  1  0.330174  0.162746  0.886761  1
  Ca  Ca15  1  0.833273  0.665545  0.383661  1
  Ca  Ca16  1  0.500000  0.500000  0.753866  1
  Ca  Ca17  1  0.000000  0.000000  0.250333  1
  Ca  Ca18  1  0.000000  0.000000  0.749667  1
  Ca  Ca19  1  0.500000  0.500000  0.246134  1
  Cd  Cd20  1  0.500000  0.500000  0.500000  1
  Cd  Cd21  1  0.500000  0.500000  0.000000  1
  Cd  Cd22  1  0.000000  0.000000  0.500000  1
  Hg  Hg23  1  0.000000  0.000000  0.000000  1
  Pd  Pd24  1  0.628790  0.128709  0.751412  1
  Pd  Pd25  1  0.128709  0.628790  0.248588  1
  Pd  Pd26  1  0.871291  0.371210  0.248588  1
  Pd  Pd27  1  0.371210  0.871291  0.751412  1
  Pd  Pd28  1  0.871291  0.628790  0.751412  1
  Pd  Pd29  1  0.371210  0.128709  0.248588  1
  Pd  Pd30  1  0.128709  0.371210  0.751412  1
  Pd  Pd31  1  0.628790  0.871291  0.248588  1
