# generated using pymatgen
data_SrAc2(MgIn)3
_symmetry_space_group_name_H-M   'P 1'
_cell_length_a   7.98059876
_cell_length_b   7.98059827
_cell_length_c   5.03402600
_cell_angle_alpha   90.00000000
_cell_angle_beta   90.00000000
_cell_angle_gamma   119.48532565
_symmetry_Int_Tables_number   1
_chemical_formula_structural   SrAc2(MgIn)3
_chemical_formula_sum   'Sr1 Ac2 Mg3 In3'
_cell_volume   279.09115209
_cell_formula_units_Z   1
loop_
 _symmetry_equiv_pos_site_id
 _symmetry_equiv_pos_as_xyz
  1  'x, y, z'
loop_
 _atom_site_type_symbol
 _atom_site_label
 _atom_site_symmetry_multiplicity
 _atom_site_fract_x
 _atom_site_fract_y
 _atom_site_fract_z
 _atom_site_occupancy
  Sr  Sr0  1  0.427977  0.427977  0.000000  1
  Ac  Ac1  1  0.571009  0.997642  0.000000  1
  Ac  Ac2  1  0.997642  0.571009  0.000000  1
  Mg  Mg3  1  0.237056  0.999284  0.500000  1
  Mg  Mg4  1  0.999284  0.237056  0.500000  1
  Mg  Mg5  1  0.763784  0.763784  0.500000  1
  In  In6  1  0.333658  0.664367  0.500000  1
  In  In7  1  0.664367  0.333658  0.500000  1
  In  In8  1  0.005224  0.005224  0.000000  1
