# generated using pymatgen
data_Sr8Yb9Th3Pt16
_symmetry_space_group_name_H-M   'P 1'
_cell_length_a   7.74847845
_cell_length_b   7.86834501
_cell_length_c   15.01905855
_cell_angle_alpha   90.00098563
_cell_angle_beta   89.80226071
_cell_angle_gamma   89.99562705
_symmetry_Int_Tables_number   1
_chemical_formula_structural   Sr8Yb9Th3Pt16
_chemical_formula_sum   'Sr8 Yb9 Th3 Pt16'
_cell_volume   915.67202515
_cell_formula_units_Z   1
loop_
 _symmetry_equiv_pos_site_id
 _symmetry_equiv_pos_as_xyz
  1  'x, y, z'
loop_
 _atom_site_type_symbol
 _atom_site_label
 _atom_site_symmetry_multiplicity
 _atom_site_fract_x
 _atom_site_fract_y
 _atom_site_fract_z
 _atom_site_occupancy
  Sr  Sr0  1  0.502235  0.326257  0.906216  1
  Sr  Sr1  1  0.003367  0.174095  0.595340  1
  Sr  Sr2  1  0.496484  0.673816  0.402059  1
  Sr  Sr3  1  0.998527  0.823183  0.096158  1
  Sr  Sr4  1  0.500689  0.673242  0.099753  1
  Sr  Sr5  1  0.006142  0.820338  0.399106  1
  Sr  Sr6  1  0.495687  0.318884  0.598993  1
  Sr  Sr7  1  0.996943  0.183249  0.906226  1
  Yb  Yb8  1  0.159685  0.336003  0.123479  1
  Yb  Yb9  1  0.662015  0.167448  0.122039  1
  Yb  Yb10  1  0.160087  0.335018  0.376199  1
  Yb  Yb11  1  0.340068  0.833652  0.622829  1
  Yb  Yb12  1  0.837783  0.666802  0.877736  1
  Yb  Yb13  1  0.180422  0.490137  0.751388  1
  Yb  Yb14  1  0.680722  0.010131  0.751200  1
  Yb  Yb15  1  0.827475  0.506190  0.246007  1
  Yb  Yb16  1  0.316669  0.994341  0.246603  1
  Th  Th17  1  0.337919  0.836980  0.877523  1
  Th  Th18  1  0.839815  0.662511  0.624272  1
  Th  Th19  1  0.659951  0.163782  0.374880  1
  Pt  Pt20  1  0.327254  0.034383  0.040114  1
  Pt  Pt21  1  0.823192  0.453376  0.458550  1
  Pt  Pt22  1  0.678479  0.952677  0.542141  1
  Pt  Pt23  1  0.169925  0.551369  0.955709  1
  Pt  Pt24  1  0.658030  0.958730  0.953657  1
  Pt  Pt25  1  0.154544  0.542942  0.545996  1
  Pt  Pt26  1  0.346212  0.044754  0.454085  1
  Pt  Pt27  1  0.841635  0.462969  0.042748  1
  Pt  Pt28  1  0.542226  0.636857  0.752504  1
  Pt  Pt29  1  0.042497  0.864249  0.746472  1
  Pt  Pt30  1  0.458822  0.365234  0.254388  1
  Pt  Pt31  1  0.950594  0.136041  0.253118  1
  Pt  Pt32  1  0.304946  0.118555  0.755698  1
  Pt  Pt33  1  0.806637  0.381168  0.745413  1
  Pt  Pt34  1  0.691453  0.878852  0.252525  1
  Pt  Pt35  1  0.200868  0.621784  0.248872  1
