# generated using pymatgen
data_Lu16Cd4Ru3Pt
_symmetry_space_group_name_H-M   'P 1'
_cell_length_a   9.47966277
_cell_length_b   9.41377008
_cell_length_c   9.47966200
_cell_angle_alpha   59.76818619
_cell_angle_beta   60.00000269
_cell_angle_gamma   59.76818529
_symmetry_Int_Tables_number   1
_chemical_formula_structural   Lu16Cd4Ru3Pt
_chemical_formula_sum   'Lu16 Cd4 Ru3 Pt1'
_cell_volume   596.07884207
_cell_formula_units_Z   1
loop_
 _symmetry_equiv_pos_site_id
 _symmetry_equiv_pos_as_xyz
  1  'x, y, z'
loop_
 _atom_site_type_symbol
 _atom_site_label
 _atom_site_symmetry_multiplicity
 _atom_site_fract_x
 _atom_site_fract_y
 _atom_site_fract_z
 _atom_site_occupancy
  Lu  Lu0  1  0.438568  0.436720  0.062357  1
  Lu  Lu1  1  0.065537  0.059434  0.437514  1
  Lu  Lu2  1  0.437514  0.059434  0.065537  1
  Lu  Lu3  1  0.850245  0.845927  0.850245  1
  Lu  Lu4  1  0.689841  0.314482  0.305837  1
  Lu  Lu5  1  0.062357  0.436720  0.438568  1
  Lu  Lu6  1  0.311640  0.688155  0.688564  1
  Lu  Lu7  1  0.305837  0.314482  0.689841  1
  Lu  Lu8  1  0.850245  0.845927  0.453583  1
  Lu  Lu9  1  0.688564  0.688155  0.311640  1
  Lu  Lu10  1  0.453583  0.845927  0.850245  1
  Lu  Lu11  1  0.062357  0.436720  0.062357  1
  Lu  Lu12  1  0.846151  0.461546  0.846151  1
  Lu  Lu13  1  0.437514  0.059434  0.437514  1
  Lu  Lu14  1  0.311640  0.688155  0.311640  1
  Lu  Lu15  1  0.689841  0.314482  0.689841  1
  Cd  Cd16  1  0.081050  0.756851  0.081050  1
  Cd  Cd17  1  0.080144  0.080046  0.759668  1
  Cd  Cd18  1  0.759668  0.080046  0.080144  1
  Cd  Cd19  1  0.080144  0.080046  0.080144  1
  Ru  Ru20  1  0.639920  0.644106  0.639920  1
  Ru  Ru21  1  0.639920  0.644106  0.076052  1
  Ru  Ru22  1  0.076052  0.644106  0.639920  1
  Pt  Pt23  1  0.641667  0.074998  0.641667  1
