# generated using pymatgen
data_TbZrB6Ru
_symmetry_space_group_name_H-M   'P 1'
_cell_length_a   3.57124600
_cell_length_b   9.06170400
_cell_length_c   11.43440800
_cell_angle_alpha   90.00000000
_cell_angle_beta   90.00000000
_cell_angle_gamma   90.00000000
_symmetry_Int_Tables_number   1
_chemical_formula_structural   TbZrB6Ru
_chemical_formula_sum   'Tb4 Zr4 B24 Ru4'
_cell_volume   370.03544250
_cell_formula_units_Z   4
loop_
 _symmetry_equiv_pos_site_id
 _symmetry_equiv_pos_as_xyz
  1  'x, y, z'
loop_
 _atom_site_type_symbol
 _atom_site_label
 _atom_site_symmetry_multiplicity
 _atom_site_fract_x
 _atom_site_fract_y
 _atom_site_fract_z
 _atom_site_occupancy
  Tb  Tb0  1  0.000000  0.322216  0.413708  1
  Tb  Tb1  1  0.000000  0.677784  0.586292  1
  Tb  Tb2  1  0.000000  0.822216  0.086292  1
  Tb  Tb3  1  0.000000  0.177784  0.913708  1
  Zr  Zr4  1  0.000000  0.944889  0.373909  1
  Zr  Zr5  1  0.000000  0.055111  0.626091  1
  Zr  Zr6  1  0.000000  0.444889  0.126091  1
  Zr  Zr7  1  0.000000  0.555111  0.873909  1
  B  B8  1  0.500000  0.554623  0.433519  1
  B  B9  1  0.500000  0.445377  0.566481  1
  B  B10  1  0.500000  0.054623  0.066481  1
  B  B11  1  0.500000  0.945377  0.933519  1
  B  B12  1  0.500000  0.751843  0.418574  1
  B  B13  1  0.500000  0.248157  0.581426  1
  B  B14  1  0.500000  0.251843  0.081426  1
  B  B15  1  0.500000  0.748157  0.918574  1
  B  B16  1  0.500000  0.795053  0.263983  1
  B  B17  1  0.500000  0.204947  0.736017  1
  B  B18  1  0.500000  0.295053  0.236017  1
  B  B19  1  0.500000  0.704947  0.763983  1
  B  B20  1  0.500000  0.630415  0.183019  1
  B  B21  1  0.500000  0.369585  0.816981  1
  B  B22  1  0.500000  0.130415  0.316981  1
  B  B23  1  0.500000  0.869585  0.683019  1
  B  B24  1  0.500000  0.982474  0.213104  1
  B  B25  1  0.500000  0.017526  0.786896  1
  B  B26  1  0.500000  0.482474  0.286896  1
  B  B27  1  0.500000  0.517526  0.713104  1
  B  B28  1  0.500000  0.601736  0.027502  1
  B  B29  1  0.500000  0.398264  0.972498  1
  B  B30  1  0.500000  0.101736  0.472498  1
  B  B31  1  0.500000  0.898264  0.527502  1
  Ru  Ru32  1  0.000000  0.642091  0.319095  1
  Ru  Ru33  1  0.000000  0.357909  0.680905  1
  Ru  Ru34  1  0.000000  0.142091  0.180905  1
  Ru  Ru35  1  0.000000  0.857909  0.819095  1
