# generated using pymatgen
data_TiP4Ru7
_symmetry_space_group_name_H-M   'P 1'
_cell_length_a   3.85870200
_cell_length_b   6.06854564
_cell_length_c   6.91267105
_cell_angle_alpha   91.84810106
_cell_angle_beta   90.00000000
_cell_angle_gamma   90.00000000
_symmetry_Int_Tables_number   1
_chemical_formula_structural   TiP4Ru7
_chemical_formula_sum   'Ti1 P4 Ru7'
_cell_volume   161.78780819
_cell_formula_units_Z   1
loop_
 _symmetry_equiv_pos_site_id
 _symmetry_equiv_pos_as_xyz
  1  'x, y, z'
loop_
 _atom_site_type_symbol
 _atom_site_label
 _atom_site_symmetry_multiplicity
 _atom_site_fract_x
 _atom_site_fract_y
 _atom_site_fract_z
 _atom_site_occupancy
  Ti  Ti0  1  0.750000  0.020083  0.670879  1
  P  P1  1  0.250000  0.733191  0.609373  1
  P  P2  1  0.750000  0.261567  0.384309  1
  P  P3  1  0.250000  0.245388  0.884367  1
  P  P4  1  0.750000  0.764399  0.120145  1
  Ru  Ru5  1  0.250000  0.954202  0.336409  1
  Ru  Ru6  1  0.750000  0.528747  0.845758  1
  Ru  Ru7  1  0.250000  0.491646  0.153572  1
  Ru  Ru8  1  0.250000  0.352208  0.567712  1
  Ru  Ru9  1  0.750000  0.643196  0.432834  1
  Ru  Ru10  1  0.250000  0.859500  0.923138  1
  Ru  Ru11  1  0.750000  0.145872  0.071504  1
