# generated using pymatgen
data_Sr6Hg12Bi5Pb
_symmetry_space_group_name_H-M   'P 1'
_cell_length_a   5.10017301
_cell_length_b   9.24723600
_cell_length_c   15.11402500
_cell_angle_alpha   90.00045850
_cell_angle_beta   89.99687692
_cell_angle_gamma   89.99944858
_symmetry_Int_Tables_number   1
_chemical_formula_structural   Sr6Hg12Bi5Pb
_chemical_formula_sum   'Sr6 Hg12 Bi5 Pb1'
_cell_volume   712.81525502
_cell_formula_units_Z   1
loop_
 _symmetry_equiv_pos_site_id
 _symmetry_equiv_pos_as_xyz
  1  'x, y, z'
loop_
 _atom_site_type_symbol
 _atom_site_label
 _atom_site_symmetry_multiplicity
 _atom_site_fract_x
 _atom_site_fract_y
 _atom_site_fract_z
 _atom_site_occupancy
  Sr  Sr0  1  0.999999  0.000000  0.005031  1
  Sr  Sr1  1  0.499981  0.500003  0.163679  1
  Sr  Sr2  1  0.999992  0.000001  0.333330  1
  Sr  Sr3  1  0.499998  0.500000  0.503018  1
  Sr  Sr4  1  0.000009  0.999998  0.661628  1
  Sr  Sr5  1  0.500014  0.500001  0.833284  1
  Hg  Hg6  1  0.500002  0.240363  0.995314  1
  Hg  Hg7  1  0.500005  0.759638  0.995313  1
  Hg  Hg8  1  0.999989  0.255486  0.166356  1
  Hg  Hg9  1  0.999988  0.744515  0.166357  1
  Hg  Hg10  1  0.499990  0.247506  0.333334  1
  Hg  Hg11  1  0.499990  0.752493  0.333336  1
  Hg  Hg12  1  0.999998  0.255532  0.500380  1
  Hg  Hg13  1  0.999999  0.744466  0.500377  1
  Hg  Hg14  1  0.500009  0.240460  0.671315  1
  Hg  Hg15  1  0.500013  0.759540  0.671315  1
  Hg  Hg16  1  0.000019  0.244823  0.833322  1
  Hg  Hg17  1  0.000018  0.755176  0.833324  1
  Bi  Bi18  1  0.999990  0.499997  0.996241  1
  Bi  Bi19  1  0.499994  0.999998  0.169050  1
  Bi  Bi20  1  0.999986  0.499998  0.333267  1
  Bi  Bi21  1  0.499991  0.000000  0.497649  1
  Bi  Bi22  1  0.000026  0.500002  0.670467  1
  Pb  Pb23  1  0.499997  0.000004  0.833313  1
