# generated using pymatgen
data_Tm4In(CoSi2)2
_symmetry_space_group_name_H-M   'P 1'
_cell_length_a   4.11587733
_cell_length_b   6.82004005
_cell_length_c   7.78703128
_cell_angle_alpha   107.05787390
_cell_angle_beta   105.32403274
_cell_angle_gamma   90.00000240
_symmetry_Int_Tables_number   1
_chemical_formula_structural   Tm4In(CoSi2)2
_chemical_formula_sum   'Tm4 In1 Co2 Si4'
_cell_volume   200.82644634
_cell_formula_units_Z   1
loop_
 _symmetry_equiv_pos_site_id
 _symmetry_equiv_pos_as_xyz
  1  'x, y, z'
loop_
 _atom_site_type_symbol
 _atom_site_label
 _atom_site_symmetry_multiplicity
 _atom_site_fract_x
 _atom_site_fract_y
 _atom_site_fract_z
 _atom_site_occupancy
  Tm  Tm0  1  0.588533  0.386961  0.177066  1
  Tm  Tm1  1  0.656141  0.939964  0.312282  1
  Tm  Tm2  1  0.343859  0.060035  0.687718  1
  Tm  Tm3  1  0.411468  0.613040  0.822935  1
  In  In4  1  0.000000  0.000000  0.000000  1
  Co  Co5  1  0.219705  0.625510  0.439412  1
  Co  Co6  1  0.780295  0.374491  0.560589  1
  Si  Si7  1  0.067363  0.653697  0.134726  1
  Si  Si8  1  0.207369  0.273876  0.414737  1
  Si  Si9  1  0.792631  0.726124  0.585263  1
  Si  Si10  1  0.932638  0.346302  0.865274  1
