# generated using pymatgen
data_Rb3Ir2Br9
_symmetry_space_group_name_H-M   'P 1'
_cell_length_a   7.51089400
_cell_length_b   7.51083866
_cell_length_c   19.51438300
_cell_angle_alpha   90.00000000
_cell_angle_beta   90.00000000
_cell_angle_gamma   120.00015390
_symmetry_Int_Tables_number   1
_chemical_formula_structural   Rb3Ir2Br9
_chemical_formula_sum   'Rb6 Ir4 Br18'
_cell_volume   953.37739152
_cell_formula_units_Z   2
loop_
 _symmetry_equiv_pos_site_id
 _symmetry_equiv_pos_as_xyz
  1  'x, y, z'
loop_
 _atom_site_type_symbol
 _atom_site_label
 _atom_site_symmetry_multiplicity
 _atom_site_fract_x
 _atom_site_fract_y
 _atom_site_fract_z
 _atom_site_occupancy
  Rb  Rb0  1  0.666671  0.333336  0.940451  1
  Rb  Rb1  1  0.333329  0.666664  0.440451  1
  Rb  Rb2  1  0.666671  0.333336  0.559549  1
  Rb  Rb3  1  0.333329  0.666664  0.059549  1
  Rb  Rb4  1  0.000000  0.999999  0.750000  1
  Rb  Rb5  1  0.000000  0.000001  0.250000  1
  Ir  Ir6  1  0.333338  0.666664  0.665230  1
  Ir  Ir7  1  0.666662  0.333336  0.165230  1
  Ir  Ir8  1  0.666662  0.333336  0.334770  1
  Ir  Ir9  1  0.333338  0.666664  0.834770  1
  Br  Br10  1  0.823667  0.647424  0.092724  1
  Br  Br11  1  0.176299  0.823681  0.592710  1
  Br  Br12  1  0.647396  0.823699  0.592712  1
  Br  Br13  1  0.352604  0.176301  0.092712  1
  Br  Br14  1  0.823701  0.176319  0.092710  1
  Br  Br15  1  0.176333  0.352576  0.907276  1
  Br  Br16  1  0.176299  0.823681  0.907290  1
  Br  Br17  1  0.176333  0.352576  0.592724  1
  Br  Br18  1  0.647396  0.823699  0.907288  1
  Br  Br19  1  0.352604  0.176301  0.407288  1
  Br  Br20  1  0.823667  0.647424  0.407276  1
  Br  Br21  1  0.823701  0.176319  0.407290  1
  Br  Br22  1  0.517144  0.034277  0.250000  1
  Br  Br23  1  0.482870  0.517145  0.750000  1
  Br  Br24  1  0.034291  0.517142  0.750000  1
  Br  Br25  1  0.965709  0.482858  0.250000  1
  Br  Br26  1  0.517130  0.482855  0.250000  1
  Br  Br27  1  0.482856  0.965723  0.750000  1
