# generated using pymatgen
data_Mn4Ga2PbO12
_symmetry_space_group_name_H-M   'P 1'
_cell_length_a   8.23041222
_cell_length_b   8.23041148
_cell_length_c   9.73634100
_cell_angle_alpha   54.56559564
_cell_angle_beta   54.56559934
_cell_angle_gamma   65.35000226
_symmetry_Int_Tables_number   1
_chemical_formula_structural   Mn4Ga2PbO12
_chemical_formula_sum   'Mn8 Ga4 Pb2 O24'
_cell_volume   434.57756341
_cell_formula_units_Z   2
loop_
 _symmetry_equiv_pos_site_id
 _symmetry_equiv_pos_as_xyz
  1  'x, y, z'
loop_
 _atom_site_type_symbol
 _atom_site_label
 _atom_site_symmetry_multiplicity
 _atom_site_fract_x
 _atom_site_fract_y
 _atom_site_fract_z
 _atom_site_occupancy
  Mn  Mn0  1  0.668775  0.000600  0.819165  1
  Mn  Mn1  1  0.185445  0.517235  0.479466  1
  Mn  Mn2  1  0.814555  0.482765  0.520534  1
  Mn  Mn3  1  0.331225  0.999400  0.180835  1
  Mn  Mn4  1  0.999400  0.331225  0.180835  1
  Mn  Mn5  1  0.000600  0.668775  0.819165  1
  Mn  Mn6  1  0.517235  0.185445  0.479466  1
  Mn  Mn7  1  0.482765  0.814555  0.520534  1
  Ga  Ga8  1  0.856582  0.856582  0.479969  1
  Ga  Ga9  1  0.340695  0.340695  0.809432  1
  Ga  Ga10  1  0.143418  0.143418  0.520031  1
  Ga  Ga11  1  0.659305  0.659305  0.190568  1
  Pb  Pb12  1  0.275753  0.724247  0.000000  1
  Pb  Pb13  1  0.724247  0.275753  0.000000  1
  O  O14  1  0.706628  0.706628  0.940428  1
  O  O15  1  0.015885  0.669632  0.349980  1
  O  O16  1  0.669632  0.015885  0.349980  1
  O  O17  1  0.674141  0.015841  0.614432  1
  O  O18  1  0.015841  0.674141  0.614432  1
  O  O19  1  0.046905  0.046905  0.275535  1
  O  O20  1  0.711902  0.369997  0.276046  1
  O  O21  1  0.369997  0.711902  0.276046  1
  O  O22  1  0.984159  0.325859  0.385568  1
  O  O23  1  0.984115  0.330368  0.650020  1
  O  O24  1  0.028959  0.374212  0.947087  1
  O  O25  1  0.374212  0.028959  0.947087  1
  O  O26  1  0.293372  0.293372  0.059572  1
  O  O27  1  0.971041  0.625788  0.052913  1
  O  O28  1  0.343698  0.343698  0.354916  1
  O  O29  1  0.348732  0.348732  0.605311  1
  O  O30  1  0.288098  0.630003  0.723954  1
  O  O31  1  0.630003  0.288098  0.723954  1
  O  O32  1  0.953095  0.953095  0.724465  1
  O  O33  1  0.651268  0.651268  0.394689  1
  O  O34  1  0.325859  0.984159  0.385568  1
  O  O35  1  0.656302  0.656302  0.645084  1
  O  O36  1  0.330368  0.984115  0.650020  1
  O  O37  1  0.625788  0.971041  0.052913  1
