# generated using pymatgen
data_Pr9Dy3(AlAu5)4
_symmetry_space_group_name_H-M   'P 1'
_cell_length_a   8.71368405
_cell_length_b   8.71368683
_cell_length_c   13.85997900
_cell_angle_alpha   90.00592442
_cell_angle_beta   89.99407558
_cell_angle_gamma   128.49852525
_symmetry_Int_Tables_number   1
_chemical_formula_structural   Pr9Dy3(AlAu5)4
_chemical_formula_sum   'Pr9 Dy3 Al4 Au20'
_cell_volume   823.60616153
_cell_formula_units_Z   1
loop_
 _symmetry_equiv_pos_site_id
 _symmetry_equiv_pos_as_xyz
  1  'x, y, z'
loop_
 _atom_site_type_symbol
 _atom_site_label
 _atom_site_symmetry_multiplicity
 _atom_site_fract_x
 _atom_site_fract_y
 _atom_site_fract_z
 _atom_site_occupancy
  Pr  Pr0  1  0.930076  0.069924  0.250752  1
  Pr  Pr1  1  0.069119  0.930881  0.749113  1
  Pr  Pr2  1  0.319229  0.680771  0.251348  1
  Pr  Pr3  1  0.679924  0.320076  0.748797  1
  Pr  Pr4  1  0.369110  0.630890  0.965026  1
  Pr  Pr5  1  0.881643  0.118357  0.951100  1
  Pr  Pr6  1  0.117726  0.882274  0.049226  1
  Pr  Pr7  1  0.881469  0.118531  0.548744  1
  Pr  Pr8  1  0.118362  0.881638  0.451125  1
  Dy  Dy9  1  0.630069  0.369931  0.465580  1
  Dy  Dy10  1  0.369581  0.630419  0.533727  1
  Dy  Dy11  1  0.630784  0.369217  0.034149  1
  Al  Al12  1  0.718275  0.281725  0.251689  1
  Al  Al13  1  0.280742  0.719258  0.747714  1
  Al  Al14  1  0.534791  0.465209  0.250315  1
  Al  Al15  1  0.465494  0.534506  0.748855  1
  Au  Au16  1  0.327267  0.073887  0.250815  1
  Au  Au17  1  0.075020  0.327279  0.750103  1
  Au  Au18  1  0.672721  0.924980  0.750103  1
  Au  Au19  1  0.926113  0.672733  0.250815  1
  Au  Au20  1  0.572124  0.009145  0.397807  1
  Au  Au21  1  0.008632  0.571196  0.601679  1
  Au  Au22  1  0.574111  0.012440  0.104040  1
  Au  Au23  1  0.002883  0.570802  0.896237  1
  Au  Au24  1  0.428804  0.991368  0.601679  1
  Au  Au25  1  0.990855  0.427876  0.397807  1
  Au  Au26  1  0.429198  0.997117  0.896237  1
  Au  Au27  1  0.987560  0.425888  0.104040  1
  Au  Au28  1  0.677041  0.731490  0.395782  1
  Au  Au29  1  0.731414  0.677320  0.603702  1
  Au  Au30  1  0.683180  0.732943  0.106498  1
  Au  Au31  1  0.735801  0.677366  0.894707  1
  Au  Au32  1  0.322680  0.268585  0.603701  1
  Au  Au33  1  0.268510  0.322959  0.395782  1
  Au  Au34  1  0.322634  0.264198  0.894707  1
  Au  Au35  1  0.267057  0.316820  0.106498  1
