# generated using pymatgen
data_Rb2(CoO2)5
_symmetry_space_group_name_H-M   'P 1'
_cell_length_a   4.98739668
_cell_length_b   7.15854792
_cell_length_c   7.66508700
_cell_angle_alpha   117.96915043
_cell_angle_beta   95.79257702
_cell_angle_gamma   101.74266407
_symmetry_Int_Tables_number   1
_chemical_formula_structural   Rb2(CoO2)5
_chemical_formula_sum   'Rb2 Co5 O10'
_cell_volume   230.45775334
_cell_formula_units_Z   1
loop_
 _symmetry_equiv_pos_site_id
 _symmetry_equiv_pos_as_xyz
  1  'x, y, z'
loop_
 _atom_site_type_symbol
 _atom_site_label
 _atom_site_symmetry_multiplicity
 _atom_site_fract_x
 _atom_site_fract_y
 _atom_site_fract_z
 _atom_site_occupancy
  Rb  Rb0  1  0.626890  0.245176  0.746396  1
  Rb  Rb1  1  0.373110  0.754824  0.253604  1
  Co  Co2  1  0.603434  0.704724  0.700686  1
  Co  Co3  1  0.000000  0.500000  0.500000  1
  Co  Co4  1  0.396566  0.295276  0.299314  1
  Co  Co5  1  0.800007  0.097844  0.101108  1
  Co  Co6  1  0.199993  0.902156  0.898892  1
  O  O7  1  0.685318  0.583703  0.435916  1
  O  O8  1  0.314682  0.416297  0.564084  1
  O  O9  1  0.713926  0.212436  0.367247  1
  O  O10  1  0.076403  0.382012  0.238219  1
  O  O11  1  0.286074  0.787564  0.632753  1
  O  O12  1  0.923597  0.617988  0.761781  1
  O  O13  1  0.119126  0.013573  0.164024  1
  O  O14  1  0.476956  0.189362  0.045545  1
  O  O15  1  0.880874  0.986427  0.835976  1
  O  O16  1  0.523044  0.810638  0.954455  1
