# generated using pymatgen
data_Y4HoCr3(Co4P3)4
_symmetry_space_group_name_H-M   'P 1'
_cell_length_a   12.00828401
_cell_length_b   12.00765725
_cell_length_c   3.67471300
_cell_angle_alpha   90.00000000
_cell_angle_beta   90.00000000
_cell_angle_gamma   119.99827484
_symmetry_Int_Tables_number   1
_chemical_formula_structural   Y4HoCr3(Co4P3)4
_chemical_formula_sum   'Y4 Ho1 Cr3 Co16 P12'
_cell_volume   458.88180760
_cell_formula_units_Z   1
loop_
 _symmetry_equiv_pos_site_id
 _symmetry_equiv_pos_as_xyz
  1  'x, y, z'
loop_
 _atom_site_type_symbol
 _atom_site_label
 _atom_site_symmetry_multiplicity
 _atom_site_fract_x
 _atom_site_fract_y
 _atom_site_fract_z
 _atom_site_occupancy
  Y  Y0  1  0.666716  0.333350  0.000000  1
  Y  Y1  1  0.333284  0.666635  0.000000  1
  Y  Y2  1  0.812803  0.812833  0.500000  1
  Y  Y3  1  0.187197  0.000030  0.500000  1
  Ho  Ho4  1  0.000000  0.187280  0.500000  1
  Cr  Cr5  1  0.445198  0.445247  0.000000  1
  Cr  Cr6  1  0.554802  0.000049  0.000000  1
  Cr  Cr7  1  0.000000  0.554551  0.000000  1
  Co  Co8  1  0.874276  0.356201  0.500000  1
  Co  Co9  1  0.643708  0.517862  0.500000  1
  Co  Co10  1  0.482131  0.125826  0.500000  1
  Co  Co11  1  0.356292  0.874154  0.500000  1
  Co  Co12  1  0.517869  0.643696  0.500000  1
  Co  Co13  1  0.125724  0.481925  0.500000  1
  Co  Co14  1  0.800062  0.176947  0.000000  1
  Co  Co15  1  0.823179  0.622763  0.000000  1
  Co  Co16  1  0.377127  0.200380  0.000000  1
  Co  Co17  1  0.176821  0.799585  0.000000  1
  Co  Co18  1  0.622873  0.823255  0.000000  1
  Co  Co19  1  0.199938  0.376886  0.000000  1
  Co  Co20  1  0.282486  0.282700  0.500000  1
  Co  Co21  1  0.717514  0.000214  0.500000  1
  Co  Co22  1  0.000000  0.717159  0.500000  1
  Co  Co23  1  0.000000  0.000353  0.000000  1
  P  P24  1  0.682971  0.162540  0.500000  1
  P  P25  1  0.837498  0.520379  0.500000  1
  P  P26  1  0.479499  0.316989  0.500000  1
  P  P27  1  0.162502  0.682881  0.500000  1
  P  P28  1  0.520501  0.837490  0.500000  1
  P  P29  1  0.317029  0.479568  0.500000  1
  P  P30  1  0.179192  0.179707  0.000000  1
  P  P31  1  0.820808  0.000515  0.000000  1
  P  P32  1  0.000000  0.820494  0.000000  1
  P  P33  1  0.632725  0.632745  0.000000  1
  P  P34  1  0.367275  0.000019  0.000000  1
  P  P35  1  0.000000  0.366795  0.000000  1
