# generated using pymatgen
data_CsCl37
_symmetry_space_group_name_H-M   'P 1'
_cell_length_a   12.78763379
_cell_length_b   13.76759013
_cell_length_c   12.98174600
_cell_angle_alpha   103.00376751
_cell_angle_beta   48.80056927
_cell_angle_gamma   81.50743368
_symmetry_Int_Tables_number   1
_chemical_formula_structural   CsCl37
_chemical_formula_sum   'Cs1 Cl37'
_cell_volume   1533.02354663
_cell_formula_units_Z   1
loop_
 _symmetry_equiv_pos_site_id
 _symmetry_equiv_pos_as_xyz
  1  'x, y, z'
loop_
 _atom_site_type_symbol
 _atom_site_label
 _atom_site_symmetry_multiplicity
 _atom_site_fract_x
 _atom_site_fract_y
 _atom_site_fract_z
 _atom_site_occupancy
  Cs  Cs0  1  0.500000  0.000000  0.000000  1
  Cl  Cl1  1  0.740737  0.311566  0.200592  1
  Cl  Cl2  1  0.259263  0.688434  0.799408  1
  Cl  Cl3  1  0.708870  0.074524  0.353015  1
  Cl  Cl4  1  0.291130  0.925476  0.646985  1
  Cl  Cl5  1  0.166157  0.242334  0.124533  1
  Cl  Cl6  1  0.833843  0.757666  0.875467  1
  Cl  Cl7  1  0.847975  0.538817  0.251618  1
  Cl  Cl8  1  0.152025  0.461183  0.748382  1
  Cl  Cl9  1  0.664733  0.292175  0.541139  1
  Cl  Cl10  1  0.335267  0.707825  0.458861  1
  Cl  Cl11  1  0.031182  0.152465  0.523914  1
  Cl  Cl12  1  0.968818  0.847535  0.476086  1
  Cl  Cl13  1  0.987055  0.016862  0.257665  1
  Cl  Cl14  1  0.012945  0.983138  0.742335  1
  Cl  Cl15  1  0.968627  0.352812  0.654404  1
  Cl  Cl16  1  0.031373  0.647188  0.345596  1
  Cl  Cl17  1  0.558662  0.413031  0.260886  1
  Cl  Cl18  1  0.441338  0.586969  0.739114  1
  Cl  Cl19  1  0.184821  0.483693  0.264748  1
  Cl  Cl20  1  0.815179  0.516307  0.735252  1
  Cl  Cl21  1  0.000000  0.500000  0.000000  1
  Cl  Cl22  1  0.494980  0.883098  0.232901  1
  Cl  Cl23  1  0.505020  0.116902  0.767099  1
  Cl  Cl24  1  0.281782  0.018002  0.375389  1
  Cl  Cl25  1  0.718218  0.981998  0.624611  1
  Cl  Cl26  1  0.509186  0.105191  0.414396  1
  Cl  Cl27  1  0.490814  0.894809  0.585604  1
  Cl  Cl28  1  0.066735  0.191330  0.057196  1
  Cl  Cl29  1  0.933265  0.808670  0.942804  1
  Cl  Cl30  1  0.682245  0.700067  0.395667  1
  Cl  Cl31  1  0.317755  0.299933  0.604333  1
  Cl  Cl32  1  0.890193  0.119900  0.935841  1
  Cl  Cl33  1  0.109807  0.880100  0.064159  1
  Cl  Cl34  1  0.328232  0.301366  0.170558  1
  Cl  Cl35  1  0.671768  0.698634  0.829442  1
  Cl  Cl36  1  0.692077  0.407148  0.637845  1
  Cl  Cl37  1  0.307923  0.592852  0.362155  1
