# generated using pymatgen
data_Sm4AsCl6
_symmetry_space_group_name_H-M   'P 1'
_cell_length_a   4.05114900
_cell_length_b   13.30249000
_cell_length_c   13.76153700
_cell_angle_alpha   90.00000000
_cell_angle_beta   90.00000000
_cell_angle_gamma   90.00000000
_symmetry_Int_Tables_number   1
_chemical_formula_structural   Sm4AsCl6
_chemical_formula_sum   'Sm8 As2 Cl12'
_cell_volume   741.61430778
_cell_formula_units_Z   2
loop_
 _symmetry_equiv_pos_site_id
 _symmetry_equiv_pos_as_xyz
  1  'x, y, z'
loop_
 _atom_site_type_symbol
 _atom_site_label
 _atom_site_symmetry_multiplicity
 _atom_site_fract_x
 _atom_site_fract_y
 _atom_site_fract_z
 _atom_site_occupancy
  Sm  Sm0  1  0.000000  0.113033  0.089905  1
  Sm  Sm1  1  0.000000  0.886967  0.910095  1
  Sm  Sm2  1  0.000000  0.613033  0.410095  1
  Sm  Sm3  1  0.000000  0.386967  0.589905  1
  Sm  Sm4  1  0.500000  0.132283  0.844887  1
  Sm  Sm5  1  0.500000  0.867717  0.155113  1
  Sm  Sm6  1  0.500000  0.632283  0.655113  1
  Sm  Sm7  1  0.500000  0.367717  0.344887  1
  As  As8  1  0.500000  0.000000  0.000000  1
  As  As9  1  0.500000  0.500000  0.500000  1
  Cl  Cl10  1  0.500000  0.265595  0.683812  1
  Cl  Cl11  1  0.500000  0.734405  0.316188  1
  Cl  Cl12  1  0.500000  0.765595  0.816188  1
  Cl  Cl13  1  0.500000  0.234405  0.183812  1
  Cl  Cl14  1  0.000000  0.251673  0.928527  1
  Cl  Cl15  1  0.000000  0.748327  0.071473  1
  Cl  Cl16  1  0.000000  0.476246  0.247987  1
  Cl  Cl17  1  0.000000  0.523754  0.752013  1
  Cl  Cl18  1  0.000000  0.976246  0.252013  1
  Cl  Cl19  1  0.000000  0.023754  0.747987  1
  Cl  Cl20  1  0.000000  0.248327  0.428527  1
  Cl  Cl21  1  0.000000  0.751673  0.571473  1
