# generated using pymatgen
data_MnAgF34
_symmetry_space_group_name_H-M   'P 1'
_cell_length_a   8.68888233
_cell_length_b   8.12149734
_cell_length_c   10.13643637
_cell_angle_alpha   83.65985998
_cell_angle_beta   89.26401767
_cell_angle_gamma   66.53351378
_symmetry_Int_Tables_number   1
_chemical_formula_structural   MnAgF34
_chemical_formula_sum   'Mn1 Ag1 F34'
_cell_volume   651.74210180
_cell_formula_units_Z   1
loop_
 _symmetry_equiv_pos_site_id
 _symmetry_equiv_pos_as_xyz
  1  'x, y, z'
loop_
 _atom_site_type_symbol
 _atom_site_label
 _atom_site_symmetry_multiplicity
 _atom_site_fract_x
 _atom_site_fract_y
 _atom_site_fract_z
 _atom_site_occupancy
  Mn  Mn0  1  0.146509  0.748009  0.225073  1
  Ag  Ag1  1  0.863505  0.251650  0.754510  1
  F  F2  1  0.601168  0.207771  0.497015  1
  F  F3  1  0.399133  0.784576  0.505786  1
  F  F4  1  0.826674  0.678982  0.721906  1
  F  F5  1  0.159603  0.318964  0.299914  1
  F  F6  1  0.086873  0.766245  0.868426  1
  F  F7  1  0.912679  0.222453  0.140168  1
  F  F8  1  0.559454  0.151876  0.377534  1
  F  F9  1  0.440548  0.847213  0.621123  1
  F  F10  1  0.634258  0.328253  0.687333  1
  F  F11  1  0.353480  0.670943  0.295633  1
  F  F12  1  0.938685  0.052890  0.646885  1
  F  F13  1  0.067245  0.905336  0.359483  1
  F  F14  1  0.906139  0.396105  0.604987  1
  F  F15  1  0.087986  0.640659  0.384202  1
  F  F16  1  0.841482  0.816007  0.627156  1
  F  F17  1  0.141695  0.174953  0.383006  1
  F  F18  1  0.794295  0.455063  0.857662  1
  F  F19  1  0.208701  0.553724  0.141164  1
  F  F20  1  0.213115  0.694467  0.775516  1
  F  F21  1  0.781920  0.314036  0.224715  1
  F  F22  1  0.935475  0.816017  0.167342  1
  F  F23  1  0.089771  0.176140  0.824291  1
  F  F24  1  0.819736  0.104291  0.900365  1
  F  F25  1  0.179822  0.899564  0.103658  1
  F  F26  1  0.479011  0.595719  0.988853  1
  F  F27  1  0.523336  0.406323  0.005290  1
  F  F28  1  0.466391  0.086193  0.864805  1
  F  F29  1  0.533518  0.920189  0.138251  1
  F  F30  1  0.285314  0.241656  0.609325  1
  F  F31  1  0.716488  0.763854  0.393581  1
  F  F32  1  0.259196  0.398241  0.671770  1
  F  F33  1  0.750967  0.605493  0.330744  1
  F  F34  1  0.553351  0.900316  0.848743  1
  F  F35  1  0.442471  0.105828  0.153785  1
