# generated using pymatgen
data_Ta6IrOs3
_symmetry_space_group_name_H-M   'P 1'
_cell_length_a   9.93034731
_cell_length_b   9.90536291
_cell_length_c   5.09043002
_cell_angle_alpha   90.00917490
_cell_angle_beta   89.99855128
_cell_angle_gamma   89.90546013
_symmetry_Int_Tables_number   1
_chemical_formula_structural   Ta6IrOs3
_chemical_formula_sum   'Ta18 Ir3 Os9'
_cell_volume   500.71281189
_cell_formula_units_Z   3
loop_
 _symmetry_equiv_pos_site_id
 _symmetry_equiv_pos_as_xyz
  1  'x, y, z'
loop_
 _atom_site_type_symbol
 _atom_site_label
 _atom_site_symmetry_multiplicity
 _atom_site_fract_x
 _atom_site_fract_y
 _atom_site_fract_z
 _atom_site_occupancy
  Ta  Ta0  1  0.102530  0.103453  0.498827  1
  Ta  Ta1  1  0.896702  0.897233  0.500537  1
  Ta  Ta2  1  0.601219  0.399659  0.999557  1
  Ta  Ta3  1  0.398320  0.600566  0.999034  1
  Ta  Ta4  1  0.039909  0.370209  0.502398  1
  Ta  Ta5  1  0.959503  0.629504  0.502070  1
  Ta  Ta6  1  0.536481  0.130574  0.004050  1
  Ta  Ta7  1  0.467199  0.868666  0.005321  1
  Ta  Ta8  1  0.628586  0.961611  0.502636  1
  Ta  Ta9  1  0.370907  0.038395  0.500250  1
  Ta  Ta10  1  0.870586  0.464767  0.004196  1
  Ta  Ta11  1  0.129216  0.536085  0.003588  1
  Ta  Ta12  1  0.818037  0.181222  0.750207  1
  Ta  Ta13  1  0.181841  0.820180  0.750550  1
  Ta  Ta14  1  0.679836  0.681287  0.747716  1
  Ta  Ta15  1  0.320603  0.319634  0.749979  1
  Ta  Ta16  1  0.180396  0.817661  0.251191  1
  Ta  Ta17  1  0.817403  0.180571  0.250522  1
  Ir  Ir18  1  0.760290  0.432485  0.501821  1
  Ir  Ir19  1  0.239319  0.566706  0.501565  1
  Ir  Ir20  1  0.261886  0.069084  0.000173  1
  Os  Os21  1  0.499663  0.500455  0.479890  1
  Os  Os22  1  0.999797  0.000624  0.997560  1
  Os  Os23  1  0.741101  0.929385  0.001343  1
  Os  Os24  1  0.564920  0.240964  0.501279  1
  Os  Os25  1  0.433624  0.759287  0.501715  1
  Os  Os26  1  0.930112  0.739356  0.000857  1
  Os  Os27  1  0.070797  0.260028  0.999707  1
  Os  Os28  1  0.318953  0.320023  0.247109  1
  Os  Os29  1  0.680264  0.680325  0.244351  1
