# generated using pymatgen
data_La5(ThS4)3
_symmetry_space_group_name_H-M   'P 1'
_cell_length_a   4.08822000
_cell_length_b   10.79847018
_cell_length_c   11.02652965
_cell_angle_alpha   89.83066451
_cell_angle_beta   90.00000000
_cell_angle_gamma   90.00000000
_symmetry_Int_Tables_number   1
_chemical_formula_structural   La5(ThS4)3
_chemical_formula_sum   'La5 Th3 S12'
_cell_volume   486.78080505
_cell_formula_units_Z   1
loop_
 _symmetry_equiv_pos_site_id
 _symmetry_equiv_pos_as_xyz
  1  'x, y, z'
loop_
 _atom_site_type_symbol
 _atom_site_label
 _atom_site_symmetry_multiplicity
 _atom_site_fract_x
 _atom_site_fract_y
 _atom_site_fract_z
 _atom_site_occupancy
  La  La0  1  0.250000  0.006898  0.308052  1
  La  La1  1  0.750000  0.993599  0.691234  1
  La  La2  1  0.750000  0.504170  0.188722  1
  La  La3  1  0.250000  0.495583  0.809255  1
  La  La4  1  0.250000  0.687022  0.489230  1
  Th  Th5  1  0.750000  0.314152  0.511407  1
  Th  Th6  1  0.750000  0.185759  0.011349  1
  Th  Th7  1  0.250000  0.814058  0.988783  1
  S  S8  1  0.250000  0.056538  0.882216  1
  S  S9  1  0.750000  0.945035  0.118809  1
  S  S10  1  0.750000  0.550600  0.620460  1
  S  S11  1  0.250000  0.441811  0.379886  1
  S  S12  1  0.250000  0.133700  0.548782  1
  S  S13  1  0.750000  0.874101  0.451869  1
  S  S14  1  0.750000  0.632096  0.951818  1
  S  S15  1  0.250000  0.367187  0.047541  1
  S  S16  1  0.250000  0.703424  0.222618  1
  S  S17  1  0.750000  0.293123  0.772977  1
  S  S18  1  0.750000  0.205553  0.271932  1
  S  S19  1  0.250000  0.795591  0.733061  1
