# generated using pymatgen
data_TbPr4(BiPb)2
_symmetry_space_group_name_H-M   'P 1'
_cell_length_a   8.42169800
_cell_length_b   8.49134300
_cell_length_c   16.25175500
_cell_angle_alpha   90.00000000
_cell_angle_beta   90.00000000
_cell_angle_gamma   90.00000000
_symmetry_Int_Tables_number   1
_chemical_formula_structural   TbPr4(BiPb)2
_chemical_formula_sum   'Tb4 Pr16 Bi8 Pb8'
_cell_volume   1162.18780609
_cell_formula_units_Z   4
loop_
 _symmetry_equiv_pos_site_id
 _symmetry_equiv_pos_as_xyz
  1  'x, y, z'
loop_
 _atom_site_type_symbol
 _atom_site_label
 _atom_site_symmetry_multiplicity
 _atom_site_fract_x
 _atom_site_fract_y
 _atom_site_fract_z
 _atom_site_occupancy
  Tb  Tb0  1  0.217685  0.496576  0.750000  1
  Tb  Tb1  1  0.717685  0.003424  0.750000  1
  Tb  Tb2  1  0.782315  0.503424  0.250000  1
  Tb  Tb3  1  0.282315  0.996576  0.250000  1
  Pr  Pr4  1  0.388424  0.838255  0.881020  1
  Pr  Pr5  1  0.888424  0.661745  0.618980  1
  Pr  Pr6  1  0.611576  0.161745  0.381020  1
  Pr  Pr7  1  0.111576  0.338255  0.118980  1
  Pr  Pr8  1  0.611576  0.161745  0.118980  1
  Pr  Pr9  1  0.111576  0.338255  0.381020  1
  Pr  Pr10  1  0.388424  0.838255  0.618980  1
  Pr  Pr11  1  0.888424  0.661745  0.881020  1
  Pr  Pr12  1  0.549562  0.326219  0.894058  1
  Pr  Pr13  1  0.049562  0.173781  0.605942  1
  Pr  Pr14  1  0.450438  0.673781  0.394058  1
  Pr  Pr15  1  0.950438  0.826219  0.105942  1
  Pr  Pr16  1  0.450438  0.673781  0.105942  1
  Pr  Pr17  1  0.950438  0.826219  0.394058  1
  Pr  Pr18  1  0.549562  0.326219  0.605942  1
  Pr  Pr19  1  0.049562  0.173781  0.894058  1
  Bi  Bi20  1  0.269682  0.019605  0.048241  1
  Bi  Bi21  1  0.769682  0.480395  0.451759  1
  Bi  Bi22  1  0.730318  0.980395  0.548241  1
  Bi  Bi23  1  0.230318  0.519605  0.951759  1
  Bi  Bi24  1  0.730318  0.980395  0.951759  1
  Bi  Bi25  1  0.230318  0.519605  0.548241  1
  Bi  Bi26  1  0.269682  0.019605  0.451759  1
  Bi  Bi27  1  0.769682  0.480395  0.048241  1
  Pb  Pb28  1  0.583181  0.627125  0.750000  1
  Pb  Pb29  1  0.083181  0.872875  0.750000  1
  Pb  Pb30  1  0.416819  0.372875  0.250000  1
  Pb  Pb31  1  0.916819  0.127125  0.250000  1
  Pb  Pb32  1  0.356753  0.144909  0.750000  1
  Pb  Pb33  1  0.856753  0.355091  0.750000  1
  Pb  Pb34  1  0.643247  0.855091  0.250000  1
  Pb  Pb35  1  0.143247  0.644909  0.250000  1
