# generated using pymatgen
data_Hf5Zr3Fe6(Co5P6)2
_symmetry_space_group_name_H-M   'P 1'
_cell_length_a   12.07138701
_cell_length_b   12.13115868
_cell_length_c   3.66676300
_cell_angle_alpha   90.00000000
_cell_angle_beta   90.00000000
_cell_angle_gamma   120.00796720
_symmetry_Int_Tables_number   1
_chemical_formula_structural   Hf5Zr3Fe6(Co5P6)2
_chemical_formula_sum   'Hf5 Zr3 Fe6 Co10 P12'
_cell_volume   464.98405136
_cell_formula_units_Z   1
loop_
 _symmetry_equiv_pos_site_id
 _symmetry_equiv_pos_as_xyz
  1  'x, y, z'
loop_
 _atom_site_type_symbol
 _atom_site_label
 _atom_site_symmetry_multiplicity
 _atom_site_fract_x
 _atom_site_fract_y
 _atom_site_fract_z
 _atom_site_occupancy
  Hf  Hf0  1  0.441090  0.439998  0.000000  1
  Hf  Hf1  1  0.558515  0.998380  0.000000  1
  Hf  Hf2  1  0.335011  0.667345  0.000000  1
  Hf  Hf3  1  0.666300  0.332655  0.000000  1
  Hf  Hf4  1  0.000458  0.559302  0.000000  1
  Zr  Zr5  1  0.815119  0.815327  0.500000  1
  Zr  Zr6  1  0.999511  0.185122  0.500000  1
  Zr  Zr7  1  0.184062  0.001383  0.500000  1
  Fe  Fe8  1  0.625123  0.819011  0.000000  1
  Fe  Fe9  1  0.374195  0.194437  0.000000  1
  Fe  Fe10  1  0.000436  0.724424  0.500000  1
  Fe  Fe11  1  0.274603  0.277918  0.500000  1
  Fe  Fe12  1  0.875729  0.355207  0.500000  1
  Fe  Fe13  1  0.724603  0.001687  0.500000  1
  Co  Co14  1  0.819261  0.626364  0.000000  1
  Co  Co15  1  0.181384  0.808372  0.000000  1
  Co  Co16  1  0.357552  0.872037  0.500000  1
  Co  Co17  1  0.130347  0.488015  0.500000  1
  Co  Co18  1  0.643198  0.513754  0.500000  1
  Co  Co19  1  0.999876  0.000310  0.000000  1
  Co  Co20  1  0.517401  0.642134  0.500000  1
  Co  Co21  1  0.482427  0.124991  0.500000  1
  Co  Co22  1  0.191428  0.374190  0.000000  1
  Co  Co23  1  0.805490  0.178977  0.000000  1
  P  P24  1  0.997003  0.349862  0.000000  1
  P  P25  1  0.827246  0.516990  0.500000  1
  P  P26  1  0.691775  0.173734  0.500000  1
  P  P27  1  0.178463  0.177802  0.000000  1
  P  P28  1  0.649412  0.650834  0.000000  1
  P  P29  1  0.820662  0.997727  0.000000  1
  P  P30  1  0.521323  0.826023  0.500000  1
  P  P31  1  0.174100  0.693716  0.500000  1
  P  P32  1  0.350336  0.002671  0.000000  1
  P  P33  1  0.478752  0.304893  0.500000  1
  P  P34  1  0.999577  0.822730  0.000000  1
  P  P35  1  0.308230  0.481677  0.500000  1
