# generated using pymatgen
data_Ho2TiMoO8
_symmetry_space_group_name_H-M   'P 1'
_cell_length_a   5.44798400
_cell_length_b   5.07113845
_cell_length_c   5.29201414
_cell_angle_alpha   82.61986920
_cell_angle_beta   90.00000000
_cell_angle_gamma   90.00000000
_symmetry_Int_Tables_number   1
_chemical_formula_structural   Ho2TiMoO8
_chemical_formula_sum   'Ho2 Ti1 Mo1 O8'
_cell_volume   144.99382437
_cell_formula_units_Z   1
loop_
 _symmetry_equiv_pos_site_id
 _symmetry_equiv_pos_as_xyz
  1  'x, y, z'
loop_
 _atom_site_type_symbol
 _atom_site_label
 _atom_site_symmetry_multiplicity
 _atom_site_fract_x
 _atom_site_fract_y
 _atom_site_fract_z
 _atom_site_occupancy
  Ho  Ho0  1  0.766880  0.000000  0.750000  1
  Ho  Ho1  1  0.243596  0.000000  0.250000  1
  Ti  Ti2  1  0.295020  0.500000  0.750000  1
  Mo  Mo3  1  0.681467  0.500000  0.250000  1
  O  O4  1  0.568728  0.262052  0.016955  1
  O  O5  1  0.568728  0.737948  0.483045  1
  O  O6  1  0.439056  0.728198  0.995374  1
  O  O7  1  0.439056  0.271802  0.504626  1
  O  O8  1  0.087691  0.754825  0.604417  1
  O  O9  1  0.087691  0.245175  0.895583  1
  O  O10  1  0.911043  0.259014  0.390719  1
  O  O11  1  0.911043  0.740986  0.109281  1
