# generated using pymatgen
data_HoLu9(InBi2)2
_symmetry_space_group_name_H-M   'P 1'
_cell_length_a   6.41550005
_cell_length_b   8.94989323
_cell_length_c   8.94046080
_cell_angle_alpha   120.03491652
_cell_angle_beta   90.00562668
_cell_angle_gamma   89.98877830
_symmetry_Int_Tables_number   1
_chemical_formula_structural   HoLu9(InBi2)2
_chemical_formula_sum   'Ho1 Lu9 In2 Bi4'
_cell_volume   444.41221040
_cell_formula_units_Z   1
loop_
 _symmetry_equiv_pos_site_id
 _symmetry_equiv_pos_as_xyz
  1  'x, y, z'
loop_
 _atom_site_type_symbol
 _atom_site_label
 _atom_site_symmetry_multiplicity
 _atom_site_fract_x
 _atom_site_fract_y
 _atom_site_fract_z
 _atom_site_occupancy
  Ho  Ho0  1  0.750273  0.235424  0.000000  1
  Lu  Lu1  1  0.496459  0.332350  0.659921  1
  Lu  Lu2  1  0.496459  0.672429  0.340079  1
  Lu  Lu3  1  0.003543  0.672215  0.339823  1
  Lu  Lu4  1  0.003543  0.332393  0.660177  1
  Lu  Lu5  1  0.750191  0.765512  0.763269  1
  Lu  Lu6  1  0.750191  0.002243  0.236731  1
  Lu  Lu7  1  0.250422  0.768063  0.000000  1
  Lu  Lu8  1  0.250209  0.231524  0.242681  1
  Lu  Lu9  1  0.250209  0.988843  0.757319  1
  In  In10  1  0.249039  0.604036  0.605089  1
  In  In11  1  0.249039  0.998948  0.394911  1
  Bi  Bi12  1  0.750111  0.606883  0.000000  1
  Bi  Bi13  1  0.750012  0.397408  0.394174  1
  Bi  Bi14  1  0.750012  0.003234  0.605826  1
  Bi  Bi15  1  0.250289  0.388499  0.000000  1
