# generated using pymatgen
data_DyHo3B10
_symmetry_space_group_name_H-M   'P 1'
_cell_length_a   7.08360000
_cell_length_b   7.08010207
_cell_length_c   7.10748296
_cell_angle_alpha   76.65199622
_cell_angle_beta   90.00000000
_cell_angle_gamma   90.00000000
_symmetry_Int_Tables_number   1
_chemical_formula_structural   DyHo3B10
_chemical_formula_sum   'Dy2 Ho6 B20'
_cell_volume   346.82937444
_cell_formula_units_Z   2
loop_
 _symmetry_equiv_pos_site_id
 _symmetry_equiv_pos_as_xyz
  1  'x, y, z'
loop_
 _atom_site_type_symbol
 _atom_site_label
 _atom_site_symmetry_multiplicity
 _atom_site_fract_x
 _atom_site_fract_y
 _atom_site_fract_z
 _atom_site_occupancy
  Dy  Dy0  1  0.307382  0.231273  0.373377  1
  Dy  Dy1  1  0.807382  0.768727  0.126623  1
  Ho  Ho2  1  0.314810  0.757072  0.252415  1
  Ho  Ho3  1  0.814810  0.242928  0.247585  1
  Ho  Ho4  1  0.685345  0.242804  0.747303  1
  Ho  Ho5  1  0.185345  0.757196  0.752697  1
  Ho  Ho6  1  0.693157  0.767046  0.627229  1
  Ho  Ho7  1  0.193157  0.232954  0.872771  1
  B  B8  1  0.502197  0.313556  0.041204  1
  B  B9  1  0.002197  0.686444  0.458796  1
  B  B10  1  0.497740  0.686826  0.958017  1
  B  B11  1  0.997740  0.313174  0.541983  1
  B  B12  1  0.488729  0.927311  0.922179  1
  B  B13  1  0.988729  0.072689  0.577821  1
  B  B14  1  0.509368  0.073578  0.074959  1
  B  B15  1  0.009368  0.926422  0.425041  1
  B  B16  1  0.326027  0.496665  0.039716  1
  B  B17  1  0.826027  0.503335  0.460284  1
  B  B18  1  0.674341  0.503533  0.960313  1
  B  B19  1  0.174341  0.496467  0.539687  1
  B  B20  1  0.911326  0.498609  0.911149  1
  B  B21  1  0.411326  0.501391  0.588851  1
  B  B22  1  0.089141  0.501268  0.088914  1
  B  B23  1  0.589141  0.498732  0.411086  1
  B  B24  1  0.962078  0.496309  0.674825  1
  B  B25  1  0.462078  0.503691  0.825175  1
  B  B26  1  0.038358  0.503215  0.325453  1
  B  B27  1  0.538358  0.496785  0.174547  1
