# generated using pymatgen
data_Nd5Sn2BiBr
_symmetry_space_group_name_H-M   'P 1'
_cell_length_a   9.57928200
_cell_length_b   9.53975732
_cell_length_c   6.79672100
_cell_angle_alpha   90.00000000
_cell_angle_beta   90.00000000
_cell_angle_gamma   120.13713542
_symmetry_Int_Tables_number   1
_chemical_formula_structural   Nd5Sn2BiBr
_chemical_formula_sum   'Nd10 Sn4 Bi2 Br2'
_cell_volume   537.15368885
_cell_formula_units_Z   2
loop_
 _symmetry_equiv_pos_site_id
 _symmetry_equiv_pos_as_xyz
  1  'x, y, z'
loop_
 _atom_site_type_symbol
 _atom_site_label
 _atom_site_symmetry_multiplicity
 _atom_site_fract_x
 _atom_site_fract_y
 _atom_site_fract_z
 _atom_site_occupancy
  Nd  Nd0  1  0.664448  0.328897  0.000000  1
  Nd  Nd1  1  0.334655  0.669312  0.500000  1
  Nd  Nd2  1  0.664448  0.328897  0.500000  1
  Nd  Nd3  1  0.334655  0.669312  0.000000  1
  Nd  Nd4  1  0.733464  0.006210  0.750000  1
  Nd  Nd5  1  0.727277  0.732601  0.250000  1
  Nd  Nd6  1  0.001121  0.264835  0.250000  1
  Nd  Nd7  1  0.005324  0.732601  0.750000  1
  Nd  Nd8  1  0.263714  0.264835  0.750000  1
  Nd  Nd9  1  0.272747  0.006210  0.250000  1
  Sn  Sn10  1  0.612402  0.000587  0.250000  1
  Sn  Sn11  1  0.388185  0.000587  0.750000  1
  Sn  Sn12  1  0.001027  0.388304  0.750000  1
  Sn  Sn13  1  0.387278  0.388304  0.250000  1
  Bi  Bi14  1  0.613304  0.613138  0.750000  1
  Bi  Bi15  1  0.999834  0.613138  0.250000  1
  Br  Br16  1  0.998058  0.996116  0.500000  1
  Br  Br17  1  0.998058  0.996116  0.000000  1
