# generated using pymatgen
data_Sm5Hf3(Ni4P3)4
_symmetry_space_group_name_H-M   'P 1'
_cell_length_a   12.37399500
_cell_length_b   12.37399437
_cell_length_c   3.84704200
_cell_angle_alpha   90.00000000
_cell_angle_beta   90.00000000
_cell_angle_gamma   120.00000436
_symmetry_Int_Tables_number   1
_chemical_formula_structural   Sm5Hf3(Ni4P3)4
_chemical_formula_sum   'Sm5 Hf3 Ni16 P12'
_cell_volume   510.12591955
_cell_formula_units_Z   1
loop_
 _symmetry_equiv_pos_site_id
 _symmetry_equiv_pos_as_xyz
  1  'x, y, z'
loop_
 _atom_site_type_symbol
 _atom_site_label
 _atom_site_symmetry_multiplicity
 _atom_site_fract_x
 _atom_site_fract_y
 _atom_site_fract_z
 _atom_site_occupancy
  Sm  Sm0  1  0.186391  0.186391  0.500000  1
  Sm  Sm1  1  0.813609  0.000000  0.500000  1
  Sm  Sm2  1  0.000000  0.813609  0.500000  1
  Sm  Sm3  1  0.333333  0.666667  0.000000  1
  Sm  Sm4  1  0.666667  0.333333  0.000000  1
  Hf  Hf5  1  0.564389  0.564389  0.000000  1
  Hf  Hf6  1  0.435611  0.000000  0.000000  1
  Hf  Hf7  1  0.000000  0.435611  0.000000  1
  Ni  Ni8  1  0.725048  0.725048  0.500000  1
  Ni  Ni9  1  0.274952  0.000000  0.500000  1
  Ni  Ni10  1  0.000000  0.274952  0.500000  1
  Ni  Ni11  1  0.185855  0.378328  0.000000  1
  Ni  Ni12  1  0.621672  0.807527  0.000000  1
  Ni  Ni13  1  0.192473  0.814145  0.000000  1
  Ni  Ni14  1  0.807527  0.621672  0.000000  1
  Ni  Ni15  1  0.814145  0.192473  0.000000  1
  Ni  Ni16  1  0.378328  0.185855  0.000000  1
  Ni  Ni17  1  0.363303  0.485842  0.500000  1
  Ni  Ni18  1  0.514158  0.877463  0.500000  1
  Ni  Ni19  1  0.122537  0.636697  0.500000  1
  Ni  Ni20  1  0.877463  0.514158  0.500000  1
  Ni  Ni21  1  0.636697  0.122537  0.500000  1
  Ni  Ni22  1  0.485842  0.363303  0.500000  1
  Ni  Ni23  1  0.000000  0.000000  0.000000  1
  P  P24  1  0.820809  0.820809  0.000000  1
  P  P25  1  0.179191  0.000000  0.000000  1
  P  P26  1  0.000000  0.179191  0.000000  1
  P  P27  1  0.169575  0.473781  0.500000  1
  P  P28  1  0.526219  0.695794  0.500000  1
  P  P29  1  0.304206  0.830425  0.500000  1
  P  P30  1  0.695794  0.526219  0.500000  1
  P  P31  1  0.830425  0.304206  0.500000  1
  P  P32  1  0.473781  0.169575  0.500000  1
  P  P33  1  0.360285  0.360285  0.000000  1
  P  P34  1  0.639715  0.000000  0.000000  1
  P  P35  1  0.000000  0.639715  0.000000  1
