# generated using pymatgen
data_Er4LuAlSb2
_symmetry_space_group_name_H-M   'P 1'
_cell_length_a   8.74571300
_cell_length_b   8.75814607
_cell_length_c   6.35164400
_cell_angle_alpha   90.00000000
_cell_angle_beta   90.00000000
_cell_angle_gamma   119.95304731
_symmetry_Int_Tables_number   1
_chemical_formula_structural   Er4LuAlSb2
_chemical_formula_sum   'Er8 Lu2 Al2 Sb4'
_cell_volume   421.53095048
_cell_formula_units_Z   2
loop_
 _symmetry_equiv_pos_site_id
 _symmetry_equiv_pos_as_xyz
  1  'x, y, z'
loop_
 _atom_site_type_symbol
 _atom_site_label
 _atom_site_symmetry_multiplicity
 _atom_site_fract_x
 _atom_site_fract_y
 _atom_site_fract_z
 _atom_site_occupancy
  Er  Er0  1  0.339563  0.679122  0.999999  1
  Er  Er1  1  0.660437  0.320878  0.499999  1
  Er  Er2  1  0.242716  0.000001  0.250001  1
  Er  Er3  1  0.757284  0.999999  0.750001  1
  Er  Er4  1  0.988619  0.233794  0.250070  1
  Er  Er5  1  0.754825  0.766203  0.249932  1
  Er  Er6  1  0.245175  0.233797  0.749932  1
  Er  Er7  1  0.011381  0.766206  0.750070  1
  Lu  Lu8  1  0.659346  0.318688  0.000001  1
  Lu  Lu9  1  0.340654  0.681312  0.500001  1
  Al  Al10  1  0.599725  0.999998  0.249999  1
  Al  Al11  1  0.400275  0.000002  0.749999  1
  Sb  Sb12  1  0.994180  0.605355  0.249763  1
  Sb  Sb13  1  0.388822  0.394643  0.250236  1
  Sb  Sb14  1  0.611178  0.605357  0.750236  1
  Sb  Sb15  1  0.005820  0.394645  0.749763  1
