# generated using pymatgen
data_Ce3PaGe6Os7
_symmetry_space_group_name_H-M   'P 1'
_cell_length_a   7.30188573
_cell_length_b   7.33412767
_cell_length_c   7.30188464
_cell_angle_alpha   109.56069297
_cell_angle_beta   109.38160334
_cell_angle_gamma   109.56068588
_symmetry_Int_Tables_number   1
_chemical_formula_structural   Ce3PaGe6Os7
_chemical_formula_sum   'Ce3 Pa1 Ge6 Os7'
_cell_volume   300.68783138
_cell_formula_units_Z   1
loop_
 _symmetry_equiv_pos_site_id
 _symmetry_equiv_pos_as_xyz
  1  'x, y, z'
loop_
 _atom_site_type_symbol
 _atom_site_label
 _atom_site_symmetry_multiplicity
 _atom_site_fract_x
 _atom_site_fract_y
 _atom_site_fract_z
 _atom_site_occupancy
  Ce  Ce0  1  0.000000  0.000000  0.500000  1
  Ce  Ce1  1  0.500000  0.000000  0.000000  1
  Ce  Ce2  1  0.500000  0.500000  0.500000  1
  Pa  Pa3  1  0.000000  0.500000  0.000000  1
  Ge  Ge4  1  0.686689  0.687578  0.000000  1
  Ge  Ge5  1  0.313311  0.000889  0.313311  1
  Ge  Ge6  1  0.000000  0.312422  0.313311  1
  Ge  Ge7  1  0.313311  0.312422  0.000000  1
  Ge  Ge8  1  0.686689  0.999111  0.686689  1
  Ge  Ge9  1  0.000000  0.687578  0.686689  1
  Os  Os10  1  0.753152  0.253152  0.506305  1
  Os  Os11  1  0.753152  0.500000  0.246848  1
  Os  Os12  1  0.506305  0.253152  0.753152  1
  Os  Os13  1  0.246848  0.500000  0.753152  1
  Os  Os14  1  0.246848  0.746848  0.493695  1
  Os  Os15  1  0.493695  0.746848  0.246848  1
  Os  Os16  1  0.000000  0.000000  0.000000  1
