# generated using pymatgen
data_HoBe12Ni
_symmetry_space_group_name_H-M   'P 1'
_cell_length_a   7.24635915
_cell_length_b   7.30333105
_cell_length_c   7.22025163
_cell_angle_alpha   59.85619265
_cell_angle_beta   59.63378362
_cell_angle_gamma   59.50259090
_symmetry_Int_Tables_number   1
_chemical_formula_structural   HoBe12Ni
_chemical_formula_sum   'Ho2 Be24 Ni2'
_cell_volume   268.12878185
_cell_formula_units_Z   2
loop_
 _symmetry_equiv_pos_site_id
 _symmetry_equiv_pos_as_xyz
  1  'x, y, z'
loop_
 _atom_site_type_symbol
 _atom_site_label
 _atom_site_symmetry_multiplicity
 _atom_site_fract_x
 _atom_site_fract_y
 _atom_site_fract_z
 _atom_site_occupancy
  Ho  Ho0  1  0.248839  0.251161  0.248839  1
  Ho  Ho1  1  0.751161  0.748839  0.751161  1
  Be  Be2  1  0.500000  0.500000  0.500000  1
  Be  Be3  1  0.000000  0.000000  0.000000  1
  Be  Be4  1  0.567884  0.788351  0.432116  1
  Be  Be5  1  0.432116  0.211649  0.567884  1
  Be  Be6  1  0.293243  0.935016  0.706757  1
  Be  Be7  1  0.706757  0.064984  0.293243  1
  Be  Be8  1  0.932759  0.285377  0.067241  1
  Be  Be9  1  0.067241  0.714623  0.932759  1
  Be  Be10  1  0.205785  0.797744  0.560767  1
  Be  Be11  1  0.794215  0.202256  0.439233  1
  Be  Be12  1  0.439233  0.564296  0.794215  1
  Be  Be13  1  0.560767  0.435704  0.205785  1
  Be  Be14  1  0.711378  0.284066  0.935337  1
  Be  Be15  1  0.288622  0.715934  0.064663  1
  Be  Be16  1  0.064663  0.930781  0.288622  1
  Be  Be17  1  0.935337  0.069219  0.711378  1
  Be  Be18  1  0.562197  0.206807  0.794785  1
  Be  Be19  1  0.437803  0.793193  0.205215  1
  Be  Be20  1  0.794785  0.436211  0.562197  1
  Be  Be21  1  0.205215  0.563789  0.437803  1
  Be  Be22  1  0.936354  0.711039  0.289405  1
  Be  Be23  1  0.063646  0.288961  0.710595  1
  Be  Be24  1  0.289405  0.063202  0.936354  1
  Be  Be25  1  0.710595  0.936798  0.063646  1
  Ni  Ni26  1  0.799146  0.559095  0.200854  1
  Ni  Ni27  1  0.200854  0.440905  0.799146  1
