# generated using pymatgen
data_Nd3Mg2InSn2Au
_symmetry_space_group_name_H-M   'P 1'
_cell_length_a   7.68581400
_cell_length_b   7.64514418
_cell_length_c   4.63023700
_cell_angle_alpha   90.00000000
_cell_angle_beta   90.00000000
_cell_angle_gamma   120.17613060
_symmetry_Int_Tables_number   1
_chemical_formula_structural   Nd3Mg2InSn2Au
_chemical_formula_sum   'Nd3 Mg2 In1 Sn2 Au1'
_cell_volume   235.19921845
_cell_formula_units_Z   1
loop_
 _symmetry_equiv_pos_site_id
 _symmetry_equiv_pos_as_xyz
  1  'x, y, z'
loop_
 _atom_site_type_symbol
 _atom_site_label
 _atom_site_symmetry_multiplicity
 _atom_site_fract_x
 _atom_site_fract_y
 _atom_site_fract_z
 _atom_site_occupancy
  Nd  Nd0  1  0.592975  0.000000  0.000000  1
  Nd  Nd1  1  0.002445  0.596396  0.000000  1
  Nd  Nd2  1  0.406050  0.403604  0.000000  1
  Mg  Mg3  1  0.999972  0.233737  0.500000  1
  Mg  Mg4  1  0.766235  0.766263  0.500000  1
  In  In5  1  0.236773  0.000000  0.500000  1
  Sn  Sn6  1  0.334708  0.663383  0.500000  1
  Sn  Sn7  1  0.671326  0.336617  0.500000  1
  Au  Au8  1  0.989515  0.000000  0.000000  1
