# generated using pymatgen
data_Ce4Dy5Tm(Sn3Au)2
_symmetry_space_group_name_H-M   'P 1'
_cell_length_a   9.39776004
_cell_length_b   9.39776152
_cell_length_c   6.44643600
_cell_angle_alpha   90.00000000
_cell_angle_beta   90.00000000
_cell_angle_gamma   120.00992772
_symmetry_Int_Tables_number   1
_chemical_formula_structural   Ce4Dy5Tm(Sn3Au)2
_chemical_formula_sum   'Ce4 Dy5 Tm1 Sn6 Au2'
_cell_volume   493.00988106
_cell_formula_units_Z   1
loop_
 _symmetry_equiv_pos_site_id
 _symmetry_equiv_pos_as_xyz
  1  'x, y, z'
loop_
 _atom_site_type_symbol
 _atom_site_label
 _atom_site_symmetry_multiplicity
 _atom_site_fract_x
 _atom_site_fract_y
 _atom_site_fract_z
 _atom_site_occupancy
  Ce  Ce0  1  0.332893  0.666190  0.499606  1
  Ce  Ce1  1  0.666190  0.332893  0.499606  1
  Ce  Ce2  1  0.666190  0.332893  0.000394  1
  Ce  Ce3  1  0.332893  0.666190  0.000394  1
  Dy  Dy4  1  0.270712  0.999838  0.750000  1
  Dy  Dy5  1  0.727758  0.998460  0.250000  1
  Dy  Dy6  1  0.999838  0.270712  0.750000  1
  Dy  Dy7  1  0.998460  0.727758  0.250000  1
  Dy  Dy8  1  0.730830  0.730830  0.750000  1
  Tm  Tm9  1  0.271212  0.271212  0.250000  1
  Sn  Sn10  1  0.619845  0.999663  0.750000  1
  Sn  Sn11  1  0.378453  0.000295  0.250000  1
  Sn  Sn12  1  0.999663  0.619845  0.750000  1
  Sn  Sn13  1  0.000295  0.378453  0.250000  1
  Sn  Sn14  1  0.380170  0.380170  0.750000  1
  Sn  Sn15  1  0.618162  0.618162  0.250000  1
  Au  Au16  1  0.003217  0.003217  0.496974  1
  Au  Au17  1  0.003217  0.003217  0.003026  1
