# generated using pymatgen
data_Zr16Co4Tc3Au
_symmetry_space_group_name_H-M   'P 1'
_cell_length_a   8.76720257
_cell_length_b   8.71093544
_cell_length_c   8.71093600
_cell_angle_alpha   59.99999789
_cell_angle_beta   60.21207459
_cell_angle_gamma   60.21207661
_symmetry_Int_Tables_number   1
_chemical_formula_structural   Zr16Co4Tc3Au
_chemical_formula_sum   'Zr16 Co4 Tc3 Au1'
_cell_volume   471.91130674
_cell_formula_units_Z   1
loop_
 _symmetry_equiv_pos_site_id
 _symmetry_equiv_pos_as_xyz
  1  'x, y, z'
loop_
 _atom_site_type_symbol
 _atom_site_label
 _atom_site_symmetry_multiplicity
 _atom_site_fract_x
 _atom_site_fract_y
 _atom_site_fract_z
 _atom_site_occupancy
  Zr  Zr0  1  0.051652  0.649450  0.649450  1
  Zr  Zr1  1  0.648764  0.048020  0.651609  1
  Zr  Zr2  1  0.648764  0.651609  0.048020  1
  Zr  Zr3  1  0.648764  0.651609  0.651609  1
  Zr  Zr4  1  0.797260  0.805369  0.198686  1
  Zr  Zr5  1  0.200833  0.201981  0.798593  1
  Zr  Zr6  1  0.797260  0.198686  0.805369  1
  Zr  Zr7  1  0.200833  0.798593  0.201981  1
  Zr  Zr8  1  0.200833  0.798593  0.798593  1
  Zr  Zr9  1  0.797260  0.198686  0.198686  1
  Zr  Zr10  1  0.436647  0.435098  0.064128  1
  Zr  Zr11  1  0.074158  0.055300  0.435271  1
  Zr  Zr12  1  0.436647  0.064128  0.435098  1
  Zr  Zr13  1  0.074158  0.435271  0.055300  1
  Zr  Zr14  1  0.074158  0.435271  0.435271  1
  Zr  Zr15  1  0.436647  0.064128  0.064128  1
  Co  Co16  1  0.419445  0.860185  0.860185  1
  Co  Co17  1  0.858624  0.420706  0.860335  1
  Co  Co18  1  0.858624  0.860335  0.420706  1
  Co  Co19  1  0.858624  0.860335  0.860335  1
  Tc  Tc20  1  0.412473  0.749865  0.418831  1
  Tc  Tc21  1  0.412473  0.418831  0.749865  1
  Tc  Tc22  1  0.412473  0.418831  0.418831  1
  Au  Au23  1  0.742627  0.419124  0.419124  1
