# generated using pymatgen
data_Ce2Th(InPt)3
_symmetry_space_group_name_H-M   'P 1'
_cell_length_a   7.69812600
_cell_length_b   7.65222989
_cell_length_c   4.08428800
_cell_angle_alpha   90.00000000
_cell_angle_beta   90.00000000
_cell_angle_gamma   120.19510216
_symmetry_Int_Tables_number   1
_chemical_formula_structural   Ce2Th(InPt)3
_chemical_formula_sum   'Ce2 Th1 In3 Pt3'
_cell_volume   207.95187414
_cell_formula_units_Z   1
loop_
 _symmetry_equiv_pos_site_id
 _symmetry_equiv_pos_as_xyz
  1  'x, y, z'
loop_
 _atom_site_type_symbol
 _atom_site_label
 _atom_site_symmetry_multiplicity
 _atom_site_fract_x
 _atom_site_fract_y
 _atom_site_fract_z
 _atom_site_occupancy
  Ce  Ce0  1  0.588596  0.588925  0.500000  1
  Ce  Ce1  1  0.999939  0.411252  0.500000  1
  Th  Th2  1  0.411763  0.000041  0.500000  1
  In  In3  1  0.994350  0.742251  0.000000  1
  In  In4  1  0.753188  0.000264  0.000000  1
  In  In5  1  0.252040  0.257505  0.000000  1
  Pt  Pt6  1  0.004988  0.999879  0.500000  1
  Pt  Pt7  1  0.661406  0.327681  0.000000  1
  Pt  Pt8  1  0.333730  0.672202  0.000000  1
