# generated using pymatgen
data_Ce2Al4FeTc
_symmetry_space_group_name_H-M   'P 1'
_cell_length_a   5.14138440
_cell_length_b   5.14138402
_cell_length_c   7.35931000
_cell_angle_alpha   90.00000000
_cell_angle_beta   90.00000000
_cell_angle_gamma   129.93778758
_symmetry_Int_Tables_number   1
_chemical_formula_structural   Ce2Al4FeTc
_chemical_formula_sum   'Ce2 Al4 Fe1 Tc1'
_cell_volume   149.15795981
_cell_formula_units_Z   1
loop_
 _symmetry_equiv_pos_site_id
 _symmetry_equiv_pos_as_xyz
  1  'x, y, z'
loop_
 _atom_site_type_symbol
 _atom_site_label
 _atom_site_symmetry_multiplicity
 _atom_site_fract_x
 _atom_site_fract_y
 _atom_site_fract_z
 _atom_site_occupancy
  Ce  Ce0  1  0.547111  0.452889  0.250000  1
  Ce  Ce1  1  0.441892  0.558108  0.750000  1
  Al  Al2  1  0.844607  0.155393  0.058887  1
  Al  Al3  1  0.155635  0.844365  0.960242  1
  Al  Al4  1  0.155635  0.844365  0.539758  1
  Al  Al5  1  0.844607  0.155393  0.441113  1
  Fe  Fe6  1  0.320484  0.679516  0.250000  1
  Tc  Tc7  1  0.690029  0.309971  0.750000  1
