# generated using pymatgen
data_DyY2(ZnNi)3
_symmetry_space_group_name_H-M   'P 1'
_cell_length_a   7.02871520
_cell_length_b   7.03833619
_cell_length_c   3.76330600
_cell_angle_alpha   90.00000000
_cell_angle_beta   90.00000000
_cell_angle_gamma   120.04528978
_symmetry_Int_Tables_number   1
_chemical_formula_structural   DyY2(ZnNi)3
_chemical_formula_sum   'Dy1 Y2 Zn3 Ni3'
_cell_volume   161.15646714
_cell_formula_units_Z   1
loop_
 _symmetry_equiv_pos_site_id
 _symmetry_equiv_pos_as_xyz
  1  'x, y, z'
loop_
 _atom_site_type_symbol
 _atom_site_label
 _atom_site_symmetry_multiplicity
 _atom_site_fract_x
 _atom_site_fract_y
 _atom_site_fract_z
 _atom_site_occupancy
  Dy  Dy0  1  0.000000  0.588742  0.500000  1
  Y  Y1  1  0.411069  0.411271  0.500000  1
  Y  Y2  1  0.588931  0.000202  0.500000  1
  Zn  Zn3  1  0.757686  0.757550  0.000000  1
  Zn  Zn4  1  0.242314  0.999865  0.000000  1
  Zn  Zn5  1  0.000000  0.242510  0.000000  1
  Ni  Ni6  1  0.668026  0.334325  0.000000  1
  Ni  Ni7  1  0.331974  0.666301  0.000000  1
  Ni  Ni8  1  0.000000  0.999234  0.500000  1
