# generated using pymatgen
data_Ho5Si12Ir9Rh10
_symmetry_space_group_name_H-M   'P 1'
_cell_length_a   12.92091400
_cell_length_b   12.92091470
_cell_length_c   4.02712900
_cell_angle_alpha   90.00000000
_cell_angle_beta   90.00000000
_cell_angle_gamma   120.00000332
_symmetry_Int_Tables_number   1
_chemical_formula_structural   Ho5Si12Ir9Rh10
_chemical_formula_sum   'Ho5 Si12 Ir9 Rh10'
_cell_volume   582.25423239
_cell_formula_units_Z   1
loop_
 _symmetry_equiv_pos_site_id
 _symmetry_equiv_pos_as_xyz
  1  'x, y, z'
loop_
 _atom_site_type_symbol
 _atom_site_label
 _atom_site_symmetry_multiplicity
 _atom_site_fract_x
 _atom_site_fract_y
 _atom_site_fract_z
 _atom_site_occupancy
  Ho  Ho0  1  0.000000  0.814426  0.500000  1
  Ho  Ho1  1  0.185574  0.185574  0.500000  1
  Ho  Ho2  1  0.814426  0.000000  0.500000  1
  Ho  Ho3  1  0.333333  0.666667  0.000000  1
  Ho  Ho4  1  0.666667  0.333333  0.000000  1
  Si  Si5  1  0.000000  0.182305  0.000000  1
  Si  Si6  1  0.817695  0.817695  0.000000  1
  Si  Si7  1  0.182305  0.000000  0.000000  1
  Si  Si8  1  0.520520  0.688271  0.500000  1
  Si  Si9  1  0.311729  0.832249  0.500000  1
  Si  Si10  1  0.167751  0.479480  0.500000  1
  Si  Si11  1  0.479480  0.167751  0.500000  1
  Si  Si12  1  0.688271  0.520520  0.500000  1
  Si  Si13  1  0.832249  0.311729  0.500000  1
  Si  Si14  1  0.000000  0.627823  0.000000  1
  Si  Si15  1  0.372177  0.372177  0.000000  1
  Si  Si16  1  0.627823  0.000000  0.000000  1
  Ir  Ir17  1  0.000000  0.280701  0.500000  1
  Ir  Ir18  1  0.719299  0.719299  0.500000  1
  Ir  Ir19  1  0.280701  0.000000  0.500000  1
  Ir  Ir20  1  0.512625  0.873438  0.500000  1
  Ir  Ir21  1  0.126562  0.639188  0.500000  1
  Ir  Ir22  1  0.360812  0.487375  0.500000  1
  Ir  Ir23  1  0.487375  0.360812  0.500000  1
  Ir  Ir24  1  0.873438  0.512625  0.500000  1
  Ir  Ir25  1  0.639188  0.126562  0.500000  1
  Rh  Rh26  1  0.623723  0.807389  0.000000  1
  Rh  Rh27  1  0.192611  0.816334  0.000000  1
  Rh  Rh28  1  0.183666  0.376277  0.000000  1
  Rh  Rh29  1  0.376277  0.183666  0.000000  1
  Rh  Rh30  1  0.807389  0.623723  0.000000  1
  Rh  Rh31  1  0.816334  0.192611  0.000000  1
  Rh  Rh32  1  0.000000  0.000000  0.000000  1
  Rh  Rh33  1  0.000000  0.445995  0.000000  1
  Rh  Rh34  1  0.554005  0.554005  0.000000  1
  Rh  Rh35  1  0.445995  0.000000  0.000000  1
