# generated using pymatgen
data_Er4Os3Ru4W
_symmetry_space_group_name_H-M   'P 1'
_cell_length_a   5.45493900
_cell_length_b   5.18460527
_cell_length_c   9.03248900
_cell_angle_alpha   90.00000000
_cell_angle_beta   90.00000000
_cell_angle_gamma   121.74035126
_symmetry_Int_Tables_number   1
_chemical_formula_structural   Er4Os3Ru4W
_chemical_formula_sum   'Er4 Os3 Ru4 W1'
_cell_volume   217.24867608
_cell_formula_units_Z   1
loop_
 _symmetry_equiv_pos_site_id
 _symmetry_equiv_pos_as_xyz
  1  'x, y, z'
loop_
 _atom_site_type_symbol
 _atom_site_label
 _atom_site_symmetry_multiplicity
 _atom_site_fract_x
 _atom_site_fract_y
 _atom_site_fract_z
 _atom_site_occupancy
  Er  Er0  1  0.334571  0.669143  0.432521  1
  Er  Er1  1  0.672438  0.344874  0.562972  1
  Er  Er2  1  0.672438  0.344874  0.937028  1
  Er  Er3  1  0.334571  0.669143  0.067479  1
  Os  Os4  1  0.334683  0.165732  0.250000  1
  Os  Os5  1  0.824642  0.649283  0.250000  1
  Os  Os6  1  0.831049  0.165732  0.250000  1
  Ru  Ru7  1  0.169552  0.818410  0.750000  1
  Ru  Ru8  1  0.648857  0.818410  0.750000  1
  Ru  Ru9  1  0.009013  0.018026  0.000757  1
  Ru  Ru10  1  0.009013  0.018026  0.499243  1
  W  W11  1  0.159174  0.318348  0.750000  1
