# generated using pymatgen
data_Ce2Ga12Rh
_symmetry_space_group_name_H-M   'P 1'
_cell_length_a   6.10106900
_cell_length_b   6.10106900
_cell_length_c   15.64787400
_cell_angle_alpha   90.00000000
_cell_angle_beta   90.00000000
_cell_angle_gamma   89.99983096
_symmetry_Int_Tables_number   1
_chemical_formula_structural   Ce2Ga12Rh
_chemical_formula_sum   'Ce4 Ga24 Rh2'
_cell_volume   582.46148586
_cell_formula_units_Z   2
loop_
 _symmetry_equiv_pos_site_id
 _symmetry_equiv_pos_as_xyz
  1  'x, y, z'
loop_
 _atom_site_type_symbol
 _atom_site_label
 _atom_site_symmetry_multiplicity
 _atom_site_fract_x
 _atom_site_fract_y
 _atom_site_fract_z
 _atom_site_occupancy
  Ce  Ce0  1  0.000000  0.500000  0.242357  1
  Ce  Ce1  1  0.500000  0.000000  0.242314  1
  Ce  Ce2  1  0.000000  0.500000  0.757686  1
  Ce  Ce3  1  0.500000  0.000000  0.757643  1
  Ga  Ga4  1  0.000000  0.000000  0.343976  1
  Ga  Ga5  1  0.249806  0.250194  0.912582  1
  Ga  Ga6  1  0.330088  0.169912  0.569710  1
  Ga  Ga7  1  0.249962  0.749962  0.087419  1
  Ga  Ga8  1  0.669912  0.830088  0.569710  1
  Ga  Ga9  1  0.000000  0.000000  0.812112  1
  Ga  Ga10  1  0.330110  0.830110  0.430265  1
  Ga  Ga11  1  0.000000  0.000000  0.187888  1
  Ga  Ga12  1  0.500000  0.500000  0.343976  1
  Ga  Ga13  1  0.250194  0.249806  0.087418  1
  Ga  Ga14  1  0.749806  0.750194  0.087418  1
  Ga  Ga15  1  0.000000  0.000000  0.656024  1
  Ga  Ga16  1  0.830088  0.669912  0.430290  1
  Ga  Ga17  1  0.830110  0.330110  0.569735  1
  Ga  Ga18  1  0.500000  0.500000  0.187888  1
  Ga  Ga19  1  0.250038  0.750038  0.912581  1
  Ga  Ga20  1  0.500000  0.500000  0.656024  1
  Ga  Ga21  1  0.750194  0.749806  0.912582  1
  Ga  Ga22  1  0.669890  0.169890  0.430265  1
  Ga  Ga23  1  0.169912  0.330088  0.430290  1
  Ga  Ga24  1  0.500000  0.500000  0.812112  1
  Ga  Ga25  1  0.749962  0.249962  0.912581  1
  Ga  Ga26  1  0.750038  0.250038  0.087419  1
  Ga  Ga27  1  0.169890  0.669890  0.569735  1
  Rh  Rh28  1  0.000000  0.500000  0.000097  1
  Rh  Rh29  1  0.500000  0.000000  0.999903  1
