# generated using pymatgen
data_Pm2Tc(SbO6)2
_symmetry_space_group_name_H-M   'P 1'
_cell_length_a   7.10341666
_cell_length_b   7.10341687
_cell_length_c   11.79996236
_cell_angle_alpha   79.02357345
_cell_angle_beta   79.02357011
_cell_angle_gamma   112.24504865
_symmetry_Int_Tables_number   1
_chemical_formula_structural   Pm2Tc(SbO6)2
_chemical_formula_sum   'Pm4 Tc2 Sb4 O24'
_cell_volume   517.94682862
_cell_formula_units_Z   2
loop_
 _symmetry_equiv_pos_site_id
 _symmetry_equiv_pos_as_xyz
  1  'x, y, z'
loop_
 _atom_site_type_symbol
 _atom_site_label
 _atom_site_symmetry_multiplicity
 _atom_site_fract_x
 _atom_site_fract_y
 _atom_site_fract_z
 _atom_site_occupancy
  Pm  Pm0  1  0.180880  0.435077  0.597285  1
  Pm  Pm1  1  0.819120  0.564923  0.402715  1
  Pm  Pm2  1  0.564923  0.819120  0.902715  1
  Pm  Pm3  1  0.435077  0.180880  0.097285  1
  Tc  Tc4  1  0.608060  0.391940  0.750000  1
  Tc  Tc5  1  0.391940  0.608060  0.250000  1
  Sb  Sb6  1  0.998036  0.293714  0.961019  1
  Sb  Sb7  1  0.001964  0.706286  0.038981  1
  Sb  Sb8  1  0.706286  0.001964  0.538981  1
  Sb  Sb9  1  0.293714  0.998036  0.461019  1
  O  O10  1  0.548563  0.479687  0.616366  1
  O  O11  1  0.451437  0.520313  0.383634  1
  O  O12  1  0.520313  0.451437  0.883634  1
  O  O13  1  0.479687  0.548563  0.116366  1
  O  O14  1  0.505010  0.118981  0.780858  1
  O  O15  1  0.494990  0.881019  0.219142  1
  O  O16  1  0.881019  0.494990  0.719142  1
  O  O17  1  0.118981  0.505010  0.280858  1
  O  O18  1  0.708964  0.129373  0.960472  1
  O  O19  1  0.291036  0.870627  0.039528  1
  O  O20  1  0.870627  0.291036  0.539528  1
  O  O21  1  0.129373  0.708964  0.460472  1
  O  O22  1  0.393451  0.819267  0.578680  1
  O  O23  1  0.606549  0.180733  0.421320  1
  O  O24  1  0.180733  0.606549  0.921320  1
  O  O25  1  0.819267  0.393451  0.078680  1
  O  O26  1  0.138446  0.305548  0.799052  1
  O  O27  1  0.861554  0.694452  0.200948  1
  O  O28  1  0.694452  0.861554  0.700948  1
  O  O29  1  0.305548  0.138446  0.299052  1
  O  O30  1  0.882531  0.832009  0.934058  1
  O  O31  1  0.117469  0.167991  0.065942  1
  O  O32  1  0.167991  0.117469  0.565942  1
  O  O33  1  0.832009  0.882531  0.434058  1
