# generated using pymatgen
data_Y3ThAl17SiRh6
_symmetry_space_group_name_H-M   'P 1'
_cell_length_a   7.57656217
_cell_length_b   7.56836193
_cell_length_c   9.47278947
_cell_angle_alpha   90.02648790
_cell_angle_beta   89.91862313
_cell_angle_gamma   119.49838746
_symmetry_Int_Tables_number   1
_chemical_formula_structural   Y3ThAl17SiRh6
_chemical_formula_sum   'Y3 Th1 Al17 Si1 Rh6'
_cell_volume   472.77576478
_cell_formula_units_Z   1
loop_
 _symmetry_equiv_pos_site_id
 _symmetry_equiv_pos_as_xyz
  1  'x, y, z'
loop_
 _atom_site_type_symbol
 _atom_site_label
 _atom_site_symmetry_multiplicity
 _atom_site_fract_x
 _atom_site_fract_y
 _atom_site_fract_z
 _atom_site_occupancy
  Y  Y0  1  0.004796  0.328400  0.753779  1
  Y  Y1  1  0.676273  0.999496  0.247525  1
  Y  Y2  1  0.328393  0.005432  0.750595  1
  Th  Th3  1  0.994698  0.666035  0.247355  1
  Al  Al4  1  0.131744  0.133449  0.249510  1
  Al  Al5  1  0.871330  0.874532  0.749535  1
  Al  Al6  1  0.999142  0.668033  0.917240  1
  Al  Al7  1  0.999560  0.664571  0.580800  1
  Al  Al8  1  0.339208  0.003928  0.427912  1
  Al  Al9  1  0.001554  0.331177  0.432466  1
  Al  Al10  1  0.664234  0.000441  0.576020  1
  Al  Al11  1  0.661603  0.997395  0.922313  1
  Al  Al12  1  0.339240  0.004242  0.072552  1
  Al  Al13  1  0.332616  0.332259  0.554366  1
  Al  Al14  1  0.664021  0.667260  0.454905  1
  Al  Al15  1  0.663045  0.666453  0.045720  1
  Al  Al16  1  0.334064  0.332838  0.946311  1
  Al  Al17  1  0.345226  0.548828  0.250310  1
  Al  Al18  1  0.658470  0.448246  0.750212  1
  Al  Al19  1  0.543126  0.337661  0.249780  1
  Al  Al20  1  0.448305  0.659268  0.749737  1
  Si  Si21  1  0.001135  0.330720  0.071330  1
  Rh  Rh22  1  0.681120  0.329955  0.001843  1
  Rh  Rh23  1  0.318820  0.663727  0.001025  1
  Rh  Rh24  1  0.326256  0.671042  0.498948  1
  Rh  Rh25  1  0.673351  0.329361  0.498633  1
  Rh  Rh26  1  0.998727  0.006032  0.000810  1
  Rh  Rh27  1  0.999942  0.999221  0.498468  1
