# generated using pymatgen
data_Ac3LaRu2
_symmetry_space_group_name_H-M   'P 1'
_cell_length_a   6.99995700
_cell_length_b   6.99995735
_cell_length_c   4.36478800
_cell_angle_alpha   90.00000000
_cell_angle_beta   90.00000000
_cell_angle_gamma   93.05165932
_symmetry_Int_Tables_number   1
_chemical_formula_structural   Ac3LaRu2
_chemical_formula_sum   'Ac3 La1 Ru2'
_cell_volume   213.56871207
_cell_formula_units_Z   1
loop_
 _symmetry_equiv_pos_site_id
 _symmetry_equiv_pos_as_xyz
  1  'x, y, z'
loop_
 _atom_site_type_symbol
 _atom_site_label
 _atom_site_symmetry_multiplicity
 _atom_site_fract_x
 _atom_site_fract_y
 _atom_site_fract_z
 _atom_site_occupancy
  Ac  Ac0  1  0.698963  0.698963  0.000000  1
  Ac  Ac1  1  0.802364  0.201796  0.500000  1
  Ac  Ac2  1  0.201796  0.802364  0.500000  1
  La  La3  1  0.300675  0.300675  0.000000  1
  Ru  Ru4  1  0.006982  0.006982  0.000000  1
  Ru  Ru5  1  0.489220  0.489220  0.500000  1
