# generated using pymatgen
data_PrEr2Lu(WO6)2
_symmetry_space_group_name_H-M   'P 1'
_cell_length_a   5.41913600
_cell_length_b   7.73752039
_cell_length_c   11.46805083
_cell_angle_alpha   75.58972983
_cell_angle_beta   90.00000000
_cell_angle_gamma   90.00000000
_symmetry_Int_Tables_number   1
_chemical_formula_structural   PrEr2Lu(WO6)2
_chemical_formula_sum   'Pr2 Er4 Lu2 W4 O24'
_cell_volume   465.73447369
_cell_formula_units_Z   2
loop_
 _symmetry_equiv_pos_site_id
 _symmetry_equiv_pos_as_xyz
  1  'x, y, z'
loop_
 _atom_site_type_symbol
 _atom_site_label
 _atom_site_symmetry_multiplicity
 _atom_site_fract_x
 _atom_site_fract_y
 _atom_site_fract_z
 _atom_site_occupancy
  Pr  Pr0  1  0.314118  0.500000  0.750000  1
  Pr  Pr1  1  0.686448  0.500000  0.250000  1
  Er  Er2  1  0.256201  0.000000  0.750000  1
  Er  Er3  1  0.184787  0.797949  0.076905  1
  Er  Er4  1  0.184787  0.202051  0.423095  1
  Er  Er5  1  0.744387  0.000000  0.250000  1
  Lu  Lu6  1  0.815195  0.203274  0.922262  1
  Lu  Lu7  1  0.815195  0.796726  0.577738  1
  W  W8  1  0.746126  0.729036  0.883358  1
  W  W9  1  0.254637  0.729592  0.384849  1
  W  W10  1  0.746126  0.270964  0.616642  1
  W  W11  1  0.254637  0.270408  0.115151  1
  O  O12  1  0.540198  0.157018  0.067360  1
  O  O13  1  0.042383  0.057939  0.103043  1
  O  O14  1  0.014511  0.723601  0.767574  1
  O  O15  1  0.460909  0.156617  0.570373  1
  O  O16  1  0.345175  0.493477  0.387453  1
  O  O17  1  0.954399  0.055413  0.603616  1
  O  O18  1  0.546782  0.797707  0.724164  1
  O  O19  1  0.455488  0.798353  0.226243  1
  O  O20  1  0.140896  0.643669  0.546318  1
  O  O21  1  0.042383  0.942061  0.396957  1
  O  O22  1  0.460909  0.843383  0.929627  1
  O  O23  1  0.455488  0.201647  0.273757  1
  O  O24  1  0.855582  0.357386  0.454560  1
  O  O25  1  0.656356  0.492148  0.886752  1
  O  O26  1  0.345175  0.506523  0.112547  1
  O  O27  1  0.954399  0.944587  0.896384  1
  O  O28  1  0.540198  0.842982  0.432640  1
  O  O29  1  0.986000  0.277322  0.231432  1
  O  O30  1  0.546782  0.202293  0.775836  1
  O  O31  1  0.855582  0.642614  0.045440  1
  O  O32  1  0.014511  0.276399  0.732426  1
  O  O33  1  0.140896  0.356331  0.953682  1
  O  O34  1  0.986000  0.722678  0.268568  1
  O  O35  1  0.656356  0.507852  0.613248  1
