# generated using pymatgen
data_Zr6Ta4Al3Si3N2
_symmetry_space_group_name_H-M   'P 1'
_cell_length_a   7.92402126
_cell_length_b   7.93543328
_cell_length_c   5.46164900
_cell_angle_alpha   90.00000000
_cell_angle_beta   90.00000000
_cell_angle_gamma   119.92296403
_symmetry_Int_Tables_number   1
_chemical_formula_structural   Zr6Ta4Al3Si3N2
_chemical_formula_sum   'Zr6 Ta4 Al3 Si3 N2'
_cell_volume   297.65096806
_cell_formula_units_Z   1
loop_
 _symmetry_equiv_pos_site_id
 _symmetry_equiv_pos_as_xyz
  1  'x, y, z'
loop_
 _atom_site_type_symbol
 _atom_site_label
 _atom_site_symmetry_multiplicity
 _atom_site_fract_x
 _atom_site_fract_y
 _atom_site_fract_z
 _atom_site_occupancy
  Zr  Zr0  1  0.236419  0.997355  0.250000  1
  Zr  Zr1  1  0.762600  0.999816  0.750000  1
  Zr  Zr2  1  0.997010  0.232706  0.250000  1
  Zr  Zr3  1  0.002559  0.766612  0.750000  1
  Zr  Zr4  1  0.767999  0.767476  0.250000  1
  Zr  Zr5  1  0.233174  0.229590  0.750000  1
  Ta  Ta6  1  0.333601  0.676578  0.000327  1
  Ta  Ta7  1  0.666398  0.327196  0.000323  1
  Ta  Ta8  1  0.666398  0.327196  0.499677  1
  Ta  Ta9  1  0.333601  0.676578  0.499673  1
  Al  Al10  1  0.002970  0.411604  0.750000  1
  Al  Al11  1  0.411711  0.414645  0.250000  1
  Al  Al12  1  0.586138  0.586019  0.750000  1
  Si  Si13  1  0.592369  0.000017  0.250000  1
  Si  Si14  1  0.409583  0.002337  0.750000  1
  Si  Si15  1  0.997561  0.585697  0.250000  1
  N  N16  1  0.999955  0.999289  0.000129  1
  N  N17  1  0.999955  0.999289  0.499871  1
