# generated using pymatgen
data_TlHg(PO3)3
_symmetry_space_group_name_H-M   'P 1'
_cell_length_a   7.01052634
_cell_length_b   10.40933100
_cell_length_c   7.01052700
_cell_angle_alpha   90.00000000
_cell_angle_beta   119.99999841
_cell_angle_gamma   90.00000000
_symmetry_Int_Tables_number   1
_chemical_formula_structural   TlHg(PO3)3
_chemical_formula_sum   'Tl2 Hg2 P6 O18'
_cell_volume   443.05204840
_cell_formula_units_Z   2
loop_
 _symmetry_equiv_pos_site_id
 _symmetry_equiv_pos_as_xyz
  1  'x, y, z'
loop_
 _atom_site_type_symbol
 _atom_site_label
 _atom_site_symmetry_multiplicity
 _atom_site_fract_x
 _atom_site_fract_y
 _atom_site_fract_z
 _atom_site_occupancy
  Tl  Tl0  1  0.000000  0.250001  0.000000  1
  Tl  Tl1  1  0.000000  0.750000  0.000000  1
  Hg  Hg2  1  0.666666  0.250001  0.333333  1
  Hg  Hg3  1  0.666666  0.750000  0.333333  1
  P  P4  1  0.067518  0.500000  0.443715  1
  P  P5  1  0.376197  0.000000  0.443715  1
  P  P6  1  0.067518  0.000000  0.623803  1
  P  P7  1  0.556286  0.500000  0.623803  1
  P  P8  1  0.376196  0.500000  0.932481  1
  P  P9  1  0.556286  0.000000  0.932483  1
  O  O10  1  0.387330  0.375883  0.047257  1
  O  O11  1  0.387330  0.624117  0.047257  1
  O  O12  1  0.659929  0.124118  0.047257  1
  O  O13  1  0.659929  0.875882  0.047257  1
  O  O14  1  0.952744  0.375883  0.340072  1
  O  O15  1  0.952744  0.624117  0.340072  1
  O  O16  1  0.387330  0.124118  0.340074  1
  O  O17  1  0.387330  0.875882  0.340074  1
  O  O18  1  0.297608  0.500000  0.442125  1
  O  O19  1  0.144515  0.000000  0.442125  1
  O  O20  1  0.952744  0.124118  0.612671  1
  O  O21  1  0.952744  0.875882  0.612671  1
  O  O22  1  0.659927  0.375883  0.612671  1
  O  O23  1  0.659927  0.624117  0.612671  1
  O  O24  1  0.144515  0.500000  0.702391  1
  O  O25  1  0.557875  0.000000  0.702391  1
  O  O26  1  0.297608  0.000000  0.855485  1
  O  O27  1  0.557876  0.500000  0.855485  1
