# generated using pymatgen
data_Tb2Ho6Ti3Si16W9
_symmetry_space_group_name_H-M   'P 1'
_cell_length_a   6.89260230
_cell_length_b   6.89220238
_cell_length_c   12.79577197
_cell_angle_alpha   89.98421442
_cell_angle_beta   89.99702429
_cell_angle_gamma   89.85678903
_symmetry_Int_Tables_number   1
_chemical_formula_structural   Tb2Ho6Ti3Si16W9
_chemical_formula_sum   'Tb2 Ho6 Ti3 Si16 W9'
_cell_volume   607.86391142
_cell_formula_units_Z   1
loop_
 _symmetry_equiv_pos_site_id
 _symmetry_equiv_pos_as_xyz
  1  'x, y, z'
loop_
 _atom_site_type_symbol
 _atom_site_label
 _atom_site_symmetry_multiplicity
 _atom_site_fract_x
 _atom_site_fract_y
 _atom_site_fract_z
 _atom_site_occupancy
  Tb  Tb0  1  0.338757  0.002331  0.468478  1
  Tb  Tb1  1  0.496552  0.837376  0.719199  1
  Ho  Ho2  1  0.499418  0.162154  0.217418  1
  Ho  Ho3  1  0.837876  0.497100  0.280576  1
  Ho  Ho4  1  0.162116  0.499437  0.782672  1
  Ho  Ho5  1  0.660098  0.999296  0.969082  1
  Ho  Ho6  1  0.001861  0.339233  0.531177  1
  Ho  Ho7  1  0.999239  0.660103  0.031183  1
  Ti  Ti8  1  0.170314  0.831699  0.248424  1
  Ti  Ti9  1  0.831803  0.170488  0.751651  1
  Ti  Ti10  1  0.668994  0.668686  0.500006  1
  Si  Si11  1  0.200035  0.129651  0.683407  1
  Si  Si12  1  0.373273  0.698508  0.933595  1
  Si  Si13  1  0.629365  0.299352  0.433183  1
  Si  Si14  1  0.698698  0.373216  0.066844  1
  Si  Si15  1  0.298128  0.627315  0.566379  1
  Si  Si16  1  0.796731  0.871837  0.183579  1
  Si  Si17  1  0.128528  0.201213  0.316483  1
  Si  Si18  1  0.872733  0.796624  0.816594  1
  Si  Si19  1  0.289401  0.963372  0.062487  1
  Si  Si20  1  0.539723  0.791708  0.313560  1
  Si  Si21  1  0.459631  0.209717  0.814527  1
  Si  Si22  1  0.792629  0.539017  0.686190  1
  Si  Si23  1  0.208714  0.459704  0.185593  1
  Si  Si24  1  0.710399  0.040925  0.563732  1
  Si  Si25  1  0.963326  0.289549  0.937871  1
  Si  Si26  1  0.039787  0.708728  0.435779  1
  W  W27  1  0.331662  0.331760  0.000047  1
  W  W28  1  0.158076  0.002765  0.873844  1
  W  W29  1  0.494835  0.665003  0.124899  1
  W  W30  1  0.505624  0.340271  0.624954  1
  W  W31  1  0.665569  0.494844  0.875379  1
  W  W32  1  0.340104  0.505264  0.374916  1
  W  W33  1  0.839763  0.994326  0.373939  1
  W  W34  1  0.002190  0.158088  0.126500  1
  W  W35  1  0.994046  0.839335  0.625852  1
