# generated using pymatgen
data_TbDy3Ga2FeRu5
_symmetry_space_group_name_H-M   'P 1'
_cell_length_a   5.24924497
_cell_length_b   5.44114372
_cell_length_c   9.26967019
_cell_angle_alpha   72.93288114
_cell_angle_beta   91.51381855
_cell_angle_gamma   121.21685734
_symmetry_Int_Tables_number   1
_chemical_formula_structural   TbDy3Ga2FeRu5
_chemical_formula_sum   'Tb1 Dy3 Ga2 Fe1 Ru5'
_cell_volume   213.88047571
_cell_formula_units_Z   1
loop_
 _symmetry_equiv_pos_site_id
 _symmetry_equiv_pos_as_xyz
  1  'x, y, z'
loop_
 _atom_site_type_symbol
 _atom_site_label
 _atom_site_symmetry_multiplicity
 _atom_site_fract_x
 _atom_site_fract_y
 _atom_site_fract_z
 _atom_site_occupancy
  Tb  Tb0  1  0.876166  0.749436  0.377294  1
  Dy  Dy1  1  0.379639  0.756127  0.867385  1
  Dy  Dy2  1  0.994058  0.996499  0.001061  1
  Dy  Dy3  1  0.503339  0.999683  0.503972  1
  Ga  Ga4  1  0.673148  0.371204  0.930740  1
  Ga  Ga5  1  0.943405  0.374673  0.194060  1
  Fe  Fe6  1  0.430016  0.372860  0.684295  1
  Ru  Ru7  1  0.440125  0.372775  0.184096  1
  Ru  Ru8  1  0.935879  0.378044  0.690175  1
  Ru  Ru9  1  0.440125  0.883254  0.184096  1
  Ru  Ru10  1  0.935879  0.867657  0.690175  1
  Ru  Ru11  1  0.198219  0.377785  0.442647  1
