# generated using pymatgen
data_Tb6TeO12
_symmetry_space_group_name_H-M   'P 1'
_cell_length_a   6.53566871
_cell_length_b   6.53566975
_cell_length_c   6.53566947
_cell_angle_alpha   98.70563083
_cell_angle_beta   98.70562692
_cell_angle_gamma   98.70562751
_symmetry_Int_Tables_number   1
_chemical_formula_structural   Tb6TeO12
_chemical_formula_sum   'Tb6 Te1 O12'
_cell_volume   268.40182325
_cell_formula_units_Z   1
loop_
 _symmetry_equiv_pos_site_id
 _symmetry_equiv_pos_as_xyz
  1  'x, y, z'
loop_
 _atom_site_type_symbol
 _atom_site_label
 _atom_site_symmetry_multiplicity
 _atom_site_fract_x
 _atom_site_fract_y
 _atom_site_fract_z
 _atom_site_occupancy
  Tb  Tb0  1  0.855285  0.390154  0.684525  1
  Tb  Tb1  1  0.609846  0.315475  0.144715  1
  Tb  Tb2  1  0.315475  0.144715  0.609846  1
  Tb  Tb3  1  0.684525  0.855285  0.390154  1
  Tb  Tb4  1  0.390154  0.684525  0.855285  1
  Tb  Tb5  1  0.144715  0.609846  0.315475  1
  Te  Te6  1  0.000000  0.000000  0.000000  1
  O  O7  1  0.928715  0.034170  0.703808  1
  O  O8  1  0.965830  0.296192  0.071285  1
  O  O9  1  0.593068  0.177439  0.433544  1
  O  O10  1  0.822561  0.566456  0.406932  1
  O  O11  1  0.296192  0.071285  0.965830  1
  O  O12  1  0.566456  0.406932  0.822561  1
  O  O13  1  0.433544  0.593068  0.177439  1
  O  O14  1  0.703808  0.928715  0.034170  1
  O  O15  1  0.177439  0.433544  0.593068  1
  O  O16  1  0.406932  0.822561  0.566456  1
  O  O17  1  0.034170  0.703808  0.928715  1
  O  O18  1  0.071285  0.965830  0.296192  1
