# generated using pymatgen
data_Tb6Gd9TmCd2(HgIr2)2
_symmetry_space_group_name_H-M   'P 1'
_cell_length_a   9.68640280
_cell_length_b   9.68639930
_cell_length_c   9.69835500
_cell_angle_alpha   59.96104707
_cell_angle_beta   59.96076104
_cell_angle_gamma   59.94599352
_symmetry_Int_Tables_number   1
_chemical_formula_structural   Tb6Gd9TmCd2(HgIr2)2
_chemical_formula_sum   'Tb6 Gd9 Tm1 Cd2 Hg2 Ir4'
_cell_volume   642.79681557
_cell_formula_units_Z   1
loop_
 _symmetry_equiv_pos_site_id
 _symmetry_equiv_pos_as_xyz
  1  'x, y, z'
loop_
 _atom_site_type_symbol
 _atom_site_label
 _atom_site_symmetry_multiplicity
 _atom_site_fract_x
 _atom_site_fract_y
 _atom_site_fract_z
 _atom_site_occupancy
  Tb  Tb0  1  0.187836  0.811013  0.811022  1
  Tb  Tb1  1  0.811261  0.187790  0.190023  1
  Tb  Tb2  1  0.811149  0.187749  0.811052  1
  Tb  Tb3  1  0.187841  0.811149  0.190084  1
  Tb  Tb4  1  0.810936  0.810806  0.189096  1
  Tb  Tb5  1  0.188828  0.188816  0.811283  1
  Gd  Gd6  1  0.599459  0.599447  0.598331  1
  Gd  Gd7  1  0.599471  0.599435  0.202770  1
  Gd  Gd8  1  0.600933  0.200611  0.599273  1
  Gd  Gd9  1  0.200563  0.600952  0.599346  1
  Gd  Gd10  1  0.060699  0.437772  0.439624  1
  Gd  Gd11  1  0.437539  0.060808  0.061984  1
  Gd  Gd12  1  0.437742  0.060684  0.439580  1
  Gd  Gd13  1  0.060766  0.437687  0.061821  1
  Gd  Gd14  1  0.438637  0.438658  0.061289  1
  Tm  Tm15  1  0.061025  0.060819  0.439044  1
  Cd  Cd16  1  0.829999  0.508544  0.830640  1
  Cd  Cd17  1  0.508602  0.830189  0.830595  1
  Hg  Hg18  1  0.832542  0.833320  0.834249  1
  Hg  Hg19  1  0.832571  0.833167  0.499817  1
  Ir  Ir20  1  0.392018  0.391698  0.391453  1
  Ir  Ir21  1  0.392437  0.391714  0.824515  1
  Ir  Ir22  1  0.391861  0.825561  0.391300  1
  Ir  Ir23  1  0.825286  0.391614  0.391808  1
