# generated using pymatgen
data_Y3TmThIr3
_symmetry_space_group_name_H-M   'P 1'
_cell_length_a   11.09717800
_cell_length_b   10.99215100
_cell_length_c   6.33856900
_cell_angle_alpha   90.00000000
_cell_angle_beta   90.00000000
_cell_angle_gamma   90.00000000
_symmetry_Int_Tables_number   1
_chemical_formula_structural   Y3TmThIr3
_chemical_formula_sum   'Y12 Tm4 Th4 Ir12'
_cell_volume   773.19041259
_cell_formula_units_Z   4
loop_
 _symmetry_equiv_pos_site_id
 _symmetry_equiv_pos_as_xyz
  1  'x, y, z'
loop_
 _atom_site_type_symbol
 _atom_site_label
 _atom_site_symmetry_multiplicity
 _atom_site_fract_x
 _atom_site_fract_y
 _atom_site_fract_z
 _atom_site_occupancy
  Y  Y0  1  0.588270  0.783674  0.878190  1
  Y  Y1  1  0.588270  0.216326  0.378190  1
  Y  Y2  1  0.411730  0.783674  0.378190  1
  Y  Y3  1  0.411730  0.216326  0.878190  1
  Y  Y4  1  0.207683  0.413624  0.620944  1
  Y  Y5  1  0.207683  0.586376  0.120944  1
  Y  Y6  1  0.792317  0.413624  0.120944  1
  Y  Y7  1  0.792317  0.586376  0.620944  1
  Y  Y8  1  0.914928  0.707921  0.117015  1
  Y  Y9  1  0.914928  0.292079  0.617015  1
  Y  Y10  1  0.085072  0.707921  0.617015  1
  Y  Y11  1  0.085072  0.292079  0.117015  1
  Tm  Tm12  1  0.000000  0.000000  0.500603  1
  Tm  Tm13  1  0.000000  0.000000  0.000603  1
  Tm  Tm14  1  0.500000  0.500000  0.010837  1
  Tm  Tm15  1  0.500000  0.500000  0.510837  1
  Th  Th16  1  0.292647  0.093054  0.379607  1
  Th  Th17  1  0.292647  0.906946  0.879607  1
  Th  Th18  1  0.707353  0.093054  0.879607  1
  Th  Th19  1  0.707353  0.906946  0.379607  1
  Ir  Ir20  1  0.845738  0.148531  0.245020  1
  Ir  Ir21  1  0.845738  0.851469  0.745020  1
  Ir  Ir22  1  0.154262  0.148531  0.745020  1
  Ir  Ir23  1  0.154262  0.851469  0.245020  1
  Ir  Ir24  1  0.652059  0.347858  0.757824  1
  Ir  Ir25  1  0.652059  0.652142  0.257824  1
  Ir  Ir26  1  0.347941  0.347858  0.257824  1
  Ir  Ir27  1  0.347941  0.652142  0.757824  1
  Ir  Ir28  1  0.500000  0.000000  0.117836  1
  Ir  Ir29  1  0.500000  0.000000  0.617836  1
  Ir  Ir30  1  0.000000  0.500000  0.873526  1
  Ir  Ir31  1  0.000000  0.500000  0.373526  1
