# generated using pymatgen
data_La11Pr5MgHg3Ir4
_symmetry_space_group_name_H-M   'P 1'
_cell_length_a   10.06831005
_cell_length_b   10.11571574
_cell_length_c   10.11571520
_cell_angle_alpha   60.08939799
_cell_angle_beta   59.92451217
_cell_angle_gamma   59.92451794
_symmetry_Int_Tables_number   1
_chemical_formula_structural   La11Pr5MgHg3Ir4
_chemical_formula_sum   'La11 Pr5 Mg1 Hg3 Ir4'
_cell_volume   728.16571863
_cell_formula_units_Z   1
loop_
 _symmetry_equiv_pos_site_id
 _symmetry_equiv_pos_as_xyz
  1  'x, y, z'
loop_
 _atom_site_type_symbol
 _atom_site_label
 _atom_site_symmetry_multiplicity
 _atom_site_fract_x
 _atom_site_fract_y
 _atom_site_fract_z
 _atom_site_occupancy
  La  La0  1  0.347144  0.345690  0.345690  1
  La  La1  1  0.347012  0.347146  0.959650  1
  La  La2  1  0.347012  0.959650  0.347146  1
  La  La3  1  0.950785  0.349725  0.349725  1
  La  La4  1  0.806215  0.193006  0.193006  1
  La  La5  1  0.186646  0.809746  0.809746  1
  La  La6  1  0.188249  0.811598  0.188431  1
  La  La7  1  0.803835  0.193462  0.806126  1
  La  La8  1  0.188249  0.188431  0.811598  1
  La  La9  1  0.803835  0.806126  0.193462  1
  La  La10  1  0.941467  0.562301  0.562301  1
  Pr  Pr11  1  0.560730  0.937869  0.937869  1
  Pr  Pr12  1  0.560812  0.939880  0.564310  1
  Pr  Pr13  1  0.938219  0.561624  0.936105  1
  Pr  Pr14  1  0.560812  0.564310  0.939880  1
  Pr  Pr15  1  0.938219  0.936105  0.561624  1
  Mg  Mg16  1  0.290899  0.568537  0.568537  1
  Hg  Hg17  1  0.580323  0.587629  0.587629  1
  Hg  Hg18  1  0.581810  0.587289  0.244056  1
  Hg  Hg19  1  0.581810  0.244056  0.587289  1
  Ir  Ir20  1  0.139479  0.141980  0.141980  1
  Ir  Ir21  1  0.139839  0.143195  0.578877  1
  Ir  Ir22  1  0.139839  0.578877  0.143195  1
  Ir  Ir23  1  0.576761  0.141770  0.141770  1
