# generated using pymatgen
data_HoErFe8Co4P7
_symmetry_space_group_name_H-M   'P 1'
_cell_length_a   8.95115507
_cell_length_b   8.94678624
_cell_length_c   3.60564000
_cell_angle_alpha   90.00000000
_cell_angle_beta   90.00000000
_cell_angle_gamma   119.92953855
_symmetry_Int_Tables_number   1
_chemical_formula_structural   HoErFe8Co4P7
_chemical_formula_sum   'Ho1 Er1 Fe8 Co4 P7'
_cell_volume   250.24594877
_cell_formula_units_Z   1
loop_
 _symmetry_equiv_pos_site_id
 _symmetry_equiv_pos_as_xyz
  1  'x, y, z'
loop_
 _atom_site_type_symbol
 _atom_site_label
 _atom_site_symmetry_multiplicity
 _atom_site_fract_x
 _atom_site_fract_y
 _atom_site_fract_z
 _atom_site_occupancy
  Ho  Ho0  1  0.000635  0.999397  0.000000  1
  Er  Er1  1  0.332624  0.666786  0.500000  1
  Fe  Fe2  1  0.098351  0.392704  0.000000  1
  Fe  Fe3  1  0.786016  0.178386  0.000000  1
  Fe  Fe4  1  0.393249  0.214790  0.000000  1
  Fe  Fe5  1  0.819535  0.606038  0.000000  1
  Fe  Fe6  1  0.052856  0.768846  0.500000  1
  Fe  Fe7  1  0.539563  0.104717  0.500000  1
  Fe  Fe8  1  0.565264  0.461030  0.500000  1
  Fe  Fe9  1  0.889043  0.432219  0.500000  1
  Co  Co10  1  0.296292  0.902594  0.000000  1
  Co  Co11  1  0.607336  0.706307  0.000000  1
  Co  Co12  1  0.717959  0.947561  0.500000  1
  Co  Co13  1  0.231485  0.282616  0.500000  1
  P  P14  1  0.554981  0.926287  0.000000  1
  P  P15  1  0.369992  0.445602  0.000000  1
  P  P16  1  0.073806  0.628741  0.000000  1
  P  P17  1  0.956651  0.223566  0.500000  1
  P  P18  1  0.264831  0.044382  0.500000  1
  P  P19  1  0.782995  0.734633  0.500000  1
  P  P20  1  0.666538  0.332794  0.000000  1
