# generated using pymatgen
data_MnNb4Ga2Fe5
_symmetry_space_group_name_H-M   'P 1'
_cell_length_a   4.89330116
_cell_length_b   4.89330017
_cell_length_c   8.06641800
_cell_angle_alpha   90.00000000
_cell_angle_beta   90.00000000
_cell_angle_gamma   120.32071437
_symmetry_Int_Tables_number   1
_chemical_formula_structural   MnNb4Ga2Fe5
_chemical_formula_sum   'Mn1 Nb4 Ga2 Fe5'
_cell_volume   166.72569809
_cell_formula_units_Z   1
loop_
 _symmetry_equiv_pos_site_id
 _symmetry_equiv_pos_as_xyz
  1  'x, y, z'
loop_
 _atom_site_type_symbol
 _atom_site_label
 _atom_site_symmetry_multiplicity
 _atom_site_fract_x
 _atom_site_fract_y
 _atom_site_fract_z
 _atom_site_occupancy
  Mn  Mn0  1  0.826833  0.173167  0.250000  1
  Nb  Nb1  1  0.333186  0.666814  0.435236  1
  Nb  Nb2  1  0.667173  0.332827  0.564062  1
  Nb  Nb3  1  0.667173  0.332827  0.935938  1
  Nb  Nb4  1  0.333186  0.666814  0.064764  1
  Ga  Ga5  1  0.000611  0.999389  0.500181  1
  Ga  Ga6  1  0.000611  0.999389  0.999819  1
  Fe  Fe7  1  0.827070  0.655308  0.250000  1
  Fe  Fe8  1  0.344692  0.172930  0.250000  1
  Fe  Fe9  1  0.172932  0.827068  0.750000  1
  Fe  Fe10  1  0.172445  0.345910  0.750000  1
  Fe  Fe11  1  0.654090  0.827555  0.750000  1
