# generated using pymatgen
data_MnAg2PF12
_symmetry_space_group_name_H-M   'P 1'
_cell_length_a   5.42085545
_cell_length_b   5.57851536
_cell_length_c   7.94104658
_cell_angle_alpha   94.57413962
_cell_angle_beta   90.07170174
_cell_angle_gamma   90.41298003
_symmetry_Int_Tables_number   1
_chemical_formula_structural   MnAg2PF12
_chemical_formula_sum   'Mn1 Ag2 P1 F12'
_cell_volume   239.36836129
_cell_formula_units_Z   1
loop_
 _symmetry_equiv_pos_site_id
 _symmetry_equiv_pos_as_xyz
  1  'x, y, z'
loop_
 _atom_site_type_symbol
 _atom_site_label
 _atom_site_symmetry_multiplicity
 _atom_site_fract_x
 _atom_site_fract_y
 _atom_site_fract_z
 _atom_site_occupancy
  Mn  Mn0  1  0.000000  0.000000  0.500000  1
  Ag  Ag1  1  0.000000  0.000000  0.000000  1
  Ag  Ag2  1  0.500000  0.500000  0.500000  1
  P  P3  1  0.500000  0.500000  0.000000  1
  F  F4  1  0.919317  0.993988  0.728004  1
  F  F5  1  0.168390  0.289314  0.549194  1
  F  F6  1  0.260858  0.640448  0.928435  1
  F  F7  1  0.366061  0.495070  0.183556  1
  F  F8  1  0.370749  0.240403  0.938018  1
  F  F9  1  0.288490  0.832473  0.536235  1
  F  F10  1  0.711510  0.167527  0.463765  1
  F  F11  1  0.629251  0.759597  0.061982  1
  F  F12  1  0.633939  0.504930  0.816444  1
  F  F13  1  0.739142  0.359552  0.071565  1
  F  F14  1  0.831610  0.710686  0.450806  1
  F  F15  1  0.080683  0.006012  0.271996  1
