# generated using pymatgen
data_Pr3Y5(HgRh)2
_symmetry_space_group_name_H-M   'P 1'
_cell_length_a   9.77333131
_cell_length_b   9.77333078
_cell_length_c   9.77333200
_cell_angle_alpha   59.99999588
_cell_angle_beta   59.99999768
_cell_angle_gamma   60.00000056
_symmetry_Int_Tables_number   1
_chemical_formula_structural   Pr3Y5(HgRh)2
_chemical_formula_sum   'Pr6 Y10 Hg4 Rh4'
_cell_volume   660.10474457
_cell_formula_units_Z   2
loop_
 _symmetry_equiv_pos_site_id
 _symmetry_equiv_pos_as_xyz
  1  'x, y, z'
loop_
 _atom_site_type_symbol
 _atom_site_label
 _atom_site_symmetry_multiplicity
 _atom_site_fract_x
 _atom_site_fract_y
 _atom_site_fract_z
 _atom_site_occupancy
  Pr  Pr0  1  0.940219  0.559781  0.559781  1
  Pr  Pr1  1  0.559781  0.940219  0.940219  1
  Pr  Pr2  1  0.559781  0.940219  0.559781  1
  Pr  Pr3  1  0.940219  0.559781  0.940219  1
  Pr  Pr4  1  0.559781  0.559781  0.940219  1
  Pr  Pr5  1  0.940219  0.940219  0.559781  1
  Y  Y6  1  0.350329  0.350329  0.350329  1
  Y  Y7  1  0.350329  0.350329  0.949012  1
  Y  Y8  1  0.350329  0.949012  0.350329  1
  Y  Y9  1  0.949012  0.350329  0.350329  1
  Y  Y10  1  0.812070  0.187930  0.187930  1
  Y  Y11  1  0.187930  0.812071  0.812070  1
  Y  Y12  1  0.187930  0.812070  0.187929  1
  Y  Y13  1  0.812070  0.187930  0.812070  1
  Y  Y14  1  0.187930  0.187930  0.812070  1
  Y  Y15  1  0.812071  0.812071  0.187929  1
  Hg  Hg16  1  0.582965  0.582965  0.582965  1
  Hg  Hg17  1  0.582965  0.582965  0.251107  1
  Hg  Hg18  1  0.582965  0.251107  0.582965  1
  Hg  Hg19  1  0.251107  0.582965  0.582965  1
  Rh  Rh20  1  0.142035  0.142035  0.142035  1
  Rh  Rh21  1  0.142035  0.142035  0.573896  1
  Rh  Rh22  1  0.142035  0.573896  0.142035  1
  Rh  Rh23  1  0.573896  0.142035  0.142035  1
