# generated using pymatgen
data_Nd2Ga2Co3Ni3B2
_symmetry_space_group_name_H-M   'P 1'
_cell_length_a   5.24405094
_cell_length_b   5.23027861
_cell_length_c   6.77768100
_cell_angle_alpha   90.00000000
_cell_angle_beta   90.00000000
_cell_angle_gamma   119.66138314
_symmetry_Int_Tables_number   1
_chemical_formula_structural   Nd2Ga2Co3Ni3B2
_chemical_formula_sum   'Nd2 Ga2 Co3 Ni3 B2'
_cell_volume   161.53820801
_cell_formula_units_Z   1
loop_
 _symmetry_equiv_pos_site_id
 _symmetry_equiv_pos_as_xyz
  1  'x, y, z'
loop_
 _atom_site_type_symbol
 _atom_site_label
 _atom_site_symmetry_multiplicity
 _atom_site_fract_x
 _atom_site_fract_y
 _atom_site_fract_z
 _atom_site_occupancy
  Nd  Nd0  1  0.000000  0.000000  0.005326  1
  Nd  Nd1  1  0.000000  0.000000  0.500561  1
  Ga  Ga2  1  0.330153  0.667507  0.000329  1
  Ga  Ga3  1  0.669847  0.332493  0.000329  1
  Co  Co4  1  0.000000  0.500000  0.298112  1
  Co  Co5  1  0.500000  0.000000  0.297584  1
  Co  Co6  1  0.000000  0.500000  0.700765  1
  Ni  Ni7  1  0.500000  0.000000  0.702298  1
  Ni  Ni8  1  0.500000  0.500000  0.704418  1
  Ni  Ni9  1  0.500000  0.500000  0.295210  1
  B  B10  1  0.326334  0.667512  0.497533  1
  B  B11  1  0.673666  0.332488  0.497533  1
