# generated using pymatgen
data_Ba2Cu17Si8Pt
_symmetry_space_group_name_H-M   'P 1'
_cell_length_a   8.21958931
_cell_length_b   8.21958929
_cell_length_c   8.21998400
_cell_angle_alpha   120.31569737
_cell_angle_beta   120.22900407
_cell_angle_gamma   89.52616253
_symmetry_Int_Tables_number   1
_chemical_formula_structural   Ba2Cu17Si8Pt
_chemical_formula_sum   'Ba2 Cu17 Si8 Pt1'
_cell_volume   391.07397052
_cell_formula_units_Z   1
loop_
 _symmetry_equiv_pos_site_id
 _symmetry_equiv_pos_as_xyz
  1  'x, y, z'
loop_
 _atom_site_type_symbol
 _atom_site_label
 _atom_site_symmetry_multiplicity
 _atom_site_fract_x
 _atom_site_fract_y
 _atom_site_fract_z
 _atom_site_occupancy
  Ba  Ba0  1  0.247524  0.249251  0.998486  1
  Ba  Ba1  1  0.749234  0.750961  0.998486  1
  Cu  Cu2  1  0.213665  0.057828  0.271493  1
  Cu  Cu3  1  0.790875  0.922180  0.713054  1
  Cu  Cu4  1  0.435353  0.294624  0.729978  1
  Cu  Cu5  1  0.065861  0.795783  0.861643  1
  Cu  Cu6  1  0.805631  0.060454  0.499129  1
  Cu  Cu7  1  0.560829  0.306586  0.503360  1
  Cu  Cu8  1  0.196774  0.942531  0.503360  1
  Cu  Cu9  1  0.438676  0.693499  0.499129  1
  Cu  Cu10  1  0.941149  0.440528  0.748261  1
  Cu  Cu11  1  0.687154  0.196944  0.255899  1
  Cu  Cu12  1  0.058954  0.568744  0.255899  1
  Cu  Cu13  1  0.702743  0.439333  0.142076  1
  Cu  Cu14  1  0.563222  0.704682  0.267904  1
  Cu  Cu15  1  0.502572  0.000365  0.502937  1
  Cu  Cu16  1  0.999729  0.507686  0.507415  1
  Cu  Cu17  1  0.307735  0.807114  0.748261  1
  Cu  Cu18  1  0.295409  0.563770  0.859180  1
  Si  Si19  1  0.791201  0.290863  0.851309  1
  Si  Si20  1  0.560446  0.060107  0.851309  1
  Si  Si21  1  0.060001  0.208399  0.498778  1
  Si  Si22  1  0.290379  0.438778  0.498778  1
  Si  Si23  1  0.940842  0.792394  0.498516  1
  Si  Si24  1  0.440805  0.938424  0.148976  1
  Si  Si25  1  0.210552  0.708170  0.148976  1
  Si  Si26  1  0.706121  0.557675  0.498516  1
  Pt  Pt27  1  0.936566  0.202329  0.138896  1
