# generated using pymatgen
data_Dy20Ir7Os4Rh
_symmetry_space_group_name_H-M   'P 1'
_cell_length_a   10.86680113
_cell_length_b   10.86680113
_cell_length_c   6.41992113
_cell_angle_alpha   90.01620700
_cell_angle_beta   90.01620700
_cell_angle_gamma   90.00747533
_symmetry_Int_Tables_number   1
_chemical_formula_structural   Dy20Ir7Os4Rh
_chemical_formula_sum   'Dy20 Ir7 Os4 Rh1'
_cell_volume   758.11151425
_cell_formula_units_Z   1
loop_
 _symmetry_equiv_pos_site_id
 _symmetry_equiv_pos_as_xyz
  1  'x, y, z'
loop_
 _atom_site_type_symbol
 _atom_site_label
 _atom_site_symmetry_multiplicity
 _atom_site_fract_x
 _atom_site_fract_y
 _atom_site_fract_z
 _atom_site_occupancy
  Dy  Dy0  1  0.293645  0.086600  0.377911  1
  Dy  Dy1  1  0.293638  0.913327  0.877725  1
  Dy  Dy2  1  0.705678  0.086231  0.877140  1
  Dy  Dy3  1  0.705758  0.912447  0.378256  1
  Dy  Dy4  1  0.586736  0.793708  0.877830  1
  Dy  Dy5  1  0.585818  0.206262  0.378300  1
  Dy  Dy6  1  0.413380  0.793686  0.377998  1
  Dy  Dy7  1  0.413338  0.206246  0.877711  1
  Dy  Dy8  1  0.206292  0.413264  0.622170  1
  Dy  Dy9  1  0.206314  0.586620  0.122002  1
  Dy  Dy10  1  0.793738  0.414182  0.121700  1
  Dy  Dy11  1  0.793754  0.586662  0.622289  1
  Dy  Dy12  1  0.913400  0.706355  0.122089  1
  Dy  Dy13  1  0.913769  0.294322  0.622860  1
  Dy  Dy14  1  0.086673  0.706362  0.622275  1
  Dy  Dy15  1  0.087553  0.294242  0.121744  1
  Dy  Dy16  1  0.000256  0.999805  0.500573  1
  Dy  Dy17  1  0.000195  0.999744  0.999427  1
  Dy  Dy18  1  0.500008  0.500023  0.000267  1
  Dy  Dy19  1  0.499977  0.499992  0.499733  1
  Ir  Ir20  1  0.848064  0.848388  0.749929  1
  Ir  Ir21  1  0.151612  0.151936  0.750071  1
  Ir  Ir22  1  0.151985  0.848015  0.250000  1
  Ir  Ir23  1  0.652101  0.347899  0.750000  1
  Ir  Ir24  1  0.652080  0.652001  0.250116  1
  Ir  Ir25  1  0.347999  0.347920  0.249884  1
  Ir  Ir26  1  0.348047  0.651953  0.750000  1
  Os  Os27  1  0.500448  0.000340  0.124034  1
  Os  Os28  1  0.500341  0.000297  0.623648  1
  Os  Os29  1  0.999703  0.499659  0.876352  1
  Os  Os30  1  0.999660  0.499552  0.375966  1
  Rh  Rh31  1  0.848039  0.151961  0.250000  1
