# generated using pymatgen
data_La12Nd4Cd4NiRu3
_symmetry_space_group_name_H-M   'P 1'
_cell_length_a   10.00740712
_cell_length_b   10.04943731
_cell_length_c   10.04943643
_cell_angle_alpha   60.00666472
_cell_angle_beta   59.53937045
_cell_angle_gamma   59.53936928
_symmetry_Int_Tables_number   1
_chemical_formula_structural   La12Nd4Cd4NiRu3
_chemical_formula_sum   'La12 Nd4 Cd4 Ni1 Ru3'
_cell_volume   709.66353414
_cell_formula_units_Z   1
loop_
 _symmetry_equiv_pos_site_id
 _symmetry_equiv_pos_as_xyz
  1  'x, y, z'
loop_
 _atom_site_type_symbol
 _atom_site_label
 _atom_site_symmetry_multiplicity
 _atom_site_fract_x
 _atom_site_fract_y
 _atom_site_fract_z
 _atom_site_occupancy
  La  La0  1  0.598667  0.593645  0.593645  1
  La  La1  1  0.597706  0.596651  0.209001  1
  La  La2  1  0.597706  0.209001  0.596651  1
  La  La3  1  0.211030  0.594834  0.594834  1
  La  La4  1  0.059839  0.441490  0.441490  1
  La  La5  1  0.437837  0.061078  0.061078  1
  La  La6  1  0.439998  0.060276  0.440273  1
  La  La7  1  0.060475  0.442578  0.057809  1
  La  La8  1  0.439998  0.440273  0.060276  1
  La  La9  1  0.060475  0.057809  0.442578  1
  La  La10  1  0.187149  0.813216  0.813216  1
  La  La11  1  0.811019  0.188026  0.188026  1
  Nd  Nd12  1  0.811312  0.186274  0.817421  1
  Nd  Nd13  1  0.188084  0.811944  0.190091  1
  Nd  Nd14  1  0.811312  0.817421  0.186274  1
  Nd  Nd15  1  0.188084  0.190091  0.811944  1
  Cd  Cd16  1  0.827778  0.829966  0.829966  1
  Cd  Cd17  1  0.829941  0.828276  0.509910  1
  Cd  Cd18  1  0.829941  0.509910  0.828276  1
  Cd  Cd19  1  0.510962  0.829723  0.829723  1
  Ni  Ni20  1  0.829970  0.389354  0.389354  1
  Ru  Ru21  1  0.392932  0.385734  0.385734  1
  Ru  Ru22  1  0.388892  0.386619  0.835809  1
  Ru  Ru23  1  0.388892  0.835809  0.386619  1
