# generated using pymatgen
data_Tm8B24IrRh3
_symmetry_space_group_name_H-M   'P 1'
_cell_length_a   3.61357500
_cell_length_b   9.11794687
_cell_length_c   11.44077409
_cell_angle_alpha   90.05008631
_cell_angle_beta   90.00000000
_cell_angle_gamma   90.00000000
_symmetry_Int_Tables_number   1
_chemical_formula_structural   Tm8B24IrRh3
_chemical_formula_sum   'Tm8 B24 Ir1 Rh3'
_cell_volume   376.95488393
_cell_formula_units_Z   1
loop_
 _symmetry_equiv_pos_site_id
 _symmetry_equiv_pos_as_xyz
  1  'x, y, z'
loop_
 _atom_site_type_symbol
 _atom_site_label
 _atom_site_symmetry_multiplicity
 _atom_site_fract_x
 _atom_site_fract_y
 _atom_site_fract_z
 _atom_site_occupancy
  Tm  Tm0  1  0.500000  0.322353  0.414305  1
  Tm  Tm1  1  0.500000  0.677784  0.586519  1
  Tm  Tm2  1  0.500000  0.178665  0.912721  1
  Tm  Tm3  1  0.500000  0.821039  0.086284  1
  Tm  Tm4  1  0.500000  0.445382  0.126414  1
  Tm  Tm5  1  0.500000  0.555563  0.872984  1
  Tm  Tm6  1  0.500000  0.055692  0.626844  1
  Tm  Tm7  1  0.500000  0.943668  0.374151  1
  B  B8  1  0.000000  0.109705  0.470202  1
  B  B9  1  0.000000  0.889992  0.530013  1
  B  B10  1  0.000000  0.390535  0.970100  1
  B  B11  1  0.000000  0.609791  0.029606  1
  B  B12  1  0.000000  0.132779  0.316340  1
  B  B13  1  0.000000  0.866753  0.683797  1
  B  B14  1  0.000000  0.366711  0.816158  1
  B  B15  1  0.000000  0.633503  0.183521  1
  B  B16  1  0.000000  0.054140  0.065075  1
  B  B17  1  0.000000  0.946152  0.934877  1
  B  B18  1  0.000000  0.446274  0.564986  1
  B  B19  1  0.000000  0.553541  0.435098  1
  B  B20  1  0.000000  0.482166  0.286830  1
  B  B21  1  0.000000  0.517780  0.713187  1
  B  B22  1  0.000000  0.017887  0.786682  1
  B  B23  1  0.000000  0.982302  0.213728  1
  B  B24  1  0.000000  0.249912  0.078615  1
  B  B25  1  0.000000  0.750248  0.921009  1
  B  B26  1  0.000000  0.250605  0.578940  1
  B  B27  1  0.000000  0.749192  0.421154  1
  B  B28  1  0.000000  0.294747  0.235635  1
  B  B29  1  0.000000  0.705187  0.763872  1
  B  B30  1  0.000000  0.205125  0.736101  1
  B  B31  1  0.000000  0.794650  0.263818  1
  Ir  Ir32  1  0.500000  0.139596  0.178619  1
  Rh  Rh33  1  0.500000  0.860939  0.822083  1
  Rh  Rh34  1  0.500000  0.360180  0.679176  1
  Rh  Rh35  1  0.500000  0.639464  0.320555  1
