# generated using pymatgen
data_Er4Ga2Sb4Rh7
_symmetry_space_group_name_H-M   'P 1'
_cell_length_a   7.49031582
_cell_length_b   7.49031510
_cell_length_c   7.47419921
_cell_angle_alpha   109.29499211
_cell_angle_beta   109.29499302
_cell_angle_gamma   109.91088782
_symmetry_Int_Tables_number   1
_chemical_formula_structural   Er4Ga2Sb4Rh7
_chemical_formula_sum   'Er4 Ga2 Sb4 Rh7'
_cell_volume   322.44980587
_cell_formula_units_Z   1
loop_
 _symmetry_equiv_pos_site_id
 _symmetry_equiv_pos_as_xyz
  1  'x, y, z'
loop_
 _atom_site_type_symbol
 _atom_site_label
 _atom_site_symmetry_multiplicity
 _atom_site_fract_x
 _atom_site_fract_y
 _atom_site_fract_z
 _atom_site_occupancy
  Er  Er0  1  0.524039  0.008672  0.000000  1
  Er  Er1  1  0.991328  0.475961  0.000000  1
  Er  Er2  1  0.991713  0.008287  0.500000  1
  Er  Er3  1  0.491713  0.508287  0.500000  1
  Ga  Ga4  1  0.001015  0.321897  0.322912  1
  Ga  Ga5  1  0.678103  0.998985  0.677088  1
  Sb  Sb6  1  0.687474  0.686112  0.000000  1
  Sb  Sb7  1  0.000628  0.683679  0.684307  1
  Sb  Sb8  1  0.316321  0.999372  0.315693  1
  Sb  Sb9  1  0.313888  0.312526  0.000000  1
  Rh  Rh10  1  0.990993  0.009007  0.000000  1
  Rh  Rh11  1  0.503280  0.751936  0.255216  1
  Rh  Rh12  1  0.752373  0.496518  0.248890  1
  Rh  Rh13  1  0.252792  0.747208  0.500000  1
  Rh  Rh14  1  0.248064  0.496720  0.744784  1
  Rh  Rh15  1  0.503482  0.247627  0.751110  1
  Rh  Rh16  1  0.752792  0.247208  0.500000  1
