# generated using pymatgen
data_NdY11AlZnCo4
_symmetry_space_group_name_H-M   'P 1'
_cell_length_a   8.37566212
_cell_length_b   8.37565988
_cell_length_c   8.32874074
_cell_angle_alpha   106.93903835
_cell_angle_beta   109.40215000
_cell_angle_gamma   112.33015023
_symmetry_Int_Tables_number   1
_chemical_formula_structural   NdY11AlZnCo4
_chemical_formula_sum   'Nd1 Y11 Al1 Zn1 Co4'
_cell_volume   447.59251705
_cell_formula_units_Z   1
loop_
 _symmetry_equiv_pos_site_id
 _symmetry_equiv_pos_as_xyz
  1  'x, y, z'
loop_
 _atom_site_type_symbol
 _atom_site_label
 _atom_site_symmetry_multiplicity
 _atom_site_fract_x
 _atom_site_fract_y
 _atom_site_fract_z
 _atom_site_occupancy
  Nd  Nd0  1  0.695234  0.266276  0.961511  1
  Y  Y1  1  0.301864  0.735649  0.037512  1
  Y  Y2  1  0.696801  0.737301  0.434101  1
  Y  Y3  1  0.301896  0.263578  0.565473  1
  Y  Y4  1  0.812024  0.136086  0.327695  1
  Y  Y5  1  0.810347  0.484277  0.670527  1
  Y  Y6  1  0.186248  0.860181  0.670528  1
  Y  Y7  1  0.191609  0.515670  0.327695  1
  Y  Y8  1  0.601945  0.780546  0.821236  1
  Y  Y9  1  0.962402  0.781907  0.180450  1
  Y  Y10  1  0.040689  0.219291  0.821236  1
  Y  Y11  1  0.398543  0.218048  0.180450  1
  Al  Al12  1  0.496851  0.997905  0.494755  1
  Zn  Zn13  1  0.496321  0.505208  0.001529  1
  Co  Co14  1  0.839448  0.500297  0.339746  1
  Co  Co15  1  0.160479  0.499624  0.660103  1
  Co  Co16  1  0.010092  0.112212  0.122304  1
  Co  Co17  1  0.997207  0.885945  0.883153  1
