# generated using pymatgen
data_K8TaSnAs5
_symmetry_space_group_name_H-M   'P 1'
_cell_length_a   16.31841778
_cell_length_b   16.31841971
_cell_length_c   13.27967700
_cell_angle_alpha   85.13573654
_cell_angle_beta   85.13573596
_cell_angle_gamma   32.90499459
_symmetry_Int_Tables_number   1
_chemical_formula_structural   K8TaSnAs5
_chemical_formula_sum   'K32 Ta4 Sn4 As20'
_cell_volume   1913.53902952
_cell_formula_units_Z   4
loop_
 _symmetry_equiv_pos_site_id
 _symmetry_equiv_pos_as_xyz
  1  'x, y, z'
loop_
 _atom_site_type_symbol
 _atom_site_label
 _atom_site_symmetry_multiplicity
 _atom_site_fract_x
 _atom_site_fract_y
 _atom_site_fract_z
 _atom_site_occupancy
  K  K0  1  0.635336  0.719995  0.277985  1
  K  K1  1  0.984535  0.936757  0.620130  1
  K  K2  1  0.396168  0.732399  0.292053  1
  K  K3  1  0.192444  0.277473  0.945996  1
  K  K4  1  0.596268  0.364008  0.392935  1
  K  K5  1  0.807556  0.722527  0.054004  1
  K  K6  1  0.364664  0.280005  0.722015  1
  K  K7  1  0.817352  0.479712  0.039470  1
  K  K8  1  0.280017  0.364647  0.222020  1
  K  K9  1  0.152903  0.076173  0.101986  1
  K  K10  1  0.479711  0.817348  0.539465  1
  K  K11  1  0.063253  0.015461  0.879875  1
  K  K12  1  0.847097  0.923827  0.898014  1
  K  K13  1  0.520289  0.182652  0.460535  1
  K  K14  1  0.182648  0.520288  0.960530  1
  K  K15  1  0.068251  0.379532  0.667555  1
  K  K16  1  0.923830  0.847093  0.398016  1
  K  K17  1  0.364007  0.596269  0.892934  1
  K  K18  1  0.635993  0.403731  0.107066  1
  K  K19  1  0.076170  0.152907  0.601984  1
  K  K20  1  0.379530  0.068256  0.167553  1
  K  K21  1  0.603832  0.267601  0.707947  1
  K  K22  1  0.620470  0.931744  0.832447  1
  K  K23  1  0.403732  0.635992  0.607065  1
  K  K24  1  0.722531  0.807553  0.554005  1
  K  K25  1  0.277469  0.192447  0.445995  1
  K  K26  1  0.936747  0.984539  0.120125  1
  K  K27  1  0.267602  0.603826  0.207940  1
  K  K28  1  0.931749  0.620468  0.332445  1
  K  K29  1  0.719983  0.635353  0.777980  1
  K  K30  1  0.015465  0.063243  0.379870  1
  K  K31  1  0.732398  0.396174  0.792060  1
  Ta  Ta32  1  0.682382  0.004485  0.180800  1
  Ta  Ta33  1  0.004484  0.682383  0.680801  1
  Ta  Ta34  1  0.317618  0.995515  0.819200  1
  Ta  Ta35  1  0.995516  0.317617  0.319199  1
  Sn  Sn36  1  0.471012  0.708648  0.964833  1
  Sn  Sn37  1  0.528988  0.291352  0.035167  1
  Sn  Sn38  1  0.708659  0.471001  0.464828  1
  Sn  Sn39  1  0.291341  0.528999  0.535172  1
  As  As40  1  0.240800  0.041984  0.350115  1
  As  As41  1  0.403166  0.028013  0.684845  1
  As  As42  1  0.526028  0.123017  0.023271  1
  As  As43  1  0.876977  0.473978  0.476727  1
  As  As44  1  0.202808  0.613509  0.735741  1
  As  As45  1  0.971987  0.596833  0.815154  1
  As  As46  1  0.730233  0.210926  0.922760  1
  As  As47  1  0.789076  0.269767  0.577240  1
  As  As48  1  0.210924  0.730233  0.422760  1
  As  As49  1  0.041982  0.240802  0.850116  1
  As  As50  1  0.613506  0.202811  0.235737  1
  As  As51  1  0.596834  0.971987  0.315155  1
  As  As52  1  0.028013  0.403167  0.184846  1
  As  As53  1  0.958018  0.759198  0.149884  1
  As  As54  1  0.269767  0.789074  0.077240  1
  As  As55  1  0.473972  0.876983  0.976729  1
  As  As56  1  0.123023  0.526022  0.523273  1
  As  As57  1  0.386494  0.797189  0.764263  1
  As  As58  1  0.759200  0.958016  0.649885  1
  As  As59  1  0.797192  0.386491  0.264259  1
