# generated using pymatgen
data_Y3CoSn3IrRh
_symmetry_space_group_name_H-M   'P 1'
_cell_length_a   7.50383300
_cell_length_b   7.50383275
_cell_length_c   3.85586400
_cell_angle_alpha   90.00000000
_cell_angle_beta   90.00000000
_cell_angle_gamma   119.99999671
_symmetry_Int_Tables_number   1
_chemical_formula_structural   Y3CoSn3IrRh
_chemical_formula_sum   'Y3 Co1 Sn3 Ir1 Rh1'
_cell_volume   188.02632562
_cell_formula_units_Z   1
loop_
 _symmetry_equiv_pos_site_id
 _symmetry_equiv_pos_as_xyz
  1  'x, y, z'
loop_
 _atom_site_type_symbol
 _atom_site_label
 _atom_site_symmetry_multiplicity
 _atom_site_fract_x
 _atom_site_fract_y
 _atom_site_fract_z
 _atom_site_occupancy
  Y  Y0  1  0.404473  0.996975  0.500000  1
  Y  Y1  1  0.003025  0.407498  0.500000  1
  Y  Y2  1  0.592502  0.595527  0.500000  1
  Co  Co3  1  0.000000  0.000000  0.500000  1
  Sn  Sn4  1  0.749919  0.001505  0.000000  1
  Sn  Sn5  1  0.998495  0.748415  0.000000  1
  Sn  Sn6  1  0.251585  0.250081  0.000000  1
  Ir  Ir7  1  0.333333  0.666667  0.000000  1
  Rh  Rh8  1  0.666667  0.333333  0.000000  1
