# generated using pymatgen
data_Sm4Tm3Zr(B6Os)4
_symmetry_space_group_name_H-M   'P 1'
_cell_length_a   3.66931900
_cell_length_b   9.15881801
_cell_length_c   11.57122400
_cell_angle_alpha   89.99692840
_cell_angle_beta   90.00000000
_cell_angle_gamma   90.00000000
_symmetry_Int_Tables_number   1
_chemical_formula_structural   Sm4Tm3Zr(B6Os)4
_chemical_formula_sum   'Sm4 Tm3 Zr1 B24 Os4'
_cell_volume   388.86978466
_cell_formula_units_Z   1
loop_
 _symmetry_equiv_pos_site_id
 _symmetry_equiv_pos_as_xyz
  1  'x, y, z'
loop_
 _atom_site_type_symbol
 _atom_site_label
 _atom_site_symmetry_multiplicity
 _atom_site_fract_x
 _atom_site_fract_y
 _atom_site_fract_z
 _atom_site_occupancy
  Sm  Sm0  1  0.000000  0.321190  0.413806  1
  Sm  Sm1  1  0.000000  0.678449  0.585941  1
  Sm  Sm2  1  0.000000  0.821495  0.086365  1
  Sm  Sm3  1  0.000000  0.178575  0.913913  1
  Tm  Tm4  1  0.000000  0.055279  0.626231  1
  Tm  Tm5  1  0.000000  0.444027  0.127186  1
  Tm  Tm6  1  0.000000  0.555518  0.873168  1
  Zr  Zr7  1  0.000000  0.944334  0.373896  1
  B  B8  1  0.500000  0.556354  0.431647  1
  B  B9  1  0.500000  0.444666  0.568342  1
  B  B10  1  0.500000  0.055327  0.068786  1
  B  B11  1  0.500000  0.944508  0.931289  1
  B  B12  1  0.500000  0.751901  0.418127  1
  B  B13  1  0.500000  0.250121  0.582147  1
  B  B14  1  0.500000  0.249538  0.082207  1
  B  B15  1  0.500000  0.750008  0.918139  1
  B  B16  1  0.500000  0.793101  0.265766  1
  B  B17  1  0.500000  0.208541  0.733808  1
  B  B18  1  0.500000  0.291407  0.234255  1
  B  B19  1  0.500000  0.708609  0.766312  1
  B  B20  1  0.500000  0.631109  0.184723  1
  B  B21  1  0.500000  0.369446  0.815150  1
  B  B22  1  0.500000  0.129033  0.315973  1
  B  B23  1  0.500000  0.869725  0.685169  1
  B  B24  1  0.500000  0.982348  0.214514  1
  B  B25  1  0.500000  0.016218  0.785913  1
  B  B26  1  0.500000  0.484645  0.286095  1
  B  B27  1  0.500000  0.515549  0.714212  1
  B  B28  1  0.500000  0.603771  0.028334  1
  B  B29  1  0.500000  0.396417  0.971966  1
  B  B30  1  0.500000  0.100368  0.470151  1
  B  B31  1  0.500000  0.897707  0.525273  1
  Os  Os32  1  0.000000  0.641599  0.320351  1
  Os  Os33  1  0.000000  0.360530  0.679523  1
  Os  Os34  1  0.000000  0.137311  0.182408  1
  Os  Os35  1  0.000000  0.861274  0.818916  1
