# generated using pymatgen
data_Ho16In4IrOsPt2
_symmetry_space_group_name_H-M   'P 1'
_cell_length_a   9.65465766
_cell_length_b   9.62136792
_cell_length_c   9.64157781
_cell_angle_alpha   60.06931084
_cell_angle_beta   60.36800782
_cell_angle_gamma   60.11399583
_symmetry_Int_Tables_number   1
_chemical_formula_structural   Ho16In4IrOsPt2
_chemical_formula_sum   'Ho16 In4 Ir1 Os1 Pt2'
_cell_volume   635.92167429
_cell_formula_units_Z   1
loop_
 _symmetry_equiv_pos_site_id
 _symmetry_equiv_pos_as_xyz
  1  'x, y, z'
loop_
 _atom_site_type_symbol
 _atom_site_label
 _atom_site_symmetry_multiplicity
 _atom_site_fract_x
 _atom_site_fract_y
 _atom_site_fract_z
 _atom_site_occupancy
  Ho  Ho0  1  0.434816  0.446187  0.058640  1
  Ho  Ho1  1  0.644192  0.651021  0.053767  1
  Ho  Ho2  1  0.191858  0.809417  0.189309  1
  Ho  Ho3  1  0.060108  0.439632  0.060628  1
  Ho  Ho4  1  0.195816  0.809627  0.808094  1
  Ho  Ho5  1  0.060122  0.441608  0.435846  1
  Ho  Ho6  1  0.806944  0.187757  0.195487  1
  Ho  Ho7  1  0.649418  0.655338  0.650420  1
  Ho  Ho8  1  0.807370  0.191856  0.808919  1
  Ho  Ho9  1  0.195816  0.186463  0.808094  1
  Ho  Ho10  1  0.056300  0.649887  0.643929  1
  Ho  Ho11  1  0.434816  0.060359  0.058640  1
  Ho  Ho12  1  0.060122  0.062424  0.435846  1
  Ho  Ho13  1  0.649418  0.044823  0.650420  1
  Ho  Ho14  1  0.806944  0.809812  0.195487  1
  Ho  Ho15  1  0.436334  0.061001  0.441664  1
  In  In16  1  0.417181  0.416044  0.416663  1
  In  In17  1  0.417794  0.416446  0.749317  1
  In  In18  1  0.417181  0.750113  0.416663  1
  In  In19  1  0.748937  0.416605  0.417855  1
  Ir  Ir20  1  0.862774  0.856273  0.424679  1
  Os  Os21  1  0.424679  0.856906  0.861508  1
  Pt  Pt22  1  0.860531  0.854331  0.859063  1
  Pt  Pt23  1  0.860531  0.426074  0.859063  1
