# generated using pymatgen
data_HfSc15(Pt2O)4
_symmetry_space_group_name_H-M   'P 1'
_cell_length_a   8.77362960
_cell_length_b   8.73783981
_cell_length_c   8.77363100
_cell_angle_alpha   59.86441265
_cell_angle_beta   59.99999849
_cell_angle_gamma   59.86441097
_symmetry_Int_Tables_number   1
_chemical_formula_structural   HfSc15(Pt2O)4
_chemical_formula_sum   'Hf1 Sc15 Pt8 O4'
_cell_volume   474.62940398
_cell_formula_units_Z   1
loop_
 _symmetry_equiv_pos_site_id
 _symmetry_equiv_pos_as_xyz
  1  'x, y, z'
loop_
 _atom_site_type_symbol
 _atom_site_label
 _atom_site_symmetry_multiplicity
 _atom_site_fract_x
 _atom_site_fract_y
 _atom_site_fract_z
 _atom_site_occupancy
  Hf  Hf0  1  0.625000  0.125000  0.625000  1
  Sc  Sc1  1  0.125000  0.625000  0.625000  1
  Sc  Sc2  1  0.625000  0.625000  0.125000  1
  Sc  Sc3  1  0.625000  0.625000  0.625000  1
  Sc  Sc4  1  0.817574  0.817983  0.182222  1
  Sc  Sc5  1  0.181048  0.182711  0.818120  1
  Sc  Sc6  1  0.818120  0.182711  0.818120  1
  Sc  Sc7  1  0.182222  0.817983  0.182222  1
  Sc  Sc8  1  0.182222  0.817983  0.817574  1
  Sc  Sc9  1  0.818120  0.182711  0.181048  1
  Sc  Sc10  1  0.432426  0.432017  0.067778  1
  Sc  Sc11  1  0.068952  0.067289  0.431880  1
  Sc  Sc12  1  0.431880  0.067289  0.431880  1
  Sc  Sc13  1  0.067778  0.432017  0.067778  1
  Sc  Sc14  1  0.067778  0.432017  0.432426  1
  Sc  Sc15  1  0.431880  0.067289  0.068952  1
  Pt  Pt16  1  0.768584  0.408785  0.411315  1
  Pt  Pt17  1  0.410861  0.767416  0.410861  1
  Pt  Pt18  1  0.411315  0.408785  0.768584  1
  Pt  Pt19  1  0.411315  0.408785  0.411315  1
  Pt  Pt20  1  0.481416  0.841215  0.838685  1
  Pt  Pt21  1  0.839139  0.482584  0.839139  1
  Pt  Pt22  1  0.838685  0.841215  0.481416  1
  Pt  Pt23  1  0.838685  0.841215  0.838685  1
  O  O24  1  0.625000  0.125000  0.125000  1
  O  O25  1  0.125000  0.625000  0.125000  1
  O  O26  1  0.125000  0.125000  0.625000  1
  O  O27  1  0.125000  0.125000  0.125000  1
