# generated using pymatgen
data_K2GePt2
_symmetry_space_group_name_H-M   'P 1'
_cell_length_a   5.88543753
_cell_length_b   5.88543777
_cell_length_c   7.77258325
_cell_angle_alpha   83.79200561
_cell_angle_beta   83.79200273
_cell_angle_gamma   71.38564049
_symmetry_Int_Tables_number   1
_chemical_formula_structural   K2GePt2
_chemical_formula_sum   'K4 Ge2 Pt4'
_cell_volume   252.87401963
_cell_formula_units_Z   2
loop_
 _symmetry_equiv_pos_site_id
 _symmetry_equiv_pos_as_xyz
  1  'x, y, z'
loop_
 _atom_site_type_symbol
 _atom_site_label
 _atom_site_symmetry_multiplicity
 _atom_site_fract_x
 _atom_site_fract_y
 _atom_site_fract_z
 _atom_site_occupancy
  K  K0  1  0.759742  0.523778  0.867475  1
  K  K1  1  0.476222  0.240258  0.632525  1
  K  K2  1  0.240258  0.476222  0.132525  1
  K  K3  1  0.523778  0.759742  0.367475  1
  Ge  Ge4  1  0.040102  0.959898  0.750000  1
  Ge  Ge5  1  0.959898  0.040102  0.250000  1
  Pt  Pt6  1  0.007045  0.726773  0.507053  1
  Pt  Pt7  1  0.273227  0.992955  0.992947  1
  Pt  Pt8  1  0.992955  0.273227  0.492947  1
  Pt  Pt9  1  0.726773  0.007045  0.007053  1
