# generated using pymatgen
data_CsCrSn3O8
_symmetry_space_group_name_H-M   'P 1'
_cell_length_a   7.65068683
_cell_length_b   7.65068626
_cell_length_c   10.66526085
_cell_angle_alpha   46.58694913
_cell_angle_beta   46.58695233
_cell_angle_gamma   24.44710294
_symmetry_Int_Tables_number   1
_chemical_formula_structural   CsCrSn3O8
_chemical_formula_sum   'Cs1 Cr1 Sn3 O8'
_cell_volume   183.69023708
_cell_formula_units_Z   1
loop_
 _symmetry_equiv_pos_site_id
 _symmetry_equiv_pos_as_xyz
  1  'x, y, z'
loop_
 _atom_site_type_symbol
 _atom_site_label
 _atom_site_symmetry_multiplicity
 _atom_site_fract_x
 _atom_site_fract_y
 _atom_site_fract_z
 _atom_site_occupancy
  Cs  Cs0  1  0.496603  0.496603  0.000688  1
  Cr  Cr1  1  0.165252  0.165252  0.182218  1
  Sn  Sn2  1  0.828860  0.828860  0.828431  1
  Sn  Sn3  1  0.652373  0.652373  0.504997  1
  Sn  Sn4  1  0.357840  0.357840  0.479366  1
  O  O5  1  0.163972  0.163972  0.373210  1
  O  O6  1  0.832399  0.832399  0.628846  1
  O  O7  1  0.457542  0.457542  0.709763  1
  O  O8  1  0.547079  0.547079  0.290201  1
  O  O9  1  0.201023  0.201023  0.955814  1
  O  O10  1  0.788951  0.788951  0.058303  1
  O  O11  1  0.848583  0.848583  0.356221  1
  O  O12  1  0.159523  0.159523  0.631943  1
