# generated using pymatgen
data_Dy12AlTlGa4
_symmetry_space_group_name_H-M   'P 1'
_cell_length_a   8.62585501
_cell_length_b   8.62585417
_cell_length_c   8.62585600
_cell_angle_alpha   112.58805415
_cell_angle_beta   112.22070722
_cell_angle_gamma   103.75211728
_symmetry_Int_Tables_number   1
_chemical_formula_structural   Dy12AlTlGa4
_chemical_formula_sum   'Dy12 Al1 Tl1 Ga4'
_cell_volume   490.41786454
_cell_formula_units_Z   1
loop_
 _symmetry_equiv_pos_site_id
 _symmetry_equiv_pos_as_xyz
  1  'x, y, z'
loop_
 _atom_site_type_symbol
 _atom_site_label
 _atom_site_symmetry_multiplicity
 _atom_site_fract_x
 _atom_site_fract_y
 _atom_site_fract_z
 _atom_site_occupancy
  Dy  Dy0  1  0.432508  0.234056  0.198446  1
  Dy  Dy1  1  0.567492  0.765944  0.801554  1
  Dy  Dy2  1  0.035610  0.234056  0.801547  1
  Dy  Dy3  1  0.964390  0.765944  0.198453  1
  Dy  Dy4  1  0.183205  0.277684  0.460880  1
  Dy  Dy5  1  0.816795  0.722316  0.539120  1
  Dy  Dy6  1  0.183197  0.722316  0.905522  1
  Dy  Dy7  1  0.816803  0.277684  0.094478  1
  Dy  Dy8  1  0.319913  0.615967  0.296054  1
  Dy  Dy9  1  0.680087  0.384033  0.703946  1
  Dy  Dy10  1  0.319923  0.023873  0.703950  1
  Dy  Dy11  1  0.680077  0.976127  0.296050  1
  Al  Al12  1  0.000000  0.000000  0.000000  1
  Tl  Tl13  1  0.500000  0.500000  0.000000  1
  Ga  Ga14  1  0.352402  0.000000  0.352402  1
  Ga  Ga15  1  0.647598  0.000000  0.647598  1
  Ga  Ga16  1  0.120840  0.620837  0.499997  1
  Ga  Ga17  1  0.879160  0.379163  0.500003  1
