# generated using pymatgen
data_LiEu2CdPdPt
_symmetry_space_group_name_H-M   'P 1'
_cell_length_a   4.28821200
_cell_length_b   7.41014800
_cell_length_c   8.73089300
_cell_angle_alpha   90.00000000
_cell_angle_beta   90.00000000
_cell_angle_gamma   90.00000000
_symmetry_Int_Tables_number   1
_chemical_formula_structural   LiEu2CdPdPt
_chemical_formula_sum   'Li2 Eu4 Cd2 Pd2 Pt2'
_cell_volume   277.43534930
_cell_formula_units_Z   2
loop_
 _symmetry_equiv_pos_site_id
 _symmetry_equiv_pos_as_xyz
  1  'x, y, z'
loop_
 _atom_site_type_symbol
 _atom_site_label
 _atom_site_symmetry_multiplicity
 _atom_site_fract_x
 _atom_site_fract_y
 _atom_site_fract_z
 _atom_site_occupancy
  Li  Li0  1  0.250000  0.130505  0.944843  1
  Li  Li1  1  0.750000  0.369495  0.444843  1
  Eu  Eu2  1  0.250000  0.536268  0.177733  1
  Eu  Eu3  1  0.750000  0.452991  0.820247  1
  Eu  Eu4  1  0.250000  0.047009  0.320247  1
  Eu  Eu5  1  0.750000  0.963732  0.677733  1
  Cd  Cd6  1  0.250000  0.630000  0.558916  1
  Cd  Cd7  1  0.750000  0.870000  0.058916  1
  Pd  Pd8  1  0.750000  0.741471  0.369850  1
  Pd  Pd9  1  0.250000  0.758529  0.869850  1
  Pt  Pt10  1  0.750000  0.248188  0.128410  1
  Pt  Pt11  1  0.250000  0.251812  0.628410  1
