# generated using pymatgen
data_Hf16Co4Tc3Ru
_symmetry_space_group_name_H-M   'P 1'
_cell_length_a   8.60329015
_cell_length_b   8.60390241
_cell_length_c   8.60367759
_cell_angle_alpha   59.93458371
_cell_angle_beta   59.93167623
_cell_angle_gamma   59.93213480
_symmetry_Int_Tables_number   1
_chemical_formula_structural   Hf16Co4Tc3Ru
_chemical_formula_sum   'Hf16 Co4 Tc3 Ru1'
_cell_volume   449.64180803
_cell_formula_units_Z   1
loop_
 _symmetry_equiv_pos_site_id
 _symmetry_equiv_pos_as_xyz
  1  'x, y, z'
loop_
 _atom_site_type_symbol
 _atom_site_label
 _atom_site_symmetry_multiplicity
 _atom_site_fract_x
 _atom_site_fract_y
 _atom_site_fract_z
 _atom_site_occupancy
  Hf  Hf0  1  0.054548  0.648578  0.648563  1
  Hf  Hf1  1  0.648610  0.054457  0.648594  1
  Hf  Hf2  1  0.648600  0.648597  0.054473  1
  Hf  Hf3  1  0.648457  0.648460  0.648452  1
  Hf  Hf4  1  0.798178  0.798217  0.201843  1
  Hf  Hf5  1  0.201422  0.201405  0.799186  1
  Hf  Hf6  1  0.798177  0.201836  0.798217  1
  Hf  Hf7  1  0.201411  0.799187  0.201414  1
  Hf  Hf8  1  0.201827  0.798219  0.798217  1
  Hf  Hf9  1  0.799150  0.201427  0.201446  1
  Hf  Hf10  1  0.435413  0.435437  0.063725  1
  Hf  Hf11  1  0.064730  0.064747  0.435220  1
  Hf  Hf12  1  0.435417  0.063724  0.435436  1
  Hf  Hf13  1  0.064734  0.435218  0.064746  1
  Hf  Hf14  1  0.063697  0.435439  0.435438  1
  Hf  Hf15  1  0.435194  0.064754  0.064750  1
  Co  Co16  1  0.422311  0.859437  0.859435  1
  Co  Co17  1  0.859461  0.422312  0.859418  1
  Co  Co18  1  0.859455  0.859421  0.422309  1
  Co  Co19  1  0.859272  0.859237  0.859230  1
  Tc  Tc20  1  0.749969  0.416942  0.416944  1
  Tc  Tc21  1  0.416953  0.749970  0.416941  1
  Tc  Tc22  1  0.416957  0.416941  0.749966  1
  Ru  Ru23  1  0.416054  0.416038  0.416039  1
