# generated using pymatgen
data_Zr4Si4Au
_symmetry_space_group_name_H-M   'P 1'
_cell_length_a   5.33192505
_cell_length_b   5.33192561
_cell_length_c   8.90084907
_cell_angle_alpha   70.97887924
_cell_angle_beta   70.97887620
_cell_angle_gamma   42.55923748
_symmetry_Int_Tables_number   1
_chemical_formula_structural   Zr4Si4Au
_chemical_formula_sum   'Zr4 Si4 Au1'
_cell_volume   160.33817118
_cell_formula_units_Z   1
loop_
 _symmetry_equiv_pos_site_id
 _symmetry_equiv_pos_as_xyz
  1  'x, y, z'
loop_
 _atom_site_type_symbol
 _atom_site_label
 _atom_site_symmetry_multiplicity
 _atom_site_fract_x
 _atom_site_fract_y
 _atom_site_fract_z
 _atom_site_occupancy
  Zr  Zr0  1  0.107352  0.107352  0.615245  1
  Zr  Zr1  1  0.892648  0.892648  0.384755  1
  Zr  Zr2  1  0.754972  0.754972  0.838848  1
  Zr  Zr3  1  0.245028  0.245028  0.161152  1
  Si  Si4  1  0.383579  0.383579  0.611717  1
  Si  Si5  1  0.616421  0.616421  0.388283  1
  Si  Si6  1  0.459220  0.459220  0.838649  1
  Si  Si7  1  0.540780  0.540780  0.161351  1
  Au  Au8  1  0.000000  0.000000  0.000000  1
