# generated using pymatgen
data_YHo3AlOs7
_symmetry_space_group_name_H-M   'P 1'
_cell_length_a   5.36127500
_cell_length_b   5.36127495
_cell_length_c   8.70854200
_cell_angle_alpha   90.00000000
_cell_angle_beta   90.00000000
_cell_angle_gamma   120.00000648
_symmetry_Int_Tables_number   1
_chemical_formula_structural   YHo3AlOs7
_chemical_formula_sum   'Y1 Ho3 Al1 Os7'
_cell_volume   216.77650936
_cell_formula_units_Z   1
loop_
 _symmetry_equiv_pos_site_id
 _symmetry_equiv_pos_as_xyz
  1  'x, y, z'
loop_
 _atom_site_type_symbol
 _atom_site_label
 _atom_site_symmetry_multiplicity
 _atom_site_fract_x
 _atom_site_fract_y
 _atom_site_fract_z
 _atom_site_occupancy
  Y  Y0  1  0.333333  0.666667  0.429195  1
  Ho  Ho1  1  0.666667  0.333333  0.571429  1
  Ho  Ho2  1  0.666667  0.333333  0.935444  1
  Ho  Ho3  1  0.333333  0.666667  0.064305  1
  Al  Al4  1  0.000000  0.000000  0.500029  1
  Os  Os5  1  0.000000  0.000000  0.000076  1
  Os  Os6  1  0.828578  0.171422  0.250427  1
  Os  Os7  1  0.828578  0.657155  0.250427  1
  Os  Os8  1  0.342845  0.171422  0.250427  1
  Os  Os9  1  0.171305  0.828695  0.749413  1
  Os  Os10  1  0.171305  0.342612  0.749413  1
  Os  Os11  1  0.657388  0.828695  0.749413  1
