# generated using pymatgen
data_Ho6Co16Si9Tc2P3
_symmetry_space_group_name_H-M   'P 1'
_cell_length_a   3.77633400
_cell_length_b   10.70087800
_cell_length_c   12.32685500
_cell_angle_alpha   90.00000000
_cell_angle_beta   90.00000000
_cell_angle_gamma   90.00000000
_symmetry_Int_Tables_number   1
_chemical_formula_structural   Ho6Co16Si9Tc2P3
_chemical_formula_sum   'Ho6 Co16 Si9 Tc2 P3'
_cell_volume   498.12931283
_cell_formula_units_Z   1
loop_
 _symmetry_equiv_pos_site_id
 _symmetry_equiv_pos_as_xyz
  1  'x, y, z'
loop_
 _atom_site_type_symbol
 _atom_site_label
 _atom_site_symmetry_multiplicity
 _atom_site_fract_x
 _atom_site_fract_y
 _atom_site_fract_z
 _atom_site_occupancy
  Ho  Ho0  1  0.000000  0.500000  0.524895  1
  Ho  Ho1  1  0.500000  0.000000  0.474190  1
  Ho  Ho2  1  0.500000  0.820845  0.203347  1
  Ho  Ho3  1  0.500000  0.179155  0.203347  1
  Ho  Ho4  1  0.000000  0.680720  0.795961  1
  Ho  Ho5  1  0.000000  0.319280  0.795961  1
  Co  Co6  1  0.000000  0.500000  0.983990  1
  Co  Co7  1  0.500000  0.000000  0.019535  1
  Co  Co8  1  0.500000  0.303475  0.429038  1
  Co  Co9  1  0.500000  0.696525  0.429038  1
  Co  Co10  1  0.000000  0.195577  0.570448  1
  Co  Co11  1  0.000000  0.804423  0.570448  1
  Co  Co12  1  0.500000  0.883293  0.704526  1
  Co  Co13  1  0.500000  0.116707  0.704526  1
  Co  Co14  1  0.000000  0.617001  0.295424  1
  Co  Co15  1  0.000000  0.382999  0.295424  1
  Co  Co16  1  0.500000  0.330009  0.994499  1
  Co  Co17  1  0.500000  0.669991  0.994499  1
  Co  Co18  1  0.000000  0.165806  0.008561  1
  Co  Co19  1  0.000000  0.834194  0.008561  1
  Co  Co20  1  0.500000  0.500000  0.696650  1
  Co  Co21  1  0.000000  0.000000  0.298572  1
  Si  Si22  1  0.500000  0.304186  0.613837  1
  Si  Si23  1  0.500000  0.695814  0.613837  1
  Si  Si24  1  0.000000  0.194592  0.385442  1
  Si  Si25  1  0.000000  0.805408  0.385442  1
  Si  Si26  1  0.500000  0.500000  0.884090  1
  Si  Si27  1  0.500000  0.849213  0.893045  1
  Si  Si28  1  0.500000  0.150787  0.893045  1
  Si  Si29  1  0.000000  0.651768  0.107196  1
  Si  Si30  1  0.000000  0.348232  0.107196  1
  Tc  Tc31  1  0.500000  0.500000  0.154449  1
  Tc  Tc32  1  0.000000  0.000000  0.845058  1
  P  P33  1  0.000000  0.000000  0.116470  1
  P  P34  1  0.500000  0.500000  0.343987  1
  P  P35  1  0.000000  0.000000  0.655464  1
