# generated using pymatgen
data_Tb5SnHg3Pt2
_symmetry_space_group_name_H-M   'P 1'
_cell_length_a   3.68739600
_cell_length_b   8.01502270
_cell_length_c   18.22603582
_cell_angle_alpha   90.55310628
_cell_angle_beta   90.00000000
_cell_angle_gamma   90.00000000
_symmetry_Int_Tables_number   1
_chemical_formula_structural   Tb5SnHg3Pt2
_chemical_formula_sum   'Tb10 Sn2 Hg6 Pt4'
_cell_volume   538.63741875
_cell_formula_units_Z   2
loop_
 _symmetry_equiv_pos_site_id
 _symmetry_equiv_pos_as_xyz
  1  'x, y, z'
loop_
 _atom_site_type_symbol
 _atom_site_label
 _atom_site_symmetry_multiplicity
 _atom_site_fract_x
 _atom_site_fract_y
 _atom_site_fract_z
 _atom_site_occupancy
  Tb  Tb0  1  0.000000  0.113444  0.414118  1
  Tb  Tb1  1  0.000000  0.886556  0.585882  1
  Tb  Tb2  1  0.000000  0.387348  0.913314  1
  Tb  Tb3  1  0.000000  0.612652  0.086686  1
  Tb  Tb4  1  0.000000  0.236824  0.216754  1
  Tb  Tb5  1  0.000000  0.763176  0.783246  1
  Tb  Tb6  1  0.000000  0.257662  0.717079  1
  Tb  Tb7  1  0.000000  0.742338  0.282921  1
  Tb  Tb8  1  0.000000  0.000000  0.000000  1
  Tb  Tb9  1  0.000000  0.500000  0.500000  1
  Sn  Sn10  1  0.500000  0.423356  0.352272  1
  Sn  Sn11  1  0.500000  0.576644  0.647728  1
  Hg  Hg12  1  0.500000  0.077892  0.855266  1
  Hg  Hg13  1  0.500000  0.922108  0.144734  1
  Hg  Hg14  1  0.500000  0.289212  0.063493  1
  Hg  Hg15  1  0.500000  0.710788  0.936507  1
  Hg  Hg16  1  0.500000  0.208822  0.564016  1
  Hg  Hg17  1  0.500000  0.791178  0.435984  1
  Pt  Pt18  1  0.500000  0.026532  0.303056  1
  Pt  Pt19  1  0.500000  0.973468  0.696944  1
  Pt  Pt20  1  0.500000  0.477197  0.801489  1
  Pt  Pt21  1  0.500000  0.522803  0.198511  1
