# generated using pymatgen
data_Tb20Ir8RuRh3
_symmetry_space_group_name_H-M   'P 1'
_cell_length_a   10.90615100
_cell_length_b   10.90615100
_cell_length_c   6.44678700
_cell_angle_alpha   90.00000000
_cell_angle_beta   90.00000000
_cell_angle_gamma   90.00000000
_symmetry_Int_Tables_number   1
_chemical_formula_structural   Tb20Ir8RuRh3
_chemical_formula_sum   'Tb20 Ir8 Ru1 Rh3'
_cell_volume   766.80746866
_cell_formula_units_Z   1
loop_
 _symmetry_equiv_pos_site_id
 _symmetry_equiv_pos_as_xyz
  1  'x, y, z'
loop_
 _atom_site_type_symbol
 _atom_site_label
 _atom_site_symmetry_multiplicity
 _atom_site_fract_x
 _atom_site_fract_y
 _atom_site_fract_z
 _atom_site_occupancy
  Tb  Tb0  1  0.291977  0.087763  0.377665  1
  Tb  Tb1  1  0.292547  0.912231  0.882668  1
  Tb  Tb2  1  0.707453  0.087769  0.882668  1
  Tb  Tb3  1  0.708023  0.912237  0.377665  1
  Tb  Tb4  1  0.587769  0.792547  0.882668  1
  Tb  Tb5  1  0.587763  0.208023  0.377665  1
  Tb  Tb6  1  0.412237  0.791977  0.377665  1
  Tb  Tb7  1  0.412231  0.207453  0.882668  1
  Tb  Tb8  1  0.209609  0.410856  0.620245  1
  Tb  Tb9  1  0.209509  0.588633  0.119631  1
  Tb  Tb10  1  0.790491  0.411367  0.119631  1
  Tb  Tb11  1  0.790391  0.589144  0.620245  1
  Tb  Tb12  1  0.911367  0.709509  0.119631  1
  Tb  Tb13  1  0.910856  0.290391  0.620245  1
  Tb  Tb14  1  0.089144  0.709609  0.620245  1
  Tb  Tb15  1  0.088633  0.290491  0.119631  1
  Tb  Tb16  1  0.000000  0.000000  0.499006  1
  Tb  Tb17  1  0.000000  0.000000  0.998825  1
  Tb  Tb18  1  0.500000  0.500000  0.998825  1
  Tb  Tb19  1  0.500000  0.500000  0.499006  1
  Ir  Ir20  1  0.847181  0.154602  0.250150  1
  Ir  Ir21  1  0.847002  0.846075  0.749749  1
  Ir  Ir22  1  0.152998  0.153925  0.749749  1
  Ir  Ir23  1  0.152819  0.845398  0.250150  1
  Ir  Ir24  1  0.653925  0.347002  0.749749  1
  Ir  Ir25  1  0.654602  0.652819  0.250150  1
  Ir  Ir26  1  0.345398  0.347181  0.250150  1
  Ir  Ir27  1  0.346075  0.652998  0.749749  1
  Ru  Ru28  1  0.500000  0.000000  0.124323  1
  Rh  Rh29  1  0.500000  0.000000  0.623136  1
  Rh  Rh30  1  0.000000  0.500000  0.877985  1
  Rh  Rh31  1  0.000000  0.500000  0.378459  1
