# generated using pymatgen
data_Er9Lu2PaGa20
_symmetry_space_group_name_H-M   'P 1'
_cell_length_a   6.08908714
_cell_length_b   9.56514900
_cell_length_c   11.40494472
_cell_angle_alpha   90.01707843
_cell_angle_beta   89.86692889
_cell_angle_gamma   90.00979543
_symmetry_Int_Tables_number   1
_chemical_formula_structural   Er9Lu2PaGa20
_chemical_formula_sum   'Er9 Lu2 Pa1 Ga20'
_cell_volume   664.25665849
_cell_formula_units_Z   1
loop_
 _symmetry_equiv_pos_site_id
 _symmetry_equiv_pos_as_xyz
  1  'x, y, z'
loop_
 _atom_site_type_symbol
 _atom_site_label
 _atom_site_symmetry_multiplicity
 _atom_site_fract_x
 _atom_site_fract_y
 _atom_site_fract_z
 _atom_site_occupancy
  Er  Er0  1  0.150381  0.249927  0.925196  1
  Er  Er1  1  0.352514  0.252261  0.426459  1
  Er  Er2  1  0.609630  0.988179  0.852237  1
  Er  Er3  1  0.111658  0.009817  0.648341  1
  Er  Er4  1  0.389467  0.489860  0.148539  1
  Er  Er5  1  0.110010  0.490131  0.648702  1
  Er  Er6  1  0.389372  0.010913  0.148567  1
  Er  Er7  1  0.889434  0.989685  0.352172  1
  Er  Er8  1  0.609535  0.510419  0.851433  1
  Lu  Lu9  1  0.849990  0.748696  0.074095  1
  Lu  Lu10  1  0.651546  0.749492  0.574087  1
  Pa  Pa11  1  0.887318  0.510897  0.353004  1
  Ga  Ga12  1  0.873614  0.051706  0.091457  1
  Ga  Ga13  1  0.627770  0.447225  0.589728  1
  Ga  Ga14  1  0.126911  0.553430  0.908750  1
  Ga  Ga15  1  0.373440  0.948885  0.408800  1
  Ga  Ga16  1  0.126387  0.946761  0.909837  1
  Ga  Ga17  1  0.377796  0.553521  0.408773  1
  Ga  Ga18  1  0.873856  0.447069  0.090301  1
  Ga  Ga19  1  0.627354  0.051410  0.591607  1
  Ga  Ga20  1  0.171392  0.749749  0.252652  1
  Ga  Ga21  1  0.326105  0.749919  0.751532  1
  Ga  Ga22  1  0.823726  0.248859  0.749099  1
  Ga  Ga23  1  0.673936  0.249835  0.246764  1
  Ga  Ga24  1  0.375987  0.750205  0.006255  1
  Ga  Ga25  1  0.122789  0.749424  0.503082  1
  Ga  Ga26  1  0.624299  0.249248  0.993559  1
  Ga  Ga27  1  0.875290  0.249935  0.494729  1
  Ga  Ga28  1  0.603782  0.751101  0.297930  1
  Ga  Ga29  1  0.896808  0.749966  0.798282  1
  Ga  Ga30  1  0.396655  0.249610  0.700702  1
  Ga  Ga31  1  0.101247  0.251869  0.203333  1
