# generated using pymatgen
data_Tb3Tm(Nb3Si4)2
_symmetry_space_group_name_H-M   'P 1'
_cell_length_a   7.06615000
_cell_length_b   7.06801602
_cell_length_c   13.03630400
_cell_angle_alpha   90.00000000
_cell_angle_beta   90.00000000
_cell_angle_gamma   89.99524968
_symmetry_Int_Tables_number   1
_chemical_formula_structural   Tb3Tm(Nb3Si4)2
_chemical_formula_sum   'Tb6 Tm2 Nb12 Si16'
_cell_volume   651.08075104
_cell_formula_units_Z   2
loop_
 _symmetry_equiv_pos_site_id
 _symmetry_equiv_pos_as_xyz
  1  'x, y, z'
loop_
 _atom_site_type_symbol
 _atom_site_label
 _atom_site_symmetry_multiplicity
 _atom_site_fract_x
 _atom_site_fract_y
 _atom_site_fract_z
 _atom_site_occupancy
  Tb  Tb0  1  0.998077  0.340630  0.217864  1
  Tb  Tb1  1  0.001923  0.659370  0.717864  1
  Tb  Tb2  1  0.158479  0.498167  0.467680  1
  Tb  Tb3  1  0.502233  0.841417  0.032288  1
  Tb  Tb4  1  0.841521  0.501833  0.967680  1
  Tb  Tb5  1  0.497767  0.158583  0.532288  1
  Tm  Tm6  1  0.341715  0.999689  0.782132  1
  Tm  Tm7  1  0.658285  0.000311  0.282132  1
  Nb  Nb8  1  0.171796  0.170981  0.999827  1
  Nb  Nb9  1  0.828204  0.829019  0.499827  1
  Nb  Nb10  1  0.329094  0.671033  0.250075  1
  Nb  Nb11  1  0.670906  0.328967  0.750075  1
  Nb  Nb12  1  0.153028  0.992354  0.375876  1
  Nb  Nb13  1  0.846972  0.007646  0.875876  1
  Nb  Nb14  1  0.506411  0.654415  0.626602  1
  Nb  Nb15  1  0.346843  0.492879  0.873624  1
  Nb  Nb16  1  0.493589  0.345585  0.126602  1
  Nb  Nb17  1  0.653157  0.507121  0.373624  1
  Nb  Nb18  1  0.992138  0.153493  0.624112  1
  Nb  Nb19  1  0.007862  0.846507  0.124112  1
  Si  Si20  1  0.294783  0.044958  0.186893  1
  Si  Si21  1  0.705217  0.955042  0.686893  1
  Si  Si22  1  0.455207  0.794013  0.435950  1
  Si  Si23  1  0.207413  0.545187  0.063576  1
  Si  Si24  1  0.544793  0.205987  0.935950  1
  Si  Si25  1  0.792587  0.454813  0.563576  1
  Si  Si26  1  0.046576  0.292745  0.813420  1
  Si  Si27  1  0.953424  0.707255  0.313420  1
  Si  Si28  1  0.368392  0.293758  0.317734  1
  Si  Si29  1  0.631608  0.706242  0.817734  1
  Si  Si30  1  0.204588  0.868097  0.568091  1
  Si  Si31  1  0.133919  0.796615  0.931551  1
  Si  Si32  1  0.795412  0.131903  0.068091  1
  Si  Si33  1  0.866081  0.203385  0.431551  1
  Si  Si34  1  0.295545  0.366596  0.682705  1
  Si  Si35  1  0.704455  0.633404  0.182705  1
