# generated using pymatgen
data_Yb2Ho2PtRh3O14
_symmetry_space_group_name_H-M   'P 1'
_cell_length_a   7.19960503
_cell_length_b   7.22713461
_cell_length_c   7.20533858
_cell_angle_alpha   60.08265529
_cell_angle_beta   60.02632913
_cell_angle_gamma   60.12592436
_symmetry_Int_Tables_number   1
_chemical_formula_structural   Yb2Ho2PtRh3O14
_chemical_formula_sum   'Yb2 Ho2 Pt1 Rh3 O14'
_cell_volume   265.57274411
_cell_formula_units_Z   1
loop_
 _symmetry_equiv_pos_site_id
 _symmetry_equiv_pos_as_xyz
  1  'x, y, z'
loop_
 _atom_site_type_symbol
 _atom_site_label
 _atom_site_symmetry_multiplicity
 _atom_site_fract_x
 _atom_site_fract_y
 _atom_site_fract_z
 _atom_site_occupancy
  Yb  Yb0  1  0.625000  0.625000  0.125000  1
  Yb  Yb1  1  0.625000  0.125000  0.625000  1
  Ho  Ho2  1  0.625000  0.625000  0.625000  1
  Ho  Ho3  1  0.125000  0.625000  0.625000  1
  Pt  Pt4  1  0.125000  0.125000  0.625000  1
  Rh  Rh5  1  0.125000  0.125000  0.125000  1
  Rh  Rh6  1  0.625000  0.125000  0.125000  1
  Rh  Rh7  1  0.125000  0.625000  0.125000  1
  O  O8  1  0.038690  0.461387  0.461232  1
  O  O9  1  0.794594  0.793620  0.210534  1
  O  O10  1  0.796898  0.205173  0.201031  1
  O  O11  1  0.459811  0.034205  0.459674  1
  O  O12  1  0.754713  0.745062  0.745513  1
  O  O13  1  0.046311  0.034205  0.459674  1
  O  O14  1  0.048750  0.456380  0.039466  1
  O  O15  1  0.790189  0.215795  0.790326  1
  O  O16  1  0.201250  0.793620  0.210534  1
  O  O17  1  0.203689  0.215795  0.790326  1
  O  O18  1  0.495287  0.504938  0.504487  1
  O  O19  1  0.453102  0.044827  0.048969  1
  O  O20  1  0.455406  0.456380  0.039466  1
  O  O21  1  0.211310  0.788613  0.788768  1
