# generated using pymatgen
data_Dy15HoCd3Co4Ag
_symmetry_space_group_name_H-M   'P 1'
_cell_length_a   9.47105318
_cell_length_b   9.46917717
_cell_length_c   9.47105400
_cell_angle_alpha   59.99345025
_cell_angle_beta   60.00000414
_cell_angle_gamma   59.99344685
_symmetry_Int_Tables_number   1
_chemical_formula_structural   Dy15HoCd3Co4Ag
_chemical_formula_sum   'Dy15 Ho1 Cd3 Co4 Ag1'
_cell_volume   600.55229822
_cell_formula_units_Z   1
loop_
 _symmetry_equiv_pos_site_id
 _symmetry_equiv_pos_as_xyz
  1  'x, y, z'
loop_
 _atom_site_type_symbol
 _atom_site_label
 _atom_site_symmetry_multiplicity
 _atom_site_fract_x
 _atom_site_fract_y
 _atom_site_fract_z
 _atom_site_occupancy
  Dy  Dy0  1  0.687496  0.312531  0.687496  1
  Dy  Dy1  1  0.687496  0.312531  0.312476  1
  Dy  Dy2  1  0.937605  0.559565  0.565226  1
  Dy  Dy3  1  0.540246  0.152554  0.153600  1
  Dy  Dy4  1  0.153600  0.152554  0.540246  1
  Dy  Dy5  1  0.937484  0.935606  0.563455  1
  Dy  Dy6  1  0.311988  0.688186  0.311988  1
  Dy  Dy7  1  0.563455  0.935606  0.937484  1
  Dy  Dy8  1  0.563455  0.935606  0.563455  1
  Dy  Dy9  1  0.687837  0.688186  0.311988  1
  Dy  Dy10  1  0.565226  0.559565  0.937605  1
  Dy  Dy11  1  0.937605  0.559565  0.937605  1
  Dy  Dy12  1  0.311988  0.688186  0.687837  1
  Dy  Dy13  1  0.153600  0.152554  0.153600  1
  Dy  Dy14  1  0.312476  0.312531  0.687496  1
  Ho  Ho15  1  0.153386  0.539840  0.153386  1
  Cd  Cd16  1  0.919475  0.922203  0.919475  1
  Cd  Cd17  1  0.919475  0.922203  0.238848  1
  Cd  Cd18  1  0.238848  0.922203  0.919475  1
  Co  Co19  1  0.358536  0.359519  0.923411  1
  Co  Co20  1  0.359101  0.922697  0.359101  1
  Co  Co21  1  0.923411  0.359519  0.358536  1
  Co  Co22  1  0.358536  0.359519  0.358536  1
  Ag  Ag23  1  0.917676  0.246973  0.917676  1
