# generated using pymatgen
data_TbY7Hf3Si16Mo9
_symmetry_space_group_name_H-M   'P 1'
_cell_length_a   6.99257345
_cell_length_b   6.99267922
_cell_length_c   12.93697000
_cell_angle_alpha   89.93461784
_cell_angle_beta   90.06482302
_cell_angle_gamma   89.81939300
_symmetry_Int_Tables_number   1
_chemical_formula_structural   TbY7Hf3Si16Mo9
_chemical_formula_sum   'Tb1 Y7 Hf3 Si16 Mo9'
_cell_volume   632.57277096
_cell_formula_units_Z   1
loop_
 _symmetry_equiv_pos_site_id
 _symmetry_equiv_pos_as_xyz
  1  'x, y, z'
loop_
 _atom_site_type_symbol
 _atom_site_label
 _atom_site_symmetry_multiplicity
 _atom_site_fract_x
 _atom_site_fract_y
 _atom_site_fract_z
 _atom_site_occupancy
  Tb  Tb0  1  0.660315  0.004843  0.279653  1
  Y  Y1  1  0.999745  0.338099  0.216684  1
  Y  Y2  1  0.004662  0.660179  0.720386  1
  Y  Y3  1  0.160550  0.497052  0.468335  1
  Y  Y4  1  0.500214  0.841481  0.031073  1
  Y  Y5  1  0.841476  0.500182  0.968869  1
  Y  Y6  1  0.497055  0.160572  0.531710  1
  Y  Y7  1  0.338126  0.999820  0.783319  1
  Hf  Hf8  1  0.831644  0.831676  0.500011  1
  Hf  Hf9  1  0.329804  0.669373  0.247729  1
  Hf  Hf10  1  0.669346  0.329709  0.752296  1
  Si  Si11  1  0.370728  0.295350  0.316627  1
  Si  Si12  1  0.627346  0.705921  0.817241  1
  Si  Si13  1  0.204163  0.872054  0.567705  1
  Si  Si14  1  0.125377  0.804675  0.934824  1
  Si  Si15  1  0.804664  0.125418  0.065058  1
  Si  Si16  1  0.872135  0.204283  0.432390  1
  Si  Si17  1  0.295253  0.370776  0.683381  1
  Si  Si18  1  0.705867  0.627134  0.182742  1
  Si  Si19  1  0.286791  0.046907  0.182979  1
  Si  Si20  1  0.709547  0.957969  0.689078  1
  Si  Si21  1  0.456496  0.789992  0.437861  1
  Si  Si22  1  0.212495  0.533568  0.058341  1
  Si  Si23  1  0.533617  0.212460  0.941629  1
  Si  Si24  1  0.790037  0.456520  0.562186  1
  Si  Si25  1  0.046881  0.286963  0.816949  1
  Si  Si26  1  0.957958  0.709431  0.310948  1
  Mo  Mo27  1  0.167967  0.167971  0.999975  1
  Mo  Mo28  1  0.160447  0.994703  0.375299  1
  Mo  Mo29  1  0.832965  0.003490  0.877152  1
  Mo  Mo30  1  0.506529  0.659505  0.626617  1
  Mo  Mo31  1  0.344398  0.497667  0.873480  1
  Mo  Mo32  1  0.497667  0.344311  0.126458  1
  Mo  Mo33  1  0.659556  0.506475  0.373464  1
  Mo  Mo34  1  0.994740  0.160447  0.624771  1
  Mo  Mo35  1  0.003439  0.833024  0.122781  1
