# generated using pymatgen
data_Ho(FeRe2)4
_symmetry_space_group_name_H-M   'P 1'
_cell_length_a   6.74526130
_cell_length_b   6.74526135
_cell_length_c   6.74526074
_cell_angle_alpha   97.29406893
_cell_angle_beta   97.29406235
_cell_angle_gamma   138.25162251
_symmetry_Int_Tables_number   1
_chemical_formula_structural   Ho(FeRe2)4
_chemical_formula_sum   'Ho1 Fe4 Re8'
_cell_volume   190.93967872
_cell_formula_units_Z   1
loop_
 _symmetry_equiv_pos_site_id
 _symmetry_equiv_pos_as_xyz
  1  'x, y, z'
loop_
 _atom_site_type_symbol
 _atom_site_label
 _atom_site_symmetry_multiplicity
 _atom_site_fract_x
 _atom_site_fract_y
 _atom_site_fract_z
 _atom_site_occupancy
  Ho  Ho0  1  0.000000  0.000000  0.000000  1
  Fe  Fe1  1  0.000000  0.000000  0.500000  1
  Fe  Fe2  1  0.500000  0.000000  0.000000  1
  Fe  Fe3  1  0.000000  0.500000  0.000000  1
  Fe  Fe4  1  0.500000  0.500000  0.500000  1
  Re  Re5  1  0.643417  0.000000  0.643417  1
  Re  Re6  1  0.000000  0.643417  0.643417  1
  Re  Re7  1  0.000000  0.356583  0.356583  1
  Re  Re8  1  0.356583  0.000000  0.356583  1
  Re  Re9  1  0.714803  0.500000  0.214803  1
  Re  Re10  1  0.500000  0.714803  0.214803  1
  Re  Re11  1  0.500000  0.285197  0.785197  1
  Re  Re12  1  0.285197  0.500000  0.785197  1
