# generated using pymatgen
data_HfTa2Sn3Rh10
_symmetry_space_group_name_H-M   'P 1'
_cell_length_a   4.11847900
_cell_length_b   5.64075669
_cell_length_c   11.09424789
_cell_angle_alpha   90.51146744
_cell_angle_beta   90.00000000
_cell_angle_gamma   90.00000000
_symmetry_Int_Tables_number   1
_chemical_formula_structural   HfTa2Sn3Rh10
_chemical_formula_sum   'Hf1 Ta2 Sn3 Rh10'
_cell_volume   257.72395317
_cell_formula_units_Z   1
loop_
 _symmetry_equiv_pos_site_id
 _symmetry_equiv_pos_as_xyz
  1  'x, y, z'
loop_
 _atom_site_type_symbol
 _atom_site_label
 _atom_site_symmetry_multiplicity
 _atom_site_fract_x
 _atom_site_fract_y
 _atom_site_fract_z
 _atom_site_occupancy
  Hf  Hf0  1  0.500000  0.323643  0.141802  1
  Ta  Ta1  1  0.500000  0.830302  0.353150  1
  Ta  Ta2  1  0.500000  0.671195  0.855383  1
  Sn  Sn3  1  0.500000  0.169193  0.643976  1
  Sn  Sn4  1  0.000000  0.508962  0.495675  1
  Sn  Sn5  1  0.000000  0.001621  0.000818  1
  Rh  Rh6  1  0.500000  0.206299  0.889006  1
  Rh  Rh7  1  0.500000  0.799181  0.116074  1
  Rh  Rh8  1  0.500000  0.694563  0.614668  1
  Rh  Rh9  1  0.500000  0.298291  0.384913  1
  Rh  Rh10  1  0.000000  0.440249  0.748086  1
  Rh  Rh11  1  0.000000  0.569582  0.252668  1
  Rh  Rh12  1  0.000000  0.998036  0.495928  1
  Rh  Rh13  1  0.000000  0.507451  0.996843  1
  Rh  Rh14  1  0.000000  0.060517  0.250737  1
  Rh  Rh15  1  0.000000  0.920916  0.760272  1
