# generated using pymatgen
data_CeEr3(CuSi3)2
_symmetry_space_group_name_H-M   'P 1'
_cell_length_a   7.99646100
_cell_length_b   7.99646130
_cell_length_c   8.14584000
_cell_angle_alpha   90.00000000
_cell_angle_beta   90.00000000
_cell_angle_gamma   119.99999463
_symmetry_Int_Tables_number   1
_chemical_formula_structural   CeEr3(CuSi3)2
_chemical_formula_sum   'Ce2 Er6 Cu4 Si12'
_cell_volume   451.08895538
_cell_formula_units_Z   2
loop_
 _symmetry_equiv_pos_site_id
 _symmetry_equiv_pos_as_xyz
  1  'x, y, z'
loop_
 _atom_site_type_symbol
 _atom_site_label
 _atom_site_symmetry_multiplicity
 _atom_site_fract_x
 _atom_site_fract_y
 _atom_site_fract_z
 _atom_site_occupancy
  Ce  Ce0  1  0.000000  0.000000  0.250000  1
  Ce  Ce1  1  0.000000  0.000000  0.750000  1
  Er  Er2  1  0.500347  0.499653  0.250000  1
  Er  Er3  1  0.500347  0.000693  0.250000  1
  Er  Er4  1  0.999307  0.499653  0.250000  1
  Er  Er5  1  0.499653  0.500347  0.750000  1
  Er  Er6  1  0.000693  0.500347  0.750000  1
  Er  Er7  1  0.499653  0.999307  0.750000  1
  Cu  Cu8  1  0.666667  0.333333  0.499930  1
  Cu  Cu9  1  0.666667  0.333333  0.000070  1
  Cu  Cu10  1  0.333333  0.666667  0.999930  1
  Cu  Cu11  1  0.333333  0.666667  0.500070  1
  Si  Si12  1  0.830398  0.169602  0.499555  1
  Si  Si13  1  0.830398  0.660796  0.499555  1
  Si  Si14  1  0.339204  0.169602  0.499555  1
  Si  Si15  1  0.830398  0.169602  0.000445  1
  Si  Si16  1  0.830398  0.660796  0.000445  1
  Si  Si17  1  0.339204  0.169602  0.000445  1
  Si  Si18  1  0.169602  0.830398  0.999555  1
  Si  Si19  1  0.660796  0.830398  0.999555  1
  Si  Si20  1  0.169602  0.339204  0.999555  1
  Si  Si21  1  0.169602  0.830398  0.500445  1
  Si  Si22  1  0.660796  0.830398  0.500445  1
  Si  Si23  1  0.169602  0.339204  0.500445  1
