# generated using pymatgen
data_Nb8CrRe(SiB2)2
_symmetry_space_group_name_H-M   'P 1'
_cell_length_a   7.27476282
_cell_length_b   7.27476226
_cell_length_c   7.27476284
_cell_angle_alpha   130.12923164
_cell_angle_beta   130.12922759
_cell_angle_gamma   73.20025292
_symmetry_Int_Tables_number   1
_chemical_formula_structural   Nb8CrRe(SiB2)2
_chemical_formula_sum   'Nb8 Cr1 Re1 Si2 B4'
_cell_volume   219.74821889
_cell_formula_units_Z   1
loop_
 _symmetry_equiv_pos_site_id
 _symmetry_equiv_pos_as_xyz
  1  'x, y, z'
loop_
 _atom_site_type_symbol
 _atom_site_label
 _atom_site_symmetry_multiplicity
 _atom_site_fract_x
 _atom_site_fract_y
 _atom_site_fract_z
 _atom_site_occupancy
  Nb  Nb0  1  0.809666  0.303731  0.838967  1
  Nb  Nb1  1  0.190334  0.696269  0.161033  1
  Nb  Nb2  1  0.464764  0.970698  0.161033  1
  Nb  Nb3  1  0.303731  0.464764  0.494065  1
  Nb  Nb4  1  0.029302  0.190334  0.494065  1
  Nb  Nb5  1  0.535236  0.029302  0.838967  1
  Nb  Nb6  1  0.696269  0.535236  0.505935  1
  Nb  Nb7  1  0.970698  0.809666  0.505935  1
  Cr  Cr8  1  0.000000  0.000000  0.000000  1
  Re  Re9  1  0.500000  0.500000  0.000000  1
  Si  Si10  1  0.252438  0.252438  0.000000  1
  Si  Si11  1  0.747562  0.747562  0.000000  1
  B  B12  1  0.119066  0.621526  0.740591  1
  B  B13  1  0.880934  0.378474  0.259409  1
  B  B14  1  0.621526  0.880934  0.502460  1
  B  B15  1  0.378474  0.119066  0.497540  1
