# generated using pymatgen
data_YLu7(BBr6)2
_symmetry_space_group_name_H-M   'P 1'
_cell_length_a   3.87899900
_cell_length_b   12.92872978
_cell_length_c   13.36910100
_cell_angle_alpha   90.32089843
_cell_angle_beta   90.00000000
_cell_angle_gamma   90.00000000
_symmetry_Int_Tables_number   1
_chemical_formula_structural   YLu7(BBr6)2
_chemical_formula_sum   'Y1 Lu7 B2 Br12'
_cell_volume   670.45698336
_cell_formula_units_Z   1
loop_
 _symmetry_equiv_pos_site_id
 _symmetry_equiv_pos_as_xyz
  1  'x, y, z'
loop_
 _atom_site_type_symbol
 _atom_site_label
 _atom_site_symmetry_multiplicity
 _atom_site_fract_x
 _atom_site_fract_y
 _atom_site_fract_z
 _atom_site_occupancy
  Y  Y0  1  0.500000  0.123287  0.855390  1
  Lu  Lu1  1  0.000000  0.099160  0.080105  1
  Lu  Lu2  1  0.000000  0.899945  0.920885  1
  Lu  Lu3  1  0.000000  0.600020  0.420133  1
  Lu  Lu4  1  0.000000  0.401349  0.578658  1
  Lu  Lu5  1  0.500000  0.878170  0.142935  1
  Lu  Lu6  1  0.500000  0.622165  0.642720  1
  Lu  Lu7  1  0.500000  0.378430  0.356850  1
  B  B8  1  0.500000  0.998896  0.001271  1
  B  B9  1  0.500000  0.500727  0.499460  1
  Br  Br10  1  0.500000  0.271066  0.679503  1
  Br  Br11  1  0.500000  0.730832  0.317463  1
  Br  Br12  1  0.500000  0.767485  0.818037  1
  Br  Br13  1  0.500000  0.230606  0.183985  1
  Br  Br14  1  0.000000  0.264766  0.936304  1
  Br  Br15  1  0.000000  0.738279  0.069023  1
  Br  Br16  1  0.000000  0.479197  0.238613  1
  Br  Br17  1  0.000000  0.520902  0.760781  1
  Br  Br18  1  0.000000  0.979434  0.261984  1
  Br  Br19  1  0.000000  0.014688  0.736271  1
  Br  Br20  1  0.000000  0.239403  0.430545  1
  Br  Br21  1  0.000000  0.761191  0.569083  1
