# generated using pymatgen
data_Sc22Co3Os3Rh2
_symmetry_space_group_name_H-M   'P 1'
_cell_length_a   9.44362400
_cell_length_b   9.41281070
_cell_length_c   9.44489187
_cell_angle_alpha   60.15772000
_cell_angle_beta   59.77982422
_cell_angle_gamma   60.11678465
_symmetry_Int_Tables_number   1
_chemical_formula_structural   Sc22Co3Os3Rh2
_chemical_formula_sum   'Sc22 Co3 Os3 Rh2'
_cell_volume   593.89123832
_cell_formula_units_Z   1
loop_
 _symmetry_equiv_pos_site_id
 _symmetry_equiv_pos_as_xyz
  1  'x, y, z'
loop_
 _atom_site_type_symbol
 _atom_site_label
 _atom_site_symmetry_multiplicity
 _atom_site_fract_x
 _atom_site_fract_y
 _atom_site_fract_z
 _atom_site_occupancy
  Sc  Sc0  1  0.835790  0.845360  0.846619  1
  Sc  Sc1  1  0.527768  0.153381  0.154640  1
  Sc  Sc2  1  0.158996  0.157532  0.524216  1
  Sc  Sc3  1  0.159256  0.524216  0.157532  1
  Sc  Sc4  1  0.841004  0.842468  0.475784  1
  Sc  Sc5  1  0.840744  0.475784  0.842468  1
  Sc  Sc6  1  0.472232  0.846619  0.845360  1
  Sc  Sc7  1  0.164210  0.154640  0.153381  1
  Sc  Sc8  1  0.191280  0.803466  0.196534  1
  Sc  Sc9  1  0.193008  0.806992  0.806992  1
  Sc  Sc10  1  0.806992  0.193008  0.193008  1
  Sc  Sc11  1  0.810206  0.804125  0.195875  1
  Sc  Sc12  1  0.189794  0.195875  0.804125  1
  Sc  Sc13  1  0.808720  0.196534  0.803466  1
  Sc  Sc14  1  0.383397  0.381830  0.388253  1
  Sc  Sc15  1  0.153481  0.611747  0.618170  1
  Sc  Sc16  1  0.611084  0.155445  0.615162  1
  Sc  Sc17  1  0.618310  0.615162  0.155445  1
  Sc  Sc18  1  0.388916  0.844555  0.384838  1
  Sc  Sc19  1  0.381690  0.384838  0.844555  1
  Sc  Sc20  1  0.846519  0.388253  0.381830  1
  Sc  Sc21  1  0.616603  0.618170  0.611747  1
  Co  Co22  1  0.500000  0.000000  0.000000  1
  Co  Co23  1  0.500000  0.500000  0.500000  1
  Co  Co24  1  0.000000  0.000000  0.000000  1
  Os  Os25  1  0.500000  0.000000  0.500000  1
  Os  Os26  1  0.000000  0.500000  0.500000  1
  Os  Os27  1  0.000000  0.500000  0.000000  1
  Rh  Rh28  1  0.500000  0.500000  0.000000  1
  Rh  Rh29  1  0.000000  0.000000  0.500000  1
