# generated using pymatgen
data_CsPa2I9
_symmetry_space_group_name_H-M   'P 1'
_cell_length_a   7.82629400
_cell_length_b   11.58497431
_cell_length_c   14.85459185
_cell_angle_alpha   66.64333304
_cell_angle_beta   90.00000000
_cell_angle_gamma   90.00000000
_symmetry_Int_Tables_number   1
_chemical_formula_structural   CsPa2I9
_chemical_formula_sum   'Cs2 Pa4 I18'
_cell_volume   1236.46130093
_cell_formula_units_Z   2
loop_
 _symmetry_equiv_pos_site_id
 _symmetry_equiv_pos_as_xyz
  1  'x, y, z'
loop_
 _atom_site_type_symbol
 _atom_site_label
 _atom_site_symmetry_multiplicity
 _atom_site_fract_x
 _atom_site_fract_y
 _atom_site_fract_z
 _atom_site_occupancy
  Cs  Cs0  1  0.591092  0.500000  0.750000  1
  Cs  Cs1  1  0.408908  0.500000  0.250000  1
  Pa  Pa2  1  0.259466  0.831863  0.860855  1
  Pa  Pa3  1  0.740534  0.168137  0.139145  1
  Pa  Pa4  1  0.259466  0.168137  0.639145  1
  Pa  Pa5  1  0.740534  0.831863  0.360855  1
  I  I6  1  0.110228  0.782463  0.055032  1
  I  I7  1  0.889772  0.217537  0.944968  1
  I  I8  1  0.110228  0.217537  0.444968  1
  I  I9  1  0.889772  0.782463  0.555032  1
  I  I10  1  0.113389  0.607677  0.841282  1
  I  I11  1  0.886611  0.392323  0.158718  1
  I  I12  1  0.113389  0.392323  0.658718  1
  I  I13  1  0.886611  0.607677  0.341282  1
  I  I14  1  0.955568  0.000000  0.750000  1
  I  I15  1  0.044432  0.000000  0.250000  1
  I  I16  1  0.413207  0.084816  0.848101  1
  I  I17  1  0.586793  0.915184  0.151899  1
  I  I18  1  0.413207  0.915184  0.651899  1
  I  I19  1  0.586793  0.084816  0.348101  1
  I  I20  1  0.582226  0.697797  0.944190  1
  I  I21  1  0.417774  0.302203  0.055810  1
  I  I22  1  0.582226  0.302203  0.555810  1
  I  I23  1  0.417774  0.697797  0.444190  1
