# generated using pymatgen
data_Lu4Al(GeB4)2
_symmetry_space_group_name_H-M   'P 1'
_cell_length_a   7.08868000
_cell_length_b   7.08868000
_cell_length_c   7.54041300
_cell_angle_alpha   90.00000000
_cell_angle_beta   90.00000000
_cell_angle_gamma   90.00000000
_symmetry_Int_Tables_number   1
_chemical_formula_structural   Lu4Al(GeB4)2
_chemical_formula_sum   'Lu8 Al2 Ge4 B16'
_cell_volume   378.90110943
_cell_formula_units_Z   2
loop_
 _symmetry_equiv_pos_site_id
 _symmetry_equiv_pos_as_xyz
  1  'x, y, z'
loop_
 _atom_site_type_symbol
 _atom_site_label
 _atom_site_symmetry_multiplicity
 _atom_site_fract_x
 _atom_site_fract_y
 _atom_site_fract_z
 _atom_site_occupancy
  Lu  Lu0  1  0.679976  0.179976  0.228741  1
  Lu  Lu1  1  0.320024  0.820024  0.771259  1
  Lu  Lu2  1  0.320024  0.820024  0.228741  1
  Lu  Lu3  1  0.820024  0.679976  0.228741  1
  Lu  Lu4  1  0.820024  0.679976  0.771259  1
  Lu  Lu5  1  0.679976  0.179976  0.771259  1
  Lu  Lu6  1  0.179976  0.320024  0.771259  1
  Lu  Lu7  1  0.179976  0.320024  0.228741  1
  Al  Al8  1  0.000000  0.000000  0.500000  1
  Al  Al9  1  0.500000  0.500000  0.500000  1
  Ge  Ge10  1  0.123930  0.623930  0.500000  1
  Ge  Ge11  1  0.876070  0.376070  0.500000  1
  Ge  Ge12  1  0.376070  0.123930  0.500000  1
  Ge  Ge13  1  0.623930  0.876070  0.500000  1
  B  B14  1  0.173404  0.040306  0.000000  1
  B  B15  1  0.826596  0.959694  0.000000  1
  B  B16  1  0.959694  0.173404  0.000000  1
  B  B17  1  0.326596  0.540306  0.000000  1
  B  B18  1  0.040306  0.826596  0.000000  1
  B  B19  1  0.673404  0.459694  0.000000  1
  B  B20  1  0.540306  0.673404  0.000000  1
  B  B21  1  0.459694  0.326596  0.000000  1
  B  B22  1  0.089219  0.589219  0.000000  1
  B  B23  1  0.910781  0.410781  0.000000  1
  B  B24  1  0.410781  0.089219  0.000000  1
  B  B25  1  0.589219  0.910781  0.000000  1
  B  B26  1  0.000000  0.000000  0.174508  1
  B  B27  1  0.000000  0.000000  0.825492  1
  B  B28  1  0.500000  0.500000  0.825492  1
  B  B29  1  0.500000  0.500000  0.174508  1
