# generated using pymatgen
data_Tb2Co3Si2P5Ru9
_symmetry_space_group_name_H-M   'P 1'
_cell_length_a   9.36250452
_cell_length_b   9.38456308
_cell_length_c   3.84669200
_cell_angle_alpha   90.00000000
_cell_angle_beta   90.00000000
_cell_angle_gamma   119.85693583
_symmetry_Int_Tables_number   1
_chemical_formula_structural   Tb2Co3Si2P5Ru9
_chemical_formula_sum   'Tb2 Co3 Si2 P5 Ru9'
_cell_volume   293.12200586
_cell_formula_units_Z   1
loop_
 _symmetry_equiv_pos_site_id
 _symmetry_equiv_pos_as_xyz
  1  'x, y, z'
loop_
 _atom_site_type_symbol
 _atom_site_label
 _atom_site_symmetry_multiplicity
 _atom_site_fract_x
 _atom_site_fract_y
 _atom_site_fract_z
 _atom_site_occupancy
  Tb  Tb0  1  0.000271  0.000478  0.000000  1
  Tb  Tb1  1  0.334686  0.666210  0.500000  1
  Co  Co2  1  0.827772  0.606929  0.000000  1
  Co  Co3  1  0.389504  0.217033  0.000000  1
  Co  Co4  1  0.781172  0.174452  0.000000  1
  Si  Si5  1  0.780073  0.729450  0.500000  1
  Si  Si6  1  0.665816  0.334049  0.000000  1
  P  P7  1  0.269912  0.050024  0.500000  1
  P  P8  1  0.949482  0.220622  0.500000  1
  P  P9  1  0.078776  0.636752  0.000000  1
  P  P10  1  0.364161  0.441012  0.000000  1
  P  P11  1  0.560027  0.922710  0.000000  1
  Ru  Ru12  1  0.091612  0.396075  0.000000  1
  Ru  Ru13  1  0.603517  0.695308  0.000000  1
  Ru  Ru14  1  0.306436  0.910620  0.000000  1
  Ru  Ru15  1  0.056276  0.769577  0.500000  1
  Ru  Ru16  1  0.227323  0.279312  0.500000  1
  Ru  Ru17  1  0.718308  0.952553  0.500000  1
  Ru  Ru18  1  0.870996  0.421337  0.500000  1
  Ru  Ru19  1  0.574967  0.445259  0.500000  1
  Ru  Ru20  1  0.548914  0.130239  0.500000  1
