# generated using pymatgen
data_RbPr3CI6
_symmetry_space_group_name_H-M   'P 1'
_cell_length_a   9.59960081
_cell_length_b   9.66451081
_cell_length_c   10.28804773
_cell_angle_alpha   71.25354959
_cell_angle_beta   84.74983407
_cell_angle_gamma   89.30557265
_symmetry_Int_Tables_number   1
_chemical_formula_structural   RbPr3CI6
_chemical_formula_sum   'Rb2 Pr6 C2 I12'
_cell_volume   899.89998443
_cell_formula_units_Z   2
loop_
 _symmetry_equiv_pos_site_id
 _symmetry_equiv_pos_as_xyz
  1  'x, y, z'
loop_
 _atom_site_type_symbol
 _atom_site_label
 _atom_site_symmetry_multiplicity
 _atom_site_fract_x
 _atom_site_fract_y
 _atom_site_fract_z
 _atom_site_occupancy
  Rb  Rb0  1  0.464693  0.356921  0.326606  1
  Rb  Rb1  1  0.535308  0.643079  0.673394  1
  Pr  Pr2  1  0.918037  0.747738  0.004596  1
  Pr  Pr3  1  0.081963  0.252262  0.995403  1
  Pr  Pr4  1  0.745136  0.084006  0.001349  1
  Pr  Pr5  1  0.254863  0.915994  0.998652  1
  Pr  Pr6  1  0.974029  0.893697  0.313658  1
  Pr  Pr7  1  0.025970  0.106303  0.686343  1
  C  C8  1  0.006040  0.024078  0.927895  1
  C  C9  1  0.993959  0.975922  0.072105  1
  I  I10  1  0.082311  0.203679  0.326760  1
  I  I11  1  0.917689  0.796321  0.673240  1
  I  I12  1  0.210359  0.588587  0.999522  1
  I  I13  1  0.789642  0.411413  0.000478  1
  I  I14  1  0.407844  0.205064  0.004007  1
  I  I15  1  0.592155  0.794937  0.995992  1
  I  I16  1  0.659795  0.006213  0.329726  1
  I  I17  1  0.340205  0.993787  0.670274  1
  I  I18  1  0.284883  0.771488  0.324910  1
  I  I19  1  0.715117  0.228512  0.675090  1
  I  I20  1  0.845326  0.588075  0.329649  1
  I  I21  1  0.154673  0.411925  0.670351  1
