# generated using pymatgen
data_Pu2Se5
_symmetry_space_group_name_H-M   'P 1'
_cell_length_a   7.73649200
_cell_length_b   7.73313900
_cell_length_c   10.84870100
_cell_angle_alpha   90.00000000
_cell_angle_beta   90.00000000
_cell_angle_gamma   90.00000000
_symmetry_Int_Tables_number   1
_chemical_formula_structural   Pu2Se5
_chemical_formula_sum   'Pu8 Se20'
_cell_volume   649.04922714
_cell_formula_units_Z   4
loop_
 _symmetry_equiv_pos_site_id
 _symmetry_equiv_pos_as_xyz
  1  'x, y, z'
loop_
 _atom_site_type_symbol
 _atom_site_label
 _atom_site_symmetry_multiplicity
 _atom_site_fract_x
 _atom_site_fract_y
 _atom_site_fract_z
 _atom_site_occupancy
  Pu  Pu0  1  0.250314  0.499938  0.153107  1
  Pu  Pu1  1  0.749686  0.500062  0.846893  1
  Pu  Pu2  1  0.249686  0.999938  0.346893  1
  Pu  Pu3  1  0.749686  0.000062  0.153107  1
  Pu  Pu4  1  0.750314  0.000062  0.653107  1
  Pu  Pu5  1  0.250314  0.999938  0.846893  1
  Pu  Pu6  1  0.750314  0.500062  0.346893  1
  Pu  Pu7  1  0.249686  0.499938  0.653107  1
  Se  Se8  1  0.379194  0.629524  0.398581  1
  Se  Se9  1  0.620806  0.370476  0.601419  1
  Se  Se10  1  0.120806  0.129524  0.101419  1
  Se  Se11  1  0.620806  0.870476  0.398581  1
  Se  Se12  1  0.879194  0.870476  0.898581  1
  Se  Se13  1  0.379194  0.129524  0.601419  1
  Se  Se14  1  0.879194  0.370476  0.101419  1
  Se  Se15  1  0.120806  0.629524  0.898581  1
  Se  Se16  1  0.378967  0.871233  0.101881  1
  Se  Se17  1  0.621033  0.128767  0.898119  1
  Se  Se18  1  0.121033  0.371233  0.398119  1
  Se  Se19  1  0.621033  0.628767  0.101881  1
  Se  Se20  1  0.878967  0.628767  0.601881  1
  Se  Se21  1  0.378967  0.371233  0.898119  1
  Se  Se22  1  0.878967  0.128767  0.398119  1
  Se  Se23  1  0.121033  0.871233  0.601881  1
  Se  Se24  1  0.000000  0.750000  0.249620  1
  Se  Se25  1  0.000000  0.250000  0.750380  1
  Se  Se26  1  0.500000  0.250000  0.250380  1
  Se  Se27  1  0.500000  0.750000  0.749620  1
