# generated using pymatgen
data_HoCo4As3Rh
_symmetry_space_group_name_H-M   'P 1'
_cell_length_a   3.81941200
_cell_length_b   10.82379100
_cell_length_c   12.28710200
_cell_angle_alpha   90.00000000
_cell_angle_beta   90.00000000
_cell_angle_gamma   90.00000000
_symmetry_Int_Tables_number   1
_chemical_formula_structural   HoCo4As3Rh
_chemical_formula_sum   'Ho4 Co16 As12 Rh4'
_cell_volume   507.95515195
_cell_formula_units_Z   4
loop_
 _symmetry_equiv_pos_site_id
 _symmetry_equiv_pos_as_xyz
  1  'x, y, z'
loop_
 _atom_site_type_symbol
 _atom_site_label
 _atom_site_symmetry_multiplicity
 _atom_site_fract_x
 _atom_site_fract_y
 _atom_site_fract_z
 _atom_site_occupancy
  Ho  Ho0  1  0.250000  0.583212  0.703259  1
  Ho  Ho1  1  0.250000  0.916788  0.203259  1
  Ho  Ho2  1  0.750000  0.416788  0.296741  1
  Ho  Ho3  1  0.750000  0.083212  0.796741  1
  Co  Co4  1  0.250000  0.407437  0.486973  1
  Co  Co5  1  0.250000  0.092563  0.986973  1
  Co  Co6  1  0.750000  0.592563  0.513027  1
  Co  Co7  1  0.750000  0.907437  0.013027  1
  Co  Co8  1  0.250000  0.215765  0.175435  1
  Co  Co9  1  0.250000  0.284235  0.675435  1
  Co  Co10  1  0.750000  0.784235  0.824565  1
  Co  Co11  1  0.750000  0.715765  0.324565  1
  Co  Co12  1  0.250000  0.886208  0.699959  1
  Co  Co13  1  0.250000  0.613792  0.199959  1
  Co  Co14  1  0.750000  0.113792  0.300041  1
  Co  Co15  1  0.750000  0.386208  0.800041  1
  Co  Co16  1  0.250000  0.466484  0.929925  1
  Co  Co17  1  0.250000  0.033516  0.429925  1
  Co  Co18  1  0.750000  0.533516  0.070075  1
  Co  Co19  1  0.750000  0.966484  0.570075  1
  As  As20  1  0.250000  0.417557  0.113764  1
  As  As21  1  0.250000  0.082443  0.613764  1
  As  As22  1  0.750000  0.582443  0.886236  1
  As  As23  1  0.750000  0.917557  0.386236  1
  As  As24  1  0.250000  0.269446  0.865393  1
  As  As25  1  0.250000  0.230554  0.365393  1
  As  As26  1  0.750000  0.730554  0.134607  1
  As  As27  1  0.750000  0.769446  0.634607  1
  As  As28  1  0.250000  0.594167  0.388698  1
  As  As29  1  0.250000  0.905833  0.888698  1
  As  As30  1  0.750000  0.405833  0.611302  1
  As  As31  1  0.750000  0.094167  0.111302  1
  Rh  Rh32  1  0.250000  0.714827  0.992069  1
  Rh  Rh33  1  0.250000  0.785173  0.492069  1
  Rh  Rh34  1  0.750000  0.285173  0.007931  1
  Rh  Rh35  1  0.750000  0.214827  0.507931  1
