# generated using pymatgen
data_La2Sm2Y2CoI10
_symmetry_space_group_name_H-M   'P 1'
_cell_length_a   7.87340788
_cell_length_b   9.97993816
_cell_length_c   9.80440238
_cell_angle_alpha   107.08727597
_cell_angle_beta   95.60664831
_cell_angle_gamma   105.42683570
_symmetry_Int_Tables_number   1
_chemical_formula_structural   La2Sm2Y2CoI10
_chemical_formula_sum   'La2 Sm2 Y2 Co1 I10'
_cell_volume   696.80565274
_cell_formula_units_Z   1
loop_
 _symmetry_equiv_pos_site_id
 _symmetry_equiv_pos_as_xyz
  1  'x, y, z'
loop_
 _atom_site_type_symbol
 _atom_site_label
 _atom_site_symmetry_multiplicity
 _atom_site_fract_x
 _atom_site_fract_y
 _atom_site_fract_z
 _atom_site_occupancy
  La  La0  1  0.887238  0.959673  0.230072  1
  La  La1  1  0.112762  0.040327  0.769928  1
  Sm  Sm2  1  0.029404  0.714420  0.912783  1
  Sm  Sm3  1  0.970596  0.285580  0.087217  1
  Y  Y4  1  0.655244  0.875911  0.837863  1
  Y  Y5  1  0.344756  0.124089  0.162137  1
  Co  Co6  1  0.000000  0.000000  0.000000  1
  I  I7  1  0.646301  0.554629  0.729922  1
  I  I8  1  0.353699  0.445371  0.270078  1
  I  I9  1  0.732267  0.911254  0.544114  1
  I  I10  1  0.267733  0.088746  0.455886  1
  I  I11  1  0.083565  0.374033  0.818914  1
  I  I12  1  0.916435  0.625967  0.181086  1
  I  I13  1  0.449577  0.821217  0.090090  1
  I  I14  1  0.550423  0.178783  0.909910  1
  I  I15  1  0.233133  0.741631  0.656763  1
  I  I16  1  0.766867  0.258369  0.343237  1
