# generated using pymatgen
data_Tb2Er6Sc12Si11Ge5
_symmetry_space_group_name_H-M   'P 1'
_cell_length_a   7.12698401
_cell_length_b   7.38078800
_cell_length_c   14.01122966
_cell_angle_alpha   90.05839799
_cell_angle_beta   89.24112302
_cell_angle_gamma   90.10431802
_symmetry_Int_Tables_number   1
_chemical_formula_structural   Tb2Er6Sc12Si11Ge5
_chemical_formula_sum   'Tb2 Er6 Sc12 Si11 Ge5'
_cell_volume   736.96309075
_cell_formula_units_Z   1
loop_
 _symmetry_equiv_pos_site_id
 _symmetry_equiv_pos_as_xyz
  1  'x, y, z'
loop_
 _atom_site_type_symbol
 _atom_site_label
 _atom_site_symmetry_multiplicity
 _atom_site_fract_x
 _atom_site_fract_y
 _atom_site_fract_z
 _atom_site_occupancy
  Tb  Tb0  1  0.009565  0.174857  0.096441  1
  Tb  Tb1  1  0.991986  0.824965  0.903255  1
  Er  Er2  1  0.490759  0.676296  0.902785  1
  Er  Er3  1  0.996725  0.821603  0.598750  1
  Er  Er4  1  0.506111  0.323353  0.096931  1
  Er  Er5  1  0.003015  0.178300  0.401086  1
  Er  Er6  1  0.502618  0.321949  0.401377  1
  Er  Er7  1  0.496964  0.677994  0.598675  1
  Sc  Sc8  1  0.169676  0.501377  0.750596  1
  Sc  Sc9  1  0.830520  0.498780  0.250759  1
  Sc  Sc10  1  0.331051  0.001622  0.249450  1
  Sc  Sc11  1  0.668988  0.998350  0.750672  1
  Sc  Sc12  1  0.342329  0.171655  0.626472  1
  Sc  Sc13  1  0.657773  0.828859  0.373393  1
  Sc  Sc14  1  0.157706  0.671235  0.373613  1
  Sc  Sc15  1  0.662619  0.825481  0.125856  1
  Sc  Sc16  1  0.842277  0.328500  0.626361  1
  Sc  Sc17  1  0.336215  0.176585  0.874754  1
  Sc  Sc18  1  0.836356  0.322656  0.875048  1
  Sc  Sc19  1  0.166256  0.676160  0.124499  1
  Si  Si20  1  0.041086  0.116033  0.750671  1
  Si  Si21  1  0.959203  0.883266  0.248911  1
  Si  Si22  1  0.458871  0.615741  0.248967  1
  Si  Si23  1  0.541827  0.383943  0.751156  1
  Si  Si24  1  0.292790  0.871181  0.750621  1
  Si  Si25  1  0.707258  0.129532  0.249201  1
  Si  Si26  1  0.207705  0.371715  0.248996  1
  Si  Si27  1  0.792114  0.628048  0.751063  1
  Si  Si28  1  0.165996  0.463709  0.959832  1
  Si  Si29  1  0.658587  0.035218  0.960792  1
  Si  Si30  1  0.341596  0.964454  0.039060  1
  Ge  Ge31  1  0.179292  0.459922  0.540821  1
  Ge  Ge32  1  0.820618  0.540032  0.459338  1
  Ge  Ge33  1  0.321123  0.959937  0.459252  1
  Ge  Ge34  1  0.833461  0.536779  0.039893  1
  Ge  Ge35  1  0.678967  0.039910  0.540652  1
