# generated using pymatgen
data_Er6Al23VOs8
_symmetry_space_group_name_H-M   'P 1'
_cell_length_a   8.82177000
_cell_length_b   8.82177006
_cell_length_c   9.50491600
_cell_angle_alpha   90.00000000
_cell_angle_beta   90.00000000
_cell_angle_gamma   119.99999976
_symmetry_Int_Tables_number   1
_chemical_formula_structural   Er6Al23VOs8
_chemical_formula_sum   'Er6 Al23 V1 Os8'
_cell_volume   640.60508318
_cell_formula_units_Z   1
loop_
 _symmetry_equiv_pos_site_id
 _symmetry_equiv_pos_as_xyz
  1  'x, y, z'
loop_
 _atom_site_type_symbol
 _atom_site_label
 _atom_site_symmetry_multiplicity
 _atom_site_fract_x
 _atom_site_fract_y
 _atom_site_fract_z
 _atom_site_occupancy
  Er  Er0  1  0.196547  0.393095  0.246722  1
  Er  Er1  1  0.806573  0.613144  0.749905  1
  Er  Er2  1  0.606905  0.803453  0.246722  1
  Er  Er3  1  0.386856  0.193427  0.749905  1
  Er  Er4  1  0.196547  0.803453  0.246722  1
  Er  Er5  1  0.806573  0.193427  0.749905  1
  Al  Al6  1  0.666667  0.333333  0.977035  1
  Al  Al7  1  0.666667  0.333333  0.519571  1
  Al  Al8  1  0.333333  0.666667  0.482860  1
  Al  Al9  1  0.162129  0.324259  0.575800  1
  Al  Al10  1  0.837206  0.674412  0.424230  1
  Al  Al11  1  0.675741  0.837871  0.575800  1
  Al  Al12  1  0.835671  0.671342  0.076413  1
  Al  Al13  1  0.325588  0.162794  0.424230  1
  Al  Al14  1  0.160516  0.321033  0.925431  1
  Al  Al15  1  0.162129  0.837871  0.575800  1
  Al  Al16  1  0.328658  0.164329  0.076413  1
  Al  Al17  1  0.837206  0.162794  0.424230  1
  Al  Al18  1  0.678967  0.839484  0.925431  1
  Al  Al19  1  0.835671  0.164329  0.076413  1
  Al  Al20  1  0.160516  0.839484  0.925431  1
  Al  Al21  1  0.562013  0.124027  0.252954  1
  Al  Al22  1  0.441411  0.882821  0.751332  1
  Al  Al23  1  0.875973  0.437987  0.252954  1
  Al  Al24  1  0.117179  0.558589  0.751332  1
  Al  Al25  1  0.562013  0.437987  0.252954  1
  Al  Al26  1  0.441411  0.558589  0.751332  1
  Al  Al27  1  0.000000  0.000000  0.249995  1
  Al  Al28  1  0.000000  0.000000  0.749415  1
  V  V29  1  0.333333  0.666667  0.987196  1
  Os  Os30  1  0.495502  0.991003  0.005302  1
  Os  Os31  1  0.008997  0.504498  0.005302  1
  Os  Os32  1  0.499465  0.998929  0.503350  1
  Os  Os33  1  0.495502  0.504498  0.005302  1
  Os  Os34  1  0.001071  0.500535  0.503350  1
  Os  Os35  1  0.499465  0.500535  0.503350  1
  Os  Os36  1  0.000000  0.000000  0.000512  1
  Os  Os37  1  0.000000  0.000000  0.499099  1
