# generated using pymatgen
data_Tb7Nd3(In2Pt)4
_symmetry_space_group_name_H-M   'P 1'
_cell_length_a   3.71422500
_cell_length_b   8.18993899
_cell_length_c   18.44507887
_cell_angle_alpha   89.75496277
_cell_angle_beta   90.00000000
_cell_angle_gamma   90.00000000
_symmetry_Int_Tables_number   1
_chemical_formula_structural   Tb7Nd3(In2Pt)4
_chemical_formula_sum   'Tb7 Nd3 In8 Pt4'
_cell_volume   561.08081612
_cell_formula_units_Z   1
loop_
 _symmetry_equiv_pos_site_id
 _symmetry_equiv_pos_as_xyz
  1  'x, y, z'
loop_
 _atom_site_type_symbol
 _atom_site_label
 _atom_site_symmetry_multiplicity
 _atom_site_fract_x
 _atom_site_fract_y
 _atom_site_fract_z
 _atom_site_occupancy
  Tb  Tb0  1  0.000000  0.118252  0.415334  1
  Tb  Tb1  1  0.000000  0.883720  0.586669  1
  Tb  Tb2  1  0.000000  0.383525  0.913721  1
  Tb  Tb3  1  0.000000  0.615798  0.084603  1
  Tb  Tb4  1  0.000000  0.242685  0.218313  1
  Tb  Tb5  1  0.000000  0.756590  0.781186  1
  Tb  Tb6  1  0.000000  0.256061  0.719020  1
  Nd  Nd7  1  0.000000  0.742237  0.282343  1
  Nd  Nd8  1  0.000000  0.999306  0.999394  1
  Nd  Nd9  1  0.000000  0.500838  0.500384  1
  In  In10  1  0.500000  0.419292  0.349272  1
  In  In11  1  0.500000  0.576407  0.650772  1
  In  In12  1  0.500000  0.076347  0.849476  1
  In  In13  1  0.500000  0.925337  0.149705  1
  In  In14  1  0.500000  0.295504  0.067467  1
  In  In15  1  0.500000  0.703050  0.931491  1
  In  In16  1  0.500000  0.203314  0.568243  1
  In  In17  1  0.500000  0.799858  0.434316  1
  Pt  Pt18  1  0.500000  0.034450  0.303384  1
  Pt  Pt19  1  0.500000  0.973743  0.697431  1
  Pt  Pt20  1  0.500000  0.473235  0.802806  1
  Pt  Pt21  1  0.500000  0.520452  0.194671  1
