# generated using pymatgen
data_DyEr3(Rh2O7)2
_symmetry_space_group_name_H-M   'P 1'
_cell_length_a   7.20263735
_cell_length_b   7.20263685
_cell_length_c   7.21039085
_cell_angle_alpha   60.03556662
_cell_angle_beta   60.03557028
_cell_angle_gamma   59.99999839
_symmetry_Int_Tables_number   1
_chemical_formula_structural   DyEr3(Rh2O7)2
_chemical_formula_sum   'Dy1 Er3 Rh4 O14'
_cell_volume   264.64283828
_cell_formula_units_Z   1
loop_
 _symmetry_equiv_pos_site_id
 _symmetry_equiv_pos_as_xyz
  1  'x, y, z'
loop_
 _atom_site_type_symbol
 _atom_site_label
 _atom_site_symmetry_multiplicity
 _atom_site_fract_x
 _atom_site_fract_y
 _atom_site_fract_z
 _atom_site_occupancy
  Dy  Dy0  1  0.125000  0.125000  0.625000  1
  Er  Er1  1  0.125000  0.125000  0.125000  1
  Er  Er2  1  0.125000  0.625000  0.125000  1
  Er  Er3  1  0.625000  0.125000  0.125000  1
  Rh  Rh4  1  0.625000  0.625000  0.625000  1
  Rh  Rh5  1  0.625000  0.625000  0.125000  1
  Rh  Rh6  1  0.125000  0.625000  0.625000  1
  Rh  Rh7  1  0.625000  0.125000  0.625000  1
  O  O8  1  0.250908  0.250908  0.247274  1
  O  O9  1  0.287212  0.712981  0.286825  1
  O  O10  1  0.963271  0.963271  0.534685  1
  O  O11  1  0.538774  0.963271  0.534685  1
  O  O12  1  0.712981  0.712981  0.286825  1
  O  O13  1  0.963271  0.538774  0.534685  1
  O  O14  1  0.711226  0.286729  0.715315  1
  O  O15  1  0.286729  0.286729  0.715315  1
  O  O16  1  0.712981  0.287212  0.286825  1
  O  O17  1  0.286729  0.711226  0.715315  1
  O  O18  1  0.962788  0.537019  0.963175  1
  O  O19  1  0.537019  0.537019  0.963175  1
  O  O20  1  0.999092  0.999092  0.002726  1
  O  O21  1  0.537019  0.962788  0.963175  1
