# generated using pymatgen
data_K4AsRhCl12
_symmetry_space_group_name_H-M   'P 1'
_cell_length_a   6.93364000
_cell_length_b   6.93364000
_cell_length_c   10.36445800
_cell_angle_alpha   90.00000000
_cell_angle_beta   90.00000000
_cell_angle_gamma   90.00000000
_symmetry_Int_Tables_number   1
_chemical_formula_structural   K4AsRhCl12
_chemical_formula_sum   'K4 As1 Rh1 Cl12'
_cell_volume   498.27508738
_cell_formula_units_Z   1
loop_
 _symmetry_equiv_pos_site_id
 _symmetry_equiv_pos_as_xyz
  1  'x, y, z'
loop_
 _atom_site_type_symbol
 _atom_site_label
 _atom_site_symmetry_multiplicity
 _atom_site_fract_x
 _atom_site_fract_y
 _atom_site_fract_z
 _atom_site_occupancy
  K  K0  1  0.500000  0.000000  0.777493  1
  K  K1  1  0.000000  0.500000  0.222507  1
  K  K2  1  0.500000  0.000000  0.222507  1
  K  K3  1  0.000000  0.500000  0.777493  1
  As  As4  1  0.500000  0.500000  0.500000  1
  Rh  Rh5  1  0.000000  0.000000  0.000000  1
  Cl  Cl6  1  0.000000  0.000000  0.770541  1
  Cl  Cl7  1  0.500000  0.500000  0.272997  1
  Cl  Cl8  1  0.736292  0.736292  0.500000  1
  Cl  Cl9  1  0.240107  0.240107  0.000000  1
  Cl  Cl10  1  0.736292  0.263708  0.500000  1
  Cl  Cl11  1  0.240107  0.759893  0.000000  1
  Cl  Cl12  1  0.000000  0.000000  0.229459  1
  Cl  Cl13  1  0.500000  0.500000  0.727003  1
  Cl  Cl14  1  0.263708  0.263708  0.500000  1
  Cl  Cl15  1  0.759893  0.759893  0.000000  1
  Cl  Cl16  1  0.263708  0.736292  0.500000  1
  Cl  Cl17  1  0.759893  0.240107  0.000000  1
