# generated using pymatgen
data_Ca2AlIrI
_symmetry_space_group_name_H-M   'P 1'
_cell_length_a   4.26644000
_cell_length_b   4.26643877
_cell_length_c   17.57142900
_cell_angle_alpha   90.00000000
_cell_angle_beta   90.00000000
_cell_angle_gamma   120.00000956
_symmetry_Int_Tables_number   1
_chemical_formula_structural   Ca2AlIrI
_chemical_formula_sum   'Ca4 Al2 Ir2 I2'
_cell_volume   276.99302375
_cell_formula_units_Z   2
loop_
 _symmetry_equiv_pos_site_id
 _symmetry_equiv_pos_as_xyz
  1  'x, y, z'
loop_
 _atom_site_type_symbol
 _atom_site_label
 _atom_site_symmetry_multiplicity
 _atom_site_fract_x
 _atom_site_fract_y
 _atom_site_fract_z
 _atom_site_occupancy
  Ca  Ca0  1  0.000000  0.000000  0.388934  1
  Ca  Ca1  1  0.000000  0.000000  0.888934  1
  Ca  Ca2  1  0.000000  0.000000  0.611409  1
  Ca  Ca3  1  0.000000  0.000000  0.111409  1
  Al  Al4  1  0.333333  0.666667  0.500818  1
  Al  Al5  1  0.666667  0.333333  0.000818  1
  Ir  Ir6  1  0.666667  0.333333  0.499373  1
  Ir  Ir7  1  0.333333  0.666667  0.999373  1
  I  I8  1  0.333333  0.666667  0.249465  1
  I  I9  1  0.666667  0.333333  0.749465  1
