# generated using pymatgen
data_Li4Y4Si5As
_symmetry_space_group_name_H-M   'P 1'
_cell_length_a   9.28027226
_cell_length_b   9.28027290
_cell_length_c   6.69652300
_cell_angle_alpha   90.00000000
_cell_angle_beta   90.00000000
_cell_angle_gamma   153.34360009
_symmetry_Int_Tables_number   1
_chemical_formula_structural   Li4Y4Si5As
_chemical_formula_sum   'Li4 Y4 Si5 As1'
_cell_volume   258.74257533
_cell_formula_units_Z   1
loop_
 _symmetry_equiv_pos_site_id
 _symmetry_equiv_pos_as_xyz
  1  'x, y, z'
loop_
 _atom_site_type_symbol
 _atom_site_label
 _atom_site_symmetry_multiplicity
 _atom_site_fract_x
 _atom_site_fract_y
 _atom_site_fract_z
 _atom_site_occupancy
  Li  Li0  1  0.809075  0.190925  0.437703  1
  Li  Li1  1  0.191921  0.808079  0.560885  1
  Li  Li2  1  0.809075  0.190925  0.062297  1
  Li  Li3  1  0.191921  0.808079  0.939115  1
  Y  Y4  1  0.549737  0.450263  0.750000  1
  Y  Y5  1  0.448493  0.551507  0.250000  1
  Y  Y6  1  0.346623  0.653377  0.750000  1
  Y  Y7  1  0.653763  0.346237  0.250000  1
  Si  Si8  1  0.940262  0.059738  0.926987  1
  Si  Si9  1  0.059745  0.940255  0.072124  1
  Si  Si10  1  0.940262  0.059738  0.573013  1
  Si  Si11  1  0.059745  0.940255  0.427876  1
  Si  Si12  1  0.279700  0.720300  0.250000  1
  As  As13  1  0.719677  0.280323  0.750000  1
