# generated using pymatgen
data_K4RbSrTaP4
_symmetry_space_group_name_H-M   'P 1'
_cell_length_a   10.32134590
_cell_length_b   10.32318851
_cell_length_c   7.78797405
_cell_angle_alpha   88.66143224
_cell_angle_beta   88.13958821
_cell_angle_gamma   121.05722704
_symmetry_Int_Tables_number   1
_chemical_formula_structural   K4RbSrTaP4
_chemical_formula_sum   'K8 Rb2 Sr2 Ta2 P8'
_cell_volume   709.69758355
_cell_formula_units_Z   2
loop_
 _symmetry_equiv_pos_site_id
 _symmetry_equiv_pos_as_xyz
  1  'x, y, z'
loop_
 _atom_site_type_symbol
 _atom_site_label
 _atom_site_symmetry_multiplicity
 _atom_site_fract_x
 _atom_site_fract_y
 _atom_site_fract_z
 _atom_site_occupancy
  K  K0  1  0.465754  0.527822  0.497694  1
  K  K1  1  0.059285  0.530361  0.500533  1
  K  K2  1  0.528042  0.465370  0.998256  1
  K  K3  1  0.528929  0.060321  0.001857  1
  K  K4  1  0.859875  0.143652  0.678525  1
  K  K5  1  0.295714  0.153153  0.717665  1
  K  K6  1  0.854332  0.713449  0.654898  1
  K  K7  1  0.144033  0.860601  0.180469  1
  Rb  Rb8  1  0.726430  0.859420  0.156759  1
  Rb  Rb9  1  0.151273  0.289053  0.226398  1
  Sr  Sr10  1  0.462026  0.933845  0.491752  1
  Sr  Sr11  1  0.934257  0.464042  0.994624  1
  Ta  Ta12  1  0.668616  0.331116  0.396607  1
  Ta  Ta13  1  0.329825  0.669543  0.888418  1
  P  P14  1  0.686643  0.340678  0.705699  1
  P  P15  1  0.338025  0.687275  0.197341  1
  P  P16  1  0.788992  0.199920  0.288353  1
  P  P17  1  0.405966  0.187622  0.323342  1
  P  P18  1  0.800810  0.584563  0.268041  1
  P  P19  1  0.197472  0.792151  0.785684  1
  P  P20  1  0.584205  0.800070  0.760179  1
  P  P21  1  0.189491  0.405971  0.815486  1
