# generated using pymatgen
data_Ca13Y(PbN4)2
_symmetry_space_group_name_H-M   'P 1'
_cell_length_a   3.59056300
_cell_length_b   12.03699833
_cell_length_c   11.53698810
_cell_angle_alpha   90.12683367
_cell_angle_beta   90.00000000
_cell_angle_gamma   90.00000000
_symmetry_Int_Tables_number   1
_chemical_formula_structural   Ca13Y(PbN4)2
_chemical_formula_sum   'Ca13 Y1 Pb2 N8'
_cell_volume   498.62279917
_cell_formula_units_Z   1
loop_
 _symmetry_equiv_pos_site_id
 _symmetry_equiv_pos_as_xyz
  1  'x, y, z'
loop_
 _atom_site_type_symbol
 _atom_site_label
 _atom_site_symmetry_multiplicity
 _atom_site_fract_x
 _atom_site_fract_y
 _atom_site_fract_z
 _atom_site_occupancy
  Ca  Ca0  1  0.500449  0.669233  0.238356  1
  Ca  Ca1  1  0.500449  0.330767  0.761644  1
  Ca  Ca2  1  0.499440  0.169726  0.260861  1
  Ca  Ca3  1  0.499440  0.830274  0.739139  1
  Ca  Ca4  1  0.500201  0.000000  0.500000  1
  Ca  Ca5  1  0.999576  0.929186  0.262956  1
  Ca  Ca6  1  0.999576  0.070814  0.737044  1
  Ca  Ca7  1  0.000567  0.426394  0.240218  1
  Ca  Ca8  1  0.000567  0.573606  0.759782  1
  Ca  Ca9  1  0.000470  0.765038  0.479207  1
  Ca  Ca10  1  0.000470  0.234962  0.520793  1
  Ca  Ca11  1  0.999074  0.260995  0.020833  1
  Ca  Ca12  1  0.999074  0.739005  0.979167  1
  Y  Y13  1  0.499589  0.500000  0.000000  1
  Pb  Pb14  1  0.520490  0.500000  0.500000  1
  Pb  Pb15  1  0.480824  0.000000  0.000000  1
  N  N16  1  0.000356  0.593713  0.120833  1
  N  N17  1  0.000356  0.406287  0.879167  1
  N  N18  1  0.999510  0.102732  0.368607  1
  N  N19  1  0.999510  0.897268  0.631393  1
  N  N20  1  0.499780  0.830625  0.355758  1
  N  N21  1  0.499780  0.169375  0.644242  1
  N  N22  1  0.500225  0.339609  0.135247  1
  N  N23  1  0.500225  0.660391  0.864753  1
