# generated using pymatgen
data_Tm2Lu2Al18ZnRh5
_symmetry_space_group_name_H-M   'P 1'
_cell_length_a   7.56173967
_cell_length_b   7.56245189
_cell_length_c   9.39287553
_cell_angle_alpha   89.98754253
_cell_angle_beta   90.05118038
_cell_angle_gamma   119.45879103
_symmetry_Int_Tables_number   1
_chemical_formula_structural   Tm2Lu2Al18ZnRh5
_chemical_formula_sum   'Tm2 Lu2 Al18 Zn1 Rh5'
_cell_volume   467.68783937
_cell_formula_units_Z   1
loop_
 _symmetry_equiv_pos_site_id
 _symmetry_equiv_pos_as_xyz
  1  'x, y, z'
loop_
 _atom_site_type_symbol
 _atom_site_label
 _atom_site_symmetry_multiplicity
 _atom_site_fract_x
 _atom_site_fract_y
 _atom_site_fract_z
 _atom_site_occupancy
  Tm  Tm0  1  0.995129  0.676452  0.249454  1
  Tm  Tm1  1  0.004871  0.323548  0.750546  1
  Lu  Lu2  1  0.676368  0.995233  0.249661  1
  Lu  Lu3  1  0.323632  0.004767  0.750339  1
  Al  Al4  1  0.134638  0.134730  0.256171  1
  Al  Al5  1  0.865362  0.865270  0.743829  1
  Al  Al6  1  0.000992  0.344275  0.080749  1
  Al  Al7  1  0.999008  0.655725  0.919251  1
  Al  Al8  1  0.001682  0.664037  0.574108  1
  Al  Al9  1  0.336471  0.998586  0.426144  1
  Al  Al10  1  0.998318  0.335963  0.425892  1
  Al  Al11  1  0.663529  0.001414  0.573856  1
  Al  Al12  1  0.655257  0.998800  0.919401  1
  Al  Al13  1  0.344743  0.001200  0.080599  1
  Al  Al14  1  0.332081  0.331879  0.552284  1
  Al  Al15  1  0.667919  0.668121  0.447716  1
  Al  Al16  1  0.659537  0.659720  0.058103  1
  Al  Al17  1  0.340463  0.340280  0.941897  1
  Al  Al18  1  0.339466  0.553330  0.251375  1
  Al  Al19  1  0.660534  0.446670  0.748625  1
  Al  Al20  1  0.553149  0.339177  0.251363  1
  Al  Al21  1  0.446851  0.660823  0.748637  1
  Zn  Zn22  1  0.000000  0.000000  0.000000  1
  Rh  Rh23  1  0.672237  0.327497  0.000002  1
  Rh  Rh24  1  0.327763  0.672503  0.999998  1
  Rh  Rh25  1  0.328137  0.671969  0.499968  1
  Rh  Rh26  1  0.671863  0.328031  0.500032  1
  Rh  Rh27  1  0.000000  0.000000  0.500000  1
