# generated using pymatgen
data_PuPa(TaN3)2
_symmetry_space_group_name_H-M   'P 1'
_cell_length_a   5.54396900
_cell_length_b   5.76017200
_cell_length_c   7.96883600
_cell_angle_alpha   90.00000000
_cell_angle_beta   90.00000000
_cell_angle_gamma   90.00000000
_symmetry_Int_Tables_number   1
_chemical_formula_structural   PuPa(TaN3)2
_chemical_formula_sum   'Pu2 Pa2 Ta4 N12'
_cell_volume   254.47852215
_cell_formula_units_Z   2
loop_
 _symmetry_equiv_pos_site_id
 _symmetry_equiv_pos_as_xyz
  1  'x, y, z'
loop_
 _atom_site_type_symbol
 _atom_site_label
 _atom_site_symmetry_multiplicity
 _atom_site_fract_x
 _atom_site_fract_y
 _atom_site_fract_z
 _atom_site_occupancy
  Pu  Pu0  1  0.486757  0.446170  0.750000  1
  Pu  Pu1  1  0.013243  0.946170  0.750000  1
  Pa  Pa2  1  0.509503  0.565390  0.250000  1
  Pa  Pa3  1  0.990497  0.065390  0.250000  1
  Ta  Ta4  1  0.002424  0.503430  0.995717  1
  Ta  Ta5  1  0.497576  0.003430  0.504283  1
  Ta  Ta6  1  0.002424  0.503430  0.504283  1
  Ta  Ta7  1  0.497576  0.003430  0.995717  1
  N  N8  1  0.380993  0.954938  0.250000  1
  N  N9  1  0.119007  0.454938  0.250000  1
  N  N10  1  0.600877  0.032930  0.750000  1
  N  N11  1  0.899123  0.532930  0.750000  1
  N  N12  1  0.807024  0.806023  0.066780  1
  N  N13  1  0.692976  0.306023  0.433220  1
  N  N14  1  0.187593  0.190833  0.544869  1
  N  N15  1  0.312407  0.690833  0.955131  1
  N  N16  1  0.187593  0.190833  0.955131  1
  N  N17  1  0.312407  0.690833  0.544869  1
  N  N18  1  0.807024  0.806023  0.433220  1
  N  N19  1  0.692976  0.306023  0.066780  1
