# generated using pymatgen
data_Na4ErUSe6
_symmetry_space_group_name_H-M   'P 1'
_cell_length_a   7.22329541
_cell_length_b   7.22329557
_cell_length_c   7.34190843
_cell_angle_alpha   80.47610626
_cell_angle_beta   80.47610069
_cell_angle_gamma   120.02271656
_symmetry_Int_Tables_number   1
_chemical_formula_structural   Na4ErUSe6
_chemical_formula_sum   'Na4 Er1 U1 Se6'
_cell_volume   312.97373396
_cell_formula_units_Z   1
loop_
 _symmetry_equiv_pos_site_id
 _symmetry_equiv_pos_as_xyz
  1  'x, y, z'
loop_
 _atom_site_type_symbol
 _atom_site_label
 _atom_site_symmetry_multiplicity
 _atom_site_fract_x
 _atom_site_fract_y
 _atom_site_fract_z
 _atom_site_occupancy
  Na  Na0  1  0.000041  0.999959  0.000000  1
  Na  Na1  1  0.501071  0.498929  0.500000  1
  Na  Na2  1  0.839053  0.160947  0.500000  1
  Na  Na3  1  0.159880  0.840120  0.500000  1
  Er  Er4  1  0.667345  0.332655  0.000000  1
  U  U5  1  0.332718  0.667282  0.000000  1
  Se  Se6  1  0.274446  0.282777  0.229231  1
  Se  Se7  1  0.427957  0.068072  0.771567  1
  Se  Se8  1  0.085320  0.436981  0.773191  1
  Se  Se9  1  0.717223  0.725554  0.770769  1
  Se  Se10  1  0.563019  0.914680  0.226809  1
  Se  Se11  1  0.931928  0.572043  0.228433  1
