# generated using pymatgen
data_Li12VReN8
_symmetry_space_group_name_H-M   'P 1'
_cell_length_a   6.61045000
_cell_length_b   6.61045000
_cell_length_c   4.90457500
_cell_angle_alpha   90.00000000
_cell_angle_beta   90.00000000
_cell_angle_gamma   90.00000000
_symmetry_Int_Tables_number   1
_chemical_formula_structural   Li12VReN8
_chemical_formula_sum   'Li12 V1 Re1 N8'
_cell_volume   214.32035967
_cell_formula_units_Z   1
loop_
 _symmetry_equiv_pos_site_id
 _symmetry_equiv_pos_as_xyz
  1  'x, y, z'
loop_
 _atom_site_type_symbol
 _atom_site_label
 _atom_site_symmetry_multiplicity
 _atom_site_fract_x
 _atom_site_fract_y
 _atom_site_fract_z
 _atom_site_occupancy
  Li  Li0  1  0.000000  0.500000  0.583323  1
  Li  Li1  1  0.500000  0.000000  0.896613  1
  Li  Li2  1  0.500000  0.000000  0.416677  1
  Li  Li3  1  0.000000  0.500000  0.103387  1
  Li  Li4  1  0.223982  0.223982  0.500000  1
  Li  Li5  1  0.776018  0.776018  0.500000  1
  Li  Li6  1  0.703739  0.703739  0.000000  1
  Li  Li7  1  0.296261  0.296261  0.000000  1
  Li  Li8  1  0.776018  0.223982  0.500000  1
  Li  Li9  1  0.223982  0.776018  0.500000  1
  Li  Li10  1  0.296261  0.703739  0.000000  1
  Li  Li11  1  0.703739  0.296261  0.000000  1
  V  V12  1  0.500000  0.500000  0.500000  1
  Re  Re13  1  0.000000  0.000000  0.000000  1
  N  N14  1  0.259904  0.500000  0.307685  1
  N  N15  1  0.740096  0.500000  0.307685  1
  N  N16  1  0.763404  0.000000  0.198830  1
  N  N17  1  0.236596  0.000000  0.198830  1
  N  N18  1  0.500000  0.259904  0.692315  1
  N  N19  1  0.500000  0.740096  0.692315  1
  N  N20  1  0.000000  0.763404  0.801170  1
  N  N21  1  0.000000  0.236596  0.801170  1
