# generated using pymatgen
data_Er4TmOsPd2
_symmetry_space_group_name_H-M   'P 1'
_cell_length_a   10.74627100
_cell_length_b   10.74627100
_cell_length_c   6.35500900
_cell_angle_alpha   90.00000000
_cell_angle_beta   90.00000000
_cell_angle_gamma   90.00000000
_symmetry_Int_Tables_number   1
_chemical_formula_structural   Er4TmOsPd2
_chemical_formula_sum   'Er16 Tm4 Os4 Pd8'
_cell_volume   733.89131262
_cell_formula_units_Z   4
loop_
 _symmetry_equiv_pos_site_id
 _symmetry_equiv_pos_as_xyz
  1  'x, y, z'
loop_
 _atom_site_type_symbol
 _atom_site_label
 _atom_site_symmetry_multiplicity
 _atom_site_fract_x
 _atom_site_fract_y
 _atom_site_fract_z
 _atom_site_occupancy
  Er  Er0  1  0.295850  0.084744  0.364655  1
  Er  Er1  1  0.295850  0.915256  0.864655  1
  Er  Er2  1  0.704150  0.084744  0.864655  1
  Er  Er3  1  0.704150  0.915256  0.364655  1
  Er  Er4  1  0.584744  0.795850  0.864655  1
  Er  Er5  1  0.584744  0.204150  0.364655  1
  Er  Er6  1  0.415256  0.795850  0.364655  1
  Er  Er7  1  0.415256  0.204150  0.864655  1
  Er  Er8  1  0.204150  0.415256  0.635345  1
  Er  Er9  1  0.204150  0.584744  0.135345  1
  Er  Er10  1  0.795850  0.415256  0.135345  1
  Er  Er11  1  0.795850  0.584744  0.635345  1
  Er  Er12  1  0.915256  0.704150  0.135345  1
  Er  Er13  1  0.915256  0.295850  0.635345  1
  Er  Er14  1  0.084744  0.704150  0.635345  1
  Er  Er15  1  0.084744  0.295850  0.135345  1
  Tm  Tm16  1  0.000000  0.000000  0.500000  1
  Tm  Tm17  1  0.000000  0.000000  0.000000  1
  Tm  Tm18  1  0.500000  0.500000  0.000000  1
  Tm  Tm19  1  0.500000  0.500000  0.500000  1
  Os  Os20  1  0.500000  0.000000  0.118905  1
  Os  Os21  1  0.500000  0.000000  0.618905  1
  Os  Os22  1  0.000000  0.500000  0.881095  1
  Os  Os23  1  0.000000  0.500000  0.381095  1
  Pd  Pd24  1  0.846515  0.153485  0.250000  1
  Pd  Pd25  1  0.846515  0.846515  0.750000  1
  Pd  Pd26  1  0.153485  0.153485  0.750000  1
  Pd  Pd27  1  0.153485  0.846515  0.250000  1
  Pd  Pd28  1  0.653485  0.346515  0.750000  1
  Pd  Pd29  1  0.653485  0.653485  0.250000  1
  Pd  Pd30  1  0.346515  0.346515  0.250000  1
  Pd  Pd31  1  0.346515  0.653485  0.750000  1
