# generated using pymatgen
data_V10Si5PH2
_symmetry_space_group_name_H-M   'P 1'
_cell_length_a   7.08078600
_cell_length_b   7.07693689
_cell_length_c   4.84637400
_cell_angle_alpha   90.00000000
_cell_angle_beta   90.00000000
_cell_angle_gamma   120.01800290
_symmetry_Int_Tables_number   1
_chemical_formula_structural   V10Si5PH2
_chemical_formula_sum   'V10 Si5 P1 H2'
_cell_volume   210.27882216
_cell_formula_units_Z   1
loop_
 _symmetry_equiv_pos_site_id
 _symmetry_equiv_pos_as_xyz
  1  'x, y, z'
loop_
 _atom_site_type_symbol
 _atom_site_label
 _atom_site_symmetry_multiplicity
 _atom_site_fract_x
 _atom_site_fract_y
 _atom_site_fract_z
 _atom_site_occupancy
  V  V0  1  0.761026  0.759241  0.250000  1
  V  V1  1  0.754811  0.000000  0.750000  1
  V  V2  1  0.001784  0.240759  0.250000  1
  V  V3  1  0.003395  0.762073  0.750000  1
  V  V4  1  0.241322  0.237927  0.750000  1
  V  V5  1  0.243522  0.000000  0.250000  1
  V  V6  1  0.334259  0.671694  0.500779  1
  V  V7  1  0.662566  0.328306  0.999221  1
  V  V8  1  0.662566  0.328306  0.500779  1
  V  V9  1  0.334259  0.671694  0.999221  1
  Si  Si10  1  0.997929  0.598748  0.250000  1
  Si  Si11  1  0.000992  0.399185  0.750000  1
  Si  Si12  1  0.601807  0.600815  0.750000  1
  Si  Si13  1  0.606519  0.000000  0.250000  1
  Si  Si14  1  0.399181  0.401252  0.250000  1
  P  P15  1  0.395425  0.000000  0.750000  1
  H  H16  1  0.999319  0.000000  0.000381  1
  H  H17  1  0.999319  0.000000  0.499619  1
