# generated using pymatgen
data_PrDy2Mn(Co5B2)2
_symmetry_space_group_name_H-M   'P 1'
_cell_length_a   5.08688800
_cell_length_b   5.08688830
_cell_length_c   9.78449500
_cell_angle_alpha   90.00000000
_cell_angle_beta   90.00000000
_cell_angle_gamma   120.00001107
_symmetry_Int_Tables_number   1
_chemical_formula_structural   PrDy2Mn(Co5B2)2
_chemical_formula_sum   'Pr1 Dy2 Mn1 Co10 B4'
_cell_volume   219.26705100
_cell_formula_units_Z   1
loop_
 _symmetry_equiv_pos_site_id
 _symmetry_equiv_pos_as_xyz
  1  'x, y, z'
loop_
 _atom_site_type_symbol
 _atom_site_label
 _atom_site_symmetry_multiplicity
 _atom_site_fract_x
 _atom_site_fract_y
 _atom_site_fract_z
 _atom_site_occupancy
  Pr  Pr0  1  0.000000  0.000000  0.000000  1
  Dy  Dy1  1  0.000000  0.000000  0.656719  1
  Dy  Dy2  1  0.000000  0.000000  0.343281  1
  Mn  Mn3  1  0.333333  0.666667  0.000000  1
  Co  Co4  1  0.499725  0.500275  0.500000  1
  Co  Co5  1  0.000551  0.500275  0.500000  1
  Co  Co6  1  0.501255  0.002509  0.207482  1
  Co  Co7  1  0.501255  0.498745  0.207482  1
  Co  Co8  1  0.997491  0.498745  0.207482  1
  Co  Co9  1  0.501255  0.002509  0.792518  1
  Co  Co10  1  0.501255  0.498745  0.792518  1
  Co  Co11  1  0.997491  0.498745  0.792518  1
  Co  Co12  1  0.666667  0.333333  0.000000  1
  Co  Co13  1  0.499725  0.999449  0.500000  1
  B  B14  1  0.333333  0.666667  0.649275  1
  B  B15  1  0.666667  0.333333  0.647924  1
  B  B16  1  0.666667  0.333333  0.352076  1
  B  B17  1  0.333333  0.666667  0.350725  1
