# generated using pymatgen
data_LaSn3Pd2
_symmetry_space_group_name_H-M   'P 1'
_cell_length_a   6.21008000
_cell_length_b   6.39556600
_cell_length_c   14.10282100
_cell_angle_alpha   90.00000000
_cell_angle_beta   90.00000000
_cell_angle_gamma   90.00000000
_symmetry_Int_Tables_number   1
_chemical_formula_structural   LaSn3Pd2
_chemical_formula_sum   'La4 Sn12 Pd8'
_cell_volume   560.12141032
_cell_formula_units_Z   4
loop_
 _symmetry_equiv_pos_site_id
 _symmetry_equiv_pos_as_xyz
  1  'x, y, z'
loop_
 _atom_site_type_symbol
 _atom_site_label
 _atom_site_symmetry_multiplicity
 _atom_site_fract_x
 _atom_site_fract_y
 _atom_site_fract_z
 _atom_site_occupancy
  La  La0  1  0.250000  0.514016  0.799665  1
  La  La1  1  0.750000  0.485984  0.200335  1
  La  La2  1  0.750000  0.985984  0.799665  1
  La  La3  1  0.250000  0.014016  0.200335  1
  Sn  Sn4  1  0.250000  0.018244  0.694332  1
  Sn  Sn5  1  0.750000  0.981756  0.305668  1
  Sn  Sn6  1  0.750000  0.481756  0.694332  1
  Sn  Sn7  1  0.250000  0.518244  0.305668  1
  Sn  Sn8  1  0.250000  0.893924  0.439208  1
  Sn  Sn9  1  0.750000  0.106076  0.560792  1
  Sn  Sn10  1  0.750000  0.606076  0.439208  1
  Sn  Sn11  1  0.250000  0.393924  0.560792  1
  Sn  Sn12  1  0.500000  0.750000  0.996679  1
  Sn  Sn13  1  0.000000  0.250000  0.003321  1
  Sn  Sn14  1  0.500000  0.250000  0.003321  1
  Sn  Sn15  1  0.000000  0.750000  0.996679  1
  Pd  Pd16  1  0.250000  0.012836  0.883368  1
  Pd  Pd17  1  0.750000  0.987164  0.116632  1
  Pd  Pd18  1  0.750000  0.487164  0.883368  1
  Pd  Pd19  1  0.250000  0.512836  0.116632  1
  Pd  Pd20  1  0.500000  0.750000  0.592871  1
  Pd  Pd21  1  0.000000  0.250000  0.407129  1
  Pd  Pd22  1  0.500000  0.250000  0.407129  1
  Pd  Pd23  1  0.000000  0.750000  0.592871  1
