# generated using pymatgen
data_Be8CoPt7
_symmetry_space_group_name_H-M   'P 1'
_cell_length_a   5.63607000
_cell_length_b   5.63607000
_cell_length_c   5.63607000
_cell_angle_alpha   90.00000000
_cell_angle_beta   90.00000000
_cell_angle_gamma   90.00000000
_symmetry_Int_Tables_number   1
_chemical_formula_structural   Be8CoPt7
_chemical_formula_sum   'Be8 Co1 Pt7'
_cell_volume   179.03137008
_cell_formula_units_Z   1
loop_
 _symmetry_equiv_pos_site_id
 _symmetry_equiv_pos_as_xyz
  1  'x, y, z'
loop_
 _atom_site_type_symbol
 _atom_site_label
 _atom_site_symmetry_multiplicity
 _atom_site_fract_x
 _atom_site_fract_y
 _atom_site_fract_z
 _atom_site_occupancy
  Be  Be0  1  0.258946  0.258946  0.258946  1
  Be  Be1  1  0.741055  0.258946  0.258946  1
  Be  Be2  1  0.258946  0.741055  0.258946  1
  Be  Be3  1  0.741055  0.741055  0.258946  1
  Be  Be4  1  0.258946  0.258946  0.741055  1
  Be  Be5  1  0.741055  0.258946  0.741055  1
  Be  Be6  1  0.258946  0.741055  0.741055  1
  Be  Be7  1  0.741055  0.741055  0.741055  1
  Co  Co8  1  0.500000  0.500000  0.500000  1
  Pt  Pt9  1  0.000000  0.000000  0.000000  1
  Pt  Pt10  1  0.500000  0.000000  0.000000  1
  Pt  Pt11  1  0.000000  0.500000  0.000000  1
  Pt  Pt12  1  0.500000  0.500000  0.000000  1
  Pt  Pt13  1  0.000000  0.000000  0.500000  1
  Pt  Pt14  1  0.500000  0.000000  0.500000  1
  Pt  Pt15  1  0.000000  0.500000  0.500000  1
