# generated using pymatgen
data_Ce2Lu3Si4
_symmetry_space_group_name_H-M   'P 1'
_cell_length_a   7.64150800
_cell_length_b   7.45456287
_cell_length_c   7.69998000
_cell_angle_alpha   70.11667227
_cell_angle_beta   90.00000000
_cell_angle_gamma   90.00000000
_symmetry_Int_Tables_number   1
_chemical_formula_structural   Ce2Lu3Si4
_chemical_formula_sum   'Ce4 Lu6 Si8'
_cell_volume   412.47490288
_cell_formula_units_Z   2
loop_
 _symmetry_equiv_pos_site_id
 _symmetry_equiv_pos_as_xyz
  1  'x, y, z'
loop_
 _atom_site_type_symbol
 _atom_site_label
 _atom_site_symmetry_multiplicity
 _atom_site_fract_x
 _atom_site_fract_y
 _atom_site_fract_z
 _atom_site_occupancy
  Ce  Ce0  1  0.676000  0.928480  0.693465  1
  Ce  Ce1  1  0.324000  0.071520  0.306535  1
  Ce  Ce2  1  0.176000  0.571520  0.306535  1
  Ce  Ce3  1  0.824000  0.428480  0.693465  1
  Lu  Lu4  1  0.675393  0.741737  0.255069  1
  Lu  Lu5  1  0.324607  0.258263  0.744931  1
  Lu  Lu6  1  0.175393  0.758263  0.744931  1
  Lu  Lu7  1  0.824607  0.241737  0.255069  1
  Lu  Lu8  1  0.000000  0.000000  0.000000  1
  Lu  Lu9  1  0.500000  0.500000  0.000000  1
  Si  Si10  1  0.964927  0.853257  0.419439  1
  Si  Si11  1  0.035073  0.146743  0.580561  1
  Si  Si12  1  0.464927  0.646743  0.580561  1
  Si  Si13  1  0.535073  0.353257  0.419439  1
  Si  Si14  1  0.878698  0.626230  0.992104  1
  Si  Si15  1  0.121302  0.373770  0.007896  1
  Si  Si16  1  0.378698  0.873770  0.007896  1
  Si  Si17  1  0.621302  0.126230  0.992104  1
