# generated using pymatgen
data_CeHo4RuPb3
_symmetry_space_group_name_H-M   'P 1'
_cell_length_a   9.35738200
_cell_length_b   9.30887436
_cell_length_c   6.57095300
_cell_angle_alpha   90.00000000
_cell_angle_beta   90.00000000
_cell_angle_gamma   120.17252550
_symmetry_Int_Tables_number   1
_chemical_formula_structural   CeHo4RuPb3
_chemical_formula_sum   'Ce2 Ho8 Ru2 Pb6'
_cell_volume   494.82641995
_cell_formula_units_Z   2
loop_
 _symmetry_equiv_pos_site_id
 _symmetry_equiv_pos_as_xyz
  1  'x, y, z'
loop_
 _atom_site_type_symbol
 _atom_site_label
 _atom_site_symmetry_multiplicity
 _atom_site_fract_x
 _atom_site_fract_y
 _atom_site_fract_z
 _atom_site_occupancy
  Ce  Ce0  1  0.000667  0.770540  0.750000  1
  Ce  Ce1  1  0.769874  0.770540  0.250000  1
  Ho  Ho2  1  0.332442  0.664885  0.500000  1
  Ho  Ho3  1  0.756249  0.000147  0.750000  1
  Ho  Ho4  1  0.243897  0.000147  0.250000  1
  Ho  Ho5  1  0.666425  0.332848  0.500000  1
  Ho  Ho6  1  0.239568  0.239989  0.750000  1
  Ho  Ho7  1  0.332442  0.664885  0.000000  1
  Ho  Ho8  1  0.000421  0.239989  0.250000  1
  Ho  Ho9  1  0.666425  0.332848  0.000000  1
  Ru  Ru10  1  0.996536  0.993073  0.000000  1
  Ru  Ru11  1  0.996536  0.993073  0.500000  1
  Pb  Pb12  1  0.400211  0.400293  0.250000  1
  Pb  Pb13  1  0.592708  0.595358  0.750000  1
  Pb  Pb14  1  0.597486  0.002866  0.250000  1
  Pb  Pb15  1  0.405380  0.002866  0.750000  1
  Pb  Pb16  1  0.002650  0.595358  0.250000  1
  Pb  Pb17  1  0.000082  0.400293  0.750000  1
