# generated using pymatgen
data_Ho3Si4(PPd10)2
_symmetry_space_group_name_H-M   'P 1'
_cell_length_a   8.69933180
_cell_length_b   8.69933160
_cell_length_c   8.69610100
_cell_angle_alpha   60.01227999
_cell_angle_beta   60.01228073
_cell_angle_gamma   59.97543660
_symmetry_Int_Tables_number   1
_chemical_formula_structural   Ho3Si4(PPd10)2
_chemical_formula_sum   'Ho3 Si4 P2 Pd20'
_cell_volume   465.35161960
_cell_formula_units_Z   1
loop_
 _symmetry_equiv_pos_site_id
 _symmetry_equiv_pos_as_xyz
  1  'x, y, z'
loop_
 _atom_site_type_symbol
 _atom_site_label
 _atom_site_symmetry_multiplicity
 _atom_site_fract_x
 _atom_site_fract_y
 _atom_site_fract_z
 _atom_site_occupancy
  Ho  Ho0  1  0.250000  0.250000  0.250000  1
  Ho  Ho1  1  0.750000  0.750000  0.750000  1
  Ho  Ho2  1  0.000000  0.000000  0.000000  1
  Si  Si3  1  0.733812  0.266188  0.266188  1
  Si  Si4  1  0.266188  0.733812  0.733812  1
  Si  Si5  1  0.266188  0.733812  0.266188  1
  Si  Si6  1  0.733812  0.266188  0.733812  1
  P  P7  1  0.265469  0.265469  0.734531  1
  P  P8  1  0.734531  0.734531  0.265469  1
  Pd  Pd9  1  0.383368  0.383368  0.384831  1
  Pd  Pd10  1  0.616632  0.616632  0.615169  1
  Pd  Pd11  1  0.383368  0.383368  0.848434  1
  Pd  Pd12  1  0.384831  0.848434  0.383368  1
  Pd  Pd13  1  0.616632  0.616632  0.151566  1
  Pd  Pd14  1  0.615169  0.151566  0.616632  1
  Pd  Pd15  1  0.848434  0.384831  0.383368  1
  Pd  Pd16  1  0.151566  0.615169  0.616632  1
  Pd  Pd17  1  0.345112  0.001162  0.998838  1
  Pd  Pd18  1  0.654888  0.998838  0.001162  1
  Pd  Pd19  1  0.001162  0.345112  0.654888  1
  Pd  Pd20  1  0.998838  0.654888  0.345112  1
  Pd  Pd21  1  0.001162  0.345112  0.998838  1
  Pd  Pd22  1  0.654888  0.998838  0.345112  1
  Pd  Pd23  1  0.998838  0.654888  0.001162  1
  Pd  Pd24  1  0.345112  0.001162  0.654888  1
  Pd  Pd25  1  0.000000  0.000000  0.345845  1
  Pd  Pd26  1  0.000000  0.000000  0.654155  1
  Pd  Pd27  1  0.654155  0.345845  0.000000  1
  Pd  Pd28  1  0.345845  0.654155  0.000000  1
