# generated using pymatgen
data_CeNd(Ni5Sn)2
_symmetry_space_group_name_H-M   'P 1'
_cell_length_a   4.89047800
_cell_length_b   4.89047611
_cell_length_c   19.76837000
_cell_angle_alpha   90.00000000
_cell_angle_beta   90.00000000
_cell_angle_gamma   120.00001280
_symmetry_Int_Tables_number   1
_chemical_formula_structural   CeNd(Ni5Sn)2
_chemical_formula_sum   'Ce2 Nd2 Ni20 Sn4'
_cell_volume   409.45284008
_cell_formula_units_Z   2
loop_
 _symmetry_equiv_pos_site_id
 _symmetry_equiv_pos_as_xyz
  1  'x, y, z'
loop_
 _atom_site_type_symbol
 _atom_site_label
 _atom_site_symmetry_multiplicity
 _atom_site_fract_x
 _atom_site_fract_y
 _atom_site_fract_z
 _atom_site_occupancy
  Ce  Ce0  1  0.333333  0.666667  0.250000  1
  Ce  Ce1  1  0.666667  0.333333  0.750000  1
  Nd  Nd2  1  0.000000  0.000000  0.500000  1
  Nd  Nd3  1  0.000000  0.000000  0.000000  1
  Ni  Ni4  1  0.000000  0.000000  0.250000  1
  Ni  Ni5  1  0.000000  0.000000  0.750000  1
  Ni  Ni6  1  0.333333  0.666667  0.750000  1
  Ni  Ni7  1  0.666667  0.333333  0.250000  1
  Ni  Ni8  1  0.333333  0.666667  0.956350  1
  Ni  Ni9  1  0.666667  0.333333  0.043650  1
  Ni  Ni10  1  0.666667  0.333333  0.456350  1
  Ni  Ni11  1  0.333333  0.666667  0.543650  1
  Ni  Ni12  1  0.834074  0.165926  0.353562  1
  Ni  Ni13  1  0.834074  0.668149  0.353562  1
  Ni  Ni14  1  0.331851  0.165926  0.353562  1
  Ni  Ni15  1  0.165926  0.834074  0.646438  1
  Ni  Ni16  1  0.165926  0.331851  0.646438  1
  Ni  Ni17  1  0.668149  0.834074  0.646438  1
  Ni  Ni18  1  0.165926  0.834074  0.853562  1
  Ni  Ni19  1  0.165926  0.331851  0.853562  1
  Ni  Ni20  1  0.668149  0.834074  0.853562  1
  Ni  Ni21  1  0.834074  0.165926  0.146438  1
  Ni  Ni22  1  0.834074  0.668149  0.146438  1
  Ni  Ni23  1  0.331851  0.165926  0.146438  1
  Sn  Sn24  1  0.333333  0.666667  0.412469  1
  Sn  Sn25  1  0.666667  0.333333  0.587531  1
  Sn  Sn26  1  0.666667  0.333333  0.912469  1
  Sn  Sn27  1  0.333333  0.666667  0.087531  1
