# generated using pymatgen
data_Ca3Th(PbAu2)2
_symmetry_space_group_name_H-M   'P 1'
_cell_length_a   8.38939850
_cell_length_b   8.38939850
_cell_length_c   3.65690400
_cell_angle_alpha   90.00000000
_cell_angle_beta   90.00000000
_cell_angle_gamma   90.25333537
_symmetry_Int_Tables_number   1
_chemical_formula_structural   Ca3Th(PbAu2)2
_chemical_formula_sum   'Ca3 Th1 Pb2 Au4'
_cell_volume   257.37772784
_cell_formula_units_Z   1
loop_
 _symmetry_equiv_pos_site_id
 _symmetry_equiv_pos_as_xyz
  1  'x, y, z'
loop_
 _atom_site_type_symbol
 _atom_site_label
 _atom_site_symmetry_multiplicity
 _atom_site_fract_x
 _atom_site_fract_y
 _atom_site_fract_z
 _atom_site_occupancy
  Ca  Ca0  1  0.173331  0.330550  0.500000  1
  Ca  Ca1  1  0.830550  0.673331  0.500000  1
  Ca  Ca2  1  0.327255  0.827255  0.500000  1
  Th  Th3  1  0.669370  0.169370  0.500000  1
  Pb  Pb4  1  0.008571  0.996656  0.000000  1
  Pb  Pb5  1  0.496656  0.508571  0.000000  1
  Au  Au6  1  0.120303  0.620303  0.000000  1
  Au  Au7  1  0.624099  0.874134  0.000000  1
  Au  Au8  1  0.374134  0.124099  0.000000  1
  Au  Au9  1  0.875731  0.375731  0.000000  1
