# generated using pymatgen
data_Y2ReB8W
_symmetry_space_group_name_H-M   'P 1'
_cell_length_a   3.62008000
_cell_length_b   6.01167833
_cell_length_c   11.62973365
_cell_angle_alpha   89.96178493
_cell_angle_beta   90.00000000
_cell_angle_gamma   90.00000000
_symmetry_Int_Tables_number   1
_chemical_formula_structural   Y2ReB8W
_chemical_formula_sum   'Y4 Re2 B16 W2'
_cell_volume   253.09500527
_cell_formula_units_Z   2
loop_
 _symmetry_equiv_pos_site_id
 _symmetry_equiv_pos_as_xyz
  1  'x, y, z'
loop_
 _atom_site_type_symbol
 _atom_site_label
 _atom_site_symmetry_multiplicity
 _atom_site_fract_x
 _atom_site_fract_y
 _atom_site_fract_z
 _atom_site_occupancy
  Y  Y0  1  0.000000  0.127661  0.149148  1
  Y  Y1  1  0.000000  0.872339  0.850852  1
  Y  Y2  1  0.000000  0.626726  0.349145  1
  Y  Y3  1  0.000000  0.373274  0.650855  1
  Re  Re4  1  0.000000  0.634024  0.086844  1
  Re  Re5  1  0.000000  0.365976  0.913156  1
  B  B6  1  0.500000  0.476961  0.191101  1
  B  B7  1  0.500000  0.523039  0.808899  1
  B  B8  1  0.500000  0.975782  0.305896  1
  B  B9  1  0.500000  0.024218  0.694104  1
  B  B10  1  0.500000  0.289361  0.313134  1
  B  B11  1  0.500000  0.710639  0.686866  1
  B  B12  1  0.500000  0.784988  0.184183  1
  B  B13  1  0.500000  0.215012  0.815817  1
  B  B14  1  0.500000  0.366758  0.467486  1
  B  B15  1  0.500000  0.633242  0.532514  1
  B  B16  1  0.500000  0.862969  0.030689  1
  B  B17  1  0.500000  0.137031  0.969311  1
  B  B18  1  0.500000  0.386990  0.047066  1
  B  B19  1  0.500000  0.613010  0.952934  1
  B  B20  1  0.500000  0.885432  0.452638  1
  B  B21  1  0.500000  0.114568  0.547362  1
  W  W22  1  0.000000  0.130229  0.414571  1
  W  W23  1  0.000000  0.869771  0.585429  1
