# generated using pymatgen
data_Tb4Ga18OsPt2Rh3
_symmetry_space_group_name_H-M   'P 1'
_cell_length_a   7.62157632
_cell_length_b   7.62157367
_cell_length_c   9.52808725
_cell_angle_alpha   90.05199788
_cell_angle_beta   90.05200432
_cell_angle_gamma   119.79970159
_symmetry_Int_Tables_number   1
_chemical_formula_structural   Tb4Ga18OsPt2Rh3
_chemical_formula_sum   'Tb4 Ga18 Os1 Pt2 Rh3'
_cell_volume   480.28400168
_cell_formula_units_Z   1
loop_
 _symmetry_equiv_pos_site_id
 _symmetry_equiv_pos_as_xyz
  1  'x, y, z'
loop_
 _atom_site_type_symbol
 _atom_site_label
 _atom_site_symmetry_multiplicity
 _atom_site_fract_x
 _atom_site_fract_y
 _atom_site_fract_z
 _atom_site_occupancy
  Tb  Tb0  1  0.997910  0.667990  0.248724  1
  Tb  Tb1  1  0.003590  0.333399  0.751044  1
  Tb  Tb2  1  0.666601  0.996410  0.248955  1
  Tb  Tb3  1  0.332010  0.002090  0.751276  1
  Ga  Ga4  1  0.121993  0.124749  0.250156  1
  Ga  Ga5  1  0.875251  0.878007  0.749844  1
  Ga  Ga6  1  0.995814  0.330140  0.079800  1
  Ga  Ga7  1  0.994982  0.665419  0.919407  1
  Ga  Ga8  1  0.996013  0.666402  0.581456  1
  Ga  Ga9  1  0.333598  0.003987  0.418544  1
  Ga  Ga10  1  0.995418  0.330428  0.419856  1
  Ga  Ga11  1  0.669572  0.004582  0.580144  1
  Ga  Ga12  1  0.669860  0.004186  0.920200  1
  Ga  Ga13  1  0.334581  0.005019  0.080593  1
  Ga  Ga14  1  0.331764  0.328198  0.565961  1
  Ga  Ga15  1  0.671802  0.668237  0.434039  1
  Ga  Ga16  1  0.671773  0.666772  0.063587  1
  Ga  Ga17  1  0.333229  0.328227  0.936413  1
  Ga  Ga18  1  0.338445  0.541238  0.249831  1
  Ga  Ga19  1  0.659753  0.450584  0.750152  1
  Ga  Ga20  1  0.549417  0.340247  0.249848  1
  Ga  Ga21  1  0.458761  0.661555  0.750169  1
  Os  Os22  1  0.672027  0.327974  0.000000  1
  Pt  Pt23  1  0.327342  0.672658  0.000000  1
  Pt  Pt24  1  0.328100  0.671899  0.500000  1
  Rh  Rh25  1  0.670799  0.329199  0.500000  1
  Rh  Rh26  1  0.999589  0.000412  0.999999  1
  Rh  Rh27  1  0.000010  0.999991  0.500000  1
