# generated using pymatgen
data_TmTa5FeB4Ru9
_symmetry_space_group_name_H-M   'P 1'
_cell_length_a   9.41453259
_cell_length_b   9.41453315
_cell_length_c   3.05926300
_cell_angle_alpha   90.00000000
_cell_angle_beta   90.00000000
_cell_angle_gamma   89.98384802
_symmetry_Int_Tables_number   1
_chemical_formula_structural   TmTa5FeB4Ru9
_chemical_formula_sum   'Tm1 Ta5 Fe1 B4 Ru9'
_cell_volume   271.15295951
_cell_formula_units_Z   1
loop_
 _symmetry_equiv_pos_site_id
 _symmetry_equiv_pos_as_xyz
  1  'x, y, z'
loop_
 _atom_site_type_symbol
 _atom_site_label
 _atom_site_symmetry_multiplicity
 _atom_site_fract_x
 _atom_site_fract_y
 _atom_site_fract_z
 _atom_site_occupancy
  Tm  Tm0  1  0.822540  0.677460  0.000000  1
  Ta  Ta1  1  0.179223  0.320777  0.000000  1
  Ta  Ta2  1  0.329074  0.830149  0.000000  1
  Ta  Ta3  1  0.669851  0.170926  0.000000  1
  Ta  Ta4  1  0.501381  0.500775  0.000000  1
  Ta  Ta5  1  0.999225  0.998619  0.000000  1
  Fe  Fe6  1  0.496389  0.003611  0.500000  1
  B  B7  1  0.609745  0.890255  0.000000  1
  B  B8  1  0.387434  0.112566  0.000000  1
  B  B9  1  0.123294  0.620383  0.000000  1
  B  B10  1  0.879617  0.376706  0.000000  1
  Ru  Ru11  1  0.556504  0.729504  0.500000  1
  Ru  Ru12  1  0.430211  0.277822  0.500000  1
  Ru  Ru13  1  0.081317  0.783376  0.500000  1
  Ru  Ru14  1  0.931595  0.214970  0.500000  1
  Ru  Ru15  1  0.285030  0.568405  0.500000  1
  Ru  Ru16  1  0.716624  0.418683  0.500000  1
  Ru  Ru17  1  0.222178  0.069789  0.500000  1
  Ru  Ru18  1  0.770496  0.943496  0.500000  1
  Ru  Ru19  1  0.008276  0.491724  0.500000  1
