# generated using pymatgen
data_BaPa5(Sb4Pt3)2
_symmetry_space_group_name_H-M   'P 1'
_cell_length_a   8.55794906
_cell_length_b   8.55785050
_cell_length_c   8.55784708
_cell_angle_alpha   109.21790159
_cell_angle_beta   109.97895596
_cell_angle_gamma   109.21631278
_symmetry_Int_Tables_number   1
_chemical_formula_structural   BaPa5(Sb4Pt3)2
_chemical_formula_sum   'Ba1 Pa5 Sb8 Pt6'
_cell_volume   482.45901043
_cell_formula_units_Z   1
loop_
 _symmetry_equiv_pos_site_id
 _symmetry_equiv_pos_as_xyz
  1  'x, y, z'
loop_
 _atom_site_type_symbol
 _atom_site_label
 _atom_site_symmetry_multiplicity
 _atom_site_fract_x
 _atom_site_fract_y
 _atom_site_fract_z
 _atom_site_occupancy
  Ba  Ba0  1  0.874997  0.249999  0.125000  1
  Pa  Pa1  1  0.624998  0.749999  0.375001  1
  Pa  Pa2  1  0.247829  0.122314  0.876339  1
  Pa  Pa3  1  0.754025  0.377684  0.625519  1
  Pa  Pa4  1  0.123661  0.871491  0.245972  1
  Pa  Pa5  1  0.374487  0.628507  0.752172  1
  Sb  Sb6  1  0.670597  0.496497  0.993943  1
  Sb  Sb7  1  0.497453  0.003506  0.674100  1
  Sb  Sb8  1  0.005623  0.680364  0.501469  1
  Sb  Sb9  1  0.821102  0.819630  0.825255  1
  Sb  Sb10  1  0.498532  0.004156  0.178899  1
  Sb  Sb11  1  0.174740  0.495848  0.994376  1
  Sb  Sb12  1  0.006053  0.176650  0.502550  1
  Sb  Sb13  1  0.325901  0.323350  0.329406  1
  Pt  Pt14  1  0.375002  0.250001  0.625000  1
  Pt  Pt15  1  0.125000  0.750000  0.875000  1
  Pt  Pt16  1  0.282003  0.644136  0.386129  1
  Pt  Pt17  1  0.741999  0.855865  0.137869  1
  Pt  Pt18  1  0.613870  0.395874  0.258007  1
  Pt  Pt19  1  0.862130  0.104129  0.717994  1
