# generated using pymatgen
data_Zr3TaNbSi4
_symmetry_space_group_name_H-M   'P 1'
_cell_length_a   6.97331985
_cell_length_b   6.97535391
_cell_length_c   12.87149402
_cell_angle_alpha   90.37105519
_cell_angle_beta   89.97406361
_cell_angle_gamma   89.97867720
_symmetry_Int_Tables_number   1
_chemical_formula_structural   Zr3TaNbSi4
_chemical_formula_sum   'Zr12 Ta4 Nb4 Si16'
_cell_volume   626.07391612
_cell_formula_units_Z   4
loop_
 _symmetry_equiv_pos_site_id
 _symmetry_equiv_pos_as_xyz
  1  'x, y, z'
loop_
 _atom_site_type_symbol
 _atom_site_label
 _atom_site_symmetry_multiplicity
 _atom_site_fract_x
 _atom_site_fract_y
 _atom_site_fract_z
 _atom_site_occupancy
  Zr  Zr0  1  0.650285  0.497095  0.876374  1
  Zr  Zr1  1  0.502564  0.351692  0.622626  1
  Zr  Zr2  1  0.499439  0.647632  0.125437  1
  Zr  Zr3  1  0.147299  0.999342  0.873775  1
  Zr  Zr4  1  0.001406  0.652728  0.036586  1
  Zr  Zr5  1  0.000941  0.346275  0.529840  1
  Zr  Zr6  1  0.653869  0.999194  0.967535  1
  Zr  Zr7  1  0.151571  0.498584  0.781953  1
  Zr  Zr8  1  0.846964  0.501023  0.282825  1
  Zr  Zr9  1  0.500790  0.153442  0.220398  1
  Zr  Zr10  1  0.501429  0.846643  0.714141  1
  Zr  Zr11  1  0.343587  0.001091  0.466986  1
  Ta  Ta12  1  0.673299  0.673907  0.498333  1
  Ta  Ta13  1  0.828288  0.171569  0.748322  1
  Ta  Ta14  1  0.171603  0.830332  0.251792  1
  Ta  Ta15  1  0.326919  0.324779  0.001608  1
  Nb  Nb16  1  0.350024  0.507798  0.375530  1
  Nb  Nb17  1  0.853634  0.996400  0.374311  1
  Nb  Nb18  1  0.006881  0.148181  0.127193  1
  Nb  Nb19  1  0.995138  0.851539  0.624434  1
  Si  Si20  1  0.046589  0.703485  0.436303  1
  Si  Si21  1  0.954899  0.298765  0.937950  1
  Si  Si22  1  0.704596  0.045810  0.561485  1
  Si  Si23  1  0.201203  0.450146  0.187868  1
  Si  Si24  1  0.801594  0.549575  0.683662  1
  Si  Si25  1  0.452400  0.198409  0.813910  1
  Si  Si26  1  0.549191  0.799600  0.315607  1
  Si  Si27  1  0.299338  0.954804  0.065812  1
  Si  Si28  1  0.854487  0.797151  0.817684  1
  Si  Si29  1  0.138888  0.208044  0.323185  1
  Si  Si30  1  0.798228  0.864149  0.180154  1
  Si  Si31  1  0.290814  0.643542  0.570756  1
  Si  Si32  1  0.708688  0.352154  0.074117  1
  Si  Si33  1  0.638548  0.294175  0.424944  1
  Si  Si34  1  0.353909  0.701024  0.930060  1
  Si  Si35  1  0.200697  0.139917  0.676504  1
