# generated using pymatgen
data_Ti8BeTcBi4
_symmetry_space_group_name_H-M   'P 1'
_cell_length_a   7.93357613
_cell_length_b   7.93358225
_cell_length_c   7.93357584
_cell_angle_alpha   95.42819438
_cell_angle_beta   95.42638261
_cell_angle_gamma   144.17755187
_symmetry_Int_Tables_number   1
_chemical_formula_structural   Ti8BeTcBi4
_chemical_formula_sum   'Ti8 Be1 Tc1 Bi4'
_cell_volume   278.09429618
_cell_formula_units_Z   1
loop_
 _symmetry_equiv_pos_site_id
 _symmetry_equiv_pos_as_xyz
  1  'x, y, z'
loop_
 _atom_site_type_symbol
 _atom_site_label
 _atom_site_symmetry_multiplicity
 _atom_site_fract_x
 _atom_site_fract_y
 _atom_site_fract_z
 _atom_site_occupancy
  Ti  Ti0  1  0.588506  0.703056  0.278375  1
  Ti  Ti1  1  0.911503  0.189900  0.114612  1
  Ti  Ti2  1  0.310121  0.588547  0.885491  1
  Ti  Ti3  1  0.796945  0.911453  0.721574  1
  Ti  Ti4  1  0.703088  0.424683  0.114549  1
  Ti  Ti5  1  0.075318  0.796944  0.885448  1
  Ti  Ti6  1  0.424712  0.310100  0.721604  1
  Ti  Ti7  1  0.189865  0.075317  0.278405  1
  Be  Be8  1  0.750063  0.750000  0.000063  1
  Tc  Tc9  1  0.250063  0.250000  0.000063  1
  Bi  Bi10  1  0.360328  0.860390  0.220692  1
  Bi  Bi11  1  0.139609  0.360321  0.499899  1
  Bi  Bi12  1  0.639578  0.139679  0.779287  1
  Bi  Bi13  1  0.860301  0.639610  0.499939  1
