# generated using pymatgen
data_Pr2Co3Si4Rh3
_symmetry_space_group_name_H-M   'P 1'
_cell_length_a   6.61417947
_cell_length_b   6.55589209
_cell_length_c   6.61417859
_cell_angle_alpha   131.23273478
_cell_angle_beta   115.60137658
_cell_angle_gamma   85.05624963
_symmetry_Int_Tables_number   1
_chemical_formula_structural   Pr2Co3Si4Rh3
_chemical_formula_sum   'Pr2 Co3 Si4 Rh3'
_cell_volume   185.98174272
_cell_formula_units_Z   1
loop_
 _symmetry_equiv_pos_site_id
 _symmetry_equiv_pos_as_xyz
  1  'x, y, z'
loop_
 _atom_site_type_symbol
 _atom_site_label
 _atom_site_symmetry_multiplicity
 _atom_site_fract_x
 _atom_site_fract_y
 _atom_site_fract_z
 _atom_site_occupancy
  Pr  Pr0  1  0.254483  0.971312  0.722441  1
  Pr  Pr1  1  0.751130  0.028688  0.283172  1
  Co  Co2  1  0.278665  0.000000  0.278665  1
  Co  Co3  1  0.719248  0.000000  0.719248  1
  Co  Co4  1  0.219902  0.500000  0.719902  1
  Si  Si5  1  0.076199  0.268681  0.201342  1
  Si  Si6  1  0.932662  0.731319  0.807518  1
  Si  Si7  1  0.422043  0.637404  0.202080  1
  Si  Si8  1  0.564677  0.362596  0.784639  1
  Rh  Rh9  1  0.499273  0.506087  0.506943  1
  Rh  Rh10  1  0.000856  0.493913  0.993187  1
  Rh  Rh11  1  0.780863  0.500000  0.280863  1
