# generated using pymatgen
data_Be2Nb2Os
_symmetry_space_group_name_H-M   'P 1'
_cell_length_a   6.30272400
_cell_length_b   6.30272400
_cell_length_c   6.62062200
_cell_angle_alpha   90.00000000
_cell_angle_beta   90.00000000
_cell_angle_gamma   90.00000000
_symmetry_Int_Tables_number   1
_chemical_formula_structural   Be2Nb2Os
_chemical_formula_sum   'Be8 Nb8 Os4'
_cell_volume   262.99977194
_cell_formula_units_Z   4
loop_
 _symmetry_equiv_pos_site_id
 _symmetry_equiv_pos_as_xyz
  1  'x, y, z'
loop_
 _atom_site_type_symbol
 _atom_site_label
 _atom_site_symmetry_multiplicity
 _atom_site_fract_x
 _atom_site_fract_y
 _atom_site_fract_z
 _atom_site_occupancy
  Be  Be0  1  0.377802  0.877802  0.250000  1
  Be  Be1  1  0.622198  0.122198  0.250000  1
  Be  Be2  1  0.122198  0.377802  0.750000  1
  Be  Be3  1  0.877802  0.622198  0.750000  1
  Be  Be4  1  0.877802  0.622198  0.250000  1
  Be  Be5  1  0.122198  0.377802  0.250000  1
  Be  Be6  1  0.377802  0.877802  0.750000  1
  Be  Be7  1  0.622198  0.122198  0.750000  1
  Nb  Nb8  1  0.674615  0.825198  0.500000  1
  Nb  Nb9  1  0.325385  0.174802  0.500000  1
  Nb  Nb10  1  0.825385  0.325198  0.000000  1
  Nb  Nb11  1  0.174615  0.674802  0.000000  1
  Nb  Nb12  1  0.825198  0.325385  0.500000  1
  Nb  Nb13  1  0.174802  0.674615  0.500000  1
  Nb  Nb14  1  0.325198  0.174615  0.000000  1
  Nb  Nb15  1  0.674802  0.825385  0.000000  1
  Os  Os16  1  0.500000  0.500000  0.249184  1
  Os  Os17  1  0.000000  0.000000  0.749184  1
  Os  Os18  1  0.500000  0.500000  0.750816  1
  Os  Os19  1  0.000000  0.000000  0.250816  1
