# generated using pymatgen
data_Cs9Rb(VSe4)4
_symmetry_space_group_name_H-M   'P 1'
_cell_length_a   12.59512721
_cell_length_b   12.59626933
_cell_length_c   12.59513609
_cell_angle_alpha   132.39049305
_cell_angle_beta   126.60408819
_cell_angle_gamma   74.30637042
_symmetry_Int_Tables_number   1
_chemical_formula_structural   Cs9Rb(VSe4)4
_chemical_formula_sum   'Cs9 Rb1 V4 Se16'
_cell_volume   1155.25141475
_cell_formula_units_Z   1
loop_
 _symmetry_equiv_pos_site_id
 _symmetry_equiv_pos_as_xyz
  1  'x, y, z'
loop_
 _atom_site_type_symbol
 _atom_site_label
 _atom_site_symmetry_multiplicity
 _atom_site_fract_x
 _atom_site_fract_y
 _atom_site_fract_z
 _atom_site_occupancy
  Cs  Cs0  1  0.495277  0.245385  0.250031  1
  Cs  Cs1  1  0.004602  0.754680  0.249883  1
  Cs  Cs2  1  0.571991  0.715214  0.143309  1
  Cs  Cs3  1  0.428105  0.284853  0.856834  1
  Cs  Cs4  1  0.504413  0.754326  0.750062  1
  Cs  Cs5  1  0.071852  0.428634  0.356613  1
  Cs  Cs6  1  0.927991  0.571346  0.643221  1
  Cs  Cs7  1  0.995717  0.245729  0.750096  1
  Cs  Cs8  1  0.250022  0.999978  0.250013  1
  Rb  Rb9  1  0.749976  0.000022  0.750010  1
  V  V10  1  0.136416  0.914833  0.775712  1
  V  V11  1  0.860890  0.085148  0.221476  1
  V  V12  1  0.363582  0.639429  0.278558  1
  V  V13  1  0.639130  0.360540  0.724229  1
  Se  Se14  1  0.574304  0.591532  0.351826  1
  Se  Se15  1  0.748156  0.995514  0.245907  1
  Se  Se16  1  0.881012  0.884720  0.997835  1
  Se  Se17  1  0.760270  0.408496  0.982890  1
  Se  Se18  1  0.739675  0.222592  0.148203  1
  Se  Se19  1  0.751856  0.497665  0.747300  1
  Se  Se20  1  0.250453  0.004468  0.752636  1
  Se  Se21  1  0.241679  0.591305  0.019838  1
  Se  Se22  1  0.249578  0.502313  0.254199  1
  Se  Se23  1  0.258285  0.778051  0.849491  1
  Se  Se24  1  0.113162  0.115163  0.996146  1
  Se  Se25  1  0.925757  0.777471  0.517171  1
  Se  Se26  1  0.071510  0.221995  0.480260  1
  Se  Se27  1  0.619048  0.116831  0.503696  1
  Se  Se28  1  0.428508  0.408694  0.650396  1
  Se  Se29  1  0.386778  0.883072  0.502161  1
