# generated using pymatgen
data_CeThB10Ir
_symmetry_space_group_name_H-M   'P 1'
_cell_length_a   4.20034800
_cell_length_b   5.72074104
_cell_length_c   11.43725528
_cell_angle_alpha   89.99440252
_cell_angle_beta   90.00000000
_cell_angle_gamma   90.00000000
_symmetry_Int_Tables_number   1
_chemical_formula_structural   CeThB10Ir
_chemical_formula_sum   'Ce2 Th2 B20 Ir2'
_cell_volume   274.82698591
_cell_formula_units_Z   2
loop_
 _symmetry_equiv_pos_site_id
 _symmetry_equiv_pos_as_xyz
  1  'x, y, z'
loop_
 _atom_site_type_symbol
 _atom_site_label
 _atom_site_symmetry_multiplicity
 _atom_site_fract_x
 _atom_site_fract_y
 _atom_site_fract_z
 _atom_site_occupancy
  Ce  Ce0  1  0.500000  0.295750  0.866172  1
  Ce  Ce1  1  0.500000  0.704250  0.133828  1
  Th  Th2  1  0.500000  0.796010  0.636921  1
  Th  Th3  1  0.500000  0.203990  0.363079  1
  B  B4  1  0.000000  0.117816  0.543318  1
  B  B5  1  0.000000  0.882184  0.456682  1
  B  B6  1  0.000000  0.617718  0.956959  1
  B  B7  1  0.000000  0.382282  0.043041  1
  B  B8  1  0.000000  0.137383  0.697981  1
  B  B9  1  0.000000  0.862617  0.302019  1
  B  B10  1  0.302203  0.217329  0.118225  1
  B  B11  1  0.302203  0.782671  0.881775  1
  B  B12  1  0.697863  0.717399  0.380235  1
  B  B13  1  0.697863  0.282601  0.619765  1
  B  B14  1  0.697797  0.782671  0.881775  1
  B  B15  1  0.697797  0.217329  0.118225  1
  B  B16  1  0.302137  0.282601  0.619765  1
  B  B17  1  0.302137  0.717399  0.380235  1
  B  B18  1  0.000000  0.053657  0.192557  1
  B  B19  1  0.000000  0.946343  0.807443  1
  B  B20  1  0.000000  0.554048  0.306151  1
  B  B21  1  0.000000  0.445952  0.693849  1
  B  B22  1  0.000000  0.362799  0.196839  1
  B  B23  1  0.000000  0.637201  0.803161  1
  Ir  Ir24  1  0.000000  0.500000  0.500000  1
  Ir  Ir25  1  0.000000  0.000000  0.000000  1
