# generated using pymatgen
data_Th5Tc3Sn2
_symmetry_space_group_name_H-M   'P 1'
_cell_length_a   8.78444777
_cell_length_b   8.78444675
_cell_length_c   8.78444700
_cell_angle_alpha   109.52551634
_cell_angle_beta   109.52552092
_cell_angle_gamma   109.52551694
_symmetry_Int_Tables_number   1
_chemical_formula_structural   Th5Tc3Sn2
_chemical_formula_sum   'Th10 Tc6 Sn4'
_cell_volume   520.76917280
_cell_formula_units_Z   2
loop_
 _symmetry_equiv_pos_site_id
 _symmetry_equiv_pos_as_xyz
  1  'x, y, z'
loop_
 _atom_site_type_symbol
 _atom_site_label
 _atom_site_symmetry_multiplicity
 _atom_site_fract_x
 _atom_site_fract_y
 _atom_site_fract_z
 _atom_site_occupancy
  Th  Th0  1  0.470070  0.157108  0.219847  1
  Th  Th1  1  0.157108  0.219847  0.470070  1
  Th  Th2  1  0.219847  0.470070  0.157108  1
  Th  Th3  1  0.407680  0.699193  0.907322  1
  Th  Th4  1  0.699193  0.907322  0.407680  1
  Th  Th5  1  0.907322  0.407680  0.699193  1
  Th  Th6  1  0.657307  0.094961  0.844752  1
  Th  Th7  1  0.094961  0.844752  0.657307  1
  Th  Th8  1  0.844752  0.657307  0.094961  1
  Th  Th9  1  0.615799  0.615799  0.615799  1
  Tc  Tc10  1  0.020262  0.157712  0.771132  1
  Tc  Tc11  1  0.157712  0.771132  0.020262  1
  Tc  Tc12  1  0.771132  0.020262  0.157712  1
  Tc  Tc13  1  0.658415  0.543588  0.294885  1
  Tc  Tc14  1  0.543588  0.294885  0.658415  1
  Tc  Tc15  1  0.294885  0.658415  0.543588  1
  Sn  Sn16  1  0.407328  0.301843  0.908006  1
  Sn  Sn17  1  0.301843  0.908006  0.407328  1
  Sn  Sn18  1  0.908006  0.407328  0.301843  1
  Sn  Sn19  1  0.012792  0.012792  0.012792  1
