# generated using pymatgen
data_Mn10Cr10Ga(WC3)2
_symmetry_space_group_name_H-M   'P 1'
_cell_length_a   7.47899080
_cell_length_b   7.47292508
_cell_length_c   7.48632652
_cell_angle_alpha   60.04306762
_cell_angle_beta   60.03241190
_cell_angle_gamma   59.97314344
_symmetry_Int_Tables_number   1
_chemical_formula_structural   Mn10Cr10Ga(WC3)2
_chemical_formula_sum   'Mn10 Cr10 Ga1 W2 C6'
_cell_volume   295.96923028
_cell_formula_units_Z   1
loop_
 _symmetry_equiv_pos_site_id
 _symmetry_equiv_pos_as_xyz
  1  'x, y, z'
loop_
 _atom_site_type_symbol
 _atom_site_label
 _atom_site_symmetry_multiplicity
 _atom_site_fract_x
 _atom_site_fract_y
 _atom_site_fract_z
 _atom_site_occupancy
  Mn  Mn0  1  0.616487  0.615422  0.151603  1
  Mn  Mn1  1  0.616181  0.151476  0.616160  1
  Mn  Mn2  1  0.151360  0.616393  0.616016  1
  Mn  Mn3  1  0.616232  0.616393  0.616016  1
  Mn  Mn4  1  0.383457  0.383971  0.849115  1
  Mn  Mn5  1  0.383553  0.848899  0.383995  1
  Mn  Mn6  1  0.848773  0.383375  0.383129  1
  Mn  Mn7  1  0.384723  0.383375  0.383129  1
  Mn  Mn8  1  0.999736  0.999041  0.343114  1
  Mn  Mn9  1  0.658109  0.999041  0.343114  1
  Cr  Cr10  1  0.999064  0.658601  0.343271  1
  Cr  Cr11  1  0.656931  0.342576  0.000512  1
  Cr  Cr12  1  0.999983  0.342576  0.000512  1
  Cr  Cr13  1  0.000619  0.342608  0.656154  1
  Cr  Cr14  1  0.343162  0.657272  0.000461  1
  Cr  Cr15  1  0.343417  0.000304  0.655598  1
  Cr  Cr16  1  0.342723  0.000433  0.000046  1
  Cr  Cr17  1  0.000681  0.000304  0.655598  1
  Cr  Cr18  1  0.999104  0.657272  0.000461  1
  Cr  Cr19  1  0.656798  0.000433  0.000046  1
  Ga  Ga20  1  0.999377  0.000084  0.001163  1
  W  W21  1  0.749937  0.750714  0.749413  1
  W  W22  1  0.249860  0.249962  0.250318  1
  C  C23  1  0.719180  0.721286  0.280456  1
  C  C24  1  0.279078  0.721286  0.280456  1
  C  C25  1  0.722001  0.275395  0.280602  1
  C  C26  1  0.280419  0.281325  0.719333  1
  C  C27  1  0.718923  0.281325  0.719333  1
  C  C28  1  0.280133  0.718857  0.720877  1
