# generated using pymatgen
data_K2BaYbSb2
_symmetry_space_group_name_H-M   'P 1'
_cell_length_a   5.36217900
_cell_length_b   8.76434000
_cell_length_c   10.17369100
_cell_angle_alpha   90.00000000
_cell_angle_beta   90.00000000
_cell_angle_gamma   90.00000000
_symmetry_Int_Tables_number   1
_chemical_formula_structural   K2BaYbSb2
_chemical_formula_sum   'K4 Ba2 Yb2 Sb4'
_cell_volume   478.12237424
_cell_formula_units_Z   2
loop_
 _symmetry_equiv_pos_site_id
 _symmetry_equiv_pos_as_xyz
  1  'x, y, z'
loop_
 _atom_site_type_symbol
 _atom_site_label
 _atom_site_symmetry_multiplicity
 _atom_site_fract_x
 _atom_site_fract_y
 _atom_site_fract_z
 _atom_site_occupancy
  K  K0  1  0.500000  0.021631  0.420110  1
  K  K1  1  0.000000  0.342941  0.341327  1
  K  K2  1  0.500000  0.521631  0.579890  1
  K  K3  1  0.000000  0.842941  0.658673  1
  Ba  Ba4  1  0.000000  0.998119  0.055481  1
  Ba  Ba5  1  0.000000  0.498119  0.944519  1
  Yb  Yb6  1  0.500000  0.151612  0.818487  1
  Yb  Yb7  1  0.500000  0.651612  0.181513  1
  Sb  Sb8  1  0.000000  0.244323  0.679548  1
  Sb  Sb9  1  0.500000  0.286974  0.114565  1
  Sb  Sb10  1  0.000000  0.744323  0.320452  1
  Sb  Sb11  1  0.500000  0.786974  0.885435  1
