# generated using pymatgen
data_Nd8NiAg2Ru
_symmetry_space_group_name_H-M   'P 1'
_cell_length_a   9.81336654
_cell_length_b   9.81336625
_cell_length_c   9.94114000
_cell_angle_alpha   59.56833972
_cell_angle_beta   59.56834070
_cell_angle_gamma   59.17598338
_symmetry_Int_Tables_number   1
_chemical_formula_structural   Nd8NiAg2Ru
_chemical_formula_sum   'Nd16 Ni2 Ag4 Ru2'
_cell_volume   668.26727881
_cell_formula_units_Z   2
loop_
 _symmetry_equiv_pos_site_id
 _symmetry_equiv_pos_as_xyz
  1  'x, y, z'
loop_
 _atom_site_type_symbol
 _atom_site_label
 _atom_site_symmetry_multiplicity
 _atom_site_fract_x
 _atom_site_fract_y
 _atom_site_fract_z
 _atom_site_occupancy
  Nd  Nd0  1  0.600894  0.600894  0.596384  1
  Nd  Nd1  1  0.600894  0.600894  0.201828  1
  Nd  Nd2  1  0.602382  0.199632  0.598993  1
  Nd  Nd3  1  0.199632  0.602382  0.598993  1
  Nd  Nd4  1  0.060659  0.438552  0.440000  1
  Nd  Nd5  1  0.438552  0.060659  0.060789  1
  Nd  Nd6  1  0.438552  0.060659  0.440000  1
  Nd  Nd7  1  0.060659  0.438552  0.060789  1
  Nd  Nd8  1  0.438577  0.438577  0.061423  1
  Nd  Nd9  1  0.059256  0.059256  0.440744  1
  Nd  Nd10  1  0.187217  0.809593  0.814820  1
  Nd  Nd11  1  0.809593  0.187217  0.188370  1
  Nd  Nd12  1  0.809593  0.187217  0.814820  1
  Nd  Nd13  1  0.187217  0.809593  0.188370  1
  Nd  Nd14  1  0.813794  0.813794  0.186206  1
  Nd  Nd15  1  0.189587  0.189587  0.810413  1
  Ni  Ni16  1  0.394656  0.823588  0.390879  1
  Ni  Ni17  1  0.823588  0.394656  0.390879  1
  Ag  Ag18  1  0.830617  0.830617  0.832651  1
  Ag  Ag19  1  0.830617  0.830617  0.506114  1
  Ag  Ag20  1  0.828928  0.509086  0.830993  1
  Ag  Ag21  1  0.509086  0.828928  0.830993  1
  Ru  Ru22  1  0.392726  0.392726  0.388666  1
  Ru  Ru23  1  0.392726  0.392726  0.825883  1
