# generated using pymatgen
data_Ba6Lu2ReO12
_symmetry_space_group_name_H-M   'P 1'
_cell_length_a   9.43016736
_cell_length_b   9.43016571
_cell_length_c   7.46456119
_cell_angle_alpha   67.65695465
_cell_angle_beta   67.65695936
_cell_angle_gamma   36.91974964
_symmetry_Int_Tables_number   1
_chemical_formula_structural   Ba6Lu2ReO12
_chemical_formula_sum   'Ba6 Lu2 Re1 O12'
_cell_volume   365.32322210
_cell_formula_units_Z   1
loop_
 _symmetry_equiv_pos_site_id
 _symmetry_equiv_pos_as_xyz
  1  'x, y, z'
loop_
 _atom_site_type_symbol
 _atom_site_label
 _atom_site_symmetry_multiplicity
 _atom_site_fract_x
 _atom_site_fract_y
 _atom_site_fract_z
 _atom_site_occupancy
  Ba  Ba0  1  0.876063  0.876063  0.712837  1
  Ba  Ba1  1  0.219611  0.219611  0.707031  1
  Ba  Ba2  1  0.548627  0.548627  0.703242  1
  Ba  Ba3  1  0.451373  0.451373  0.296758  1
  Ba  Ba4  1  0.780389  0.780389  0.292969  1
  Ba  Ba5  1  0.123937  0.123937  0.287163  1
  Lu  Lu6  1  0.665765  0.665765  0.998666  1
  Lu  Lu7  1  0.334235  0.334235  0.001334  1
  Re  Re8  1  0.000000  0.000000  0.000000  1
  O  O9  1  0.952344  0.952344  0.288427  1
  O  O10  1  0.282901  0.282901  0.325847  1
  O  O11  1  0.607150  0.607150  0.325587  1
  O  O12  1  0.392850  0.392850  0.674413  1
  O  O13  1  0.717099  0.717099  0.674153  1
  O  O14  1  0.047656  0.047656  0.711573  1
  O  O15  1  0.500000  0.000000  0.000000  1
  O  O16  1  0.843495  0.307966  0.001471  1
  O  O17  1  0.156505  0.692034  0.998529  1
  O  O18  1  0.000000  0.500000  0.000000  1
  O  O19  1  0.307966  0.843495  0.001471  1
  O  O20  1  0.692034  0.156505  0.998529  1
