# generated using pymatgen
data_Ce8Si12RuPt3
_symmetry_space_group_name_H-M   'P 1'
_cell_length_a   8.22781500
_cell_length_b   8.22781578
_cell_length_c   8.36566500
_cell_angle_alpha   90.00000000
_cell_angle_beta   90.00000000
_cell_angle_gamma   119.99999283
_symmetry_Int_Tables_number   1
_chemical_formula_structural   Ce8Si12RuPt3
_chemical_formula_sum   'Ce8 Si12 Ru1 Pt3'
_cell_volume   490.45617871
_cell_formula_units_Z   1
loop_
 _symmetry_equiv_pos_site_id
 _symmetry_equiv_pos_as_xyz
  1  'x, y, z'
loop_
 _atom_site_type_symbol
 _atom_site_label
 _atom_site_symmetry_multiplicity
 _atom_site_fract_x
 _atom_site_fract_y
 _atom_site_fract_z
 _atom_site_occupancy
  Ce  Ce0  1  0.000000  0.000000  0.249822  1
  Ce  Ce1  1  0.000000  0.000000  0.749605  1
  Ce  Ce2  1  0.497013  0.502987  0.255714  1
  Ce  Ce3  1  0.497013  0.994025  0.255714  1
  Ce  Ce4  1  0.005975  0.502987  0.255714  1
  Ce  Ce5  1  0.497119  0.502881  0.744880  1
  Ce  Ce6  1  0.497119  0.994237  0.744880  1
  Ce  Ce7  1  0.005763  0.502881  0.744880  1
  Si  Si8  1  0.165692  0.834308  0.502457  1
  Si  Si9  1  0.165692  0.331385  0.502457  1
  Si  Si10  1  0.668615  0.834308  0.502457  1
  Si  Si11  1  0.836095  0.163905  0.499632  1
  Si  Si12  1  0.836095  0.672189  0.499632  1
  Si  Si13  1  0.327811  0.163905  0.499632  1
  Si  Si14  1  0.834700  0.165300  0.000242  1
  Si  Si15  1  0.834700  0.669399  0.000242  1
  Si  Si16  1  0.330601  0.165300  0.000242  1
  Si  Si17  1  0.164493  0.835507  0.997461  1
  Si  Si18  1  0.164493  0.328988  0.997461  1
  Si  Si19  1  0.671012  0.835507  0.997461  1
  Ru  Ru20  1  0.333333  0.666667  0.497613  1
  Pt  Pt21  1  0.666667  0.333333  0.502490  1
  Pt  Pt22  1  0.666667  0.333333  0.998554  1
  Pt  Pt23  1  0.333333  0.666667  0.000760  1
