# generated using pymatgen
data_RbZrPSe5
_symmetry_space_group_name_H-M   'P 1'
_cell_length_a   10.62307304
_cell_length_b   10.62307344
_cell_length_c   16.88588519
_cell_angle_alpha   60.07536500
_cell_angle_beta   60.07536474
_cell_angle_gamma   43.18681444
_symmetry_Int_Tables_number   1
_chemical_formula_structural   RbZrPSe5
_chemical_formula_sum   'Rb4 Zr4 P4 Se20'
_cell_volume   1100.54493125
_cell_formula_units_Z   4
loop_
 _symmetry_equiv_pos_site_id
 _symmetry_equiv_pos_as_xyz
  1  'x, y, z'
loop_
 _atom_site_type_symbol
 _atom_site_label
 _atom_site_symmetry_multiplicity
 _atom_site_fract_x
 _atom_site_fract_y
 _atom_site_fract_z
 _atom_site_occupancy
  Rb  Rb0  1  0.665775  0.665775  0.133288  1
  Rb  Rb1  1  0.711435  0.711435  0.634427  1
  Rb  Rb2  1  0.288565  0.288565  0.365573  1
  Rb  Rb3  1  0.334225  0.334225  0.866712  1
  Zr  Zr4  1  0.729059  0.270941  0.000000  1
  Zr  Zr5  1  0.270941  0.729059  0.000000  1
  Zr  Zr6  1  0.774025  0.225975  0.500000  1
  Zr  Zr7  1  0.225975  0.774025  0.500000  1
  P  P8  1  0.327335  0.327335  0.598008  1
  P  P9  1  0.081228  0.081228  0.101293  1
  P  P10  1  0.918772  0.918772  0.898707  1
  P  P11  1  0.672665  0.672665  0.401992  1
  Se  Se12  1  0.182750  0.182750  0.115680  1
  Se  Se13  1  0.582457  0.121534  0.658772  1
  Se  Se14  1  0.121534  0.582457  0.658772  1
  Se  Se15  1  0.981477  0.981477  0.401634  1
  Se  Se16  1  0.435387  0.435387  0.446359  1
  Se  Se17  1  0.113378  0.113378  0.948985  1
  Se  Se18  1  0.769557  0.234582  0.158012  1
  Se  Se19  1  0.234582  0.769557  0.158012  1
  Se  Se20  1  0.607963  0.607963  0.897192  1
  Se  Se21  1  0.212290  0.212290  0.613483  1
  Se  Se22  1  0.787710  0.787710  0.386517  1
  Se  Se23  1  0.392037  0.392037  0.102808  1
  Se  Se24  1  0.230443  0.765418  0.841988  1
  Se  Se25  1  0.765418  0.230443  0.841988  1
  Se  Se26  1  0.886622  0.886622  0.051015  1
  Se  Se27  1  0.564613  0.564613  0.553641  1
  Se  Se28  1  0.018523  0.018523  0.598366  1
  Se  Se29  1  0.878466  0.417543  0.341228  1
  Se  Se30  1  0.417543  0.878466  0.341228  1
  Se  Se31  1  0.817250  0.817250  0.884320  1
