# generated using pymatgen
data_Er16Mg3Pd4Pb
_symmetry_space_group_name_H-M   'P 1'
_cell_length_a   9.68781989
_cell_length_b   9.70785963
_cell_length_c   9.70786100
_cell_angle_alpha   60.00000555
_cell_angle_beta   59.93155486
_cell_angle_gamma   59.93155383
_symmetry_Int_Tables_number   1
_chemical_formula_structural   Er16Mg3Pd4Pb
_chemical_formula_sum   'Er16 Mg3 Pd4 Pb1'
_cell_volume   644.92325354
_cell_formula_units_Z   1
loop_
 _symmetry_equiv_pos_site_id
 _symmetry_equiv_pos_as_xyz
  1  'x, y, z'
loop_
 _atom_site_type_symbol
 _atom_site_label
 _atom_site_symmetry_multiplicity
 _atom_site_fract_x
 _atom_site_fract_y
 _atom_site_fract_z
 _atom_site_occupancy
  Er  Er0  1  0.353144  0.350623  0.350623  1
  Er  Er1  1  0.353144  0.350623  0.945609  1
  Er  Er2  1  0.353144  0.945609  0.350623  1
  Er  Er3  1  0.946250  0.351249  0.351249  1
  Er  Er4  1  0.813432  0.186991  0.186991  1
  Er  Er5  1  0.189018  0.812303  0.812303  1
  Er  Er6  1  0.189018  0.812303  0.186374  1
  Er  Er7  1  0.813432  0.186991  0.812587  1
  Er  Er8  1  0.189018  0.186374  0.812303  1
  Er  Er9  1  0.813432  0.812587  0.186991  1
  Er  Er10  1  0.931334  0.566333  0.566333  1
  Er  Er11  1  0.566633  0.933237  0.933237  1
  Er  Er12  1  0.566633  0.933237  0.566892  1
  Er  Er13  1  0.931334  0.566333  0.936002  1
  Er  Er14  1  0.566633  0.566892  0.933237  1
  Er  Er15  1  0.931334  0.936002  0.566333  1
  Mg  Mg16  1  0.580583  0.581050  0.581050  1
  Mg  Mg17  1  0.580583  0.581050  0.257316  1
  Mg  Mg18  1  0.580583  0.257316  0.581050  1
  Pd  Pd19  1  0.143840  0.144318  0.144318  1
  Pd  Pd20  1  0.143840  0.144318  0.567522  1
  Pd  Pd21  1  0.143840  0.567522  0.144318  1
  Pd  Pd22  1  0.567454  0.144182  0.144182  1
  Pb  Pb23  1  0.252338  0.582553  0.582553  1
