# generated using pymatgen
data_Nb3Re3GeB2
_symmetry_space_group_name_H-M   'P 1'
_cell_length_a   6.70391100
_cell_length_b   6.70391192
_cell_length_c   3.18028300
_cell_angle_alpha   90.00000000
_cell_angle_beta   90.00000000
_cell_angle_gamma   120.00000041
_symmetry_Int_Tables_number   1
_chemical_formula_structural   Nb3Re3GeB2
_chemical_formula_sum   'Nb3 Re3 Ge1 B2'
_cell_volume   123.78070077
_cell_formula_units_Z   1
loop_
 _symmetry_equiv_pos_site_id
 _symmetry_equiv_pos_as_xyz
  1  'x, y, z'
loop_
 _atom_site_type_symbol
 _atom_site_label
 _atom_site_symmetry_multiplicity
 _atom_site_fract_x
 _atom_site_fract_y
 _atom_site_fract_z
 _atom_site_occupancy
  Nb  Nb0  1  0.385747  0.969136  0.500000  1
  Nb  Nb1  1  0.030864  0.416610  0.500000  1
  Nb  Nb2  1  0.583390  0.614253  0.500000  1
  Re  Re3  1  0.751415  0.993946  0.000000  1
  Re  Re4  1  0.006054  0.757469  0.000000  1
  Re  Re5  1  0.242531  0.248585  0.000000  1
  Ge  Ge6  1  0.666667  0.333333  0.000000  1
  B  B7  1  0.333333  0.666667  0.000000  1
  B  B8  1  0.000000  0.000000  0.500000  1
