# generated using pymatgen
data_Ho4Er12In6FeCo
_symmetry_space_group_name_H-M   'P 1'
_cell_length_a   10.27548500
_cell_length_b   10.27024609
_cell_length_c   6.95218802
_cell_angle_alpha   90.00741910
_cell_angle_beta   90.00000000
_cell_angle_gamma   120.01686593
_symmetry_Int_Tables_number   1
_chemical_formula_structural   Ho4Er12In6FeCo
_chemical_formula_sum   'Ho4 Er12 In6 Fe1 Co1'
_cell_volume   635.27458468
_cell_formula_units_Z   1
loop_
 _symmetry_equiv_pos_site_id
 _symmetry_equiv_pos_as_xyz
  1  'x, y, z'
loop_
 _atom_site_type_symbol
 _atom_site_label
 _atom_site_symmetry_multiplicity
 _atom_site_fract_x
 _atom_site_fract_y
 _atom_site_fract_z
 _atom_site_occupancy
  Ho  Ho0  1  0.535027  0.070053  0.791710  1
  Ho  Ho1  1  0.930151  0.465053  0.791871  1
  Ho  Ho2  1  0.534903  0.465053  0.791871  1
  Ho  Ho3  1  0.465805  0.931611  0.291985  1
  Er  Er4  1  0.068231  0.534122  0.292241  1
  Er  Er5  1  0.465890  0.534122  0.292241  1
  Er  Er6  1  0.821334  0.642667  0.498657  1
  Er  Er7  1  0.357229  0.178701  0.498897  1
  Er  Er8  1  0.821472  0.178701  0.498897  1
  Er  Er9  1  0.178650  0.357300  0.998264  1
  Er  Er10  1  0.642877  0.821398  0.998272  1
  Er  Er11  1  0.178520  0.821398  0.998272  1
  Er  Er12  1  0.666724  0.333447  0.179864  1
  Er  Er13  1  0.333276  0.666553  0.680855  1
  Er  Er14  1  0.999983  0.999967  0.779269  1
  Er  Er15  1  0.000061  0.000122  0.278854  1
  In  In16  1  0.837555  0.675111  0.039286  1
  In  In17  1  0.324922  0.162449  0.039217  1
  In  In18  1  0.837526  0.162449  0.039217  1
  In  In19  1  0.163048  0.326096  0.539292  1
  In  In20  1  0.674018  0.836955  0.539315  1
  In  In21  1  0.162938  0.836955  0.539315  1
  Fe  Fe22  1  0.666621  0.333242  0.569422  1
  Co  Co23  1  0.333237  0.666475  0.068821  1
