# generated using pymatgen
data_Sc2Ta3Ni9P7
_symmetry_space_group_name_H-M   'P 1'
_cell_length_a   9.25159500
_cell_length_b   9.25159549
_cell_length_c   3.63556800
_cell_angle_alpha   90.00000000
_cell_angle_beta   90.00000000
_cell_angle_gamma   120.00000896
_symmetry_Int_Tables_number   1
_chemical_formula_structural   Sc2Ta3Ni9P7
_chemical_formula_sum   'Sc2 Ta3 Ni9 P7'
_cell_volume   269.48594112
_cell_formula_units_Z   1
loop_
 _symmetry_equiv_pos_site_id
 _symmetry_equiv_pos_as_xyz
  1  'x, y, z'
loop_
 _atom_site_type_symbol
 _atom_site_label
 _atom_site_symmetry_multiplicity
 _atom_site_fract_x
 _atom_site_fract_y
 _atom_site_fract_z
 _atom_site_occupancy
  Sc  Sc0  1  0.333333  0.666667  0.000000  1
  Sc  Sc1  1  0.666667  0.333333  0.500000  1
  Ta  Ta2  1  0.877022  0.772316  0.500000  1
  Ta  Ta3  1  0.895294  0.122978  0.500000  1
  Ta  Ta4  1  0.227684  0.104706  0.500000  1
  Ni  Ni5  1  0.712543  0.871609  0.000000  1
  Ni  Ni6  1  0.159065  0.287457  0.000000  1
  Ni  Ni7  1  0.128391  0.840935  0.000000  1
  Ni  Ni8  1  0.629083  0.563995  0.000000  1
  Ni  Ni9  1  0.934913  0.370917  0.000000  1
  Ni  Ni10  1  0.436005  0.065087  0.000000  1
  Ni  Ni11  1  0.553424  0.938676  0.500000  1
  Ni  Ni12  1  0.385251  0.446576  0.500000  1
  Ni  Ni13  1  0.061324  0.614749  0.500000  1
  P  P14  1  0.582811  0.708959  0.500000  1
  P  P15  1  0.126148  0.417189  0.500000  1
  P  P16  1  0.291041  0.873852  0.500000  1
  P  P17  1  0.000000  0.000000  0.000000  1
  P  P18  1  0.881508  0.578627  0.000000  1
  P  P19  1  0.697119  0.118492  0.000000  1
  P  P20  1  0.421373  0.302881  0.000000  1
