# generated using pymatgen
data_HoEr5PdRh
_symmetry_space_group_name_H-M   'P 1'
_cell_length_a   6.36330000
_cell_length_b   7.07214600
_cell_length_c   9.42293200
_cell_angle_alpha   90.00000000
_cell_angle_beta   90.00000000
_cell_angle_gamma   90.00000000
_symmetry_Int_Tables_number   1
_chemical_formula_structural   HoEr5PdRh
_chemical_formula_sum   'Ho2 Er10 Pd2 Rh2'
_cell_volume   424.05254458
_cell_formula_units_Z   2
loop_
 _symmetry_equiv_pos_site_id
 _symmetry_equiv_pos_as_xyz
  1  'x, y, z'
loop_
 _atom_site_type_symbol
 _atom_site_label
 _atom_site_symmetry_multiplicity
 _atom_site_fract_x
 _atom_site_fract_y
 _atom_site_fract_z
 _atom_site_occupancy
  Ho  Ho0  1  0.862169  0.974242  0.750000  1
  Ho  Ho1  1  0.362169  0.525758  0.250000  1
  Er  Er2  1  0.675669  0.185012  0.060095  1
  Er  Er3  1  0.175669  0.314988  0.939905  1
  Er  Er4  1  0.829251  0.677178  0.438039  1
  Er  Er5  1  0.329251  0.822822  0.561961  1
  Er  Er6  1  0.329251  0.822822  0.938039  1
  Er  Er7  1  0.829251  0.677178  0.061961  1
  Er  Er8  1  0.175669  0.314988  0.560095  1
  Er  Er9  1  0.675669  0.185012  0.439905  1
  Er  Er10  1  0.627492  0.466239  0.750000  1
  Er  Er11  1  0.127492  0.033761  0.250000  1
  Pd  Pd12  1  0.053925  0.611396  0.750000  1
  Pd  Pd13  1  0.553925  0.888604  0.250000  1
  Rh  Rh14  1  0.446573  0.114317  0.750000  1
  Rh  Rh15  1  0.946573  0.385683  0.250000  1
