# generated using pymatgen
data_TbY(In2Rh)2
_symmetry_space_group_name_H-M   'P 1'
_cell_length_a   5.50052763
_cell_length_b   5.50052906
_cell_length_c   8.15192600
_cell_angle_alpha   90.00000000
_cell_angle_beta   90.00000000
_cell_angle_gamma   134.02518953
_symmetry_Int_Tables_number   1
_chemical_formula_structural   TbY(In2Rh)2
_chemical_formula_sum   'Tb1 Y1 In4 Rh2'
_cell_volume   177.34488575
_cell_formula_units_Z   1
loop_
 _symmetry_equiv_pos_site_id
 _symmetry_equiv_pos_as_xyz
  1  'x, y, z'
loop_
 _atom_site_type_symbol
 _atom_site_label
 _atom_site_symmetry_multiplicity
 _atom_site_fract_x
 _atom_site_fract_y
 _atom_site_fract_z
 _atom_site_occupancy
  Tb  Tb0  1  0.067775  0.932225  0.250000  1
  Y  Y1  1  0.932458  0.067542  0.750000  1
  In  In2  1  0.643708  0.356292  0.550551  1
  In  In3  1  0.356226  0.643774  0.450586  1
  In  In4  1  0.643708  0.356292  0.949449  1
  In  In5  1  0.356226  0.643774  0.049414  1
  Rh  Rh6  1  0.221355  0.778645  0.750000  1
  Rh  Rh7  1  0.778544  0.221456  0.250000  1
