# generated using pymatgen
data_TbPr2Y(Zn5Ge)2
_symmetry_space_group_name_H-M   'P 1'
_cell_length_a   8.33101075
_cell_length_b   8.33101030
_cell_length_c   8.84775900
_cell_angle_alpha   90.00000000
_cell_angle_beta   90.00000000
_cell_angle_gamma   149.53392224
_symmetry_Int_Tables_number   1
_chemical_formula_structural   TbPr2Y(Zn5Ge)2
_chemical_formula_sum   'Tb1 Pr2 Y1 Zn10 Ge2'
_cell_volume   311.35849274
_cell_formula_units_Z   1
loop_
 _symmetry_equiv_pos_site_id
 _symmetry_equiv_pos_as_xyz
  1  'x, y, z'
loop_
 _atom_site_type_symbol
 _atom_site_label
 _atom_site_symmetry_multiplicity
 _atom_site_fract_x
 _atom_site_fract_y
 _atom_site_fract_z
 _atom_site_occupancy
  Tb  Tb0  1  0.201880  0.798120  0.250000  1
  Pr  Pr1  1  0.999965  0.000035  0.500153  1
  Pr  Pr2  1  0.999965  0.000035  0.999847  1
  Y  Y3  1  0.798341  0.201659  0.750000  1
  Zn  Zn4  1  0.812411  0.187589  0.392194  1
  Zn  Zn5  1  0.187487  0.812513  0.607890  1
  Zn  Zn6  1  0.812411  0.187589  0.107806  1
  Zn  Zn7  1  0.187487  0.812513  0.892110  1
  Zn  Zn8  1  0.653448  0.346552  0.476935  1
  Zn  Zn9  1  0.346595  0.653405  0.522982  1
  Zn  Zn10  1  0.653448  0.346552  0.023065  1
  Zn  Zn11  1  0.346595  0.653405  0.977018  1
  Zn  Zn12  1  0.400428  0.599572  0.250000  1
  Zn  Zn13  1  0.599621  0.400379  0.750000  1
  Ge  Ge14  1  0.557189  0.442811  0.250000  1
  Ge  Ge15  1  0.442730  0.557270  0.750000  1
