# generated using pymatgen
data_Dy4Y12MgHg3PdPt3
_symmetry_space_group_name_H-M   'P 1'
_cell_length_a   9.70523324
_cell_length_b   9.70724419
_cell_length_c   9.70724500
_cell_angle_alpha   60.00000064
_cell_angle_beta   59.99314621
_cell_angle_gamma   59.99313002
_symmetry_Int_Tables_number   1
_chemical_formula_structural   Dy4Y12MgHg3PdPt3
_chemical_formula_sum   'Dy4 Y12 Mg1 Hg3 Pd1 Pt3'
_cell_volume   646.60323782
_cell_formula_units_Z   1
loop_
 _symmetry_equiv_pos_site_id
 _symmetry_equiv_pos_as_xyz
  1  'x, y, z'
loop_
 _atom_site_type_symbol
 _atom_site_label
 _atom_site_symmetry_multiplicity
 _atom_site_fract_x
 _atom_site_fract_y
 _atom_site_fract_z
 _atom_site_occupancy
  Dy  Dy0  1  0.603736  0.601283  0.601283  1
  Dy  Dy1  1  0.604402  0.602038  0.193157  1
  Dy  Dy2  1  0.604402  0.193157  0.602038  1
  Dy  Dy3  1  0.183519  0.606065  0.606065  1
  Y  Y4  1  0.057340  0.440940  0.440940  1
  Y  Y5  1  0.437036  0.061928  0.061928  1
  Y  Y6  1  0.436849  0.060670  0.439364  1
  Y  Y7  1  0.058516  0.441048  0.059669  1
  Y  Y8  1  0.436849  0.439364  0.060670  1
  Y  Y9  1  0.058516  0.059669  0.441048  1
  Y  Y10  1  0.183597  0.815177  0.815177  1
  Y  Y11  1  0.814318  0.185477  0.185477  1
  Y  Y12  1  0.813388  0.185984  0.814673  1
  Y  Y13  1  0.183119  0.816107  0.185521  1
  Y  Y14  1  0.813388  0.814673  0.185984  1
  Y  Y15  1  0.183119  0.185521  0.816107  1
  Mg  Mg16  1  0.532024  0.822659  0.822659  1
  Hg  Hg17  1  0.833600  0.838565  0.838565  1
  Hg  Hg18  1  0.833609  0.838533  0.489332  1
  Hg  Hg19  1  0.833609  0.489332  0.838533  1
  Pd  Pd20  1  0.392563  0.395607  0.395607  1
  Pt  Pt21  1  0.392124  0.395268  0.817098  1
  Pt  Pt22  1  0.392124  0.817098  0.395268  1
  Pt  Pt23  1  0.818260  0.393840  0.393840  1
