# generated using pymatgen
data_HoEr7Ga3Ir
_symmetry_space_group_name_H-M   'P 1'
_cell_length_a   9.98440100
_cell_length_b   9.98440133
_cell_length_c   6.97059800
_cell_angle_alpha   90.00000000
_cell_angle_beta   90.00000000
_cell_angle_gamma   120.00000222
_symmetry_Int_Tables_number   1
_chemical_formula_structural   HoEr7Ga3Ir
_chemical_formula_sum   'Ho2 Er14 Ga6 Ir2'
_cell_volume   601.78963577
_cell_formula_units_Z   2
loop_
 _symmetry_equiv_pos_site_id
 _symmetry_equiv_pos_as_xyz
  1  'x, y, z'
loop_
 _atom_site_type_symbol
 _atom_site_label
 _atom_site_symmetry_multiplicity
 _atom_site_fract_x
 _atom_site_fract_y
 _atom_site_fract_z
 _atom_site_occupancy
  Ho  Ho0  1  0.000000  0.000000  0.268012  1
  Ho  Ho1  1  0.000000  0.000000  0.768012  1
  Er  Er2  1  0.171360  0.828640  0.990751  1
  Er  Er3  1  0.828640  0.171360  0.490751  1
  Er  Er4  1  0.171360  0.342718  0.990751  1
  Er  Er5  1  0.657282  0.828640  0.990751  1
  Er  Er6  1  0.342718  0.171360  0.490751  1
  Er  Er7  1  0.828640  0.657282  0.490751  1
  Er  Er8  1  0.333333  0.666667  0.663907  1
  Er  Er9  1  0.666667  0.333333  0.163907  1
  Er  Er10  1  0.465526  0.534474  0.295319  1
  Er  Er11  1  0.534474  0.465526  0.795319  1
  Er  Er12  1  0.465526  0.931052  0.295319  1
  Er  Er13  1  0.068948  0.534474  0.295319  1
  Er  Er14  1  0.931052  0.465526  0.795319  1
  Er  Er15  1  0.534474  0.068948  0.795319  1
  Ga  Ga16  1  0.163521  0.836479  0.541767  1
  Ga  Ga17  1  0.836479  0.163521  0.041767  1
  Ga  Ga18  1  0.163521  0.327041  0.541767  1
  Ga  Ga19  1  0.672959  0.836479  0.541767  1
  Ga  Ga20  1  0.327041  0.163521  0.041767  1
  Ga  Ga21  1  0.836479  0.672959  0.041767  1
  Ir  Ir22  1  0.333333  0.666667  0.057631  1
  Ir  Ir23  1  0.666667  0.333333  0.557631  1
