# generated using pymatgen
data_Na6Sr2Re3MoN12
_symmetry_space_group_name_H-M   'P 1'
_cell_length_a   6.26001297
_cell_length_b   6.25593444
_cell_length_c   12.31677135
_cell_angle_alpha   89.49204915
_cell_angle_beta   89.52556354
_cell_angle_gamma   123.08129400
_symmetry_Int_Tables_number   1
_chemical_formula_structural   Na6Sr2Re3MoN12
_chemical_formula_sum   'Na6 Sr2 Re3 Mo1 N12'
_cell_volume   404.09605031
_cell_formula_units_Z   1
loop_
 _symmetry_equiv_pos_site_id
 _symmetry_equiv_pos_as_xyz
  1  'x, y, z'
loop_
 _atom_site_type_symbol
 _atom_site_label
 _atom_site_symmetry_multiplicity
 _atom_site_fract_x
 _atom_site_fract_y
 _atom_site_fract_z
 _atom_site_occupancy
  Na  Na0  1  0.941753  0.541708  0.365126  1
  Na  Na1  1  0.462079  0.059173  0.131172  1
  Na  Na2  1  0.070136  0.457093  0.622772  1
  Na  Na3  1  0.542218  0.928803  0.878744  1
  Na  Na4  1  0.100133  0.338964  0.086724  1
  Na  Na5  1  0.660996  0.898847  0.412844  1
  Sr  Sr6  1  0.877392  0.648272  0.923547  1
  Sr  Sr7  1  0.350983  0.120757  0.578092  1
  Re  Re8  1  0.264779  0.258362  0.335353  1
  Re  Re9  1  0.247915  0.265484  0.839124  1
  Re  Re10  1  0.735129  0.752062  0.659188  1
  Mo  Mo11  1  0.741908  0.732390  0.165836  1
  N  N12  1  0.426128  0.564426  0.254127  1
  N  N13  1  0.548287  0.451731  0.749129  1
  N  N14  1  0.843581  0.525197  0.125363  1
  N  N15  1  0.474888  0.160330  0.374512  1
  N  N16  1  0.146224  0.466607  0.883171  1
  N  N17  1  0.534552  0.853961  0.614154  1
  N  N18  1  0.877580  0.679713  0.549914  1
  N  N19  1  0.319962  0.124051  0.948961  1
  N  N20  1  0.134625  0.298687  0.458246  1
  N  N21  1  0.699280  0.861942  0.042516  1
  N  N22  1  0.001419  0.008392  0.252615  1
  N  N23  1  0.998054  0.003048  0.748769  1
