# generated using pymatgen
data_Nb2B(RuRh)3
_symmetry_space_group_name_H-M   'P 1'
_cell_length_a   5.64378373
_cell_length_b   5.64378451
_cell_length_c   5.63576585
_cell_angle_alpha   59.95293694
_cell_angle_beta   59.95293327
_cell_angle_gamma   60.00000352
_symmetry_Int_Tables_number   1
_chemical_formula_structural   Nb2B(RuRh)3
_chemical_formula_sum   'Nb2 B1 Ru3 Rh3'
_cell_volume   126.84385239
_cell_formula_units_Z   1
loop_
 _symmetry_equiv_pos_site_id
 _symmetry_equiv_pos_as_xyz
  1  'x, y, z'
loop_
 _atom_site_type_symbol
 _atom_site_label
 _atom_site_symmetry_multiplicity
 _atom_site_fract_x
 _atom_site_fract_y
 _atom_site_fract_z
 _atom_site_occupancy
  Nb  Nb0  1  0.250134  0.250134  0.249597  1
  Nb  Nb1  1  0.750268  0.750268  0.749196  1
  B  B2  1  0.499094  0.499094  0.502718  1
  Ru  Ru3  1  0.241574  0.241574  0.758356  1
  Ru  Ru4  1  0.758496  0.241574  0.758356  1
  Ru  Ru5  1  0.241574  0.758496  0.758356  1
  Rh  Rh6  1  0.758529  0.241803  0.241140  1
  Rh  Rh7  1  0.241803  0.758529  0.241140  1
  Rh  Rh8  1  0.758529  0.758529  0.241140  1
