# generated using pymatgen
data_PrNp(CoAs)4
_symmetry_space_group_name_H-M   'P 1'
_cell_length_a   4.15692800
_cell_length_b   4.15692800
_cell_length_c   9.26701400
_cell_angle_alpha   90.00000000
_cell_angle_beta   90.00000000
_cell_angle_gamma   90.00000000
_symmetry_Int_Tables_number   1
_chemical_formula_structural   PrNp(CoAs)4
_chemical_formula_sum   'Pr1 Np1 Co4 As4'
_cell_volume   160.13446895
_cell_formula_units_Z   1
loop_
 _symmetry_equiv_pos_site_id
 _symmetry_equiv_pos_as_xyz
  1  'x, y, z'
loop_
 _atom_site_type_symbol
 _atom_site_label
 _atom_site_symmetry_multiplicity
 _atom_site_fract_x
 _atom_site_fract_y
 _atom_site_fract_z
 _atom_site_occupancy
  Pr  Pr0  1  0.499999  0.000000  0.748931  1
  Np  Np1  1  0.000000  0.499999  0.255185  1
  Co  Co2  1  0.499999  0.000000  0.117695  1
  Co  Co3  1  0.000000  0.000000  0.491138  1
  Co  Co4  1  0.499999  0.499999  0.491138  1
  Co  Co5  1  0.000000  0.499999  0.888736  1
  As  As6  1  0.000000  0.000000  0.005767  1
  As  As7  1  0.499999  0.499999  0.005767  1
  As  As8  1  0.499999  0.000000  0.364901  1
  As  As9  1  0.000000  0.499999  0.630741  1
