# generated using pymatgen
data_K3Hg4Pd3
_symmetry_space_group_name_H-M   'P 1'
_cell_length_a   7.37281745
_cell_length_b   7.37281772
_cell_length_c   7.48031400
_cell_angle_alpha   90.00000000
_cell_angle_beta   90.00000000
_cell_angle_gamma   134.70108063
_symmetry_Int_Tables_number   1
_chemical_formula_structural   K3Hg4Pd3
_chemical_formula_sum   'K3 Hg4 Pd3'
_cell_volume   289.01860355
_cell_formula_units_Z   1
loop_
 _symmetry_equiv_pos_site_id
 _symmetry_equiv_pos_as_xyz
  1  'x, y, z'
loop_
 _atom_site_type_symbol
 _atom_site_label
 _atom_site_symmetry_multiplicity
 _atom_site_fract_x
 _atom_site_fract_y
 _atom_site_fract_z
 _atom_site_occupancy
  K  K0  1  0.000000  0.000000  0.000000  1
  K  K1  1  0.850383  0.149617  0.500000  1
  K  K2  1  0.149617  0.850383  0.500000  1
  Hg  Hg3  1  0.624797  0.375203  0.220318  1
  Hg  Hg4  1  0.375203  0.624797  0.220318  1
  Hg  Hg5  1  0.624797  0.375203  0.779681  1
  Hg  Hg6  1  0.375203  0.624797  0.779681  1
  Pd  Pd7  1  0.500000  0.000000  0.000000  1
  Pd  Pd8  1  0.000000  0.500000  0.000000  1
  Pd  Pd9  1  0.500000  0.500000  0.500000  1
