# generated using pymatgen
data_ZrScSi4Ni3(PRu3)3
_symmetry_space_group_name_H-M   'P 1'
_cell_length_a   9.39503700
_cell_length_b   9.39503613
_cell_length_c   3.78197800
_cell_angle_alpha   90.00000000
_cell_angle_beta   90.00000000
_cell_angle_gamma   119.99999953
_symmetry_Int_Tables_number   1
_chemical_formula_structural   ZrScSi4Ni3(PRu3)3
_chemical_formula_sum   'Zr1 Sc1 Si4 Ni3 P3 Ru9'
_cell_volume   289.09899473
_cell_formula_units_Z   1
loop_
 _symmetry_equiv_pos_site_id
 _symmetry_equiv_pos_as_xyz
  1  'x, y, z'
loop_
 _atom_site_type_symbol
 _atom_site_label
 _atom_site_symmetry_multiplicity
 _atom_site_fract_x
 _atom_site_fract_y
 _atom_site_fract_z
 _atom_site_occupancy
  Zr  Zr0  1  0.333333  0.666667  0.000000  1
  Sc  Sc1  1  0.666667  0.333333  0.500000  1
  Si  Si2  1  0.597397  0.712197  0.500000  1
  Si  Si3  1  0.000000  0.000000  0.000000  1
  Si  Si4  1  0.287803  0.885200  0.500000  1
  Si  Si5  1  0.114800  0.402603  0.500000  1
  Ni  Ni6  1  0.721056  0.882217  0.000000  1
  Ni  Ni7  1  0.117783  0.838837  0.000000  1
  Ni  Ni8  1  0.161163  0.278944  0.000000  1
  P  P9  1  0.886967  0.586137  0.000000  1
  P  P10  1  0.413863  0.300831  0.000000  1
  P  P11  1  0.699169  0.113033  0.000000  1
  Ru  Ru12  1  0.566911  0.950594  0.500000  1
  Ru  Ru13  1  0.383684  0.433089  0.500000  1
  Ru  Ru14  1  0.908876  0.116035  0.500000  1
  Ru  Ru15  1  0.207159  0.091124  0.500000  1
  Ru  Ru16  1  0.883965  0.792841  0.500000  1
  Ru  Ru17  1  0.431455  0.068545  0.000000  1
  Ru  Ru18  1  0.931455  0.362911  0.000000  1
  Ru  Ru19  1  0.637089  0.568545  0.000000  1
  Ru  Ru20  1  0.049406  0.616316  0.500000  1
