# generated using pymatgen
data_DyHo2Si3Os2
_symmetry_space_group_name_H-M   'P 1'
_cell_length_a   5.75539070
_cell_length_b   5.75538987
_cell_length_c   13.66959925
_cell_angle_alpha   89.93880615
_cell_angle_beta   90.06119509
_cell_angle_gamma   137.31045950
_symmetry_Int_Tables_number   1
_chemical_formula_structural   DyHo2Si3Os2
_chemical_formula_sum   'Dy2 Ho4 Si6 Os4'
_cell_volume   307.00898239
_cell_formula_units_Z   2
loop_
 _symmetry_equiv_pos_site_id
 _symmetry_equiv_pos_as_xyz
  1  'x, y, z'
loop_
 _atom_site_type_symbol
 _atom_site_label
 _atom_site_symmetry_multiplicity
 _atom_site_fract_x
 _atom_site_fract_y
 _atom_site_fract_z
 _atom_site_occupancy
  Dy  Dy0  1  0.924500  0.075500  0.116150  1
  Dy  Dy1  1  0.075500  0.924500  0.883850  1
  Ho  Ho2  1  0.641572  0.358428  0.250194  1
  Ho  Ho3  1  0.358428  0.641572  0.749806  1
  Ho  Ho4  1  0.075844  0.924156  0.615579  1
  Ho  Ho5  1  0.924156  0.075844  0.384421  1
  Si  Si6  1  0.325195  0.674805  0.250348  1
  Si  Si7  1  0.674805  0.325195  0.749652  1
  Si  Si8  1  0.617490  0.382510  0.037888  1
  Si  Si9  1  0.382510  0.617490  0.962112  1
  Si  Si10  1  0.382970  0.617030  0.537687  1
  Si  Si11  1  0.617030  0.382970  0.462313  1
  Os  Os12  1  0.786988  0.213012  0.581740  1
  Os  Os13  1  0.213012  0.786988  0.418260  1
  Os  Os14  1  0.213540  0.786460  0.081826  1
  Os  Os15  1  0.786460  0.213540  0.918174  1
