# generated using pymatgen
data_Ho9ScPt18
_symmetry_space_group_name_H-M   'P 1'
_cell_length_a   9.74398100
_cell_length_b   9.74398104
_cell_length_c   5.76164200
_cell_angle_alpha   90.00000000
_cell_angle_beta   90.00000000
_cell_angle_gamma   90.30608523
_symmetry_Int_Tables_number   1
_chemical_formula_structural   Ho9ScPt18
_chemical_formula_sum   'Ho9 Sc1 Pt18'
_cell_volume   547.03225091
_cell_formula_units_Z   1
loop_
 _symmetry_equiv_pos_site_id
 _symmetry_equiv_pos_as_xyz
  1  'x, y, z'
loop_
 _atom_site_type_symbol
 _atom_site_label
 _atom_site_symmetry_multiplicity
 _atom_site_fract_x
 _atom_site_fract_y
 _atom_site_fract_z
 _atom_site_occupancy
  Ho  Ho0  1  0.452815  0.808426  0.000000  1
  Ho  Ho1  1  0.547185  0.191574  0.000000  1
  Ho  Ho2  1  0.191574  0.547185  0.000000  1
  Ho  Ho3  1  0.808426  0.452815  0.000000  1
  Ho  Ho4  1  0.309511  0.047263  0.500000  1
  Ho  Ho5  1  0.690489  0.952737  0.500000  1
  Ho  Ho6  1  0.952737  0.690489  0.500000  1
  Ho  Ho7  1  0.047263  0.309511  0.500000  1
  Ho  Ho8  1  0.000000  0.000000  0.000000  1
  Sc  Sc9  1  0.500000  0.500000  0.500000  1
  Pt  Pt10  1  0.192376  0.807624  0.251183  1
  Pt  Pt11  1  0.807624  0.192376  0.748817  1
  Pt  Pt12  1  0.807624  0.192376  0.251183  1
  Pt  Pt13  1  0.192376  0.807624  0.748817  1
  Pt  Pt14  1  0.441250  0.774596  0.500000  1
  Pt  Pt15  1  0.558750  0.225404  0.500000  1
  Pt  Pt16  1  0.225404  0.558750  0.500000  1
  Pt  Pt17  1  0.774596  0.441250  0.500000  1
  Pt  Pt18  1  0.310870  0.310870  0.250642  1
  Pt  Pt19  1  0.689130  0.689130  0.749358  1
  Pt  Pt20  1  0.689130  0.689130  0.250642  1
  Pt  Pt21  1  0.310870  0.310870  0.749358  1
  Pt  Pt22  1  0.281952  0.060421  0.000000  1
  Pt  Pt23  1  0.718048  0.939579  0.000000  1
  Pt  Pt24  1  0.939579  0.718048  0.000000  1
  Pt  Pt25  1  0.060421  0.281952  0.000000  1
  Pt  Pt26  1  0.000000  0.000000  0.500000  1
  Pt  Pt27  1  0.500000  0.500000  0.000000  1
