# generated using pymatgen
data_Ho10Er2Zn(InFe)2
_symmetry_space_group_name_H-M   'P 1'
_cell_length_a   8.36210172
_cell_length_b   8.36524066
_cell_length_c   8.36210054
_cell_angle_alpha   109.83667018
_cell_angle_beta   109.77071608
_cell_angle_gamma   108.79327725
_symmetry_Int_Tables_number   1
_chemical_formula_structural   Ho10Er2Zn(InFe)2
_chemical_formula_sum   'Ho10 Er2 Zn1 In2 Fe2'
_cell_volume   450.32208270
_cell_formula_units_Z   1
loop_
 _symmetry_equiv_pos_site_id
 _symmetry_equiv_pos_as_xyz
  1  'x, y, z'
loop_
 _atom_site_type_symbol
 _atom_site_label
 _atom_site_symmetry_multiplicity
 _atom_site_fract_x
 _atom_site_fract_y
 _atom_site_fract_z
 _atom_site_occupancy
  Ho  Ho0  1  0.305332  0.305244  0.610180  1
  Ho  Ho1  1  0.694668  0.694756  0.389820  1
  Ho  Ho2  1  0.304938  0.694756  0.000089  1
  Ho  Ho3  1  0.695062  0.305244  0.999911  1
  Ho  Ho4  1  0.446467  0.202994  0.243844  1
  Ho  Ho5  1  0.553533  0.797006  0.756156  1
  Ho  Ho6  1  0.959149  0.202994  0.756526  1
  Ho  Ho7  1  0.202716  0.959116  0.756400  1
  Ho  Ho8  1  0.040851  0.797006  0.243474  1
  Ho  Ho9  1  0.797284  0.040884  0.243600  1
  Er  Er10  1  0.202708  0.446483  0.243775  1
  Er  Er11  1  0.797292  0.553517  0.756225  1
  Zn  Zn12  1  0.000000  0.000000  0.000000  1
  In  In13  1  0.500000  0.000000  0.500000  1
  In  In14  1  0.000000  0.500000  0.500000  1
  Fe  Fe15  1  0.387367  0.387517  0.000150  1
  Fe  Fe16  1  0.612633  0.612483  0.999850  1
