# generated using pymatgen
data_Ho3Sc5Ti11Si16Ir
_symmetry_space_group_name_H-M   'P 1'
_cell_length_a   6.90764702
_cell_length_b   6.91262564
_cell_length_c   12.65224061
_cell_angle_alpha   90.10679271
_cell_angle_beta   89.93127194
_cell_angle_gamma   89.70885320
_symmetry_Int_Tables_number   1
_chemical_formula_structural   Ho3Sc5Ti11Si16Ir
_chemical_formula_sum   'Ho3 Sc5 Ti11 Si16 Ir1'
_cell_volume   604.13491872
_cell_formula_units_Z   1
loop_
 _symmetry_equiv_pos_site_id
 _symmetry_equiv_pos_as_xyz
  1  'x, y, z'
loop_
 _atom_site_type_symbol
 _atom_site_label
 _atom_site_symmetry_multiplicity
 _atom_site_fract_x
 _atom_site_fract_y
 _atom_site_fract_z
 _atom_site_occupancy
  Ho  Ho0  1  0.657016  0.996691  0.968641  1
  Ho  Ho1  1  0.006945  0.340697  0.531429  1
  Ho  Ho2  1  0.997006  0.656387  0.031824  1
  Sc  Sc3  1  0.344377  0.001842  0.466640  1
  Sc  Sc4  1  0.498624  0.843168  0.717517  1
  Sc  Sc5  1  0.499867  0.156408  0.216631  1
  Sc  Sc6  1  0.843002  0.498204  0.283246  1
  Sc  Sc7  1  0.156571  0.499166  0.783225  1
  Ti  Ti8  1  0.175360  0.828127  0.248575  1
  Ti  Ti9  1  0.827102  0.174612  0.751180  1
  Ti  Ti10  1  0.672833  0.674700  0.499712  1
  Ti  Ti11  1  0.150516  0.997754  0.872503  1
  Ti  Ti12  1  0.492507  0.654479  0.125218  1
  Ti  Ti13  1  0.504111  0.353481  0.626588  1
  Ti  Ti14  1  0.654693  0.492538  0.875941  1
  Ti  Ti15  1  0.353427  0.507804  0.372398  1
  Ti  Ti16  1  0.850129  0.997595  0.374394  1
  Ti  Ti17  1  0.998185  0.149750  0.128280  1
  Ti  Ti18  1  0.995348  0.851706  0.624590  1
  Si  Si19  1  0.207740  0.134321  0.683108  1
  Si  Si20  1  0.368097  0.700942  0.927419  1
  Si  Si21  1  0.632246  0.293638  0.429295  1
  Si  Si22  1  0.701349  0.367784  0.073050  1
  Si  Si23  1  0.297893  0.641574  0.569103  1
  Si  Si24  1  0.792337  0.864604  0.184999  1
  Si  Si25  1  0.140294  0.202276  0.317857  1
  Si  Si26  1  0.865044  0.792672  0.815301  1
  Si  Si27  1  0.287710  0.956404  0.065105  1
  Si  Si28  1  0.546008  0.798470  0.316492  1
  Si  Si29  1  0.448352  0.207552  0.816079  1
  Si  Si30  1  0.794522  0.548119  0.684796  1
  Si  Si31  1  0.207295  0.447114  0.184588  1
  Si  Si32  1  0.700540  0.046684  0.565572  1
  Si  Si33  1  0.957295  0.287308  0.935080  1
  Si  Si34  1  0.049577  0.709236  0.433264  1
  Ir  Ir35  1  0.326084  0.326193  0.000359  1
