# generated using pymatgen
data_MgGa(AgTe2)4
_symmetry_space_group_name_H-M   'P 1'
_cell_length_a   12.27011609
_cell_length_b   12.27011665
_cell_length_c   10.83429800
_cell_angle_alpha   91.98177829
_cell_angle_beta   91.98178305
_cell_angle_gamma   14.52111218
_symmetry_Int_Tables_number   1
_chemical_formula_structural   MgGa(AgTe2)4
_chemical_formula_sum   'Mg1 Ga1 Ag4 Te8'
_cell_volume   408.74460386
_cell_formula_units_Z   1
loop_
 _symmetry_equiv_pos_site_id
 _symmetry_equiv_pos_as_xyz
  1  'x, y, z'
loop_
 _atom_site_type_symbol
 _atom_site_label
 _atom_site_symmetry_multiplicity
 _atom_site_fract_x
 _atom_site_fract_y
 _atom_site_fract_z
 _atom_site_occupancy
  Mg  Mg0  1  0.500000  0.500000  0.500000  1
  Ga  Ga1  1  0.000000  0.000000  0.000000  1
  Ag  Ag2  1  0.241670  0.241670  0.113308  1
  Ag  Ag3  1  0.839267  0.839267  0.471697  1
  Ag  Ag4  1  0.160733  0.160733  0.528303  1
  Ag  Ag5  1  0.758330  0.758330  0.886692  1
  Te  Te6  1  0.927482  0.927482  0.652037  1
  Te  Te7  1  0.072518  0.072518  0.347963  1
  Te  Te8  1  0.587967  0.587967  0.714915  1
  Te  Te9  1  0.412033  0.412033  0.285085  1
  Te  Te10  1  0.643849  0.643849  0.979804  1
  Te  Te11  1  0.356151  0.356151  0.020196  1
  Te  Te12  1  0.737444  0.737444  0.337939  1
  Te  Te13  1  0.262556  0.262556  0.662061  1
