# generated using pymatgen
data_La2I2NF
_symmetry_space_group_name_H-M   'P 1'
_cell_length_a   4.16122700
_cell_length_b   4.16122700
_cell_length_c   10.02121700
_cell_angle_alpha   90.00000000
_cell_angle_beta   90.00000000
_cell_angle_gamma   90.00000000
_symmetry_Int_Tables_number   1
_chemical_formula_structural   La2I2NF
_chemical_formula_sum   'La2 I2 N1 F1'
_cell_volume   173.52549100
_cell_formula_units_Z   1
loop_
 _symmetry_equiv_pos_site_id
 _symmetry_equiv_pos_as_xyz
  1  'x, y, z'
loop_
 _atom_site_type_symbol
 _atom_site_label
 _atom_site_symmetry_multiplicity
 _atom_site_fract_x
 _atom_site_fract_y
 _atom_site_fract_z
 _atom_site_occupancy
  La  La0  1  0.249999  0.249999  0.125747  1
  La  La1  1  0.750001  0.750001  0.874254  1
  I  I2  1  0.750001  0.750001  0.313713  1
  I  I3  1  0.249999  0.249999  0.686288  1
  N  N4  1  0.750001  0.249999  0.000000  1
  F  F5  1  0.249999  0.750001  0.000000  1
