# generated using pymatgen
data_Cd2PtO4
_symmetry_space_group_name_H-M   'P 1'
_cell_length_a   3.19630500
_cell_length_b   5.62631500
_cell_length_c   10.01837400
_cell_angle_alpha   90.00000000
_cell_angle_beta   90.00000000
_cell_angle_gamma   90.00000000
_symmetry_Int_Tables_number   1
_chemical_formula_structural   Cd2PtO4
_chemical_formula_sum   'Cd4 Pt2 O8'
_cell_volume   180.16461500
_cell_formula_units_Z   2
loop_
 _symmetry_equiv_pos_site_id
 _symmetry_equiv_pos_as_xyz
  1  'x, y, z'
loop_
 _atom_site_type_symbol
 _atom_site_label
 _atom_site_symmetry_multiplicity
 _atom_site_fract_x
 _atom_site_fract_y
 _atom_site_fract_z
 _atom_site_occupancy
  Cd  Cd0  1  0.500000  0.060749  0.322151  1
  Cd  Cd1  1  0.500000  0.939251  0.677849  1
  Cd  Cd2  1  0.500000  0.439251  0.822151  1
  Cd  Cd3  1  0.500000  0.560749  0.177849  1
  Pt  Pt4  1  0.000000  0.000000  0.000000  1
  Pt  Pt5  1  0.000000  0.500000  0.500000  1
  O  O6  1  0.000000  0.134336  0.810585  1
  O  O7  1  0.000000  0.865664  0.189415  1
  O  O8  1  0.000000  0.634336  0.689415  1
  O  O9  1  0.000000  0.365664  0.310585  1
  O  O10  1  0.500000  0.275908  0.535679  1
  O  O11  1  0.500000  0.724092  0.464321  1
  O  O12  1  0.500000  0.224092  0.035679  1
  O  O13  1  0.500000  0.775908  0.964321  1
