# generated using pymatgen
data_DyY7(SiPt)8
_symmetry_space_group_name_H-M   'P 1'
_cell_length_a   4.31416000
_cell_length_b   7.41989660
_cell_length_c   14.12653200
_cell_angle_alpha   89.97702731
_cell_angle_beta   90.00000000
_cell_angle_gamma   90.00000000
_symmetry_Int_Tables_number   1
_chemical_formula_structural   DyY7(SiPt)8
_chemical_formula_sum   'Dy1 Y7 Si8 Pt8'
_cell_volume   452.19902697
_cell_formula_units_Z   1
loop_
 _symmetry_equiv_pos_site_id
 _symmetry_equiv_pos_as_xyz
  1  'x, y, z'
loop_
 _atom_site_type_symbol
 _atom_site_label
 _atom_site_symmetry_multiplicity
 _atom_site_fract_x
 _atom_site_fract_y
 _atom_site_fract_z
 _atom_site_occupancy
  Dy  Dy0  1  0.500000  0.795031  0.748868  1
  Y  Y1  1  0.000000  0.204050  0.750872  1
  Y  Y2  1  0.500000  0.794915  0.250914  1
  Y  Y3  1  0.000000  0.205367  0.249181  1
  Y  Y4  1  0.500000  0.705693  0.999911  1
  Y  Y5  1  0.000000  0.294121  0.500286  1
  Y  Y6  1  0.500000  0.699719  0.499936  1
  Y  Y7  1  0.000000  0.299731  0.000054  1
  Si  Si8  1  0.500000  0.408970  0.650917  1
  Si  Si9  1  0.000000  0.590338  0.850811  1
  Si  Si10  1  0.500000  0.409277  0.350221  1
  Si  Si11  1  0.000000  0.591244  0.148619  1
  Si  Si12  1  0.500000  0.091137  0.092123  1
  Si  Si13  1  0.000000  0.909312  0.407866  1
  Si  Si14  1  0.500000  0.090615  0.908036  1
  Si  Si15  1  0.000000  0.909192  0.591598  1
  Pt  Pt16  1  0.500000  0.076883  0.607647  1
  Pt  Pt17  1  0.000000  0.921862  0.892148  1
  Pt  Pt18  1  0.500000  0.077705  0.392452  1
  Pt  Pt19  1  0.000000  0.922885  0.107556  1
  Pt  Pt20  1  0.500000  0.421057  0.153345  1
  Pt  Pt21  1  0.000000  0.579868  0.347855  1
  Pt  Pt22  1  0.500000  0.420301  0.845755  1
  Pt  Pt23  1  0.000000  0.580729  0.653028  1
