# generated using pymatgen
data_SmLuReB6
_symmetry_space_group_name_H-M   'P 1'
_cell_length_a   3.67589400
_cell_length_b   9.16146600
_cell_length_c   11.59116400
_cell_angle_alpha   90.00000000
_cell_angle_beta   90.00000000
_cell_angle_gamma   90.00000000
_symmetry_Int_Tables_number   1
_chemical_formula_structural   SmLuReB6
_chemical_formula_sum   'Sm4 Lu4 Re4 B24'
_cell_volume   390.35073740
_cell_formula_units_Z   4
loop_
 _symmetry_equiv_pos_site_id
 _symmetry_equiv_pos_as_xyz
  1  'x, y, z'
loop_
 _atom_site_type_symbol
 _atom_site_label
 _atom_site_symmetry_multiplicity
 _atom_site_fract_x
 _atom_site_fract_y
 _atom_site_fract_z
 _atom_site_occupancy
  Sm  Sm0  1  0.000000  0.323097  0.414056  1
  Sm  Sm1  1  0.000000  0.676903  0.585944  1
  Sm  Sm2  1  0.000000  0.823097  0.085944  1
  Sm  Sm3  1  0.000000  0.176903  0.914056  1
  Lu  Lu4  1  0.000000  0.943895  0.370202  1
  Lu  Lu5  1  0.000000  0.056105  0.629798  1
  Lu  Lu6  1  0.000000  0.443895  0.129798  1
  Lu  Lu7  1  0.000000  0.556105  0.870202  1
  Re  Re8  1  0.000000  0.640199  0.319226  1
  Re  Re9  1  0.000000  0.359801  0.680774  1
  Re  Re10  1  0.000000  0.140199  0.180774  1
  Re  Re11  1  0.000000  0.859801  0.819226  1
  B  B12  1  0.500000  0.554914  0.431294  1
  B  B13  1  0.500000  0.445086  0.568706  1
  B  B14  1  0.500000  0.054914  0.068706  1
  B  B15  1  0.500000  0.945086  0.931294  1
  B  B16  1  0.500000  0.751632  0.417222  1
  B  B17  1  0.500000  0.248368  0.582778  1
  B  B18  1  0.500000  0.251632  0.082778  1
  B  B19  1  0.500000  0.748368  0.917222  1
  B  B20  1  0.500000  0.793256  0.266161  1
  B  B21  1  0.500000  0.206744  0.733839  1
  B  B22  1  0.500000  0.293256  0.233839  1
  B  B23  1  0.500000  0.706744  0.766161  1
  B  B24  1  0.500000  0.629917  0.185461  1
  B  B25  1  0.500000  0.370083  0.814539  1
  B  B26  1  0.500000  0.129917  0.314539  1
  B  B27  1  0.500000  0.870083  0.685461  1
  B  B28  1  0.500000  0.982917  0.213477  1
  B  B29  1  0.500000  0.017083  0.786523  1
  B  B30  1  0.500000  0.482917  0.286523  1
  B  B31  1  0.500000  0.517083  0.713477  1
  B  B32  1  0.500000  0.596480  0.026661  1
  B  B33  1  0.500000  0.403520  0.973339  1
  B  B34  1  0.500000  0.096480  0.473339  1
  B  B35  1  0.500000  0.903520  0.526661  1
