# generated using pymatgen
data_NdEuUSe5
_symmetry_space_group_name_H-M   'P 1'
_cell_length_a   7.91296600
_cell_length_b   8.50129800
_cell_length_c   12.52966900
_cell_angle_alpha   90.00000000
_cell_angle_beta   90.00000000
_cell_angle_gamma   90.00000000
_symmetry_Int_Tables_number   1
_chemical_formula_structural   NdEuUSe5
_chemical_formula_sum   'Nd4 Eu4 U4 Se20'
_cell_volume   842.87687330
_cell_formula_units_Z   4
loop_
 _symmetry_equiv_pos_site_id
 _symmetry_equiv_pos_as_xyz
  1  'x, y, z'
loop_
 _atom_site_type_symbol
 _atom_site_label
 _atom_site_symmetry_multiplicity
 _atom_site_fract_x
 _atom_site_fract_y
 _atom_site_fract_z
 _atom_site_occupancy
  Nd  Nd0  1  0.472041  0.501590  0.677053  1
  Nd  Nd1  1  0.027959  0.998410  0.177053  1
  Nd  Nd2  1  0.527959  0.001590  0.322947  1
  Nd  Nd3  1  0.972041  0.498410  0.822947  1
  Eu  Eu4  1  0.526289  0.500725  0.321835  1
  Eu  Eu5  1  0.973711  0.999275  0.821835  1
  Eu  Eu6  1  0.473711  0.000725  0.678165  1
  Eu  Eu7  1  0.026289  0.499275  0.178165  1
  U  U8  1  0.071018  0.750026  0.492613  1
  U  U9  1  0.428982  0.749974  0.992613  1
  U  U10  1  0.928982  0.250026  0.507387  1
  U  U11  1  0.571018  0.249974  0.007387  1
  Se  Se12  1  0.839467  0.957096  0.589540  1
  Se  Se13  1  0.660533  0.542904  0.089540  1
  Se  Se14  1  0.160533  0.457096  0.410460  1
  Se  Se15  1  0.339467  0.042904  0.910460  1
  Se  Se16  1  0.165764  0.042461  0.407786  1
  Se  Se17  1  0.334236  0.457539  0.907786  1
  Se  Se18  1  0.834236  0.542461  0.592214  1
  Se  Se19  1  0.665764  0.957539  0.092214  1
  Se  Se20  1  0.837794  0.756964  0.316078  1
  Se  Se21  1  0.662206  0.743036  0.816078  1
  Se  Se22  1  0.162206  0.256964  0.683922  1
  Se  Se23  1  0.337794  0.243036  0.183922  1
  Se  Se24  1  0.448805  0.751271  0.497244  1
  Se  Se25  1  0.051195  0.748729  0.997244  1
  Se  Se26  1  0.551195  0.251271  0.502756  1
  Se  Se27  1  0.948805  0.248729  0.002756  1
  Se  Se28  1  0.188721  0.742546  0.711239  1
  Se  Se29  1  0.311279  0.757454  0.211239  1
  Se  Se30  1  0.811279  0.242546  0.288761  1
  Se  Se31  1  0.688721  0.257454  0.788761  1
