# generated using pymatgen
data_Dy3Ho7(PtPb3)2
_symmetry_space_group_name_H-M   'P 1'
_cell_length_a   9.21099000
_cell_length_b   9.21099108
_cell_length_c   6.79468600
_cell_angle_alpha   90.00000000
_cell_angle_beta   90.00000000
_cell_angle_gamma   120.00000332
_symmetry_Int_Tables_number   1
_chemical_formula_structural   Dy3Ho7(PtPb3)2
_chemical_formula_sum   'Dy3 Ho7 Pt2 Pb6'
_cell_volume   499.24380123
_cell_formula_units_Z   1
loop_
 _symmetry_equiv_pos_site_id
 _symmetry_equiv_pos_as_xyz
  1  'x, y, z'
loop_
 _atom_site_type_symbol
 _atom_site_label
 _atom_site_symmetry_multiplicity
 _atom_site_fract_x
 _atom_site_fract_y
 _atom_site_fract_z
 _atom_site_occupancy
  Dy  Dy0  1  0.333333  0.666667  0.500000  1
  Dy  Dy1  1  0.666667  0.333333  0.500000  1
  Dy  Dy2  1  0.666667  0.333333  0.000000  1
  Ho  Ho3  1  0.245179  0.999958  0.750090  1
  Ho  Ho4  1  0.754779  0.999958  0.249910  1
  Ho  Ho5  1  0.000042  0.245221  0.750090  1
  Ho  Ho6  1  0.000042  0.754821  0.249910  1
  Ho  Ho7  1  0.754779  0.754821  0.750090  1
  Ho  Ho8  1  0.245179  0.245221  0.249910  1
  Ho  Ho9  1  0.333333  0.666667  0.000000  1
  Pt  Pt10  1  0.000000  0.000000  0.500000  1
  Pt  Pt11  1  0.000000  0.000000  0.000000  1
  Pb  Pb12  1  0.600913  0.999849  0.750128  1
  Pb  Pb13  1  0.398936  0.999849  0.249872  1
  Pb  Pb14  1  0.000151  0.601064  0.750128  1
  Pb  Pb15  1  0.000151  0.399087  0.249872  1
  Pb  Pb16  1  0.398936  0.399087  0.750128  1
  Pb  Pb17  1  0.600913  0.601064  0.249872  1
