# generated using pymatgen
data_BaCuSb3F18
_symmetry_space_group_name_H-M   'P 1'
_cell_length_a   9.90435700
_cell_length_b   11.19389600
_cell_length_c   14.72135300
_cell_angle_alpha   90.00000000
_cell_angle_beta   90.00000000
_cell_angle_gamma   90.00000000
_symmetry_Int_Tables_number   1
_chemical_formula_structural   BaCuSb3F18
_chemical_formula_sum   'Ba4 Cu4 Sb12 F72'
_cell_volume   1632.13200212
_cell_formula_units_Z   4
loop_
 _symmetry_equiv_pos_site_id
 _symmetry_equiv_pos_as_xyz
  1  'x, y, z'
loop_
 _atom_site_type_symbol
 _atom_site_label
 _atom_site_symmetry_multiplicity
 _atom_site_fract_x
 _atom_site_fract_y
 _atom_site_fract_z
 _atom_site_occupancy
  Ba  Ba0  1  0.538616  0.915902  0.750000  1
  Ba  Ba1  1  0.961384  0.415902  0.750000  1
  Ba  Ba2  1  0.461384  0.084098  0.250000  1
  Ba  Ba3  1  0.038616  0.584098  0.250000  1
  Cu  Cu4  1  0.000000  0.000000  0.500000  1
  Cu  Cu5  1  0.500000  0.500000  0.000000  1
  Cu  Cu6  1  0.000000  0.000000  0.000000  1
  Cu  Cu7  1  0.500000  0.500000  0.500000  1
  Sb  Sb8  1  0.105017  0.026172  0.750000  1
  Sb  Sb9  1  0.394983  0.526172  0.750000  1
  Sb  Sb10  1  0.894983  0.973828  0.250000  1
  Sb  Sb11  1  0.605017  0.473828  0.250000  1
  Sb  Sb12  1  0.687947  0.202265  0.548628  1
  Sb  Sb13  1  0.812053  0.702265  0.951372  1
  Sb  Sb14  1  0.312053  0.797735  0.048628  1
  Sb  Sb15  1  0.187947  0.297735  0.451372  1
  Sb  Sb16  1  0.312053  0.797735  0.451372  1
  Sb  Sb17  1  0.187947  0.297735  0.048628  1
  Sb  Sb18  1  0.687947  0.202265  0.951372  1
  Sb  Sb19  1  0.812053  0.702265  0.548628  1
  F  F20  1  0.107932  0.033976  0.618347  1
  F  F21  1  0.392068  0.533976  0.881653  1
  F  F22  1  0.892068  0.966024  0.118347  1
  F  F23  1  0.607932  0.466024  0.381653  1
  F  F24  1  0.892068  0.966024  0.381653  1
  F  F25  1  0.607932  0.466024  0.118347  1
  F  F26  1  0.107932  0.033976  0.881653  1
  F  F27  1  0.392068  0.533976  0.618347  1
  F  F28  1  0.126055  0.857142  0.750000  1
  F  F29  1  0.373945  0.357142  0.750000  1
  F  F30  1  0.873945  0.142858  0.250000  1
  F  F31  1  0.626055  0.642858  0.250000  1
  F  F32  1  0.302026  0.038515  0.750000  1
  F  F33  1  0.197974  0.538515  0.750000  1
  F  F34  1  0.697974  0.961485  0.250000  1
  F  F35  1  0.802026  0.461485  0.250000  1
  F  F36  1  0.088307  0.200517  0.750000  1
  F  F37  1  0.411693  0.700517  0.750000  1
  F  F38  1  0.911693  0.799483  0.250000  1
  F  F39  1  0.588307  0.299483  0.250000  1
  F  F40  1  0.912056  0.012974  0.750000  1
  F  F41  1  0.587944  0.512974  0.750000  1
  F  F42  1  0.087944  0.987026  0.250000  1
  F  F43  1  0.412056  0.487026  0.250000  1
  F  F44  1  0.820064  0.073588  0.550562  1
  F  F45  1  0.679936  0.573588  0.949438  1
  F  F46  1  0.179936  0.926412  0.050562  1
  F  F47  1  0.320064  0.426412  0.449438  1
  F  F48  1  0.179936  0.926412  0.449438  1
  F  F49  1  0.320064  0.426412  0.050562  1
  F  F50  1  0.820064  0.073588  0.949438  1
  F  F51  1  0.679936  0.573588  0.550562  1
  F  F52  1  0.793817  0.289274  0.463547  1
  F  F53  1  0.706183  0.789274  0.036453  1
  F  F54  1  0.206183  0.710726  0.963547  1
  F  F55  1  0.293817  0.210726  0.536453  1
  F  F56  1  0.206183  0.710726  0.536453  1
  F  F57  1  0.293817  0.210726  0.963547  1
  F  F58  1  0.793817  0.289274  0.036453  1
  F  F59  1  0.706183  0.789274  0.463547  1
  F  F60  1  0.588831  0.127644  0.450629  1
  F  F61  1  0.911169  0.627644  0.049371  1
  F  F62  1  0.411169  0.872356  0.950629  1
  F  F63  1  0.088831  0.372356  0.549371  1
  F  F64  1  0.411169  0.872356  0.549371  1
  F  F65  1  0.088831  0.372356  0.950629  1
  F  F66  1  0.588831  0.127644  0.049371  1
  F  F67  1  0.911169  0.627644  0.450629  1
  F  F68  1  0.555880  0.329277  0.557167  1
  F  F69  1  0.944120  0.829277  0.942833  1
  F  F70  1  0.444120  0.670723  0.057167  1
  F  F71  1  0.055880  0.170723  0.442833  1
  F  F72  1  0.444120  0.670723  0.442833  1
  F  F73  1  0.055880  0.170723  0.057167  1
  F  F74  1  0.555880  0.329277  0.942833  1
  F  F75  1  0.944120  0.829277  0.557167  1
  F  F76  1  0.589391  0.108365  0.638921  1
  F  F77  1  0.910609  0.608365  0.861079  1
  F  F78  1  0.410609  0.891635  0.138921  1
  F  F79  1  0.089391  0.391635  0.361079  1
  F  F80  1  0.410609  0.891635  0.361079  1
  F  F81  1  0.089391  0.391635  0.138921  1
  F  F82  1  0.589391  0.108365  0.861079  1
  F  F83  1  0.910609  0.608365  0.638921  1
  F  F84  1  0.788882  0.280108  0.646881  1
  F  F85  1  0.711118  0.780108  0.853119  1
  F  F86  1  0.211118  0.719892  0.146881  1
  F  F87  1  0.288882  0.219892  0.353119  1
  F  F88  1  0.211118  0.719892  0.353119  1
  F  F89  1  0.288882  0.219892  0.146881  1
  F  F90  1  0.788882  0.280108  0.853119  1
  F  F91  1  0.711118  0.780108  0.646881  1
