# generated using pymatgen
data_Y4Sc(InTe)2
_symmetry_space_group_name_H-M   'P 1'
_cell_length_a   8.73731600
_cell_length_b   8.73731405
_cell_length_c   8.02358500
_cell_angle_alpha   90.00000000
_cell_angle_beta   90.00000000
_cell_angle_gamma   125.22933532
_symmetry_Int_Tables_number   1
_chemical_formula_structural   Y4Sc(InTe)2
_chemical_formula_sum   'Y8 Sc2 In4 Te4'
_cell_volume   500.34156059
_cell_formula_units_Z   2
loop_
 _symmetry_equiv_pos_site_id
 _symmetry_equiv_pos_as_xyz
  1  'x, y, z'
loop_
 _atom_site_type_symbol
 _atom_site_label
 _atom_site_symmetry_multiplicity
 _atom_site_fract_x
 _atom_site_fract_y
 _atom_site_fract_z
 _atom_site_occupancy
  Y  Y0  1  0.033361  0.304174  0.334577  1
  Y  Y1  1  0.966639  0.695826  0.665423  1
  Y  Y2  1  0.466639  0.195826  0.834577  1
  Y  Y3  1  0.804174  0.533361  0.165423  1
  Y  Y4  1  0.533361  0.804174  0.165423  1
  Y  Y5  1  0.195826  0.466639  0.834577  1
  Y  Y6  1  0.695826  0.966639  0.665423  1
  Y  Y7  1  0.304174  0.033361  0.334577  1
  Sc  Sc8  1  0.000000  0.000000  0.000000  1
  Sc  Sc9  1  0.500000  0.500000  0.500000  1
  In  In10  1  0.367594  0.367594  0.131329  1
  In  In11  1  0.632406  0.632406  0.868671  1
  In  In12  1  0.132406  0.132406  0.631329  1
  In  In13  1  0.867594  0.867594  0.368671  1
  Te  Te14  1  0.800509  0.199491  0.000000  1
  Te  Te15  1  0.199491  0.800509  0.000000  1
  Te  Te16  1  0.699491  0.300509  0.500000  1
  Te  Te17  1  0.300509  0.699491  0.500000  1
