# generated using pymatgen
data_ErTmV3O8
_symmetry_space_group_name_H-M   'P 1'
_cell_length_a   5.08397481
_cell_length_b   6.15255239
_cell_length_c   10.31421278
_cell_angle_alpha   89.88245826
_cell_angle_beta   83.63663320
_cell_angle_gamma   90.04911180
_symmetry_Int_Tables_number   1
_chemical_formula_structural   ErTmV3O8
_chemical_formula_sum   'Er2 Tm2 V6 O16'
_cell_volume   320.63405969
_cell_formula_units_Z   2
loop_
 _symmetry_equiv_pos_site_id
 _symmetry_equiv_pos_as_xyz
  1  'x, y, z'
loop_
 _atom_site_type_symbol
 _atom_site_label
 _atom_site_symmetry_multiplicity
 _atom_site_fract_x
 _atom_site_fract_y
 _atom_site_fract_z
 _atom_site_occupancy
  Er  Er0  1  0.439666  0.501462  0.223476  1
  Er  Er1  1  0.939476  0.001363  0.723420  1
  Tm  Tm2  1  0.060426  0.002023  0.275005  1
  Tm  Tm3  1  0.560126  0.501203  0.775176  1
  V  V4  1  0.000675  0.502866  0.500032  1
  V  V5  1  0.500472  0.234279  0.499220  1
  V  V6  1  0.499431  0.754031  0.500143  1
  V  V7  1  0.502076  0.002794  0.000445  1
  V  V8  1  0.000910  0.734816  0.998138  1
  V  V9  1  0.997811  0.255466  0.001679  1
  O  O10  1  0.678898  0.010607  0.397077  1
  O  O11  1  0.177954  0.512922  0.895777  1
  O  O12  1  0.827831  0.504051  0.102801  1
  O  O13  1  0.325106  0.006170  0.602643  1
  O  O14  1  0.686371  0.496705  0.394920  1
  O  O15  1  0.183988  0.999530  0.896640  1
  O  O16  1  0.810512  0.988808  0.107434  1
  O  O17  1  0.311759  0.493220  0.606269  1
  O  O18  1  0.286513  0.224845  0.120583  1
  O  O19  1  0.787426  0.723293  0.620219  1
  O  O20  1  0.277166  0.777880  0.112947  1
  O  O21  1  0.775288  0.277049  0.613681  1
  O  O22  1  0.210730  0.724206  0.379799  1
  O  O23  1  0.709911  0.222673  0.880903  1
  O  O24  1  0.224416  0.274916  0.386393  1
  O  O25  1  0.725062  0.772821  0.885181  1
