# generated using pymatgen
data_La2TbDy(Mo2O7)2
_symmetry_space_group_name_H-M   'P 1'
_cell_length_a   7.49788643
_cell_length_b   7.50802764
_cell_length_c   7.49293028
_cell_angle_alpha   59.93333858
_cell_angle_beta   59.68807279
_cell_angle_gamma   59.95525102
_symmetry_Int_Tables_number   1
_chemical_formula_structural   La2TbDy(Mo2O7)2
_chemical_formula_sum   'La2 Tb1 Dy1 Mo4 O14'
_cell_volume   297.30529721
_cell_formula_units_Z   1
loop_
 _symmetry_equiv_pos_site_id
 _symmetry_equiv_pos_as_xyz
  1  'x, y, z'
loop_
 _atom_site_type_symbol
 _atom_site_label
 _atom_site_symmetry_multiplicity
 _atom_site_fract_x
 _atom_site_fract_y
 _atom_site_fract_z
 _atom_site_occupancy
  La  La0  1  0.125000  0.625000  0.125000  1
  La  La1  1  0.125000  0.125000  0.125000  1
  Tb  Tb2  1  0.125000  0.125000  0.625000  1
  Dy  Dy3  1  0.625000  0.125000  0.125000  1
  Mo  Mo4  1  0.125000  0.625000  0.625000  1
  Mo  Mo5  1  0.625000  0.125000  0.625000  1
  Mo  Mo6  1  0.625000  0.625000  0.125000  1
  Mo  Mo7  1  0.625000  0.625000  0.625000  1
  O  O8  1  0.698925  0.720940  0.293123  1
  O  O9  1  0.289329  0.293849  0.707758  1
  O  O10  1  0.726616  0.286539  0.700306  1
  O  O11  1  0.295920  0.709346  0.285387  1
  O  O12  1  0.289329  0.709063  0.707758  1
  O  O13  1  0.698925  0.287011  0.293123  1
  O  O14  1  0.551075  0.529060  0.956877  1
  O  O15  1  0.960671  0.956151  0.542242  1
  O  O16  1  0.523384  0.963461  0.549694  1
  O  O17  1  0.954080  0.540654  0.964613  1
  O  O18  1  0.960671  0.540937  0.542242  1
  O  O19  1  0.551075  0.962989  0.956877  1
  O  O20  1  0.259208  0.241839  0.257114  1
  O  O21  1  0.990792  0.008161  0.992886  1
