# generated using pymatgen
data_Nd16MgIn3Co4
_symmetry_space_group_name_H-M   'P 1'
_cell_length_a   9.83984790
_cell_length_b   9.86141062
_cell_length_c   9.86141100
_cell_angle_alpha   59.99999537
_cell_angle_beta   59.92747900
_cell_angle_gamma   59.92748029
_symmetry_Int_Tables_number   1
_chemical_formula_structural   Nd16MgIn3Co4
_chemical_formula_sum   'Nd16 Mg1 In3 Co4'
_cell_volume   675.88771748
_cell_formula_units_Z   1
loop_
 _symmetry_equiv_pos_site_id
 _symmetry_equiv_pos_as_xyz
  1  'x, y, z'
loop_
 _atom_site_type_symbol
 _atom_site_label
 _atom_site_symmetry_multiplicity
 _atom_site_fract_x
 _atom_site_fract_y
 _atom_site_fract_z
 _atom_site_occupancy
  Nd  Nd0  1  0.346544  0.344430  0.344430  1
  Nd  Nd1  1  0.346544  0.344430  0.964595  1
  Nd  Nd2  1  0.346544  0.964595  0.344430  1
  Nd  Nd3  1  0.962017  0.345995  0.345995  1
  Nd  Nd4  1  0.808919  0.190908  0.190908  1
  Nd  Nd5  1  0.186786  0.812217  0.812217  1
  Nd  Nd6  1  0.186786  0.812217  0.188781  1
  Nd  Nd7  1  0.808919  0.190908  0.809265  1
  Nd  Nd8  1  0.186786  0.188781  0.812217  1
  Nd  Nd9  1  0.808919  0.809265  0.190908  1
  Nd  Nd10  1  0.938327  0.561459  0.561459  1
  Nd  Nd11  1  0.560529  0.939551  0.939551  1
  Nd  Nd12  1  0.560529  0.939551  0.560370  1
  Nd  Nd13  1  0.938327  0.561459  0.938755  1
  Nd  Nd14  1  0.560529  0.560370  0.939551  1
  Nd  Nd15  1  0.938327  0.938755  0.561459  1
  Mg  Mg16  1  0.274414  0.575195  0.575195  1
  In  In17  1  0.580590  0.580604  0.580604  1
  In  In18  1  0.580590  0.580604  0.258200  1
  In  In19  1  0.580590  0.258200  0.580604  1
  Co  Co20  1  0.140143  0.140102  0.140102  1
  Co  Co21  1  0.140143  0.140102  0.579654  1
  Co  Co22  1  0.140143  0.579654  0.140102  1
  Co  Co23  1  0.578054  0.140649  0.140649  1
