# generated using pymatgen
data_LiBe2Fe3(B2Ir5)2
_symmetry_space_group_name_H-M   'P 1'
_cell_length_a   9.19599875
_cell_length_b   9.19599875
_cell_length_c   2.83933800
_cell_angle_alpha   90.00000000
_cell_angle_beta   90.00000000
_cell_angle_gamma   90.92059296
_symmetry_Int_Tables_number   1
_chemical_formula_structural   LiBe2Fe3(B2Ir5)2
_chemical_formula_sum   'Li1 Be2 Fe3 B4 Ir10'
_cell_volume   240.08158027
_cell_formula_units_Z   1
loop_
 _symmetry_equiv_pos_site_id
 _symmetry_equiv_pos_as_xyz
  1  'x, y, z'
loop_
 _atom_site_type_symbol
 _atom_site_label
 _atom_site_symmetry_multiplicity
 _atom_site_fract_x
 _atom_site_fract_y
 _atom_site_fract_z
 _atom_site_occupancy
  Li  Li0  1  0.824073  0.324073  0.000000  1
  Be  Be1  1  0.500124  0.498583  0.000000  1
  Be  Be2  1  0.998583  0.000124  0.000000  1
  Fe  Fe3  1  0.177303  0.677303  0.000000  1
  Fe  Fe4  1  0.324706  0.178916  0.000000  1
  Fe  Fe5  1  0.678916  0.824706  0.000000  1
  B  B6  1  0.638010  0.138010  0.000000  1
  B  B7  1  0.368640  0.868640  0.000000  1
  B  B8  1  0.124099  0.368754  0.000000  1
  B  B9  1  0.868754  0.624099  0.000000  1
  Ir  Ir10  1  0.500430  0.000430  0.500000  1
  Ir  Ir11  1  0.002198  0.502198  0.500000  1
  Ir  Ir12  1  0.701406  0.573594  0.500000  1
  Ir  Ir13  1  0.294405  0.432354  0.500000  1
  Ir  Ir14  1  0.204504  0.932824  0.500000  1
  Ir  Ir15  1  0.794152  0.060924  0.500000  1
  Ir  Ir16  1  0.432824  0.704504  0.500000  1
  Ir  Ir17  1  0.560924  0.294152  0.500000  1
  Ir  Ir18  1  0.073594  0.201406  0.500000  1
  Ir  Ir19  1  0.932354  0.794405  0.500000  1
