# generated using pymatgen
data_Rb6Cr3IrBr18
_symmetry_space_group_name_H-M   'P 1'
_cell_length_a   7.55328100
_cell_length_b   7.55328192
_cell_length_c   19.13357400
_cell_angle_alpha   90.00000000
_cell_angle_beta   90.00000000
_cell_angle_gamma   120.00000036
_symmetry_Int_Tables_number   1
_chemical_formula_structural   Rb6Cr3IrBr18
_chemical_formula_sum   'Rb6 Cr3 Ir1 Br18'
_cell_volume   945.36183802
_cell_formula_units_Z   1
loop_
 _symmetry_equiv_pos_site_id
 _symmetry_equiv_pos_as_xyz
  1  'x, y, z'
loop_
 _atom_site_type_symbol
 _atom_site_label
 _atom_site_symmetry_multiplicity
 _atom_site_fract_x
 _atom_site_fract_y
 _atom_site_fract_z
 _atom_site_occupancy
  Rb  Rb0  1  0.666667  0.333333  0.567098  1
  Rb  Rb1  1  0.333333  0.666667  0.066413  1
  Rb  Rb2  1  0.333333  0.666667  0.433578  1
  Rb  Rb3  1  0.666667  0.333333  0.935258  1
  Rb  Rb4  1  0.000000  0.000000  0.250168  1
  Rb  Rb5  1  0.000000  0.000000  0.749139  1
  Cr  Cr6  1  0.666667  0.333333  0.337922  1
  Cr  Cr7  1  0.333333  0.666667  0.836416  1
  Cr  Cr8  1  0.666667  0.333333  0.162567  1
  Ir  Ir9  1  0.333333  0.666667  0.666921  1
  Br  Br10  1  0.824641  0.649283  0.407910  1
  Br  Br11  1  0.176810  0.823190  0.592722  1
  Br  Br12  1  0.646381  0.823190  0.592722  1
  Br  Br13  1  0.824641  0.175359  0.407910  1
  Br  Br14  1  0.350717  0.175359  0.407910  1
  Br  Br15  1  0.175501  0.351001  0.906527  1
  Br  Br16  1  0.026838  0.513420  0.748726  1
  Br  Br17  1  0.648999  0.824499  0.906527  1
  Br  Br18  1  0.824510  0.649021  0.092231  1
  Br  Br19  1  0.176810  0.353619  0.592722  1
  Br  Br20  1  0.486580  0.973162  0.748726  1
  Br  Br21  1  0.514514  0.485486  0.250058  1
  Br  Br22  1  0.486580  0.513420  0.748726  1
  Br  Br23  1  0.175501  0.824499  0.906527  1
  Br  Br24  1  0.350979  0.175490  0.092231  1
  Br  Br25  1  0.970973  0.485486  0.250058  1
  Br  Br26  1  0.514514  0.029027  0.250058  1
  Br  Br27  1  0.824510  0.175490  0.092231  1
