# generated using pymatgen
data_Ca5Ac15Sn16
_symmetry_space_group_name_H-M   'P 1'
_cell_length_a   8.46113383
_cell_length_b   8.87105861
_cell_length_c   17.03382121
_cell_angle_alpha   90.14923927
_cell_angle_beta   89.53617213
_cell_angle_gamma   90.16257192
_symmetry_Int_Tables_number   1
_chemical_formula_structural   Ca5Ac15Sn16
_chemical_formula_sum   'Ca5 Ac15 Sn16'
_cell_volume   1278.49393041
_cell_formula_units_Z   1
loop_
 _symmetry_equiv_pos_site_id
 _symmetry_equiv_pos_as_xyz
  1  'x, y, z'
loop_
 _atom_site_type_symbol
 _atom_site_label
 _atom_site_symmetry_multiplicity
 _atom_site_fract_x
 _atom_site_fract_y
 _atom_site_fract_z
 _atom_site_occupancy
  Ca  Ca0  1  0.334181  0.830956  0.875541  1
  Ca  Ca1  1  0.174747  0.494447  0.751946  1
  Ca  Ca2  1  0.671833  0.007731  0.752119  1
  Ca  Ca3  1  0.826485  0.509009  0.250515  1
  Ca  Ca4  1  0.326118  0.989467  0.250042  1
  Ac  Ac5  1  0.843406  0.670903  0.624482  1
  Ac  Ac6  1  0.656058  0.169050  0.376195  1
  Ac  Ac7  1  0.163596  0.325318  0.121788  1
  Ac  Ac8  1  0.663132  0.170302  0.122408  1
  Ac  Ac9  1  0.157109  0.329920  0.376379  1
  Ac  Ac10  1  0.346412  0.830490  0.625621  1
  Ac  Ac11  1  0.838631  0.674874  0.875816  1
  Ac  Ac12  1  0.491210  0.316798  0.904040  1
  Ac  Ac13  1  0.998589  0.184916  0.597418  1
  Ac  Ac14  1  0.504374  0.684562  0.403849  1
  Ac  Ac15  1  0.008026  0.814638  0.095966  1
  Ac  Ac16  1  0.504445  0.683084  0.094074  1
  Ac  Ac17  1  0.003447  0.815665  0.403900  1
  Ac  Ac18  1  0.495405  0.314431  0.597205  1
  Ac  Ac19  1  0.993691  0.183283  0.903045  1
  Sn  Sn20  1  0.327569  0.030392  0.033984  1
  Sn  Sn21  1  0.818233  0.463510  0.462343  1
  Sn  Sn22  1  0.685689  0.964492  0.538385  1
  Sn  Sn23  1  0.177873  0.539509  0.959611  1
  Sn  Sn24  1  0.662483  0.963048  0.959499  1
  Sn  Sn25  1  0.183977  0.537439  0.538468  1
  Sn  Sn26  1  0.315933  0.035505  0.462956  1
  Sn  Sn27  1  0.827039  0.466043  0.037267  1
  Sn  Sn28  1  0.535789  0.599348  0.751646  1
  Sn  Sn29  1  0.040761  0.901344  0.752155  1
  Sn  Sn30  1  0.463704  0.402551  0.249799  1
  Sn  Sn31  1  0.963645  0.096927  0.249835  1
  Sn  Sn32  1  0.296029  0.141575  0.751852  1
  Sn  Sn33  1  0.794832  0.359950  0.751415  1
  Sn  Sn34  1  0.703564  0.856951  0.249574  1
  Sn  Sn35  1  0.201984  0.641577  0.248860  1
