# generated using pymatgen
data_Tb7Ho2ThIr6
_symmetry_space_group_name_H-M   'P 1'
_cell_length_a   11.02484551
_cell_length_b   10.98625900
_cell_length_c   6.35967567
_cell_angle_alpha   90.00000000
_cell_angle_beta   89.65154391
_cell_angle_gamma   90.00000000
_symmetry_Int_Tables_number   1
_chemical_formula_structural   Tb7Ho2ThIr6
_chemical_formula_sum   'Tb14 Ho4 Th2 Ir12'
_cell_volume   770.28117143
_cell_formula_units_Z   2
loop_
 _symmetry_equiv_pos_site_id
 _symmetry_equiv_pos_as_xyz
  1  'x, y, z'
loop_
 _atom_site_type_symbol
 _atom_site_label
 _atom_site_symmetry_multiplicity
 _atom_site_fract_x
 _atom_site_fract_y
 _atom_site_fract_z
 _atom_site_occupancy
  Tb  Tb0  1  0.708944  0.088836  0.878443  1
  Tb  Tb1  1  0.708944  0.911164  0.378443  1
  Tb  Tb2  1  0.592517  0.789954  0.878676  1
  Tb  Tb3  1  0.592517  0.210046  0.378676  1
  Tb  Tb4  1  0.414729  0.786912  0.378356  1
  Tb  Tb5  1  0.414729  0.213088  0.878356  1
  Tb  Tb6  1  0.208568  0.412578  0.622291  1
  Tb  Tb7  1  0.208568  0.587422  0.122291  1
  Tb  Tb8  1  0.791242  0.412376  0.121400  1
  Tb  Tb9  1  0.791242  0.587624  0.621400  1
  Tb  Tb10  1  0.911249  0.708588  0.121128  1
  Tb  Tb11  1  0.911249  0.291412  0.621128  1
  Tb  Tb12  1  0.085343  0.707795  0.620023  1
  Tb  Tb13  1  0.085343  0.292205  0.120023  1
  Ho  Ho14  1  0.996422  0.999221  0.500901  1
  Ho  Ho15  1  0.996422  0.000779  0.000901  1
  Ho  Ho16  1  0.501094  0.500082  0.001256  1
  Ho  Ho17  1  0.501094  0.499918  0.501256  1
  Th  Th18  1  0.290482  0.092248  0.378154  1
  Th  Th19  1  0.290482  0.907752  0.878154  1
  Ir  Ir20  1  0.847535  0.152839  0.250354  1
  Ir  Ir21  1  0.847535  0.847161  0.750354  1
  Ir  Ir22  1  0.155513  0.149975  0.746352  1
  Ir  Ir23  1  0.155513  0.850025  0.246352  1
  Ir  Ir24  1  0.653049  0.348143  0.750344  1
  Ir  Ir25  1  0.653049  0.651857  0.250344  1
  Ir  Ir26  1  0.346965  0.345607  0.253728  1
  Ir  Ir27  1  0.346965  0.654393  0.753728  1
  Ir  Ir28  1  0.496750  0.000914  0.121566  1
  Ir  Ir29  1  0.496750  0.999086  0.621566  1
  Ir  Ir30  1  0.999598  0.499490  0.877029  1
  Ir  Ir31  1  0.999598  0.500510  0.377029  1
