# generated using pymatgen
data_TbHo2Zr(Al3Rh)6
_symmetry_space_group_name_H-M   'P 1'
_cell_length_a   7.53608817
_cell_length_b   7.52173479
_cell_length_c   9.41619800
_cell_angle_alpha   90.00000000
_cell_angle_beta   90.00000000
_cell_angle_gamma   119.50577079
_symmetry_Int_Tables_number   1
_chemical_formula_structural   TbHo2Zr(Al3Rh)6
_chemical_formula_sum   'Tb1 Ho2 Zr1 Al18 Rh6'
_cell_volume   464.52767673
_cell_formula_units_Z   1
loop_
 _symmetry_equiv_pos_site_id
 _symmetry_equiv_pos_as_xyz
  1  'x, y, z'
loop_
 _atom_site_type_symbol
 _atom_site_label
 _atom_site_symmetry_multiplicity
 _atom_site_fract_x
 _atom_site_fract_y
 _atom_site_fract_z
 _atom_site_occupancy
  Tb  Tb0  1  0.328845  0.006425  0.250000  1
  Ho  Ho1  1  0.005906  0.327569  0.250000  1
  Ho  Ho2  1  0.671781  0.995978  0.750000  1
  Zr  Zr3  1  0.996647  0.671754  0.750000  1
  Al  Al4  1  0.123569  0.121292  0.750000  1
  Al  Al5  1  0.871658  0.870352  0.250000  1
  Al  Al6  1  0.999843  0.338332  0.579620  1
  Al  Al7  1  0.999439  0.664665  0.429098  1
  Al  Al8  1  0.999439  0.664665  0.070902  1
  Al  Al9  1  0.332145  0.997486  0.920062  1
  Al  Al10  1  0.999843  0.338332  0.920380  1
  Al  Al11  1  0.664717  0.998446  0.074857  1
  Al  Al12  1  0.664717  0.998446  0.425143  1
  Al  Al13  1  0.332145  0.997486  0.579938  1
  Al  Al14  1  0.333526  0.333787  0.047803  1
  Al  Al15  1  0.669511  0.667450  0.943889  1
  Al  Al16  1  0.669511  0.667450  0.556111  1
  Al  Al17  1  0.333526  0.333787  0.452197  1
  Al  Al18  1  0.335973  0.551444  0.750000  1
  Al  Al19  1  0.661432  0.451173  0.250000  1
  Al  Al20  1  0.556744  0.344338  0.750000  1
  Al  Al21  1  0.449351  0.658836  0.250000  1
  Rh  Rh22  1  0.672891  0.328331  0.501479  1
  Rh  Rh23  1  0.327978  0.672484  0.501658  1
  Rh  Rh24  1  0.327978  0.672484  0.998342  1
  Rh  Rh25  1  0.672891  0.328331  0.998521  1
  Rh  Rh26  1  0.998999  0.999438  0.501433  1
  Rh  Rh27  1  0.998999  0.999438  0.998567  1
