# generated using pymatgen
data_Pr2Sm4RhI10
_symmetry_space_group_name_H-M   'P 1'
_cell_length_a   7.92787528
_cell_length_b   9.96035311
_cell_length_c   9.96793622
_cell_angle_alpha   107.19885091
_cell_angle_beta   96.69955920
_cell_angle_gamma   105.14196605
_symmetry_Int_Tables_number   1
_chemical_formula_structural   Pr2Sm4RhI10
_chemical_formula_sum   'Pr2 Sm4 Rh1 I10'
_cell_volume   709.58300991
_cell_formula_units_Z   1
loop_
 _symmetry_equiv_pos_site_id
 _symmetry_equiv_pos_as_xyz
  1  'x, y, z'
loop_
 _atom_site_type_symbol
 _atom_site_label
 _atom_site_symmetry_multiplicity
 _atom_site_fract_x
 _atom_site_fract_y
 _atom_site_fract_z
 _atom_site_occupancy
  Pr  Pr0  1  0.615985  0.542441  0.261585  1
  Pr  Pr1  1  0.384015  0.457559  0.738415  1
  Sm  Sm2  1  0.529900  0.209753  0.412390  1
  Sm  Sm3  1  0.470100  0.790247  0.587610  1
  Sm  Sm4  1  0.146796  0.371478  0.331015  1
  Sm  Sm5  1  0.853204  0.628522  0.668985  1
  Rh  Rh6  1  0.500000  0.500000  0.500000  1
  I  I7  1  0.146142  0.047293  0.227737  1
  I  I8  1  0.853858  0.952707  0.772263  1
  I  I9  1  0.234885  0.410910  0.039965  1
  I  I10  1  0.765115  0.589090  0.960035  1
  I  I11  1  0.717049  0.238195  0.152949  1
  I  I12  1  0.282951  0.761805  0.847051  1
  I  I13  1  0.049769  0.681686  0.410280  1
  I  I14  1  0.950231  0.318314  0.589720  1
  I  I15  1  0.414383  0.125319  0.677483  1
  I  I16  1  0.585617  0.874681  0.322517  1
