# generated using pymatgen
data_Lu4Al24CoPt8
_symmetry_space_group_name_H-M   'P 1'
_cell_length_a   7.48736087
_cell_length_b   7.49139379
_cell_length_c   13.10443945
_cell_angle_alpha   84.42626428
_cell_angle_beta   79.02288491
_cell_angle_gamma   60.02746532
_symmetry_Int_Tables_number   1
_chemical_formula_structural   Lu4Al24CoPt8
_chemical_formula_sum   'Lu4 Al24 Co1 Pt8'
_cell_volume   625.08583996
_cell_formula_units_Z   1
loop_
 _symmetry_equiv_pos_site_id
 _symmetry_equiv_pos_as_xyz
  1  'x, y, z'
loop_
 _atom_site_type_symbol
 _atom_site_label
 _atom_site_symmetry_multiplicity
 _atom_site_fract_x
 _atom_site_fract_y
 _atom_site_fract_z
 _atom_site_occupancy
  Lu  Lu0  1  0.395881  0.166527  0.808753  1
  Lu  Lu1  1  0.604119  0.833473  0.191247  1
  Lu  Lu2  1  0.731733  0.498366  0.808807  1
  Lu  Lu3  1  0.268267  0.501634  0.191193  1
  Al  Al4  1  0.691078  0.824618  0.946791  1
  Al  Al5  1  0.308922  0.175382  0.053209  1
  Al  Al6  1  0.146444  0.832116  0.562167  1
  Al  Al7  1  0.853556  0.167884  0.437833  1
  Al  Al8  1  0.480109  0.167102  0.559248  1
  Al  Al9  1  0.519891  0.832898  0.440752  1
  Al  Al10  1  0.217452  0.166028  0.325896  1
  Al  Al11  1  0.782548  0.833972  0.674104  1
  Al  Al12  1  0.435243  0.507004  0.673853  1
  Al  Al13  1  0.564757  0.492996  0.326147  1
  Al  Al14  1  0.108791  0.160391  0.671801  1
  Al  Al15  1  0.891209  0.839609  0.328199  1
  Al  Al16  1  0.344515  0.497892  0.947056  1
  Al  Al17  1  0.655485  0.502108  0.052944  1
  Al  Al18  1  0.015200  0.179952  0.954986  1
  Al  Al19  1  0.984800  0.820048  0.045014  1
  Al  Al20  1  0.186435  0.499049  0.441103  1
  Al  Al21  1  0.813565  0.500951  0.558897  1
  Al  Al22  1  0.735453  0.164511  0.181623  1
  Al  Al23  1  0.264547  0.835489  0.818377  1
  Al  Al24  1  0.059310  0.621748  0.822455  1
  Al  Al25  1  0.940690  0.378252  0.177545  1
  Al  Al26  1  0.855935  0.040488  0.817871  1
  Al  Al27  1  0.144065  0.959512  0.182129  1
  Co  Co28  1  0.000000  0.500000  0.000000  1
  Pt  Pt29  1  0.119673  0.492025  0.640225  1
  Pt  Pt30  1  0.880327  0.507975  0.359775  1
  Pt  Pt31  1  0.656314  0.171772  0.999767  1
  Pt  Pt32  1  0.343686  0.828228  0.000233  1
  Pt  Pt33  1  0.537393  0.166697  0.360515  1
  Pt  Pt34  1  0.462607  0.833303  0.639485  1
  Pt  Pt35  1  0.777985  0.175718  0.637900  1
  Pt  Pt36  1  0.222015  0.824282  0.362100  1
