# generated using pymatgen
data_AcGa5Ni2
_symmetry_space_group_name_H-M   'P 1'
_cell_length_a   6.38338530
_cell_length_b   6.38338473
_cell_length_c   6.38338522
_cell_angle_alpha   142.19353096
_cell_angle_beta   113.11131889
_cell_angle_gamma   79.47849253
_symmetry_Int_Tables_number   1
_chemical_formula_structural   AcGa5Ni2
_chemical_formula_sum   'Ac1 Ga5 Ni2'
_cell_volume   142.84835019
_cell_formula_units_Z   1
loop_
 _symmetry_equiv_pos_site_id
 _symmetry_equiv_pos_as_xyz
  1  'x, y, z'
loop_
 _atom_site_type_symbol
 _atom_site_label
 _atom_site_symmetry_multiplicity
 _atom_site_fract_x
 _atom_site_fract_y
 _atom_site_fract_z
 _atom_site_occupancy
  Ac  Ac0  1  0.000000  0.000000  0.000000  1
  Ga  Ga1  1  0.500000  0.000000  0.500000  1
  Ga  Ga2  1  0.150451  0.341362  0.809090  1
  Ga  Ga3  1  0.849549  0.658638  0.190910  1
  Ga  Ga4  1  0.467727  0.658638  0.809090  1
  Ga  Ga5  1  0.532273  0.341362  0.190910  1
  Ni  Ni6  1  0.733576  0.233576  0.500000  1
  Ni  Ni7  1  0.266424  0.766424  0.500000  1
