# generated using pymatgen
data_Tb4Al4Ga13SiIr6
_symmetry_space_group_name_H-M   'P 1'
_cell_length_a   7.56367075
_cell_length_b   7.57204237
_cell_length_c   9.51498874
_cell_angle_alpha   89.90914761
_cell_angle_beta   89.97308881
_cell_angle_gamma   119.77486452
_symmetry_Int_Tables_number   1
_chemical_formula_structural   Tb4Al4Ga13SiIr6
_chemical_formula_sum   'Tb4 Al4 Ga13 Si1 Ir6'
_cell_volume   473.00348778
_cell_formula_units_Z   1
loop_
 _symmetry_equiv_pos_site_id
 _symmetry_equiv_pos_as_xyz
  1  'x, y, z'
loop_
 _atom_site_type_symbol
 _atom_site_label
 _atom_site_symmetry_multiplicity
 _atom_site_fract_x
 _atom_site_fract_y
 _atom_site_fract_z
 _atom_site_occupancy
  Tb  Tb0  1  0.004598  0.673255  0.248473  1
  Tb  Tb1  1  0.998757  0.329659  0.750220  1
  Tb  Tb2  1  0.667017  0.001130  0.248327  1
  Tb  Tb3  1  0.330004  0.998861  0.749978  1
  Al  Al4  1  0.331700  0.332126  0.553724  1
  Al  Al5  1  0.668666  0.668548  0.445720  1
  Al  Al6  1  0.668598  0.667919  0.056090  1
  Al  Al7  1  0.332131  0.335708  0.945041  1
  Ga  Ga8  1  0.127873  0.127662  0.250834  1
  Ga  Ga9  1  0.875078  0.874390  0.750793  1
  Ga  Ga10  1  0.000176  0.334786  0.080508  1
  Ga  Ga11  1  0.994736  0.659439  0.918936  1
  Ga  Ga12  1  0.998641  0.664303  0.579554  1
  Ga  Ga13  1  0.335189  0.000501  0.421265  1
  Ga  Ga14  1  0.999884  0.334778  0.420445  1
  Ga  Ga15  1  0.665440  0.999084  0.579378  1
  Ga  Ga16  1  0.669118  0.998644  0.918829  1
  Ga  Ga17  1  0.348321  0.551280  0.250536  1
  Ga  Ga18  1  0.651327  0.448677  0.750520  1
  Ga  Ga19  1  0.549896  0.349014  0.251485  1
  Ga  Ga20  1  0.448562  0.652275  0.751210  1
  Si  Si21  1  0.334662  0.001332  0.071456  1
  Ir  Ir22  1  0.656819  0.317934  0.001876  1
  Ir  Ir23  1  0.331329  0.680992  0.002939  1
  Ir  Ir24  1  0.330313  0.669510  0.500313  1
  Ir  Ir25  1  0.669075  0.329829  0.500209  1
  Ir  Ir26  1  0.011750  0.998762  0.001516  1
  Ir  Ir27  1  0.000338  0.999601  0.499824  1
