# generated using pymatgen
data_Nd2ErHf(Al3Ir)6
_symmetry_space_group_name_H-M   'P 1'
_cell_length_a   7.56873834
_cell_length_b   7.55990678
_cell_length_c   9.46353100
_cell_angle_alpha   90.00000000
_cell_angle_beta   90.00000000
_cell_angle_gamma   119.51501855
_symmetry_Int_Tables_number   1
_chemical_formula_structural   Nd2ErHf(Al3Ir)6
_chemical_formula_sum   'Nd2 Er1 Hf1 Al18 Ir6'
_cell_volume   471.22192646
_cell_formula_units_Z   1
loop_
 _symmetry_equiv_pos_site_id
 _symmetry_equiv_pos_as_xyz
  1  'x, y, z'
loop_
 _atom_site_type_symbol
 _atom_site_label
 _atom_site_symmetry_multiplicity
 _atom_site_fract_x
 _atom_site_fract_y
 _atom_site_fract_z
 _atom_site_occupancy
  Nd  Nd0  1  0.004754  0.326972  0.750000  1
  Nd  Nd1  1  0.329408  0.006186  0.750000  1
  Er  Er2  1  0.671448  0.996041  0.250000  1
  Hf  Hf3  1  0.998087  0.674643  0.250000  1
  Al  Al4  1  0.125128  0.123127  0.250000  1
  Al  Al5  1  0.868009  0.866472  0.750000  1
  Al  Al6  1  0.999694  0.338453  0.081809  1
  Al  Al7  1  0.997847  0.664868  0.934066  1
  Al  Al8  1  0.997847  0.664868  0.565934  1
  Al  Al9  1  0.332929  0.997896  0.418176  1
  Al  Al10  1  0.999694  0.338453  0.418191  1
  Al  Al11  1  0.664470  0.996185  0.569915  1
  Al  Al12  1  0.664470  0.996185  0.930085  1
  Al  Al13  1  0.332929  0.997896  0.081824  1
  Al  Al14  1  0.334533  0.334758  0.543188  1
  Al  Al15  1  0.669293  0.667280  0.441362  1
  Al  Al16  1  0.669293  0.667280  0.058638  1
  Al  Al17  1  0.334533  0.334758  0.956812  1
  Al  Al18  1  0.336708  0.550638  0.250000  1
  Al  Al19  1  0.660938  0.454739  0.750000  1
  Al  Al20  1  0.556704  0.345160  0.250000  1
  Al  Al21  1  0.453215  0.659369  0.750000  1
  Ir  Ir22  1  0.672836  0.328894  0.003217  1
  Ir  Ir23  1  0.328595  0.672705  0.004059  1
  Ir  Ir24  1  0.328595  0.672705  0.495941  1
  Ir  Ir25  1  0.672836  0.328894  0.496783  1
  Ir  Ir26  1  0.997602  0.997287  0.003998  1
  Ir  Ir27  1  0.997602  0.997287  0.496002  1
