# generated using pymatgen
data_K2Re2OF10
_symmetry_space_group_name_H-M   'P 1'
_cell_length_a   5.13998800
_cell_length_b   7.42826111
_cell_length_c   13.17244928
_cell_angle_alpha   79.25323192
_cell_angle_beta   90.00000000
_cell_angle_gamma   90.00000000
_symmetry_Int_Tables_number   1
_chemical_formula_structural   K2Re2OF10
_chemical_formula_sum   'K4 Re4 O2 F20'
_cell_volume   494.11846570
_cell_formula_units_Z   2
loop_
 _symmetry_equiv_pos_site_id
 _symmetry_equiv_pos_as_xyz
  1  'x, y, z'
loop_
 _atom_site_type_symbol
 _atom_site_label
 _atom_site_symmetry_multiplicity
 _atom_site_fract_x
 _atom_site_fract_y
 _atom_site_fract_z
 _atom_site_occupancy
  K  K0  1  0.438466  0.226810  0.592949  1
  K  K1  1  0.561534  0.226810  0.092949  1
  K  K2  1  0.561534  0.773190  0.407051  1
  K  K3  1  0.438466  0.773190  0.907051  1
  Re  Re4  1  0.014493  0.286331  0.339189  1
  Re  Re5  1  0.985507  0.286331  0.839189  1
  Re  Re6  1  0.014493  0.713669  0.160811  1
  Re  Re7  1  0.985507  0.713669  0.660811  1
  O  O8  1  0.086848  0.500000  0.750000  1
  O  O9  1  0.913152  0.500000  0.250000  1
  F  F10  1  0.715533  0.860986  0.183530  1
  F  F11  1  0.676948  0.584040  0.626969  1
  F  F12  1  0.174535  0.796472  0.277292  1
  F  F13  1  0.826149  0.078944  0.926400  1
  F  F14  1  0.323052  0.415960  0.373031  1
  F  F15  1  0.173851  0.921056  0.073600  1
  F  F16  1  0.174535  0.203528  0.222708  1
  F  F17  1  0.284467  0.860986  0.683530  1
  F  F18  1  0.825465  0.203528  0.722708  1
  F  F19  1  0.676948  0.415960  0.873031  1
  F  F20  1  0.173851  0.078944  0.426400  1
  F  F21  1  0.155896  0.350760  0.959345  1
  F  F22  1  0.284467  0.139014  0.816470  1
  F  F23  1  0.844104  0.649240  0.040655  1
  F  F24  1  0.825465  0.796472  0.777292  1
  F  F25  1  0.715533  0.139014  0.316470  1
  F  F26  1  0.826149  0.921056  0.573600  1
  F  F27  1  0.844104  0.350760  0.459345  1
  F  F28  1  0.323052  0.584040  0.126969  1
  F  F29  1  0.155896  0.649240  0.540655  1
