# generated using pymatgen
data_Dy5Y4Tm11Bi12
_symmetry_space_group_name_H-M   'P 1'
_cell_length_a   8.22097465
_cell_length_b   9.45597127
_cell_length_c   12.01687356
_cell_angle_alpha   89.98591000
_cell_angle_beta   90.05555930
_cell_angle_gamma   89.99472527
_symmetry_Int_Tables_number   1
_chemical_formula_structural   Dy5Y4Tm11Bi12
_chemical_formula_sum   'Dy5 Y4 Tm11 Bi12'
_cell_volume   934.15883443
_cell_formula_units_Z   1
loop_
 _symmetry_equiv_pos_site_id
 _symmetry_equiv_pos_as_xyz
  1  'x, y, z'
loop_
 _atom_site_type_symbol
 _atom_site_label
 _atom_site_symmetry_multiplicity
 _atom_site_fract_x
 _atom_site_fract_y
 _atom_site_fract_z
 _atom_site_occupancy
  Dy  Dy0  1  0.186265  0.749911  0.718243  1
  Dy  Dy1  1  0.686331  0.749941  0.781764  1
  Dy  Dy2  1  0.813690  0.249533  0.281465  1
  Dy  Dy3  1  0.313499  0.249743  0.218023  1
  Dy  Dy4  1  0.807805  0.436570  0.559305  1
  Y  Y5  1  0.353812  0.749759  0.215930  1
  Y  Y6  1  0.853495  0.749357  0.283755  1
  Y  Y7  1  0.645182  0.249158  0.784170  1
  Y  Y8  1  0.146892  0.249214  0.716387  1
  Tm  Tm9  1  0.024273  0.749626  0.988696  1
  Tm  Tm10  1  0.524113  0.749742  0.511633  1
  Tm  Tm11  1  0.975831  0.249901  0.011465  1
  Tm  Tm12  1  0.475096  0.249767  0.488410  1
  Tm  Tm13  1  0.307767  0.434029  0.940958  1
  Tm  Tm14  1  0.807695  0.066583  0.559398  1
  Tm  Tm15  1  0.692295  0.933999  0.059042  1
  Tm  Tm16  1  0.191807  0.566167  0.440897  1
  Tm  Tm17  1  0.692095  0.566042  0.059075  1
  Tm  Tm18  1  0.193016  0.934599  0.440416  1
  Tm  Tm19  1  0.307752  0.065781  0.941203  1
  Bi  Bi20  1  0.433892  0.003299  0.672778  1
  Bi  Bi21  1  0.934048  0.495852  0.827531  1
  Bi  Bi22  1  0.566233  0.503421  0.327182  1
  Bi  Bi23  1  0.066188  0.995722  0.172548  1
  Bi  Bi24  1  0.566123  0.995931  0.327346  1
  Bi  Bi25  1  0.066430  0.503698  0.172391  1
  Bi  Bi26  1  0.433402  0.495974  0.672871  1
  Bi  Bi27  1  0.933856  0.003698  0.827637  1
  Bi  Bi28  1  0.405574  0.749922  0.957061  1
  Bi  Bi29  1  0.906670  0.753233  0.542284  1
  Bi  Bi30  1  0.594500  0.250137  0.043116  1
  Bi  Bi31  1  0.094376  0.249690  0.457023  1
