# generated using pymatgen
data_PrTh3(BeSi3)2
_symmetry_space_group_name_H-M   'P 1'
_cell_length_a   7.98512800
_cell_length_b   7.98512739
_cell_length_c   8.59369300
_cell_angle_alpha   90.00000000
_cell_angle_beta   90.00000000
_cell_angle_gamma   120.00000251
_symmetry_Int_Tables_number   1
_chemical_formula_structural   PrTh3(BeSi3)2
_chemical_formula_sum   'Pr2 Th6 Be4 Si12'
_cell_volume   474.54148722
_cell_formula_units_Z   2
loop_
 _symmetry_equiv_pos_site_id
 _symmetry_equiv_pos_as_xyz
  1  'x, y, z'
loop_
 _atom_site_type_symbol
 _atom_site_label
 _atom_site_symmetry_multiplicity
 _atom_site_fract_x
 _atom_site_fract_y
 _atom_site_fract_z
 _atom_site_occupancy
  Pr  Pr0  1  0.000000  0.000000  0.750000  1
  Pr  Pr1  1  0.000000  0.000000  0.250000  1
  Th  Th2  1  0.499893  0.500107  0.750000  1
  Th  Th3  1  0.500107  0.499893  0.250000  1
  Th  Th4  1  0.000215  0.500107  0.750000  1
  Th  Th5  1  0.999785  0.499893  0.250000  1
  Th  Th6  1  0.499893  0.999785  0.750000  1
  Th  Th7  1  0.500107  0.000215  0.250000  1
  Be  Be8  1  0.666667  0.333333  0.997438  1
  Be  Be9  1  0.333333  0.666667  0.002562  1
  Be  Be10  1  0.333333  0.666667  0.497438  1
  Be  Be11  1  0.666667  0.333333  0.502562  1
  Si  Si12  1  0.826264  0.173736  0.000223  1
  Si  Si13  1  0.173736  0.826264  0.999777  1
  Si  Si14  1  0.347472  0.173736  0.000223  1
  Si  Si15  1  0.173736  0.826264  0.500223  1
  Si  Si16  1  0.652528  0.826264  0.999777  1
  Si  Si17  1  0.826264  0.173736  0.499777  1
  Si  Si18  1  0.826264  0.652528  0.000223  1
  Si  Si19  1  0.652528  0.826264  0.500223  1
  Si  Si20  1  0.173736  0.347472  0.999777  1
  Si  Si21  1  0.347472  0.173736  0.499777  1
  Si  Si22  1  0.173736  0.347472  0.500223  1
  Si  Si23  1  0.826264  0.652528  0.499777  1
