# generated using pymatgen
data_Li14FeSiN8
_symmetry_space_group_name_H-M   'P 1'
_cell_length_a   6.67629000
_cell_length_b   6.67629000
_cell_length_c   4.81607300
_cell_angle_alpha   90.00000000
_cell_angle_beta   90.00000000
_cell_angle_gamma   90.00000000
_symmetry_Int_Tables_number   1
_chemical_formula_structural   Li14FeSiN8
_chemical_formula_sum   'Li14 Fe1 Si1 N8'
_cell_volume   214.66609058
_cell_formula_units_Z   1
loop_
 _symmetry_equiv_pos_site_id
 _symmetry_equiv_pos_as_xyz
  1  'x, y, z'
loop_
 _atom_site_type_symbol
 _atom_site_label
 _atom_site_symmetry_multiplicity
 _atom_site_fract_x
 _atom_site_fract_y
 _atom_site_fract_z
 _atom_site_occupancy
  Li  Li0  1  0.500000  0.000000  0.585665  1
  Li  Li1  1  0.234291  0.765709  0.000000  1
  Li  Li2  1  0.000000  0.500000  0.890807  1
  Li  Li3  1  0.765709  0.234291  0.000000  1
  Li  Li4  1  0.257242  0.742758  0.500000  1
  Li  Li5  1  0.000000  0.000000  0.000000  1
  Li  Li6  1  0.500000  0.000000  0.109193  1
  Li  Li7  1  0.742758  0.742758  0.500000  1
  Li  Li8  1  0.257242  0.257242  0.500000  1
  Li  Li9  1  0.234291  0.234291  0.000000  1
  Li  Li10  1  0.765709  0.765709  0.000000  1
  Li  Li11  1  0.742758  0.257242  0.500000  1
  Li  Li12  1  0.000000  0.500000  0.414335  1
  Li  Li13  1  0.500000  0.500000  0.500000  1
  Fe  Fe14  1  0.500000  0.500000  0.000000  1
  Si  Si15  1  0.000000  0.000000  0.500000  1
  N  N16  1  0.000000  0.225480  0.706890  1
  N  N17  1  0.281068  0.500000  0.208250  1
  N  N18  1  0.500000  0.281068  0.791750  1
  N  N19  1  0.000000  0.774520  0.706890  1
  N  N20  1  0.500000  0.718932  0.791750  1
  N  N21  1  0.774520  0.000000  0.293110  1
  N  N22  1  0.718932  0.500000  0.208250  1
  N  N23  1  0.225480  0.000000  0.293110  1
