# generated using pymatgen
data_Yb7ThP6
_symmetry_space_group_name_H-M   'P 1'
_cell_length_a   7.53707083
_cell_length_b   7.53707111
_cell_length_c   7.47251300
_cell_angle_alpha   109.29780531
_cell_angle_beta   109.29780607
_cell_angle_gamma   109.64407633
_symmetry_Int_Tables_number   1
_chemical_formula_structural   Yb7ThP6
_chemical_formula_sum   'Yb7 Th1 P6'
_cell_volume   327.47262153
_cell_formula_units_Z   1
loop_
 _symmetry_equiv_pos_site_id
 _symmetry_equiv_pos_as_xyz
  1  'x, y, z'
loop_
 _atom_site_type_symbol
 _atom_site_label
 _atom_site_symmetry_multiplicity
 _atom_site_fract_x
 _atom_site_fract_y
 _atom_site_fract_z
 _atom_site_occupancy
  Yb  Yb0  1  0.638961  0.637835  0.638955  1
  Yb  Yb1  1  0.014782  0.379082  0.510861  1
  Yb  Yb2  1  0.364301  0.485218  0.996078  1
  Yb  Yb3  1  0.998874  0.861039  0.499995  1
  Yb  Yb4  1  0.862165  0.501126  0.001120  1
  Yb  Yb5  1  0.500000  0.000000  0.861346  1
  Yb  Yb6  1  0.120918  0.135699  0.131779  1
  Th  Th7  1  0.500000  0.000000  0.355355  1
  P  P8  1  0.869295  0.123406  0.742206  1
  P  P9  1  0.376594  0.245890  0.618801  1
  P  P10  1  0.131471  0.757956  0.886672  1
  P  P11  1  0.742044  0.873516  0.128717  1
  P  P12  1  0.254110  0.630705  0.372911  1
  P  P13  1  0.626484  0.368529  0.255202  1
