# generated using pymatgen
data_Ti6Nb6Si5B
_symmetry_space_group_name_H-M   'P 1'
_cell_length_a   7.62309822
_cell_length_b   7.62630643
_cell_length_c   7.62309772
_cell_angle_alpha   127.31181397
_cell_angle_beta   124.98169039
_cell_angle_gamma   79.65082334
_symmetry_Int_Tables_number   1
_chemical_formula_structural   Ti6Nb6Si5B
_chemical_formula_sum   'Ti6 Nb6 Si5 B1'
_cell_volume   279.05265993
_cell_formula_units_Z   1
loop_
 _symmetry_equiv_pos_site_id
 _symmetry_equiv_pos_as_xyz
  1  'x, y, z'
loop_
 _atom_site_type_symbol
 _atom_site_label
 _atom_site_symmetry_multiplicity
 _atom_site_fract_x
 _atom_site_fract_y
 _atom_site_fract_z
 _atom_site_occupancy
  Ti  Ti0  1  0.514817  0.252657  0.767516  1
  Ti  Ti1  1  0.985142  0.252657  0.237840  1
  Ti  Ti2  1  0.106481  0.740784  0.603375  1
  Ti  Ti3  1  0.860126  0.496885  0.601162  1
  Ti  Ti4  1  0.637408  0.740784  0.134303  1
  Ti  Ti5  1  0.395723  0.496885  0.136760  1
  Nb  Nb6  1  0.544204  0.084524  0.040319  1
  Nb  Nb7  1  0.453365  0.496096  0.542731  1
  Nb  Nb8  1  0.955834  0.496510  0.040676  1
  Nb  Nb9  1  0.046215  0.088621  0.542407  1
  Nb  Nb10  1  0.750398  0.907355  0.656957  1
  Nb  Nb11  1  0.250048  0.907965  0.157917  1
  Si  Si12  1  0.248796  0.498598  0.749803  1
  Si  Si13  1  0.332292  0.829825  0.495546  1
  Si  Si14  1  0.666025  0.163530  0.495798  1
  Si  Si15  1  0.834279  0.829825  0.997533  1
  Si  Si16  1  0.167732  0.163530  0.997505  1
  B  B17  1  0.751116  0.495168  0.244052  1
