# generated using pymatgen
data_ScNb9Se16
_symmetry_space_group_name_H-M   'P 1'
_cell_length_a   6.99650200
_cell_length_b   6.99650246
_cell_length_c   13.45334900
_cell_angle_alpha   90.00000000
_cell_angle_beta   90.00000000
_cell_angle_gamma   119.99999783
_symmetry_Int_Tables_number   1
_chemical_formula_structural   ScNb9Se16
_chemical_formula_sum   'Sc1 Nb9 Se16'
_cell_volume   570.32578055
_cell_formula_units_Z   1
loop_
 _symmetry_equiv_pos_site_id
 _symmetry_equiv_pos_as_xyz
  1  'x, y, z'
loop_
 _atom_site_type_symbol
 _atom_site_label
 _atom_site_symmetry_multiplicity
 _atom_site_fract_x
 _atom_site_fract_y
 _atom_site_fract_z
 _atom_site_occupancy
  Sc  Sc0  1  0.000000  0.000000  0.500000  1
  Nb  Nb1  1  0.000000  0.000000  0.245383  1
  Nb  Nb2  1  0.000000  0.000000  0.754617  1
  Nb  Nb3  1  0.507011  0.014022  0.245133  1
  Nb  Nb4  1  0.985978  0.492989  0.245133  1
  Nb  Nb5  1  0.507011  0.492989  0.245133  1
  Nb  Nb6  1  0.492989  0.985978  0.754867  1
  Nb  Nb7  1  0.014022  0.507011  0.754867  1
  Nb  Nb8  1  0.492989  0.507011  0.754867  1
  Nb  Nb9  1  0.000000  0.000000  0.000000  1
  Se  Se10  1  0.333333  0.666667  0.883325  1
  Se  Se11  1  0.666667  0.333333  0.116675  1
  Se  Se12  1  0.666667  0.333333  0.373589  1
  Se  Se13  1  0.333333  0.666667  0.626411  1
  Se  Se14  1  0.168902  0.831098  0.369554  1
  Se  Se15  1  0.168902  0.337802  0.369554  1
  Se  Se16  1  0.662198  0.831098  0.369554  1
  Se  Se17  1  0.831098  0.168902  0.630446  1
  Se  Se18  1  0.831098  0.662198  0.630446  1
  Se  Se19  1  0.337802  0.168902  0.630446  1
  Se  Se20  1  0.831306  0.168694  0.878562  1
  Se  Se21  1  0.831306  0.662611  0.878562  1
  Se  Se22  1  0.337389  0.168694  0.878562  1
  Se  Se23  1  0.168694  0.831306  0.121438  1
  Se  Se24  1  0.168694  0.337389  0.121438  1
  Se  Se25  1  0.662611  0.831306  0.121438  1
