# generated using pymatgen
data_Ac5Pr3(Si4I3)2
_symmetry_space_group_name_H-M   'P 1'
_cell_length_a   12.69751201
_cell_length_b   12.69751114
_cell_length_c   12.82492466
_cell_angle_alpha   83.14874453
_cell_angle_beta   83.14874543
_cell_angle_gamma   19.73637515
_symmetry_Int_Tables_number   1
_chemical_formula_structural   Ac5Pr3(Si4I3)2
_chemical_formula_sum   'Ac5 Pr3 Si8 I6'
_cell_volume   693.11734132
_cell_formula_units_Z   1
loop_
 _symmetry_equiv_pos_site_id
 _symmetry_equiv_pos_as_xyz
  1  'x, y, z'
loop_
 _atom_site_type_symbol
 _atom_site_label
 _atom_site_symmetry_multiplicity
 _atom_site_fract_x
 _atom_site_fract_y
 _atom_site_fract_z
 _atom_site_occupancy
  Ac  Ac0  1  0.494766  0.494766  0.164157  1
  Ac  Ac1  1  0.924001  0.924001  0.446272  1
  Ac  Ac2  1  0.352778  0.352778  0.018671  1
  Ac  Ac3  1  0.077038  0.077038  0.557172  1
  Ac  Ac4  1  0.647327  0.647327  0.978411  1
  Pr  Pr5  1  0.634031  0.634031  0.289666  1
  Pr  Pr6  1  0.366999  0.366999  0.708690  1
  Pr  Pr7  1  0.501964  0.501964  0.838554  1
  Si  Si8  1  0.523922  0.523922  0.407929  1
  Si  Si9  1  0.040792  0.040792  0.324414  1
  Si  Si10  1  0.049367  0.049367  0.984150  1
  Si  Si11  1  0.477817  0.477817  0.596284  1
  Si  Si12  1  0.907419  0.907419  0.853478  1
  Si  Si13  1  0.951062  0.951062  0.007821  1
  Si  Si14  1  0.960967  0.960967  0.678927  1
  Si  Si15  1  0.093163  0.093163  0.141943  1
  I  I16  1  0.247877  0.247877  0.863935  1
  I  I17  1  0.752917  0.752917  0.133887  1
  I  I18  1  0.800564  0.800564  0.583132  1
  I  I19  1  0.364594  0.364594  0.287849  1
  I  I20  1  0.199834  0.199834  0.416597  1
  I  I21  1  0.630798  0.630798  0.718060  1
