# generated using pymatgen
data_U6ZnBiF30
_symmetry_space_group_name_H-M   'P 1'
_cell_length_a   8.48564695
_cell_length_b   8.48564634
_cell_length_c   8.50443900
_cell_angle_alpha   79.61709045
_cell_angle_beta   79.61709807
_cell_angle_gamma   100.10271814
_symmetry_Int_Tables_number   1
_chemical_formula_structural   U6ZnBiF30
_chemical_formula_sum   'U6 Zn1 Bi1 F30'
_cell_volume   578.64234447
_cell_formula_units_Z   1
loop_
 _symmetry_equiv_pos_site_id
 _symmetry_equiv_pos_as_xyz
  1  'x, y, z'
loop_
 _atom_site_type_symbol
 _atom_site_label
 _atom_site_symmetry_multiplicity
 _atom_site_fract_x
 _atom_site_fract_y
 _atom_site_fract_z
 _atom_site_occupancy
  U  U0  1  0.746960  0.253040  0.250000  1
  U  U1  1  0.253877  0.746123  0.750000  1
  U  U2  1  0.763993  0.683142  0.668006  1
  U  U3  1  0.316858  0.236007  0.831994  1
  U  U4  1  0.244954  0.323787  0.321788  1
  U  U5  1  0.676213  0.755046  0.178212  1
  Zn  Zn6  1  0.172893  0.827107  0.250000  1
  Bi  Bi7  1  0.817886  0.182114  0.750000  1
  F  F8  1  0.481330  0.518670  0.250000  1
  F  F9  1  0.742946  0.966497  0.970115  1
  F  F10  1  0.033503  0.257054  0.529885  1
  F  F11  1  0.243139  0.025913  0.045141  1
  F  F12  1  0.974087  0.756861  0.454859  1
  F  F13  1  0.542528  0.457472  0.750000  1
  F  F14  1  0.211490  0.481880  0.780335  1
  F  F15  1  0.226914  0.714583  0.000909  1
  F  F16  1  0.991092  0.732910  0.789702  1
  F  F17  1  0.719774  0.987705  0.297450  1
  F  F18  1  0.703103  0.235303  0.509623  1
  F  F19  1  0.485812  0.205678  0.276415  1
  F  F20  1  0.794323  0.514188  0.223585  1
  F  F21  1  0.764697  0.296897  0.990377  1
  F  F22  1  0.012295  0.280226  0.202550  1
  F  F23  1  0.267090  0.008908  0.710298  1
  F  F24  1  0.285417  0.773086  0.499091  1
  F  F25  1  0.518120  0.788510  0.719665  1
  F  F26  1  0.533765  0.129121  0.826073  1
  F  F27  1  0.183007  0.059602  0.346555  1
  F  F28  1  0.642388  0.672538  0.450867  1
  F  F29  1  0.680541  0.652412  0.943347  1
  F  F30  1  0.047115  0.174757  0.860255  1
  F  F31  1  0.168606  0.558283  0.308137  1
  F  F32  1  0.441717  0.831394  0.191863  1
  F  F33  1  0.825243  0.952885  0.639745  1
  F  F34  1  0.347588  0.319459  0.556653  1
  F  F35  1  0.327462  0.357612  0.049133  1
  F  F36  1  0.940398  0.816993  0.153445  1
  F  F37  1  0.870879  0.466235  0.673927  1
