# generated using pymatgen
data_Ho2Tm3In4PtAu
_symmetry_space_group_name_H-M   'P 1'
_cell_length_a   3.62471600
_cell_length_b   8.12878900
_cell_length_c   18.21784051
_cell_angle_alpha   89.94090610
_cell_angle_beta   90.00000000
_cell_angle_gamma   90.00000000
_symmetry_Int_Tables_number   1
_chemical_formula_structural   Ho2Tm3In4PtAu
_chemical_formula_sum   'Ho4 Tm6 In8 Pt2 Au2'
_cell_volume   536.78021541
_cell_formula_units_Z   2
loop_
 _symmetry_equiv_pos_site_id
 _symmetry_equiv_pos_as_xyz
  1  'x, y, z'
loop_
 _atom_site_type_symbol
 _atom_site_label
 _atom_site_symmetry_multiplicity
 _atom_site_fract_x
 _atom_site_fract_y
 _atom_site_fract_z
 _atom_site_occupancy
  Ho  Ho0  1  0.000000  0.267944  0.721109  1
  Ho  Ho1  1  0.000000  0.732056  0.278891  1
  Ho  Ho2  1  0.000000  0.000000  0.000000  1
  Ho  Ho3  1  0.000000  0.500000  0.500000  1
  Tm  Tm4  1  0.000000  0.119580  0.419074  1
  Tm  Tm5  1  0.000000  0.880420  0.580926  1
  Tm  Tm6  1  0.000000  0.384780  0.916172  1
  Tm  Tm7  1  0.000000  0.615220  0.083828  1
  Tm  Tm8  1  0.000000  0.253159  0.216885  1
  Tm  Tm9  1  0.000000  0.746841  0.783115  1
  In  In10  1  0.500000  0.420873  0.352298  1
  In  In11  1  0.500000  0.579127  0.647702  1
  In  In12  1  0.500000  0.078219  0.852721  1
  In  In13  1  0.500000  0.921781  0.147279  1
  In  In14  1  0.500000  0.292338  0.065344  1
  In  In15  1  0.500000  0.707662  0.934656  1
  In  In16  1  0.500000  0.208943  0.567065  1
  In  In17  1  0.500000  0.791057  0.432935  1
  Pt  Pt18  1  0.500000  0.473303  0.804494  1
  Pt  Pt19  1  0.500000  0.526697  0.195506  1
  Au  Au20  1  0.500000  0.030714  0.302420  1
  Au  Au21  1  0.500000  0.969286  0.697580  1
