# generated using pymatgen
data_CaLaB5Os2Ru
_symmetry_space_group_name_H-M   'P 1'
_cell_length_a   5.74233687
_cell_length_b   5.71250922
_cell_length_c   8.11798596
_cell_angle_alpha   57.05344609
_cell_angle_beta   57.36337251
_cell_angle_gamma   41.76398480
_symmetry_Int_Tables_number   1
_chemical_formula_structural   CaLaB5Os2Ru
_chemical_formula_sum   'Ca1 La1 B5 Os2 Ru1'
_cell_volume   144.52726469
_cell_formula_units_Z   1
loop_
 _symmetry_equiv_pos_site_id
 _symmetry_equiv_pos_as_xyz
  1  'x, y, z'
loop_
 _atom_site_type_symbol
 _atom_site_label
 _atom_site_symmetry_multiplicity
 _atom_site_fract_x
 _atom_site_fract_y
 _atom_site_fract_z
 _atom_site_occupancy
  Ca  Ca0  1  0.082009  0.600198  0.251171  1
  La  La1  1  0.392229  0.938473  0.735613  1
  B  B2  1  0.736410  0.260035  0.003708  1
  B  B3  1  0.534580  0.523476  0.381351  1
  B  B4  1  0.474915  0.469879  0.621730  1
  B  B5  1  0.080973  0.625828  0.814925  1
  B  B6  1  0.370922  0.916970  0.188150  1
  Os  Os7  1  0.611735  0.122636  0.904631  1
  Os  Os8  1  0.873068  0.388164  0.098948  1
  Ru  Ru9  1  0.009431  0.988068  0.499773  1
