# generated using pymatgen
data_La2Ho3Si3Pd
_symmetry_space_group_name_H-M   'P 1'
_cell_length_a   7.71433500
_cell_length_b   7.70923300
_cell_length_c   15.00811600
_cell_angle_alpha   90.00000000
_cell_angle_beta   90.00000000
_cell_angle_gamma   90.00000000
_symmetry_Int_Tables_number   1
_chemical_formula_structural   La2Ho3Si3Pd
_chemical_formula_sum   'La8 Ho12 Si12 Pd4'
_cell_volume   892.55676088
_cell_formula_units_Z   4
loop_
 _symmetry_equiv_pos_site_id
 _symmetry_equiv_pos_as_xyz
  1  'x, y, z'
loop_
 _atom_site_type_symbol
 _atom_site_label
 _atom_site_symmetry_multiplicity
 _atom_site_fract_x
 _atom_site_fract_y
 _atom_site_fract_z
 _atom_site_occupancy
  La  La0  1  0.975782  0.822655  0.098979  1
  La  La1  1  0.475782  0.677345  0.401021  1
  La  La2  1  0.524218  0.322655  0.901021  1
  La  La3  1  0.024218  0.177345  0.598979  1
  La  La4  1  0.024770  0.180835  0.899481  1
  La  La5  1  0.524770  0.319165  0.600519  1
  La  La6  1  0.475230  0.680835  0.100519  1
  La  La7  1  0.975230  0.819165  0.399481  1
  Ho  Ho8  1  0.659564  0.997237  0.250850  1
  Ho  Ho9  1  0.159564  0.502763  0.249150  1
  Ho  Ho10  1  0.840436  0.497237  0.749150  1
  Ho  Ho11  1  0.340436  0.002763  0.750850  1
  Ho  Ho12  1  0.669730  0.823915  0.878220  1
  Ho  Ho13  1  0.169730  0.676085  0.621780  1
  Ho  Ho14  1  0.830270  0.323915  0.121780  1
  Ho  Ho15  1  0.330270  0.176085  0.378220  1
  Ho  Ho16  1  0.325872  0.172637  0.120875  1
  Ho  Ho17  1  0.825872  0.327363  0.379125  1
  Ho  Ho18  1  0.174128  0.672637  0.879125  1
  Ho  Ho19  1  0.674128  0.827363  0.620875  1
  Si  Si20  1  0.770093  0.619016  0.249633  1
  Si  Si21  1  0.270093  0.880984  0.250367  1
  Si  Si22  1  0.729907  0.119016  0.750367  1
  Si  Si23  1  0.229907  0.380984  0.749633  1
  Si  Si24  1  0.035045  0.113657  0.250489  1
  Si  Si25  1  0.535045  0.386343  0.249511  1
  Si  Si26  1  0.464955  0.613657  0.749511  1
  Si  Si27  1  0.964955  0.886343  0.750489  1
  Si  Si28  1  0.153724  0.466743  0.043134  1
  Si  Si29  1  0.653724  0.033257  0.456866  1
  Si  Si30  1  0.346276  0.966743  0.956866  1
  Si  Si31  1  0.846276  0.533257  0.543134  1
  Pd  Pd32  1  0.854768  0.530337  0.957995  1
  Pd  Pd33  1  0.354768  0.969663  0.542005  1
  Pd  Pd34  1  0.645232  0.030337  0.042005  1
  Pd  Pd35  1  0.145232  0.469663  0.457995  1
