# generated using pymatgen
data_Zn(AuF6)2
_symmetry_space_group_name_H-M   'P 1'
_cell_length_a   5.57789176
_cell_length_b   11.10561014
_cell_length_c   5.56658582
_cell_angle_alpha   56.71296300
_cell_angle_beta   56.94189160
_cell_angle_gamma   56.88774872
_symmetry_Int_Tables_number   1
_chemical_formula_structural   Zn(AuF6)2
_chemical_formula_sum   'Zn1 Au2 F12'
_cell_volume   226.09049851
_cell_formula_units_Z   1
loop_
 _symmetry_equiv_pos_site_id
 _symmetry_equiv_pos_as_xyz
  1  'x, y, z'
loop_
 _atom_site_type_symbol
 _atom_site_label
 _atom_site_symmetry_multiplicity
 _atom_site_fract_x
 _atom_site_fract_y
 _atom_site_fract_z
 _atom_site_occupancy
  Zn  Zn0  1  0.000000  0.500000  0.000000  1
  Au  Au1  1  0.495935  0.254542  0.497246  1
  Au  Au2  1  0.504065  0.745458  0.502754  1
  F  F3  1  0.140852  0.196765  0.729235  1
  F  F4  1  0.130643  0.687324  0.745028  1
  F  F5  1  0.377531  0.377829  0.123556  1
  F  F6  1  0.385762  0.860858  0.148475  1
  F  F7  1  0.727891  0.078523  0.376020  1
  F  F8  1  0.745493  0.558537  0.385154  1
  F  F9  1  0.254507  0.441463  0.614846  1
  F  F10  1  0.272109  0.921477  0.623980  1
  F  F11  1  0.614238  0.139142  0.851525  1
  F  F12  1  0.622469  0.622171  0.876444  1
  F  F13  1  0.869357  0.312676  0.254972  1
  F  F14  1  0.859148  0.803235  0.270765  1
