# generated using pymatgen
data_Tm(ZrH5)3
_symmetry_space_group_name_H-M   'P 1'
_cell_length_a   7.10030722
_cell_length_b   7.10940122
_cell_length_c   7.12463061
_cell_angle_alpha   109.49573542
_cell_angle_beta   109.44409037
_cell_angle_gamma   109.36111045
_symmetry_Int_Tables_number   1
_chemical_formula_structural   Tm(ZrH5)3
_chemical_formula_sum   'Tm2 Zr6 H30'
_cell_volume   277.23808210
_cell_formula_units_Z   2
loop_
 _symmetry_equiv_pos_site_id
 _symmetry_equiv_pos_as_xyz
  1  'x, y, z'
loop_
 _atom_site_type_symbol
 _atom_site_label
 _atom_site_symmetry_multiplicity
 _atom_site_fract_x
 _atom_site_fract_y
 _atom_site_fract_z
 _atom_site_occupancy
  Tm  Tm0  1  0.910257  0.909707  0.908758  1
  Tm  Tm1  1  0.501499  0.000949  0.091242  1
  Zr  Zr2  1  0.001170  0.106110  0.502066  1
  Zr  Zr3  1  0.106704  0.501520  0.002897  1
  Zr  Zr4  1  0.999104  0.604044  0.497934  1
  Zr  Zr5  1  0.603807  0.498624  0.997103  1
  Zr  Zr6  1  0.500824  0.999009  0.595036  1
  Zr  Zr7  1  0.405788  0.403972  0.404964  1
  H  H8  1  0.662540  0.973956  0.393857  1
  H  H9  1  0.222474  0.307089  0.846621  1
  H  H10  1  0.190166  0.417946  0.536252  1
  H  H11  1  0.091730  0.285434  0.125704  1
  H  H12  1  0.279731  0.131992  0.100864  1
  H  H13  1  0.126977  0.097558  0.287757  1
  H  H14  1  0.466026  0.159731  0.874296  1
  H  H15  1  0.724925  0.344126  0.811881  1
  H  H16  1  0.625502  0.380687  0.254172  1
  H  H17  1  0.242941  0.624278  0.368962  1
  H  H18  1  0.756337  0.871435  0.136556  1
  H  H19  1  0.119781  0.734879  0.863444  1
  H  H20  1  0.373980  0.255318  0.631038  1
  H  H21  1  0.871329  0.126515  0.745828  1
  H  H22  1  0.768683  0.580099  0.606143  1
  H  H23  1  0.306240  0.836932  0.226463  1
  H  H24  1  0.378280  0.642739  0.968223  1
  H  H25  1  0.970716  0.380403  0.656008  1
  H  H26  1  0.529234  0.192514  0.424839  1
  H  H27  1  0.413044  0.532244  0.188119  1
  H  H28  1  0.857291  0.230602  0.321159  1
  H  H29  1  0.910056  0.674515  0.031777  1
  H  H30  1  0.814709  0.724396  0.343992  1
  H  H31  1  0.153913  0.881694  0.463748  1
  H  H32  1  0.678867  0.031128  0.899136  1
  H  H33  1  0.339219  0.809801  0.712243  1
  H  H34  1  0.875853  0.460468  0.153379  1
  H  H35  1  0.604394  0.767675  0.575161  1
  H  H36  1  0.579777  0.610468  0.773537  1
  H  H37  1  0.036131  0.909443  0.678841  1
