# generated using pymatgen
data_Na7Sr(AgSn3)4
_symmetry_space_group_name_H-M   'P 1'
_cell_length_a   10.01613200
_cell_length_b   9.88040515
_cell_length_c   7.60322500
_cell_angle_alpha   90.00000000
_cell_angle_beta   90.00000000
_cell_angle_gamma   120.45545865
_symmetry_Int_Tables_number   1
_chemical_formula_structural   Na7Sr(AgSn3)4
_chemical_formula_sum   'Na7 Sr1 Ag4 Sn12'
_cell_volume   648.62206565
_cell_formula_units_Z   1
loop_
 _symmetry_equiv_pos_site_id
 _symmetry_equiv_pos_as_xyz
  1  'x, y, z'
loop_
 _atom_site_type_symbol
 _atom_site_label
 _atom_site_symmetry_multiplicity
 _atom_site_fract_x
 _atom_site_fract_y
 _atom_site_fract_z
 _atom_site_occupancy
  Na  Na0  1  0.065205  0.531960  0.750000  1
  Na  Na1  1  0.466755  0.531960  0.750000  1
  Na  Na2  1  0.531296  0.469908  0.250000  1
  Na  Na3  1  0.468581  0.937164  0.750000  1
  Na  Na4  1  0.938614  0.469908  0.250000  1
  Na  Na5  1  0.001433  0.002866  0.750000  1
  Na  Na6  1  0.999631  0.999262  0.250000  1
  Sr  Sr7  1  0.522851  0.045702  0.250000  1
  Ag  Ag8  1  0.334539  0.669080  0.446969  1
  Ag  Ag9  1  0.666511  0.333022  0.554968  1
  Ag  Ag10  1  0.666511  0.333022  0.945032  1
  Ag  Ag11  1  0.334539  0.669080  0.053031  1
  Sn  Sn12  1  0.167608  0.827661  0.050527  1
  Sn  Sn13  1  0.829780  0.659561  0.552550  1
  Sn  Sn14  1  0.341494  0.173742  0.553352  1
  Sn  Sn15  1  0.832249  0.173742  0.946648  1
  Sn  Sn16  1  0.829780  0.659561  0.947450  1
  Sn  Sn17  1  0.832249  0.173742  0.553352  1
  Sn  Sn18  1  0.341494  0.173742  0.946648  1
  Sn  Sn19  1  0.660054  0.827661  0.050527  1
  Sn  Sn20  1  0.660054  0.827661  0.449473  1
  Sn  Sn21  1  0.170584  0.341167  0.446720  1
  Sn  Sn22  1  0.167608  0.827661  0.449473  1
  Sn  Sn23  1  0.170584  0.341167  0.053280  1
