# generated using pymatgen
data_Nd16Cd2Co3Hg2Pd
_symmetry_space_group_name_H-M   'P 1'
_cell_length_a   9.87044007
_cell_length_b   9.84694327
_cell_length_c   9.85773400
_cell_angle_alpha   59.96374308
_cell_angle_beta   60.04257392
_cell_angle_gamma   60.17912361
_symmetry_Int_Tables_number   1
_chemical_formula_structural   Nd16Cd2Co3Hg2Pd
_chemical_formula_sum   'Nd16 Cd2 Co3 Hg2 Pd1'
_cell_volume   678.42977065
_cell_formula_units_Z   1
loop_
 _symmetry_equiv_pos_site_id
 _symmetry_equiv_pos_as_xyz
  1  'x, y, z'
loop_
 _atom_site_type_symbol
 _atom_site_label
 _atom_site_symmetry_multiplicity
 _atom_site_fract_x
 _atom_site_fract_y
 _atom_site_fract_z
 _atom_site_occupancy
  Nd  Nd0  1  0.338577  0.353236  0.352369  1
  Nd  Nd1  1  0.338577  0.353236  0.955818  1
  Nd  Nd2  1  0.340386  0.953286  0.353164  1
  Nd  Nd3  1  0.959952  0.347085  0.346481  1
  Nd  Nd4  1  0.820970  0.188795  0.191381  1
  Nd  Nd5  1  0.188988  0.810137  0.810792  1
  Nd  Nd6  1  0.188988  0.810137  0.190082  1
  Nd  Nd7  1  0.820970  0.188795  0.798855  1
  Nd  Nd8  1  0.189595  0.187266  0.811570  1
  Nd  Nd9  1  0.819253  0.797247  0.191750  1
  Nd  Nd10  1  0.935278  0.562320  0.564046  1
  Nd  Nd11  1  0.559648  0.939497  0.938867  1
  Nd  Nd12  1  0.559648  0.939497  0.561987  1
  Nd  Nd13  1  0.935278  0.562320  0.938355  1
  Nd  Nd14  1  0.560618  0.561733  0.938824  1
  Nd  Nd15  1  0.935221  0.938040  0.563369  1
  Cd  Cd16  1  0.579777  0.261753  0.579236  1
  Cd  Cd17  1  0.258339  0.580343  0.580659  1
  Co  Co18  1  0.142835  0.142005  0.140168  1
  Co  Co19  1  0.142835  0.142005  0.574990  1
  Co  Co20  1  0.143290  0.575395  0.140657  1
  Hg  Hg21  1  0.582587  0.581992  0.583640  1
  Hg  Hg22  1  0.582587  0.581992  0.251783  1
  Pd  Pd23  1  0.575804  0.141884  0.141155  1
