# generated using pymatgen
data_Er2InNi6B2Ir
_symmetry_space_group_name_H-M   'P 1'
_cell_length_a   5.02207900
_cell_length_b   5.02207926
_cell_length_c   14.55377000
_cell_angle_alpha   90.00000000
_cell_angle_beta   90.00000000
_cell_angle_gamma   120.00000490
_symmetry_Int_Tables_number   1
_chemical_formula_structural   Er2InNi6B2Ir
_chemical_formula_sum   'Er4 In2 Ni12 B4 Ir2'
_cell_volume   317.88733087
_cell_formula_units_Z   2
loop_
 _symmetry_equiv_pos_site_id
 _symmetry_equiv_pos_as_xyz
  1  'x, y, z'
loop_
 _atom_site_type_symbol
 _atom_site_label
 _atom_site_symmetry_multiplicity
 _atom_site_fract_x
 _atom_site_fract_y
 _atom_site_fract_z
 _atom_site_occupancy
  Er  Er0  1  0.666667  0.333333  0.528557  1
  Er  Er1  1  0.333333  0.666667  0.028557  1
  Er  Er2  1  0.666667  0.333333  0.754046  1
  Er  Er3  1  0.333333  0.666667  0.254046  1
  In  In4  1  0.333333  0.666667  0.466185  1
  In  In5  1  0.666667  0.333333  0.966185  1
  Ni  Ni6  1  0.834691  0.165309  0.348602  1
  Ni  Ni7  1  0.834691  0.669382  0.348602  1
  Ni  Ni8  1  0.834697  0.669393  0.152011  1
  Ni  Ni9  1  0.165303  0.834697  0.652011  1
  Ni  Ni10  1  0.669393  0.834697  0.652011  1
  Ni  Ni11  1  0.330607  0.165303  0.152011  1
  Ni  Ni12  1  0.834697  0.165303  0.152011  1
  Ni  Ni13  1  0.165309  0.330618  0.848602  1
  Ni  Ni14  1  0.165309  0.834691  0.848602  1
  Ni  Ni15  1  0.165303  0.330607  0.652011  1
  Ni  Ni16  1  0.669382  0.834691  0.848602  1
  Ni  Ni17  1  0.330618  0.165309  0.348602  1
  B  B18  1  0.666667  0.333333  0.250253  1
  B  B19  1  0.333333  0.666667  0.750253  1
  B  B20  1  0.000000  0.000000  0.748688  1
  B  B21  1  0.000000  0.000000  0.248688  1
  Ir  Ir22  1  0.000000  0.000000  0.000433  1
  Ir  Ir23  1  0.000000  0.000000  0.500433  1
