# generated using pymatgen
data_AgAu2(SO4)4
_symmetry_space_group_name_H-M   'P 1'
_cell_length_a   6.62358637
_cell_length_b   6.62358577
_cell_length_c   8.89726351
_cell_angle_alpha   74.57827071
_cell_angle_beta   74.57827354
_cell_angle_gamma   87.70298773
_symmetry_Int_Tables_number   1
_chemical_formula_structural   AgAu2(SO4)4
_chemical_formula_sum   'Ag1 Au2 S4 O16'
_cell_volume   362.54000691
_cell_formula_units_Z   1
loop_
 _symmetry_equiv_pos_site_id
 _symmetry_equiv_pos_as_xyz
  1  'x, y, z'
loop_
 _atom_site_type_symbol
 _atom_site_label
 _atom_site_symmetry_multiplicity
 _atom_site_fract_x
 _atom_site_fract_y
 _atom_site_fract_z
 _atom_site_occupancy
  Ag  Ag0  1  0.000000  0.000000  0.000000  1
  Au  Au1  1  0.000000  0.000000  0.500000  1
  Au  Au2  1  0.500000  0.500000  0.500000  1
  S  S3  1  0.083814  0.584205  0.737792  1
  S  S4  1  0.584205  0.083814  0.737792  1
  S  S5  1  0.916186  0.415795  0.262208  1
  S  S6  1  0.415795  0.916186  0.262208  1
  O  O7  1  0.324621  0.629136  0.672987  1
  O  O8  1  0.629136  0.324621  0.672987  1
  O  O9  1  0.675379  0.370864  0.327013  1
  O  O10  1  0.370864  0.675379  0.327013  1
  O  O11  1  0.016604  0.691471  0.863452  1
  O  O12  1  0.691471  0.016604  0.863452  1
  O  O13  1  0.983396  0.308529  0.136548  1
  O  O14  1  0.308529  0.983396  0.136548  1
  O  O15  1  0.989728  0.683619  0.592669  1
  O  O16  1  0.683619  0.989728  0.592669  1
  O  O17  1  0.010272  0.316381  0.407331  1
  O  O18  1  0.316381  0.010272  0.407331  1
  O  O19  1  0.034875  0.362224  0.776426  1
  O  O20  1  0.362224  0.034875  0.776426  1
  O  O21  1  0.965125  0.637776  0.223574  1
  O  O22  1  0.637776  0.965125  0.223574  1
