# generated using pymatgen
data_Ho2TaB2Ir2Ru3
_symmetry_space_group_name_H-M   'P 1'
_cell_length_a   9.71145200
_cell_length_b   9.70021300
_cell_length_c   3.12190000
_cell_angle_alpha   90.00000000
_cell_angle_beta   90.00000000
_cell_angle_gamma   90.00000000
_symmetry_Int_Tables_number   1
_chemical_formula_structural   Ho2TaB2Ir2Ru3
_chemical_formula_sum   'Ho4 Ta2 B4 Ir4 Ru6'
_cell_volume   294.09282316
_cell_formula_units_Z   2
loop_
 _symmetry_equiv_pos_site_id
 _symmetry_equiv_pos_as_xyz
  1  'x, y, z'
loop_
 _atom_site_type_symbol
 _atom_site_label
 _atom_site_symmetry_multiplicity
 _atom_site_fract_x
 _atom_site_fract_y
 _atom_site_fract_z
 _atom_site_occupancy
  Ho  Ho0  1  0.825098  0.674537  0.000000  1
  Ho  Ho1  1  0.174902  0.325463  0.000000  1
  Ho  Ho2  1  0.325098  0.825463  0.000000  1
  Ho  Ho3  1  0.674902  0.174537  0.000000  1
  Ta  Ta4  1  0.500000  0.500000  0.000000  1
  Ta  Ta5  1  0.000000  0.000000  0.000000  1
  B  B6  1  0.623576  0.885273  0.000000  1
  B  B7  1  0.376424  0.114727  0.000000  1
  B  B8  1  0.123576  0.614727  0.000000  1
  B  B9  1  0.876424  0.385273  0.000000  1
  Ir  Ir10  1  0.570847  0.720366  0.500000  1
  Ir  Ir11  1  0.429153  0.279634  0.500000  1
  Ir  Ir12  1  0.070847  0.779634  0.500000  1
  Ir  Ir13  1  0.929153  0.220366  0.500000  1
  Ru  Ru14  1  0.282163  0.570098  0.500000  1
  Ru  Ru15  1  0.717837  0.429902  0.500000  1
  Ru  Ru16  1  0.217837  0.070098  0.500000  1
  Ru  Ru17  1  0.782163  0.929902  0.500000  1
  Ru  Ru18  1  0.500000  0.000000  0.500000  1
  Ru  Ru19  1  0.000000  0.500000  0.500000  1
