# generated using pymatgen
data_TbEr4Tl3InPt2
_symmetry_space_group_name_H-M   'P 1'
_cell_length_a   3.58823300
_cell_length_b   8.23003273
_cell_length_c   18.38332521
_cell_angle_alpha   89.81447003
_cell_angle_beta   90.00000000
_cell_angle_gamma   90.00000000
_symmetry_Int_Tables_number   1
_chemical_formula_structural   TbEr4Tl3InPt2
_chemical_formula_sum   'Tb2 Er8 Tl6 In2 Pt4'
_cell_volume   542.88018698
_cell_formula_units_Z   2
loop_
 _symmetry_equiv_pos_site_id
 _symmetry_equiv_pos_as_xyz
  1  'x, y, z'
loop_
 _atom_site_type_symbol
 _atom_site_label
 _atom_site_symmetry_multiplicity
 _atom_site_fract_x
 _atom_site_fract_y
 _atom_site_fract_z
 _atom_site_occupancy
  Tb  Tb0  1  0.000000  0.000000  0.000000  1
  Tb  Tb1  1  0.000000  0.500000  0.500000  1
  Er  Er2  1  0.000000  0.116390  0.413984  1
  Er  Er3  1  0.000000  0.883610  0.586016  1
  Er  Er4  1  0.000000  0.383989  0.912663  1
  Er  Er5  1  0.000000  0.616011  0.087337  1
  Er  Er6  1  0.000000  0.243154  0.220814  1
  Er  Er7  1  0.000000  0.756846  0.779186  1
  Er  Er8  1  0.000000  0.256393  0.720043  1
  Er  Er9  1  0.000000  0.743607  0.279957  1
  Tl  Tl10  1  0.500000  0.422956  0.352265  1
  Tl  Tl11  1  0.500000  0.577044  0.647735  1
  Tl  Tl12  1  0.500000  0.078627  0.851763  1
  Tl  Tl13  1  0.500000  0.921373  0.148237  1
  Tl  Tl14  1  0.500000  0.294215  0.065431  1
  Tl  Tl15  1  0.500000  0.705785  0.934569  1
  In  In16  1  0.500000  0.203746  0.566161  1
  In  In17  1  0.500000  0.796254  0.433839  1
  Pt  Pt18  1  0.500000  0.023840  0.304584  1
  Pt  Pt19  1  0.500000  0.976160  0.695416  1
  Pt  Pt20  1  0.500000  0.474104  0.803472  1
  Pt  Pt21  1  0.500000  0.525896  0.196528  1
