# generated using pymatgen
data_Dy3PaZn4PtRh3
_symmetry_space_group_name_H-M   'P 1'
_cell_length_a   3.86889200
_cell_length_b   7.15787596
_cell_length_c   8.30762166
_cell_angle_alpha   90.71517932
_cell_angle_beta   90.00000000
_cell_angle_gamma   90.00000000
_symmetry_Int_Tables_number   1
_chemical_formula_structural   Dy3PaZn4PtRh3
_chemical_formula_sum   'Dy3 Pa1 Zn4 Pt1 Rh3'
_cell_volume   230.04545160
_cell_formula_units_Z   1
loop_
 _symmetry_equiv_pos_site_id
 _symmetry_equiv_pos_as_xyz
  1  'x, y, z'
loop_
 _atom_site_type_symbol
 _atom_site_label
 _atom_site_symmetry_multiplicity
 _atom_site_fract_x
 _atom_site_fract_y
 _atom_site_fract_z
 _atom_site_occupancy
  Dy  Dy0  1  0.750000  0.446147  0.810103  1
  Dy  Dy1  1  0.250000  0.052974  0.315075  1
  Dy  Dy2  1  0.750000  0.935246  0.689645  1
  Pa  Pa3  1  0.250000  0.554999  0.179016  1
  Zn  Zn4  1  0.250000  0.127850  0.938416  1
  Zn  Zn5  1  0.750000  0.892513  0.063141  1
  Zn  Zn6  1  0.250000  0.623270  0.562979  1
  Zn  Zn7  1  0.750000  0.371536  0.439500  1
  Pt  Pt8  1  0.250000  0.234499  0.626058  1
  Rh  Rh9  1  0.750000  0.740879  0.357204  1
  Rh  Rh10  1  0.750000  0.282064  0.128619  1
  Rh  Rh11  1  0.250000  0.738021  0.890244  1
