# generated using pymatgen
data_Li2Ga5Cu6
_symmetry_space_group_name_H-M   'P 1'
_cell_length_a   8.21613200
_cell_length_b   8.21613200
_cell_length_c   8.21613200
_cell_angle_alpha   90.00000000
_cell_angle_beta   90.00000000
_cell_angle_gamma   90.00000000
_symmetry_Int_Tables_number   1
_chemical_formula_structural   Li2Ga5Cu6
_chemical_formula_sum   'Li6 Ga15 Cu18'
_cell_volume   554.62855318
_cell_formula_units_Z   3
loop_
 _symmetry_equiv_pos_site_id
 _symmetry_equiv_pos_as_xyz
  1  'x, y, z'
loop_
 _atom_site_type_symbol
 _atom_site_label
 _atom_site_symmetry_multiplicity
 _atom_site_fract_x
 _atom_site_fract_y
 _atom_site_fract_z
 _atom_site_occupancy
  Li  Li0  1  0.818674  0.000000  0.500000  1
  Li  Li1  1  0.000000  0.500000  0.818674  1
  Li  Li2  1  0.500000  0.818674  0.000000  1
  Li  Li3  1  0.000000  0.500000  0.181326  1
  Li  Li4  1  0.500000  0.181326  0.000000  1
  Li  Li5  1  0.181326  0.000000  0.500000  1
  Ga  Ga6  1  0.281955  0.718045  0.281955  1
  Ga  Ga7  1  0.718045  0.281955  0.281955  1
  Ga  Ga8  1  0.281955  0.281955  0.718045  1
  Ga  Ga9  1  0.718045  0.718045  0.718045  1
  Ga  Ga10  1  0.718045  0.281955  0.718045  1
  Ga  Ga11  1  0.281955  0.718045  0.718045  1
  Ga  Ga12  1  0.718045  0.718045  0.281955  1
  Ga  Ga13  1  0.281955  0.281955  0.281955  1
  Ga  Ga14  1  0.663432  0.500000  0.000000  1
  Ga  Ga15  1  0.500000  0.000000  0.663432  1
  Ga  Ga16  1  0.000000  0.663432  0.500000  1
  Ga  Ga17  1  0.500000  0.000000  0.336568  1
  Ga  Ga18  1  0.000000  0.336568  0.500000  1
  Ga  Ga19  1  0.336568  0.500000  0.000000  1
  Ga  Ga20  1  0.000000  0.000000  0.000000  1
  Cu  Cu21  1  0.000000  0.836075  0.258204  1
  Cu  Cu22  1  0.000000  0.163925  0.741796  1
  Cu  Cu23  1  0.000000  0.836075  0.741796  1
  Cu  Cu24  1  0.163925  0.741796  0.000000  1
  Cu  Cu25  1  0.741796  0.000000  0.836075  1
  Cu  Cu26  1  0.741796  0.000000  0.163925  1
  Cu  Cu27  1  0.836075  0.258204  0.000000  1
  Cu  Cu28  1  0.258204  0.000000  0.836075  1
  Cu  Cu29  1  0.836075  0.741796  0.000000  1
  Cu  Cu30  1  0.274349  0.500000  0.500000  1
  Cu  Cu31  1  0.500000  0.274349  0.500000  1
  Cu  Cu32  1  0.500000  0.500000  0.274349  1
  Cu  Cu33  1  0.500000  0.725651  0.500000  1
  Cu  Cu34  1  0.500000  0.500000  0.725651  1
  Cu  Cu35  1  0.725651  0.500000  0.500000  1
  Cu  Cu36  1  0.000000  0.163925  0.258204  1
  Cu  Cu37  1  0.258204  0.000000  0.163925  1
  Cu  Cu38  1  0.163925  0.258204  0.000000  1
