# generated using pymatgen
data_Dy3Tm(CoOs)4
_symmetry_space_group_name_H-M   'P 1'
_cell_length_a   5.22614657
_cell_length_b   5.09614820
_cell_length_c   9.10377782
_cell_angle_alpha   73.74625448
_cell_angle_beta   89.44913343
_cell_angle_gamma   119.18049936
_symmetry_Int_Tables_number   1
_chemical_formula_structural   Dy3Tm(CoOs)4
_chemical_formula_sum   'Dy3 Tm1 Co4 Os4'
_cell_volume   200.12031820
_cell_formula_units_Z   1
loop_
 _symmetry_equiv_pos_site_id
 _symmetry_equiv_pos_as_xyz
  1  'x, y, z'
loop_
 _atom_site_type_symbol
 _atom_site_label
 _atom_site_symmetry_multiplicity
 _atom_site_fract_x
 _atom_site_fract_y
 _atom_site_fract_z
 _atom_site_occupancy
  Dy  Dy0  1  0.379517  0.753002  0.873514  1
  Dy  Dy1  1  0.995335  0.996714  0.001906  1
  Dy  Dy2  1  0.495827  0.997371  0.501084  1
  Tm  Tm3  1  0.880444  0.753628  0.373187  1
  Co  Co4  1  0.186740  0.374782  0.437174  1
  Co  Co5  1  0.687599  0.374987  0.937626  1
  Co  Co6  1  0.937276  0.374263  0.188749  1
  Co  Co7  1  0.437658  0.375502  0.686655  1
  Os  Os8  1  0.437543  0.374057  0.188664  1
  Os  Os9  1  0.937259  0.375850  0.686388  1
  Os  Os10  1  0.437543  0.874823  0.188664  1
  Os  Os11  1  0.937259  0.875021  0.686388  1
