# generated using pymatgen
data_NaTb(NbSe2)6
_symmetry_space_group_name_H-M   'P 1'
_cell_length_a   6.08782500
_cell_length_b   6.08782429
_cell_length_c   14.84242700
_cell_angle_alpha   90.00000000
_cell_angle_beta   90.00000000
_cell_angle_gamma   120.00000927
_symmetry_Int_Tables_number   1
_chemical_formula_structural   NaTb(NbSe2)6
_chemical_formula_sum   'Na1 Tb1 Nb6 Se12'
_cell_volume   476.38686865
_cell_formula_units_Z   1
loop_
 _symmetry_equiv_pos_site_id
 _symmetry_equiv_pos_as_xyz
  1  'x, y, z'
loop_
 _atom_site_type_symbol
 _atom_site_label
 _atom_site_symmetry_multiplicity
 _atom_site_fract_x
 _atom_site_fract_y
 _atom_site_fract_z
 _atom_site_occupancy
  Na  Na0  1  0.666667  0.333333  0.750000  1
  Tb  Tb1  1  0.333333  0.666667  0.250000  1
  Nb  Nb2  1  0.333333  0.666667  0.005829  1
  Nb  Nb3  1  0.000000  0.000000  0.003684  1
  Nb  Nb4  1  0.666667  0.333333  0.003008  1
  Nb  Nb5  1  0.333333  0.666667  0.494171  1
  Nb  Nb6  1  0.000000  0.000000  0.496316  1
  Nb  Nb7  1  0.666667  0.333333  0.496992  1
  Se  Se8  1  0.673148  0.665879  0.382472  1
  Se  Se9  1  0.665175  0.670844  0.607961  1
  Se  Se10  1  0.005670  0.670844  0.892039  1
  Se  Se11  1  0.665175  0.994330  0.892039  1
  Se  Se12  1  0.673148  0.007270  0.117528  1
  Se  Se13  1  0.334121  0.007270  0.382472  1
  Se  Se14  1  0.005670  0.334825  0.607961  1
  Se  Se15  1  0.329156  0.994330  0.607961  1
  Se  Se16  1  0.992730  0.665879  0.117528  1
  Se  Se17  1  0.329156  0.334825  0.892039  1
  Se  Se18  1  0.992730  0.326852  0.382472  1
  Se  Se19  1  0.334121  0.326852  0.117528  1
