# generated using pymatgen
data_Tm(LuPt2)9
_symmetry_space_group_name_H-M   'P 1'
_cell_length_a   9.64165922
_cell_length_b   9.63531422
_cell_length_c   5.71137300
_cell_angle_alpha   90.00000000
_cell_angle_beta   90.00000000
_cell_angle_gamma   90.02455070
_symmetry_Int_Tables_number   1
_chemical_formula_structural   Tm(LuPt2)9
_chemical_formula_sum   'Tm1 Lu9 Pt18'
_cell_volume   530.58888012
_cell_formula_units_Z   1
loop_
 _symmetry_equiv_pos_site_id
 _symmetry_equiv_pos_as_xyz
  1  'x, y, z'
loop_
 _atom_site_type_symbol
 _atom_site_label
 _atom_site_symmetry_multiplicity
 _atom_site_fract_x
 _atom_site_fract_y
 _atom_site_fract_z
 _atom_site_occupancy
  Tm  Tm0  1  0.452104  0.810150  0.000000  1
  Lu  Lu1  1  0.547926  0.189928  0.000000  1
  Lu  Lu2  1  0.189759  0.547832  0.000000  1
  Lu  Lu3  1  0.810173  0.452076  0.000000  1
  Lu  Lu4  1  0.500015  0.499968  0.500000  1
  Lu  Lu5  1  0.310120  0.047991  0.500000  1
  Lu  Lu6  1  0.689930  0.952118  0.500000  1
  Lu  Lu7  1  0.952065  0.689838  0.500000  1
  Lu  Lu8  1  0.047904  0.310135  0.500000  1
  Lu  Lu9  1  0.999984  0.000008  0.000000  1
  Pt  Pt10  1  0.190642  0.809055  0.250593  1
  Pt  Pt11  1  0.809058  0.190956  0.749624  1
  Pt  Pt12  1  0.809058  0.190956  0.250376  1
  Pt  Pt13  1  0.190642  0.809055  0.749407  1
  Pt  Pt14  1  0.441044  0.781801  0.500000  1
  Pt  Pt15  1  0.558933  0.218144  0.500000  1
  Pt  Pt16  1  0.218180  0.558908  0.500000  1
  Pt  Pt17  1  0.781844  0.441053  0.500000  1
  Pt  Pt18  1  0.309056  0.309078  0.249627  1
  Pt  Pt19  1  0.691193  0.690850  0.750226  1
  Pt  Pt20  1  0.691193  0.690850  0.249774  1
  Pt  Pt21  1  0.309056  0.309078  0.750373  1
  Pt  Pt22  1  0.281654  0.059151  0.000000  1
  Pt  Pt23  1  0.718458  0.941174  0.000000  1
  Pt  Pt24  1  0.941096  0.718142  0.000000  1
  Pt  Pt25  1  0.058904  0.281859  0.000000  1
  Pt  Pt26  1  0.999971  0.000028  0.500000  1
  Pt  Pt27  1  0.500039  0.499816  0.000000  1
