# generated using pymatgen
data_InAg(CO3)2
_symmetry_space_group_name_H-M   'P 1'
_cell_length_a   6.42137582
_cell_length_b   6.42137616
_cell_length_c   6.42137705
_cell_angle_alpha   45.64369352
_cell_angle_beta   45.64368923
_cell_angle_gamma   45.64369933
_symmetry_Int_Tables_number   1
_chemical_formula_structural   InAg(CO3)2
_chemical_formula_sum   'In1 Ag1 C2 O6'
_cell_volume   123.37472220
_cell_formula_units_Z   1
loop_
 _symmetry_equiv_pos_site_id
 _symmetry_equiv_pos_as_xyz
  1  'x, y, z'
loop_
 _atom_site_type_symbol
 _atom_site_label
 _atom_site_symmetry_multiplicity
 _atom_site_fract_x
 _atom_site_fract_y
 _atom_site_fract_z
 _atom_site_occupancy
  In  In0  1  0.000000  0.000000  0.000000  1
  Ag  Ag1  1  0.500000  0.500000  0.500000  1
  C  C2  1  0.261813  0.261813  0.261813  1
  C  C3  1  0.738187  0.738187  0.738187  1
  O  O4  1  0.010209  0.241465  0.530591  1
  O  O5  1  0.469409  0.989791  0.758535  1
  O  O6  1  0.758535  0.469409  0.989791  1
  O  O7  1  0.241465  0.530591  0.010209  1
  O  O8  1  0.530591  0.010209  0.241465  1
  O  O9  1  0.989791  0.758535  0.469409  1
