# generated using pymatgen
data_Eu(TaIr)2
_symmetry_space_group_name_H-M   'P 1'
_cell_length_a   6.16163754
_cell_length_b   6.16163678
_cell_length_c   6.16163700
_cell_angle_alpha   137.61519098
_cell_angle_beta   137.61518319
_cell_angle_gamma   61.49286621
_symmetry_Int_Tables_number   1
_chemical_formula_structural   Eu(TaIr)2
_chemical_formula_sum   'Eu1 Ta2 Ir2'
_cell_volume   105.09499407
_cell_formula_units_Z   1
loop_
 _symmetry_equiv_pos_site_id
 _symmetry_equiv_pos_as_xyz
  1  'x, y, z'
loop_
 _atom_site_type_symbol
 _atom_site_label
 _atom_site_symmetry_multiplicity
 _atom_site_fract_x
 _atom_site_fract_y
 _atom_site_fract_z
 _atom_site_occupancy
  Eu  Eu0  1  0.000000  0.000000  0.000000  1
  Ta  Ta1  1  0.250000  0.750000  0.500000  1
  Ta  Ta2  1  0.750000  0.250000  0.500000  1
  Ir  Ir3  1  0.625747  0.625747  0.000000  1
  Ir  Ir4  1  0.374253  0.374253  0.000000  1
