# generated using pymatgen
data_ScSe27
_symmetry_space_group_name_H-M   'P 1'
_cell_length_a   18.08909604
_cell_length_b   18.08909512
_cell_length_c   18.08909544
_cell_angle_alpha   119.49527516
_cell_angle_beta   119.49527537
_cell_angle_gamma   119.49526798
_symmetry_Int_Tables_number   1
_chemical_formula_structural   ScSe27
_chemical_formula_sum   'Sc1 Se27'
_cell_volume   1092.49080001
_cell_formula_units_Z   1
loop_
 _symmetry_equiv_pos_site_id
 _symmetry_equiv_pos_as_xyz
  1  'x, y, z'
loop_
 _atom_site_type_symbol
 _atom_site_label
 _atom_site_symmetry_multiplicity
 _atom_site_fract_x
 _atom_site_fract_y
 _atom_site_fract_z
 _atom_site_occupancy
  Sc  Sc0  1  0.555258  0.555258  0.555258  1
  Se  Se1  1  0.829875  0.547336  0.547336  1
  Se  Se2  1  0.547336  0.547336  0.829875  1
  Se  Se3  1  0.547336  0.829875  0.547336  1
  Se  Se4  1  0.182301  0.307381  0.571193  1
  Se  Se5  1  0.431427  0.019451  0.431427  1
  Se  Se6  1  0.431427  0.431427  0.019451  1
  Se  Se7  1  0.019451  0.431427  0.431427  1
  Se  Se8  1  0.098718  0.703012  0.222981  1
  Se  Se9  1  0.222981  0.098718  0.703012  1
  Se  Se10  1  0.703012  0.222981  0.098718  1
  Se  Se11  1  0.703012  0.098718  0.222981  1
  Se  Se12  1  0.222981  0.703012  0.098718  1
  Se  Se13  1  0.098718  0.222981  0.703012  1
  Se  Se14  1  0.404030  0.927066  0.579958  1
  Se  Se15  1  0.579958  0.404030  0.927066  1
  Se  Se16  1  0.927066  0.579958  0.404030  1
  Se  Se17  1  0.927066  0.404030  0.579958  1
  Se  Se18  1  0.579958  0.927066  0.404030  1
  Se  Se19  1  0.404030  0.579958  0.927066  1
  Se  Se20  1  0.182301  0.571193  0.307381  1
  Se  Se21  1  0.307381  0.182301  0.571193  1
  Se  Se22  1  0.571193  0.307381  0.182301  1
  Se  Se23  1  0.571193  0.182301  0.307381  1
  Se  Se24  1  0.307381  0.571193  0.182301  1
  Se  Se25  1  0.988984  0.090460  0.090460  1
  Se  Se26  1  0.090460  0.090460  0.988984  1
  Se  Se27  1  0.090460  0.988984  0.090460  1
