# generated using pymatgen
data_Mn3Cr17Si(WC3)2
_symmetry_space_group_name_H-M   'P 1'
_cell_length_a   7.50678022
_cell_length_b   7.50678141
_cell_length_c   7.50678082
_cell_angle_alpha   60.11646373
_cell_angle_beta   60.11645801
_cell_angle_gamma   60.11646288
_symmetry_Int_Tables_number   1
_chemical_formula_structural   Mn3Cr17Si(WC3)2
_chemical_formula_sum   'Mn3 Cr17 Si1 W2 C6'
_cell_volume   299.90975885
_cell_formula_units_Z   1
loop_
 _symmetry_equiv_pos_site_id
 _symmetry_equiv_pos_as_xyz
  1  'x, y, z'
loop_
 _atom_site_type_symbol
 _atom_site_label
 _atom_site_symmetry_multiplicity
 _atom_site_fract_x
 _atom_site_fract_y
 _atom_site_fract_z
 _atom_site_occupancy
  Mn  Mn0  1  0.616479  0.616479  0.150007  1
  Mn  Mn1  1  0.616479  0.150006  0.616479  1
  Mn  Mn2  1  0.150007  0.616479  0.616479  1
  Cr  Cr3  1  0.616721  0.616721  0.616721  1
  Cr  Cr4  1  0.384721  0.384721  0.845714  1
  Cr  Cr5  1  0.384721  0.845714  0.384721  1
  Cr  Cr6  1  0.845714  0.384721  0.384721  1
  Cr  Cr7  1  0.385174  0.385174  0.385174  1
  Cr  Cr8  1  0.998655  0.998655  0.340424  1
  Cr  Cr9  1  0.661628  0.999787  0.339257  1
  Cr  Cr10  1  0.999787  0.661628  0.339257  1
  Cr  Cr11  1  0.661628  0.339257  0.999787  1
  Cr  Cr12  1  0.998655  0.340424  0.998655  1
  Cr  Cr13  1  0.999787  0.339257  0.661628  1
  Cr  Cr14  1  0.339257  0.661628  0.999787  1
  Cr  Cr15  1  0.339257  0.999787  0.661628  1
  Cr  Cr16  1  0.340424  0.998655  0.998655  1
  Cr  Cr17  1  0.999343  0.999343  0.661091  1
  Cr  Cr18  1  0.999343  0.661091  0.999343  1
  Cr  Cr19  1  0.661091  0.999343  0.999343  1
  Si  Si20  1  0.999933  0.999933  0.999933  1
  W  W21  1  0.751065  0.751065  0.751065  1
  W  W22  1  0.250221  0.250221  0.250221  1
  C  C23  1  0.721123  0.721123  0.277683  1
  C  C24  1  0.279691  0.720599  0.279691  1
  C  C25  1  0.720599  0.279691  0.279691  1
  C  C26  1  0.279691  0.279691  0.720599  1
  C  C27  1  0.721123  0.277683  0.721123  1
  C  C28  1  0.277683  0.721123  0.721123  1
