# generated using pymatgen
data_Ba4HgP3Pt3Rh
_symmetry_space_group_name_H-M   'P 1'
_cell_length_a   6.76956018
_cell_length_b   6.76956064
_cell_length_c   6.76956136
_cell_angle_alpha   90.08495861
_cell_angle_beta   89.91504644
_cell_angle_gamma   90.08495888
_symmetry_Int_Tables_number   1
_chemical_formula_structural   Ba4HgP3Pt3Rh
_chemical_formula_sum   'Ba4 Hg1 P3 Pt3 Rh1'
_cell_volume   310.22731482
_cell_formula_units_Z   1
loop_
 _symmetry_equiv_pos_site_id
 _symmetry_equiv_pos_as_xyz
  1  'x, y, z'
loop_
 _atom_site_type_symbol
 _atom_site_label
 _atom_site_symmetry_multiplicity
 _atom_site_fract_x
 _atom_site_fract_y
 _atom_site_fract_z
 _atom_site_occupancy
  Ba  Ba0  1  0.630634  0.386528  0.872012  1
  Ba  Ba1  1  0.372012  0.869366  0.613472  1
  Ba  Ba2  1  0.113472  0.127988  0.130634  1
  Ba  Ba3  1  0.876171  0.623829  0.376171  1
  Hg  Hg4  1  0.585033  0.914967  0.085033  1
  P  P5  1  0.088052  0.575204  0.898532  1
  P  P6  1  0.924796  0.101468  0.588052  1
  P  P7  1  0.398532  0.411948  0.424796  1
  Pt  Pt8  1  0.662071  0.193324  0.386891  1
  Pt  Pt9  1  0.886891  0.837929  0.806676  1
  Pt  Pt10  1  0.306676  0.613109  0.162071  1
  Rh  Rh11  1  0.155662  0.344338  0.655662  1
