# generated using pymatgen
data_Li4Sm2TmSn4
_symmetry_space_group_name_H-M   'P 1'
_cell_length_a   8.70578364
_cell_length_b   8.70578464
_cell_length_c   8.70578400
_cell_angle_alpha   148.78833866
_cell_angle_beta   132.51046123
_cell_angle_gamma   57.92806385
_symmetry_Int_Tables_number   1
_chemical_formula_structural   Li4Sm2TmSn4
_chemical_formula_sum   'Li4 Sm2 Tm1 Sn4'
_cell_volume   250.13638785
_cell_formula_units_Z   1
loop_
 _symmetry_equiv_pos_site_id
 _symmetry_equiv_pos_as_xyz
  1  'x, y, z'
loop_
 _atom_site_type_symbol
 _atom_site_label
 _atom_site_symmetry_multiplicity
 _atom_site_fract_x
 _atom_site_fract_y
 _atom_site_fract_z
 _atom_site_occupancy
  Li  Li0  1  0.017926  0.326854  0.691072  1
  Li  Li1  1  0.982074  0.673146  0.308928  1
  Li  Li2  1  0.635782  0.326854  0.308928  1
  Li  Li3  1  0.364218  0.673146  0.691072  1
  Sm  Sm4  1  0.371147  0.871147  0.500000  1
  Sm  Sm5  1  0.628853  0.128853  0.500000  1
  Tm  Tm6  1  0.000000  0.000000  0.000000  1
  Sn  Sn7  1  0.211017  0.211017  0.000000  1
  Sn  Sn8  1  0.705057  0.500000  0.205057  1
  Sn  Sn9  1  0.294943  0.500000  0.794943  1
  Sn  Sn10  1  0.788983  0.788983  0.000000  1
