# generated using pymatgen
data_Yb7NpAsPd24
_symmetry_space_group_name_H-M   'P 1'
_cell_length_a   8.32918479
_cell_length_b   8.32918414
_cell_length_c   8.32918400
_cell_angle_alpha   89.53374175
_cell_angle_beta   89.53374179
_cell_angle_gamma   89.53373939
_symmetry_Int_Tables_number   1
_chemical_formula_structural   Yb7NpAsPd24
_chemical_formula_sum   'Yb7 Np1 As1 Pd24'
_cell_volume   577.78266436
_cell_formula_units_Z   1
loop_
 _symmetry_equiv_pos_site_id
 _symmetry_equiv_pos_as_xyz
  1  'x, y, z'
loop_
 _atom_site_type_symbol
 _atom_site_label
 _atom_site_symmetry_multiplicity
 _atom_site_fract_x
 _atom_site_fract_y
 _atom_site_fract_z
 _atom_site_occupancy
  Yb  Yb0  1  0.745645  0.745645  0.745645  1
  Yb  Yb1  1  0.747555  0.747555  0.251674  1
  Yb  Yb2  1  0.747555  0.251674  0.747555  1
  Yb  Yb3  1  0.253887  0.253887  0.751178  1
  Yb  Yb4  1  0.253887  0.751178  0.253887  1
  Yb  Yb5  1  0.251674  0.747555  0.747555  1
  Yb  Yb6  1  0.751178  0.253887  0.253887  1
  Np  Np7  1  0.259629  0.259629  0.259629  1
  As  As8  1  0.991134  0.991134  0.991134  1
  Pd  Pd9  1  0.259510  0.495903  0.010443  1
  Pd  Pd10  1  0.740382  0.496782  0.999645  1
  Pd  Pd11  1  0.010443  0.259510  0.495903  1
  Pd  Pd12  1  0.495903  0.259510  0.010443  1
  Pd  Pd13  1  0.999645  0.740382  0.496782  1
  Pd  Pd14  1  0.496782  0.740382  0.999645  1
  Pd  Pd15  1  0.495903  0.010443  0.259510  1
  Pd  Pd16  1  0.259510  0.010443  0.495903  1
  Pd  Pd17  1  0.496782  0.999645  0.740382  1
  Pd  Pd18  1  0.740382  0.999645  0.496782  1
  Pd  Pd19  1  0.010443  0.495903  0.259510  1
  Pd  Pd20  1  0.999645  0.496782  0.740382  1
  Pd  Pd21  1  0.254624  0.497023  0.497023  1
  Pd  Pd22  1  0.748554  0.498928  0.498928  1
  Pd  Pd23  1  0.497023  0.254624  0.497023  1
  Pd  Pd24  1  0.498928  0.748554  0.498928  1
  Pd  Pd25  1  0.497023  0.497023  0.254624  1
  Pd  Pd26  1  0.498928  0.498928  0.748554  1
  Pd  Pd27  1  0.281881  0.005952  0.005952  1
  Pd  Pd28  1  0.705181  0.999241  0.999241  1
  Pd  Pd29  1  0.005952  0.281881  0.005952  1
  Pd  Pd30  1  0.999241  0.705181  0.999241  1
  Pd  Pd31  1  0.005952  0.005952  0.281881  1
  Pd  Pd32  1  0.999241  0.999241  0.705181  1
