# generated using pymatgen
data_Ta4PbSe8
_symmetry_space_group_name_H-M   'P 1'
_cell_length_a   7.03153600
_cell_length_b   7.03153580
_cell_length_c   15.25064300
_cell_angle_alpha   90.00000000
_cell_angle_beta   90.00000000
_cell_angle_gamma   120.00001033
_symmetry_Int_Tables_number   1
_chemical_formula_structural   Ta4PbSe8
_chemical_formula_sum   'Ta8 Pb2 Se16'
_cell_volume   653.00895719
_cell_formula_units_Z   2
loop_
 _symmetry_equiv_pos_site_id
 _symmetry_equiv_pos_as_xyz
  1  'x, y, z'
loop_
 _atom_site_type_symbol
 _atom_site_label
 _atom_site_symmetry_multiplicity
 _atom_site_fract_x
 _atom_site_fract_y
 _atom_site_fract_z
 _atom_site_occupancy
  Ta  Ta0  1  0.506855  0.493145  0.750000  1
  Ta  Ta1  1  0.013709  0.506855  0.250000  1
  Ta  Ta2  1  0.493145  0.986291  0.250000  1
  Ta  Ta3  1  0.506855  0.013709  0.750000  1
  Ta  Ta4  1  0.986291  0.493145  0.750000  1
  Ta  Ta5  1  0.493145  0.506855  0.250000  1
  Ta  Ta6  1  0.000000  0.000000  0.750000  1
  Ta  Ta7  1  0.000000  0.000000  0.250000  1
  Pb  Pb8  1  0.000000  0.000000  0.500000  1
  Pb  Pb9  1  0.000000  0.000000  0.000000  1
  Se  Se10  1  0.830024  0.169976  0.356884  1
  Se  Se11  1  0.830024  0.660047  0.356884  1
  Se  Se12  1  0.339953  0.169976  0.356884  1
  Se  Se13  1  0.660047  0.830024  0.856884  1
  Se  Se14  1  0.169976  0.339953  0.643116  1
  Se  Se15  1  0.169976  0.830024  0.856884  1
  Se  Se16  1  0.169976  0.339953  0.856884  1
  Se  Se17  1  0.830024  0.169976  0.143116  1
  Se  Se18  1  0.339953  0.169976  0.143116  1
  Se  Se19  1  0.660047  0.830024  0.643116  1
  Se  Se20  1  0.333333  0.666667  0.137380  1
  Se  Se21  1  0.666667  0.333333  0.637380  1
  Se  Se22  1  0.666667  0.333333  0.862620  1
  Se  Se23  1  0.333333  0.666667  0.362620  1
  Se  Se24  1  0.830024  0.660047  0.143116  1
  Se  Se25  1  0.169976  0.830024  0.643116  1
