# generated using pymatgen
data_Y2Os3Ru
_symmetry_space_group_name_H-M   'P 1'
_cell_length_a   5.29166700
_cell_length_b   5.29166721
_cell_length_c   9.02277400
_cell_angle_alpha   90.00000000
_cell_angle_beta   90.00000000
_cell_angle_gamma   120.00000496
_symmetry_Int_Tables_number   1
_chemical_formula_structural   Y2Os3Ru
_chemical_formula_sum   'Y4 Os6 Ru2'
_cell_volume   218.80423295
_cell_formula_units_Z   2
loop_
 _symmetry_equiv_pos_site_id
 _symmetry_equiv_pos_as_xyz
  1  'x, y, z'
loop_
 _atom_site_type_symbol
 _atom_site_label
 _atom_site_symmetry_multiplicity
 _atom_site_fract_x
 _atom_site_fract_y
 _atom_site_fract_z
 _atom_site_occupancy
  Y  Y0  1  0.333333  0.666667  0.434376  1
  Y  Y1  1  0.666667  0.333333  0.565624  1
  Y  Y2  1  0.666667  0.333333  0.934376  1
  Y  Y3  1  0.333333  0.666667  0.065624  1
  Os  Os4  1  0.170688  0.341376  0.750000  1
  Os  Os5  1  0.170688  0.829312  0.750000  1
  Os  Os6  1  0.341376  0.170688  0.250000  1
  Os  Os7  1  0.829312  0.658624  0.250000  1
  Os  Os8  1  0.658624  0.829312  0.750000  1
  Os  Os9  1  0.829312  0.170688  0.250000  1
  Ru  Ru10  1  0.000000  0.000000  0.000000  1
  Ru  Ru11  1  0.000000  0.000000  0.500000  1
