# generated using pymatgen
data_HfZrB2MoRu5
_symmetry_space_group_name_H-M   'P 1'
_cell_length_a   9.46275393
_cell_length_b   9.46275393
_cell_length_c   3.08389100
_cell_angle_alpha   90.00000000
_cell_angle_beta   90.00000000
_cell_angle_gamma   90.14836867
_symmetry_Int_Tables_number   1
_chemical_formula_structural   HfZrB2MoRu5
_chemical_formula_sum   'Hf2 Zr2 B4 Mo2 Ru10'
_cell_volume   276.14212160
_cell_formula_units_Z   2
loop_
 _symmetry_equiv_pos_site_id
 _symmetry_equiv_pos_as_xyz
  1  'x, y, z'
loop_
 _atom_site_type_symbol
 _atom_site_label
 _atom_site_symmetry_multiplicity
 _atom_site_fract_x
 _atom_site_fract_y
 _atom_site_fract_z
 _atom_site_occupancy
  Hf  Hf0  1  0.676722  0.176722  0.000000  1
  Hf  Hf1  1  0.323278  0.823278  0.000000  1
  Zr  Zr2  1  0.176844  0.323156  0.000000  1
  Zr  Zr3  1  0.823156  0.676844  0.000000  1
  B  B4  1  0.121326  0.621326  0.000000  1
  B  B5  1  0.878674  0.378674  0.000000  1
  B  B6  1  0.620985  0.879015  0.000000  1
  B  B7  1  0.379015  0.120985  0.000000  1
  Mo  Mo8  1  0.000000  0.000000  0.000000  1
  Mo  Mo9  1  0.500000  0.500000  0.000000  1
  Ru  Ru10  1  0.216564  0.070439  0.500000  1
  Ru  Ru11  1  0.783436  0.929561  0.500000  1
  Ru  Ru12  1  0.072154  0.783921  0.500000  1
  Ru  Ru13  1  0.716079  0.427846  0.500000  1
  Ru  Ru14  1  0.927846  0.216079  0.500000  1
  Ru  Ru15  1  0.283921  0.572154  0.500000  1
  Ru  Ru16  1  0.570439  0.716564  0.500000  1
  Ru  Ru17  1  0.429561  0.283436  0.500000  1
  Ru  Ru18  1  0.500000  0.000000  0.500000  1
  Ru  Ru19  1  0.000000  0.500000  0.500000  1
