# generated using pymatgen
data_Er5In2PbSe
_symmetry_space_group_name_H-M   'P 1'
_cell_length_a   9.03037600
_cell_length_b   9.03037590
_cell_length_c   6.67282100
_cell_angle_alpha   90.00000000
_cell_angle_beta   90.00000000
_cell_angle_gamma   119.93530799
_symmetry_Int_Tables_number   1
_chemical_formula_structural   Er5In2PbSe
_chemical_formula_sum   'Er10 In4 Pb2 Se2'
_cell_volume   471.55733850
_cell_formula_units_Z   2
loop_
 _symmetry_equiv_pos_site_id
 _symmetry_equiv_pos_as_xyz
  1  'x, y, z'
loop_
 _atom_site_type_symbol
 _atom_site_label
 _atom_site_symmetry_multiplicity
 _atom_site_fract_x
 _atom_site_fract_y
 _atom_site_fract_z
 _atom_site_occupancy
  Er  Er0  1  0.747488  0.751657  0.250000  1
  Er  Er1  1  0.997542  0.746395  0.750000  1
  Er  Er2  1  0.748827  0.001147  0.750000  1
  Er  Er3  1  0.335038  0.664962  0.500000  1
  Er  Er4  1  0.248343  0.252512  0.750000  1
  Er  Er5  1  0.998853  0.251173  0.250000  1
  Er  Er6  1  0.667612  0.332388  0.500000  1
  Er  Er7  1  0.253605  0.002458  0.250000  1
  Er  Er8  1  0.335038  0.664962  0.000000  1
  Er  Er9  1  0.667612  0.332388  0.000000  1
  In  In10  1  0.600429  0.000631  0.250000  1
  In  In11  1  0.999369  0.399571  0.750000  1
  In  In12  1  0.401866  0.401390  0.250000  1
  In  In13  1  0.598610  0.598134  0.750000  1
  Pb  Pb14  1  0.397857  0.999448  0.750000  1
  Pb  Pb15  1  0.000552  0.602143  0.250000  1
  Se  Se16  1  0.000680  0.999320  0.500000  1
  Se  Se17  1  0.000680  0.999320  0.000000  1
