# generated using pymatgen
data_Tm6TiAl23Os8
_symmetry_space_group_name_H-M   'P 1'
_cell_length_a   8.82480400
_cell_length_b   8.82480448
_cell_length_c   9.52485800
_cell_angle_alpha   90.00000000
_cell_angle_beta   90.00000000
_cell_angle_gamma   119.99999821
_symmetry_Int_Tables_number   1
_chemical_formula_structural   Tm6TiAl23Os8
_chemical_formula_sum   'Tm6 Ti1 Al23 Os8'
_cell_volume   642.39079582
_cell_formula_units_Z   1
loop_
 _symmetry_equiv_pos_site_id
 _symmetry_equiv_pos_as_xyz
  1  'x, y, z'
loop_
 _atom_site_type_symbol
 _atom_site_label
 _atom_site_symmetry_multiplicity
 _atom_site_fract_x
 _atom_site_fract_y
 _atom_site_fract_z
 _atom_site_occupancy
  Tm  Tm0  1  0.195204  0.390407  0.250047  1
  Tm  Tm1  1  0.806479  0.612958  0.747782  1
  Tm  Tm2  1  0.609593  0.804796  0.250047  1
  Tm  Tm3  1  0.387042  0.193521  0.747782  1
  Tm  Tm4  1  0.195204  0.804796  0.250047  1
  Tm  Tm5  1  0.806479  0.193521  0.747782  1
  Ti  Ti6  1  0.333333  0.666667  0.993975  1
  Al  Al7  1  0.666667  0.333333  0.980096  1
  Al  Al8  1  0.666667  0.333333  0.517272  1
  Al  Al9  1  0.333333  0.666667  0.480764  1
  Al  Al10  1  0.162337  0.324674  0.575586  1
  Al  Al11  1  0.837391  0.674782  0.423700  1
  Al  Al12  1  0.675326  0.837663  0.575586  1
  Al  Al13  1  0.836920  0.673840  0.077410  1
  Al  Al14  1  0.325218  0.162609  0.423700  1
  Al  Al15  1  0.159567  0.319134  0.925308  1
  Al  Al16  1  0.162337  0.837663  0.575586  1
  Al  Al17  1  0.326160  0.163080  0.077410  1
  Al  Al18  1  0.837391  0.162609  0.423700  1
  Al  Al19  1  0.680866  0.840433  0.925308  1
  Al  Al20  1  0.836920  0.163080  0.077410  1
  Al  Al21  1  0.159567  0.840433  0.925308  1
  Al  Al22  1  0.561515  0.123031  0.253278  1
  Al  Al23  1  0.441304  0.882609  0.750411  1
  Al  Al24  1  0.876969  0.438485  0.253278  1
  Al  Al25  1  0.117391  0.558696  0.750411  1
  Al  Al26  1  0.561515  0.438485  0.253278  1
  Al  Al27  1  0.441304  0.558696  0.750411  1
  Al  Al28  1  0.000000  0.000000  0.250063  1
  Al  Al29  1  0.000000  0.000000  0.749466  1
  Os  Os30  1  0.499359  0.998719  0.002567  1
  Os  Os31  1  0.001281  0.500641  0.002567  1
  Os  Os32  1  0.499784  0.999568  0.503406  1
  Os  Os33  1  0.499359  0.500641  0.002567  1
  Os  Os34  1  0.000432  0.500216  0.503406  1
  Os  Os35  1  0.499784  0.500216  0.503406  1
  Os  Os36  1  0.000000  0.000000  0.999986  1
  Os  Os37  1  0.000000  0.000000  0.499896  1
