# generated using pymatgen
data_La5Tb2Pr3Sn8
_symmetry_space_group_name_H-M   'P 1'
_cell_length_a   8.38517000
_cell_length_b   8.50284091
_cell_length_c   16.18521975
_cell_angle_alpha   90.05321845
_cell_angle_beta   90.00000000
_cell_angle_gamma   90.00000000
_symmetry_Int_Tables_number   1
_chemical_formula_structural   La5Tb2Pr3Sn8
_chemical_formula_sum   'La10 Tb4 Pr6 Sn16'
_cell_volume   1153.96952154
_cell_formula_units_Z   2
loop_
 _symmetry_equiv_pos_site_id
 _symmetry_equiv_pos_as_xyz
  1  'x, y, z'
loop_
 _atom_site_type_symbol
 _atom_site_label
 _atom_site_symmetry_multiplicity
 _atom_site_fract_x
 _atom_site_fract_y
 _atom_site_fract_z
 _atom_site_occupancy
  La  La0  1  0.368915  0.839947  0.619433  1
  La  La1  1  0.868915  0.660053  0.880567  1
  La  La2  1  0.520672  0.318028  0.901341  1
  La  La3  1  0.020672  0.181972  0.598659  1
  La  La4  1  0.479223  0.681825  0.401127  1
  La  La5  1  0.979223  0.818175  0.098873  1
  La  La6  1  0.479162  0.681683  0.098838  1
  La  La7  1  0.979162  0.818317  0.401162  1
  La  La8  1  0.520859  0.318395  0.598653  1
  La  La9  1  0.020859  0.181605  0.901347  1
  Tb  Tb10  1  0.201516  0.502598  0.750065  1
  Tb  Tb11  1  0.701516  0.997402  0.749935  1
  Tb  Tb12  1  0.798700  0.497203  0.250019  1
  Tb  Tb13  1  0.298700  0.002797  0.249981  1
  Pr  Pr14  1  0.368279  0.840338  0.880444  1
  Pr  Pr15  1  0.868279  0.659662  0.619556  1
  Pr  Pr16  1  0.631432  0.159606  0.380232  1
  Pr  Pr17  1  0.131432  0.340394  0.119768  1
  Pr  Pr18  1  0.631497  0.159769  0.119909  1
  Pr  Pr19  1  0.131497  0.340231  0.380091  1
  Sn  Sn20  1  0.289468  0.033660  0.045728  1
  Sn  Sn21  1  0.789468  0.466340  0.454272  1
  Sn  Sn22  1  0.711631  0.966804  0.545642  1
  Sn  Sn23  1  0.211631  0.533196  0.954358  1
  Sn  Sn24  1  0.709777  0.967324  0.954362  1
  Sn  Sn25  1  0.209777  0.532676  0.545638  1
  Sn  Sn26  1  0.289340  0.034082  0.453655  1
  Sn  Sn27  1  0.789340  0.465918  0.046345  1
  Sn  Sn28  1  0.566042  0.616592  0.749871  1
  Sn  Sn29  1  0.066042  0.883408  0.750129  1
  Sn  Sn30  1  0.433755  0.382632  0.249961  1
  Sn  Sn31  1  0.933755  0.117368  0.250039  1
  Sn  Sn32  1  0.324418  0.146706  0.750216  1
  Sn  Sn33  1  0.824418  0.353294  0.749784  1
  Sn  Sn34  1  0.675315  0.853806  0.249998  1
  Sn  Sn35  1  0.175315  0.646194  0.250002  1
