# generated using pymatgen
data_Zr4Ti2Si4IrRh
_symmetry_space_group_name_H-M   'P 1'
_cell_length_a   3.82946800
_cell_length_b   6.70546030
_cell_length_c   7.91502835
_cell_angle_alpha   89.96570928
_cell_angle_beta   90.00000000
_cell_angle_gamma   90.00000000
_symmetry_Int_Tables_number   1
_chemical_formula_structural   Zr4Ti2Si4IrRh
_chemical_formula_sum   'Zr4 Ti2 Si4 Ir1 Rh1'
_cell_volume   203.24479747
_cell_formula_units_Z   1
loop_
 _symmetry_equiv_pos_site_id
 _symmetry_equiv_pos_as_xyz
  1  'x, y, z'
loop_
 _atom_site_type_symbol
 _atom_site_label
 _atom_site_symmetry_multiplicity
 _atom_site_fract_x
 _atom_site_fract_y
 _atom_site_fract_z
 _atom_site_occupancy
  Zr  Zr0  1  0.250000  0.026764  0.328144  1
  Zr  Zr1  1  0.250000  0.524612  0.172620  1
  Zr  Zr2  1  0.750000  0.971596  0.672947  1
  Zr  Zr3  1  0.750000  0.471812  0.827215  1
  Ti  Ti4  1  0.250000  0.141001  0.941735  1
  Ti  Ti5  1  0.250000  0.640345  0.557841  1
  Si  Si6  1  0.250000  0.263382  0.624058  1
  Si  Si7  1  0.250000  0.762846  0.875155  1
  Si  Si8  1  0.750000  0.732175  0.356525  1
  Si  Si9  1  0.750000  0.232688  0.143351  1
  Ir  Ir10  1  0.750000  0.366229  0.441494  1
  Rh  Rh11  1  0.750000  0.866549  0.058916  1
