# generated using pymatgen
data_Tb2Mn4Ni8As5P2
_symmetry_space_group_name_H-M   'P 1'
_cell_length_a   9.40760116
_cell_length_b   9.39520118
_cell_length_c   3.79116200
_cell_angle_alpha   90.00000000
_cell_angle_beta   90.00000000
_cell_angle_gamma   120.17853412
_symmetry_Int_Tables_number   1
_chemical_formula_structural   Tb2Mn4Ni8As5P2
_chemical_formula_sum   'Tb2 Mn4 Ni8 As5 P2'
_cell_volume   289.67020886
_cell_formula_units_Z   1
loop_
 _symmetry_equiv_pos_site_id
 _symmetry_equiv_pos_as_xyz
  1  'x, y, z'
loop_
 _atom_site_type_symbol
 _atom_site_label
 _atom_site_symmetry_multiplicity
 _atom_site_fract_x
 _atom_site_fract_y
 _atom_site_fract_z
 _atom_site_occupancy
  Tb  Tb0  1  0.665978  0.332643  0.000000  1
  Tb  Tb1  1  0.329079  0.660868  0.500000  1
  Mn  Mn2  1  0.888586  0.157049  0.000000  1
  Mn  Mn3  1  0.096299  0.891269  0.500000  1
  Mn  Mn4  1  0.792526  0.903410  0.500000  1
  Mn  Mn5  1  0.114855  0.219600  0.500000  1
  Ni  Ni6  1  0.057549  0.614292  0.000000  1
  Ni  Ni7  1  0.568541  0.940719  0.000000  1
  Ni  Ni8  1  0.357510  0.428994  0.000000  1
  Ni  Ni9  1  0.268174  0.121580  0.000000  1
  Ni  Ni10  1  0.854624  0.729810  0.000000  1
  Ni  Ni11  1  0.431399  0.050071  0.500000  1
  Ni  Ni12  1  0.618531  0.568606  0.500000  1
  Ni  Ni13  1  0.960006  0.384314  0.500000  1
  As  As14  1  0.292794  0.883234  0.000000  1
  As  As15  1  0.590696  0.703886  0.000000  1
  As  As16  1  0.407520  0.293231  0.500000  1
  As  As17  1  0.886617  0.593708  0.500000  1
  As  As18  1  0.710459  0.115083  0.500000  1
  P  P19  1  0.110176  0.407180  0.000000  1
  P  P20  1  0.998078  0.000454  0.000000  1
