# generated using pymatgen
data_Pr5Sc2PaBi10
_symmetry_space_group_name_H-M   'P 1'
_cell_length_a   9.74273663
_cell_length_b   9.72186040
_cell_length_c   6.58044100
_cell_angle_alpha   90.00000000
_cell_angle_beta   90.00000000
_cell_angle_gamma   119.92914174
_symmetry_Int_Tables_number   1
_chemical_formula_structural   Pr5Sc2PaBi10
_chemical_formula_sum   'Pr5 Sc2 Pa1 Bi10'
_cell_volume   540.16398555
_cell_formula_units_Z   1
loop_
 _symmetry_equiv_pos_site_id
 _symmetry_equiv_pos_as_xyz
  1  'x, y, z'
loop_
 _atom_site_type_symbol
 _atom_site_label
 _atom_site_symmetry_multiplicity
 _atom_site_fract_x
 _atom_site_fract_y
 _atom_site_fract_z
 _atom_site_occupancy
  Pr  Pr0  1  0.378457  0.378390  0.250000  1
  Pr  Pr1  1  0.384577  0.002044  0.750000  1
  Pr  Pr2  1  0.615423  0.617465  0.750000  1
  Pr  Pr3  1  0.621543  0.999933  0.250000  1
  Pr  Pr4  1  0.000000  0.380443  0.750000  1
  Sc  Sc5  1  0.000000  0.001324  0.997532  1
  Sc  Sc6  1  0.000000  0.001324  0.502468  1
  Pa  Pa7  1  0.000000  0.617829  0.250000  1
  Bi  Bi8  1  0.000000  0.267065  0.250000  1
  Bi  Bi9  1  0.328211  0.666845  0.498032  1
  Bi  Bi10  1  0.671789  0.338633  0.001968  1
  Bi  Bi11  1  0.328211  0.666845  0.001968  1
  Bi  Bi12  1  0.263610  0.262821  0.750000  1
  Bi  Bi13  1  0.736390  0.999212  0.750000  1
  Bi  Bi14  1  0.000000  0.732751  0.750000  1
  Bi  Bi15  1  0.742008  0.735226  0.250000  1
  Bi  Bi16  1  0.257992  0.993218  0.250000  1
  Bi  Bi17  1  0.671789  0.338633  0.498032  1
