# generated using pymatgen
data_Eu6SbPI6
_symmetry_space_group_name_H-M   'P 1'
_cell_length_a   11.29588437
_cell_length_b   11.29677240
_cell_length_c   11.16794880
_cell_angle_alpha   109.55024555
_cell_angle_beta   109.54461761
_cell_angle_gamma   109.79002577
_symmetry_Int_Tables_number   1
_chemical_formula_structural   Eu6SbPI6
_chemical_formula_sum   'Eu12 Sb2 P2 I12'
_cell_volume   1090.61779009
_cell_formula_units_Z   2
loop_
 _symmetry_equiv_pos_site_id
 _symmetry_equiv_pos_as_xyz
  1  'x, y, z'
loop_
 _atom_site_type_symbol
 _atom_site_label
 _atom_site_symmetry_multiplicity
 _atom_site_fract_x
 _atom_site_fract_y
 _atom_site_fract_z
 _atom_site_occupancy
  Eu  Eu0  1  0.474541  0.494210  0.230234  1
  Eu  Eu1  1  0.763977  0.244300  0.269767  1
  Eu  Eu2  1  0.763991  0.019541  0.494718  1
  Eu  Eu3  1  0.230719  0.475170  0.494719  1
  Eu  Eu4  1  0.255701  0.736028  0.230237  1
  Eu  Eu5  1  0.024823  0.269274  0.005281  1
  Eu  Eu6  1  0.005782  0.025456  0.269759  1
  Eu  Eu7  1  0.480462  0.736008  0.005280  1
  Eu  Eu8  1  0.494112  0.244111  0.488220  1
  Eu  Eu9  1  0.017873  0.482124  0.749997  1
  Eu  Eu10  1  0.255898  0.005897  0.011793  1
  Eu  Eu11  1  0.232124  0.267876  0.750001  1
  Sb  Sb12  1  0.249047  0.250953  0.250002  1
  Sb  Sb13  1  0.500958  0.999053  0.250003  1
  P  P14  1  0.001492  0.251491  0.502994  1
  P  P15  1  0.248507  0.498505  0.997006  1
  I  I16  1  0.249154  0.750668  0.745907  1
  I  I17  1  0.504766  0.503250  0.754093  1
  I  I18  1  0.994694  0.745501  0.996348  1
  I  I19  1  0.749330  0.250848  0.754093  1
  I  I20  1  0.996754  0.995238  0.745911  1
  I  I21  1  0.249148  0.998354  0.503643  1
  I  I22  1  0.754495  0.505296  0.503637  1
  I  I23  1  0.501657  0.250854  0.996361  1
  I  I24  1  0.752978  0.747020  0.249996  1
  I  I25  1  0.747827  0.997828  0.995662  1
  I  I26  1  0.997018  0.502976  0.250001  1
  I  I27  1  0.502172  0.752169  0.504336  1
