# generated using pymatgen
data_Tb6EuCoBr12
_symmetry_space_group_name_H-M   'P 1'
_cell_length_a   9.30161851
_cell_length_b   9.30161755
_cell_length_c   9.30161854
_cell_angle_alpha   106.47093979
_cell_angle_beta   106.47093640
_cell_angle_gamma   106.47094787
_symmetry_Int_Tables_number   1
_chemical_formula_structural   Tb6EuCoBr12
_chemical_formula_sum   'Tb6 Eu1 Co1 Br12'
_cell_volume   679.66680027
_cell_formula_units_Z   1
loop_
 _symmetry_equiv_pos_site_id
 _symmetry_equiv_pos_as_xyz
  1  'x, y, z'
loop_
 _atom_site_type_symbol
 _atom_site_label
 _atom_site_symmetry_multiplicity
 _atom_site_fract_x
 _atom_site_fract_y
 _atom_site_fract_z
 _atom_site_occupancy
  Tb  Tb0  1  0.903778  0.982183  0.699261  1
  Tb  Tb1  1  0.699261  0.903778  0.982183  1
  Tb  Tb2  1  0.982183  0.699261  0.903778  1
  Tb  Tb3  1  0.096222  0.017817  0.300739  1
  Tb  Tb4  1  0.300739  0.096222  0.017817  1
  Tb  Tb5  1  0.017817  0.300739  0.096222  1
  Eu  Eu6  1  0.500000  0.500000  0.500000  1
  Co  Co7  1  0.000000  0.000000  0.000000  1
  Br  Br8  1  0.926736  0.321119  0.781038  1
  Br  Br9  1  0.781038  0.926736  0.321119  1
  Br  Br10  1  0.321119  0.781038  0.926736  1
  Br  Br11  1  0.073264  0.678881  0.218962  1
  Br  Br12  1  0.218962  0.073264  0.678881  1
  Br  Br13  1  0.678881  0.218962  0.073264  1
  Br  Br14  1  0.554375  0.856031  0.634338  1
  Br  Br15  1  0.634338  0.554375  0.856031  1
  Br  Br16  1  0.856031  0.634338  0.554375  1
  Br  Br17  1  0.445625  0.143969  0.365662  1
  Br  Br18  1  0.365662  0.445625  0.143969  1
  Br  Br19  1  0.143969  0.365662  0.445625  1
