# generated using pymatgen
data_Y9MgIn3Ru
_symmetry_space_group_name_H-M   'P 1'
_cell_length_a   9.63177700
_cell_length_b   9.63177626
_cell_length_c   9.71271100
_cell_angle_alpha   90.00000000
_cell_angle_beta   90.00000000
_cell_angle_gamma   119.99999911
_symmetry_Int_Tables_number   1
_chemical_formula_structural   Y9MgIn3Ru
_chemical_formula_sum   'Y18 Mg2 In6 Ru2'
_cell_volume   780.34006748
_cell_formula_units_Z   2
loop_
 _symmetry_equiv_pos_site_id
 _symmetry_equiv_pos_as_xyz
  1  'x, y, z'
loop_
 _atom_site_type_symbol
 _atom_site_label
 _atom_site_symmetry_multiplicity
 _atom_site_fract_x
 _atom_site_fract_y
 _atom_site_fract_z
 _atom_site_occupancy
  Y  Y0  1  0.206995  0.793005  0.437968  1
  Y  Y1  1  0.206995  0.413991  0.437968  1
  Y  Y2  1  0.586009  0.793005  0.437968  1
  Y  Y3  1  0.793005  0.206995  0.562032  1
  Y  Y4  1  0.793005  0.586009  0.562032  1
  Y  Y5  1  0.413991  0.206995  0.562032  1
  Y  Y6  1  0.793005  0.206995  0.937968  1
  Y  Y7  1  0.793005  0.586009  0.937968  1
  Y  Y8  1  0.413991  0.206995  0.937968  1
  Y  Y9  1  0.206995  0.793005  0.062032  1
  Y  Y10  1  0.206995  0.413991  0.062032  1
  Y  Y11  1  0.586009  0.793005  0.062032  1
  Y  Y12  1  0.540377  0.459623  0.250000  1
  Y  Y13  1  0.540377  0.080756  0.250000  1
  Y  Y14  1  0.919244  0.459623  0.250000  1
  Y  Y15  1  0.459623  0.540377  0.750000  1
  Y  Y16  1  0.459623  0.919244  0.750000  1
  Y  Y17  1  0.080756  0.540377  0.750000  1
  Mg  Mg18  1  0.000000  0.000000  0.500000  1
  Mg  Mg19  1  0.000000  0.000000  0.000000  1
  In  In20  1  0.887973  0.112027  0.250000  1
  In  In21  1  0.887973  0.775947  0.250000  1
  In  In22  1  0.224053  0.112027  0.250000  1
  In  In23  1  0.112027  0.887973  0.750000  1
  In  In24  1  0.112027  0.224053  0.750000  1
  In  In25  1  0.775947  0.887973  0.750000  1
  Ru  Ru26  1  0.333333  0.666667  0.250000  1
  Ru  Ru27  1  0.666667  0.333333  0.750000  1
