# generated using pymatgen
data_Gd3Dy(InPd2)2
_symmetry_space_group_name_H-M   'P 1'
_cell_length_a   7.76230701
_cell_length_b   7.76230701
_cell_length_c   3.77497900
_cell_angle_alpha   90.00000000
_cell_angle_beta   90.00000000
_cell_angle_gamma   90.00572788
_symmetry_Int_Tables_number   1
_chemical_formula_structural   Gd3Dy(InPd2)2
_chemical_formula_sum   'Gd3 Dy1 In2 Pd4'
_cell_volume   227.45535672
_cell_formula_units_Z   1
loop_
 _symmetry_equiv_pos_site_id
 _symmetry_equiv_pos_as_xyz
  1  'x, y, z'
loop_
 _atom_site_type_symbol
 _atom_site_label
 _atom_site_symmetry_multiplicity
 _atom_site_fract_x
 _atom_site_fract_y
 _atom_site_fract_z
 _atom_site_occupancy
  Gd  Gd0  1  0.327441  0.827441  0.500000  1
  Gd  Gd1  1  0.826576  0.672587  0.500000  1
  Gd  Gd2  1  0.172587  0.326576  0.500000  1
  Dy  Dy3  1  0.672721  0.172721  0.500000  1
  In  In4  1  0.999048  0.000138  0.000000  1
  In  In5  1  0.500138  0.499048  0.000000  1
  Pd  Pd6  1  0.374264  0.128582  0.000000  1
  Pd  Pd7  1  0.870889  0.370889  0.000000  1
  Pd  Pd8  1  0.127755  0.627755  0.000000  1
  Pd  Pd9  1  0.628582  0.874264  0.000000  1
