# generated using pymatgen
data_Y8Er12Ir7Ru5
_symmetry_space_group_name_H-M   'P 1'
_cell_length_a   10.80165094
_cell_length_b   10.81013228
_cell_length_c   6.41208580
_cell_angle_alpha   89.83464722
_cell_angle_beta   90.19400284
_cell_angle_gamma   90.01366201
_symmetry_Int_Tables_number   1
_chemical_formula_structural   Y8Er12Ir7Ru5
_chemical_formula_sum   'Y8 Er12 Ir7 Ru5'
_cell_volume   748.71435925
_cell_formula_units_Z   1
loop_
 _symmetry_equiv_pos_site_id
 _symmetry_equiv_pos_as_xyz
  1  'x, y, z'
loop_
 _atom_site_type_symbol
 _atom_site_label
 _atom_site_symmetry_multiplicity
 _atom_site_fract_x
 _atom_site_fract_y
 _atom_site_fract_z
 _atom_site_occupancy
  Y  Y0  1  0.292286  0.087341  0.378282  1
  Y  Y1  1  0.291066  0.912023  0.878096  1
  Y  Y2  1  0.708527  0.088237  0.878104  1
  Y  Y3  1  0.709001  0.912558  0.375820  1
  Y  Y4  1  0.587616  0.792193  0.877810  1
  Y  Y5  1  0.588966  0.208209  0.377760  1
  Y  Y6  1  0.412261  0.791935  0.377508  1
  Y  Y7  1  0.411920  0.207722  0.876826  1
  Er  Er8  1  0.205155  0.414880  0.620321  1
  Er  Er9  1  0.205312  0.585381  0.120553  1
  Er  Er10  1  0.794460  0.413592  0.119708  1
  Er  Er11  1  0.794391  0.585695  0.621574  1
  Er  Er12  1  0.914712  0.705029  0.119452  1
  Er  Er13  1  0.914203  0.293924  0.620511  1
  Er  Er14  1  0.085215  0.706041  0.619827  1
  Er  Er15  1  0.085607  0.293962  0.122242  1
  Er  Er16  1  0.999894  0.001390  0.502851  1
  Er  Er17  1  0.998769  0.000360  0.003829  1
  Er  Er18  1  0.500045  0.500089  0.002942  1
  Er  Er19  1  0.499789  0.499973  0.502498  1
  Ir  Ir20  1  0.850102  0.845118  0.750793  1
  Ir  Ir21  1  0.149867  0.155032  0.751865  1
  Ir  Ir22  1  0.149316  0.845324  0.251386  1
  Ir  Ir23  1  0.653269  0.351528  0.751242  1
  Ir  Ir24  1  0.655292  0.648672  0.250467  1
  Ir  Ir25  1  0.345687  0.350424  0.251859  1
  Ir  Ir26  1  0.345741  0.649216  0.751159  1
  Ru  Ru27  1  0.851765  0.154158  0.251071  1
  Ru  Ru28  1  0.500396  0.000633  0.123418  1
  Ru  Ru29  1  0.500173  0.000179  0.623761  1
  Ru  Ru30  1  0.999687  0.499908  0.873145  1
  Ru  Ru31  1  0.999512  0.499271  0.373321  1
