# generated using pymatgen
data_Hf5V(Ga2Sn)2
_symmetry_space_group_name_H-M   'P 1'
_cell_length_a   5.60180800
_cell_length_b   8.71560600
_cell_length_c   9.27495000
_cell_angle_alpha   90.00000000
_cell_angle_beta   90.00000000
_cell_angle_gamma   90.00000000
_symmetry_Int_Tables_number   1
_chemical_formula_structural   Hf5V(Ga2Sn)2
_chemical_formula_sum   'Hf10 V2 Ga8 Sn4'
_cell_volume   452.83228822
_cell_formula_units_Z   2
loop_
 _symmetry_equiv_pos_site_id
 _symmetry_equiv_pos_as_xyz
  1  'x, y, z'
loop_
 _atom_site_type_symbol
 _atom_site_label
 _atom_site_symmetry_multiplicity
 _atom_site_fract_x
 _atom_site_fract_y
 _atom_site_fract_z
 _atom_site_occupancy
  Hf  Hf0  1  0.000000  0.250000  0.878604  1
  Hf  Hf1  1  0.500000  0.750000  0.121396  1
  Hf  Hf2  1  0.757225  0.470646  0.610883  1
  Hf  Hf3  1  0.257225  0.529354  0.389117  1
  Hf  Hf4  1  0.742775  0.970646  0.389117  1
  Hf  Hf5  1  0.242775  0.029354  0.610883  1
  Hf  Hf6  1  0.750489  0.371995  0.197357  1
  Hf  Hf7  1  0.250489  0.628005  0.802643  1
  Hf  Hf8  1  0.749511  0.871995  0.802643  1
  Hf  Hf9  1  0.249511  0.128005  0.197357  1
  V  V10  1  0.000000  0.750000  0.115841  1
  V  V11  1  0.500000  0.250000  0.884159  1
  Ga  Ga12  1  0.000000  0.750000  0.570894  1
  Ga  Ga13  1  0.500000  0.250000  0.429106  1
  Ga  Ga14  1  0.000000  0.250000  0.432019  1
  Ga  Ga15  1  0.500000  0.750000  0.567981  1
  Ga  Ga16  1  0.732729  0.139788  0.652409  1
  Ga  Ga17  1  0.232729  0.860212  0.347591  1
  Ga  Ga18  1  0.767271  0.639788  0.347591  1
  Ga  Ga19  1  0.267271  0.360212  0.652409  1
  Sn  Sn20  1  0.749358  0.049557  0.081587  1
  Sn  Sn21  1  0.249358  0.950443  0.918413  1
  Sn  Sn22  1  0.750642  0.549557  0.918413  1
  Sn  Sn23  1  0.250642  0.450443  0.081587  1
