# generated using pymatgen
data_Y6Zn2Ga2Pt13
_symmetry_space_group_name_H-M   'P 1'
_cell_length_a   8.22253006
_cell_length_b   8.29808009
_cell_length_c   8.29808037
_cell_angle_alpha   109.84172631
_cell_angle_beta   109.47060994
_cell_angle_gamma   109.47061347
_symmetry_Int_Tables_number   1
_chemical_formula_structural   Y6Zn2Ga2Pt13
_chemical_formula_sum   'Y6 Zn2 Ga2 Pt13'
_cell_volume   433.84948131
_cell_formula_units_Z   1
loop_
 _symmetry_equiv_pos_site_id
 _symmetry_equiv_pos_as_xyz
  1  'x, y, z'
loop_
 _atom_site_type_symbol
 _atom_site_label
 _atom_site_symmetry_multiplicity
 _atom_site_fract_x
 _atom_site_fract_y
 _atom_site_fract_z
 _atom_site_occupancy
  Y  Y0  1  0.697390  0.699118  0.998272  1
  Y  Y1  1  0.302610  0.001728  0.300882  1
  Y  Y2  1  0.000000  0.300989  0.300989  1
  Y  Y3  1  0.302610  0.300882  0.001728  1
  Y  Y4  1  0.697390  0.998272  0.699118  1
  Y  Y5  1  0.000000  0.699011  0.699011  1
  Zn  Zn6  1  0.500000  0.000000  0.000000  1
  Zn  Zn7  1  0.500000  0.500000  0.500000  1
  Ga  Ga8  1  0.000000  0.000000  0.500000  1
  Ga  Ga9  1  0.000000  0.500000  0.000000  1
  Pt  Pt10  1  0.326373  0.326489  0.652935  1
  Pt  Pt11  1  0.673627  0.000116  0.326561  1
  Pt  Pt12  1  0.000000  0.677101  0.322899  1
  Pt  Pt13  1  0.673627  0.326561  0.000116  1
  Pt  Pt14  1  0.326373  0.652935  0.326489  1
  Pt  Pt15  1  0.000000  0.322899  0.677101  1
  Pt  Pt16  1  0.326373  0.673439  0.999884  1
  Pt  Pt17  1  0.326373  0.999884  0.673439  1
  Pt  Pt18  1  0.658899  0.329450  0.329450  1
  Pt  Pt19  1  0.673627  0.673511  0.347065  1
  Pt  Pt20  1  0.673627  0.347065  0.673511  1
  Pt  Pt21  1  0.341101  0.670550  0.670550  1
  Pt  Pt22  1  0.000000  0.000000  0.000000  1
