# generated using pymatgen
data_Y9Ho7Cd4OsPd3
_symmetry_space_group_name_H-M   'P 1'
_cell_length_a   9.71028841
_cell_length_b   9.71356377
_cell_length_c   9.72542003
_cell_angle_alpha   59.39495404
_cell_angle_beta   59.46913451
_cell_angle_gamma   59.57641227
_symmetry_Int_Tables_number   1
_chemical_formula_structural   Y9Ho7Cd4OsPd3
_chemical_formula_sum   'Y9 Ho7 Cd4 Os1 Pd3'
_cell_volume   640.96783684
_cell_formula_units_Z   1
loop_
 _symmetry_equiv_pos_site_id
 _symmetry_equiv_pos_as_xyz
  1  'x, y, z'
loop_
 _atom_site_type_symbol
 _atom_site_label
 _atom_site_symmetry_multiplicity
 _atom_site_fract_x
 _atom_site_fract_y
 _atom_site_fract_z
 _atom_site_occupancy
  Y  Y0  1  0.809948  0.188397  0.809864  1
  Y  Y1  1  0.188539  0.188418  0.816044  1
  Y  Y2  1  0.810097  0.810196  0.188238  1
  Y  Y3  1  0.934956  0.566245  0.565480  1
  Y  Y4  1  0.558012  0.937275  0.937639  1
  Y  Y5  1  0.565403  0.935338  0.565505  1
  Y  Y6  1  0.937518  0.558381  0.937472  1
  Y  Y7  1  0.564969  0.565812  0.935586  1
  Y  Y8  1  0.938354  0.937957  0.556854  1
  Ho  Ho9  1  0.352831  0.353476  0.353052  1
  Ho  Ho10  1  0.349646  0.349984  0.946773  1
  Ho  Ho11  1  0.350651  0.945175  0.350190  1
  Ho  Ho12  1  0.946154  0.350550  0.349785  1
  Ho  Ho13  1  0.816248  0.188531  0.188912  1
  Ho  Ho14  1  0.188567  0.810209  0.810051  1
  Ho  Ho15  1  0.188412  0.816490  0.188669  1
  Cd  Cd16  1  0.580217  0.579880  0.580181  1
  Cd  Cd17  1  0.581063  0.580964  0.254238  1
  Cd  Cd18  1  0.580802  0.254227  0.581173  1
  Cd  Cd19  1  0.254365  0.580569  0.581097  1
  Os  Os20  1  0.142978  0.143153  0.146317  1
  Pd  Pd21  1  0.146217  0.143693  0.567140  1
  Pd  Pd22  1  0.146619  0.568807  0.143755  1
  Pd  Pd23  1  0.567433  0.146271  0.145984  1
