# generated using pymatgen
data_Y20In6TcPd
_symmetry_space_group_name_H-M   'P 1'
_cell_length_a   9.78341600
_cell_length_b   9.78341558
_cell_length_c   9.83312400
_cell_angle_alpha   90.00000000
_cell_angle_beta   90.00000000
_cell_angle_gamma   120.00002846
_symmetry_Int_Tables_number   1
_chemical_formula_structural   Y20In6TcPd
_chemical_formula_sum   'Y20 In6 Tc1 Pd1'
_cell_volume   815.08527137
_cell_formula_units_Z   1
loop_
 _symmetry_equiv_pos_site_id
 _symmetry_equiv_pos_as_xyz
  1  'x, y, z'
loop_
 _atom_site_type_symbol
 _atom_site_label
 _atom_site_symmetry_multiplicity
 _atom_site_fract_x
 _atom_site_fract_y
 _atom_site_fract_z
 _atom_site_occupancy
  Y  Y0  1  0.210165  0.789835  0.939605  1
  Y  Y1  1  0.210165  0.420331  0.939604  1
  Y  Y2  1  0.579669  0.789835  0.939604  1
  Y  Y3  1  0.792120  0.207880  0.058453  1
  Y  Y4  1  0.792120  0.584239  0.058453  1
  Y  Y5  1  0.415761  0.207880  0.058453  1
  Y  Y6  1  0.792120  0.207880  0.441547  1
  Y  Y7  1  0.792120  0.584239  0.441547  1
  Y  Y8  1  0.415761  0.207880  0.441547  1
  Y  Y9  1  0.210165  0.789835  0.560395  1
  Y  Y10  1  0.210165  0.420331  0.560396  1
  Y  Y11  1  0.579669  0.789835  0.560396  1
  Y  Y12  1  0.538516  0.461484  0.750000  1
  Y  Y13  1  0.538516  0.077032  0.750000  1
  Y  Y14  1  0.922968  0.461484  0.750000  1
  Y  Y15  1  0.457264  0.542736  0.250000  1
  Y  Y16  1  0.457265  0.914529  0.250000  1
  Y  Y17  1  0.085470  0.542735  0.250000  1
  Y  Y18  1  0.000000  0.000000  0.000281  1
  Y  Y19  1  0.000000  0.000000  0.499719  1
  In  In20  1  0.884166  0.115835  0.750000  1
  In  In21  1  0.884165  0.768330  0.750000  1
  In  In22  1  0.231670  0.115835  0.750000  1
  In  In23  1  0.116439  0.883561  0.250000  1
  In  In24  1  0.116439  0.232878  0.250000  1
  In  In25  1  0.767122  0.883561  0.250000  1
  Tc  Tc26  1  0.333333  0.666667  0.750000  1
  Pd  Pd27  1  0.666666  0.333333  0.250000  1
