# generated using pymatgen
data_Tb3HoGa4(NiIr)2
_symmetry_space_group_name_H-M   'P 1'
_cell_length_a   4.31785100
_cell_length_b   6.81294258
_cell_length_c   7.62177502
_cell_angle_alpha   89.88241028
_cell_angle_beta   90.00000000
_cell_angle_gamma   90.00000000
_symmetry_Int_Tables_number   1
_chemical_formula_structural   Tb3HoGa4(NiIr)2
_chemical_formula_sum   'Tb3 Ho1 Ga4 Ni2 Ir2'
_cell_volume   224.21134857
_cell_formula_units_Z   1
loop_
 _symmetry_equiv_pos_site_id
 _symmetry_equiv_pos_as_xyz
  1  'x, y, z'
loop_
 _atom_site_type_symbol
 _atom_site_label
 _atom_site_symmetry_multiplicity
 _atom_site_fract_x
 _atom_site_fract_y
 _atom_site_fract_z
 _atom_site_occupancy
  Tb  Tb0  1  0.250000  0.024201  0.811646  1
  Tb  Tb1  1  0.250000  0.524388  0.688759  1
  Tb  Tb2  1  0.750000  0.479458  0.308909  1
  Ho  Ho3  1  0.750000  0.979359  0.191171  1
  Ga  Ga4  1  0.250000  0.163250  0.437877  1
  Ga  Ga5  1  0.250000  0.663889  0.061981  1
  Ga  Ga6  1  0.750000  0.840901  0.577806  1
  Ga  Ga7  1  0.750000  0.340524  0.922112  1
  Ni  Ni8  1  0.750000  0.218152  0.609458  1
  Ni  Ni9  1  0.750000  0.718332  0.890757  1
  Ir  Ir10  1  0.250000  0.774595  0.390938  1
  Ir  Ir11  1  0.250000  0.272948  0.108587  1
