# generated using pymatgen
data_Tb8HoEr(SiB4)4
_symmetry_space_group_name_H-M   'P 1'
_cell_length_a   7.24497800
_cell_length_b   7.24497800
_cell_length_c   8.12361300
_cell_angle_alpha   90.00000000
_cell_angle_beta   90.00000000
_cell_angle_gamma   90.00000000
_symmetry_Int_Tables_number   1
_chemical_formula_structural   Tb8HoEr(SiB4)4
_chemical_formula_sum   'Tb8 Ho1 Er1 Si4 B16'
_cell_volume   426.40605982
_cell_formula_units_Z   1
loop_
 _symmetry_equiv_pos_site_id
 _symmetry_equiv_pos_as_xyz
  1  'x, y, z'
loop_
 _atom_site_type_symbol
 _atom_site_label
 _atom_site_symmetry_multiplicity
 _atom_site_fract_x
 _atom_site_fract_y
 _atom_site_fract_z
 _atom_site_occupancy
  Tb  Tb0  1  0.680274  0.180146  0.224840  1
  Tb  Tb1  1  0.319726  0.819854  0.775160  1
  Tb  Tb2  1  0.319726  0.819854  0.224840  1
  Tb  Tb3  1  0.819854  0.680274  0.224840  1
  Tb  Tb4  1  0.819854  0.680274  0.775160  1
  Tb  Tb5  1  0.680274  0.180146  0.775160  1
  Tb  Tb6  1  0.180146  0.319726  0.775160  1
  Tb  Tb7  1  0.180146  0.319726  0.224840  1
  Ho  Ho8  1  0.500000  0.500000  0.500000  1
  Er  Er9  1  0.000000  0.000000  0.500000  1
  Si  Si10  1  0.114508  0.615400  0.500000  1
  Si  Si11  1  0.885492  0.384600  0.500000  1
  Si  Si12  1  0.384600  0.114508  0.500000  1
  Si  Si13  1  0.615400  0.885492  0.500000  1
  B  B14  1  0.172275  0.039072  0.000000  1
  B  B15  1  0.827725  0.960928  0.000000  1
  B  B16  1  0.960928  0.172275  0.000000  1
  B  B17  1  0.327735  0.539097  0.000000  1
  B  B18  1  0.039072  0.827725  0.000000  1
  B  B19  1  0.672265  0.460903  0.000000  1
  B  B20  1  0.539097  0.672265  0.000000  1
  B  B21  1  0.460903  0.327735  0.000000  1
  B  B22  1  0.090111  0.590085  0.000000  1
  B  B23  1  0.909889  0.409915  0.000000  1
  B  B24  1  0.409915  0.090111  0.000000  1
  B  B25  1  0.590085  0.909889  0.000000  1
  B  B26  1  0.000000  0.000000  0.161316  1
  B  B27  1  0.000000  0.000000  0.838684  1
  B  B28  1  0.500000  0.500000  0.838790  1
  B  B29  1  0.500000  0.500000  0.161210  1
