# generated using pymatgen
data_Er(GaNi)6
_symmetry_space_group_name_H-M   'P 1'
_cell_length_a   6.47128554
_cell_length_b   6.47128503
_cell_length_c   6.47128448
_cell_angle_alpha   134.19885783
_cell_angle_beta   101.14634306
_cell_angle_gamma   96.28842300
_symmetry_Int_Tables_number   1
_chemical_formula_structural   Er(GaNi)6
_chemical_formula_sum   'Er1 Ga6 Ni6'
_cell_volume   178.75591251
_cell_formula_units_Z   1
loop_
 _symmetry_equiv_pos_site_id
 _symmetry_equiv_pos_as_xyz
  1  'x, y, z'
loop_
 _atom_site_type_symbol
 _atom_site_label
 _atom_site_symmetry_multiplicity
 _atom_site_fract_x
 _atom_site_fract_y
 _atom_site_fract_z
 _atom_site_occupancy
  Er  Er0  1  0.000000  0.000000  0.000000  1
  Ga  Ga1  1  0.344419  0.344419  0.000000  1
  Ga  Ga2  1  0.655581  0.655581  0.000000  1
  Ga  Ga3  1  0.342098  0.000000  0.342098  1
  Ga  Ga4  1  0.657902  0.000000  0.657902  1
  Ga  Ga5  1  0.184901  0.684901  0.500000  1
  Ga  Ga6  1  0.815099  0.315099  0.500000  1
  Ni  Ni7  1  0.763282  0.500000  0.263282  1
  Ni  Ni8  1  0.236718  0.500000  0.736718  1
  Ni  Ni9  1  0.500000  0.500000  0.500000  1
  Ni  Ni10  1  0.000000  0.000000  0.500000  1
  Ni  Ni11  1  0.000000  0.500000  0.000000  1
  Ni  Ni12  1  0.500000  0.000000  0.000000  1
