# generated using pymatgen
data_Sc20MnCd6Ru
_symmetry_space_group_name_H-M   'P 1'
_cell_length_a   8.94359600
_cell_length_b   8.94359571
_cell_length_c   9.20243400
_cell_angle_alpha   90.00000000
_cell_angle_beta   90.00000000
_cell_angle_gamma   120.00000108
_symmetry_Int_Tables_number   1
_chemical_formula_structural   Sc20MnCd6Ru
_chemical_formula_sum   'Sc20 Mn1 Cd6 Ru1'
_cell_volume   637.46694545
_cell_formula_units_Z   1
loop_
 _symmetry_equiv_pos_site_id
 _symmetry_equiv_pos_as_xyz
  1  'x, y, z'
loop_
 _atom_site_type_symbol
 _atom_site_label
 _atom_site_symmetry_multiplicity
 _atom_site_fract_x
 _atom_site_fract_y
 _atom_site_fract_z
 _atom_site_occupancy
  Sc  Sc0  1  0.000000  0.000000  0.499989  1
  Sc  Sc1  1  0.000000  0.000000  0.000011  1
  Sc  Sc2  1  0.213062  0.786938  0.438333  1
  Sc  Sc3  1  0.213062  0.426124  0.438333  1
  Sc  Sc4  1  0.573876  0.786938  0.438333  1
  Sc  Sc5  1  0.789850  0.210150  0.556982  1
  Sc  Sc6  1  0.789850  0.579701  0.556982  1
  Sc  Sc7  1  0.420299  0.210150  0.556982  1
  Sc  Sc8  1  0.789850  0.210150  0.943018  1
  Sc  Sc9  1  0.789850  0.579701  0.943018  1
  Sc  Sc10  1  0.420299  0.210150  0.943018  1
  Sc  Sc11  1  0.213062  0.786938  0.061667  1
  Sc  Sc12  1  0.213062  0.426124  0.061667  1
  Sc  Sc13  1  0.573876  0.786938  0.061667  1
  Sc  Sc14  1  0.538855  0.461145  0.250000  1
  Sc  Sc15  1  0.538855  0.077709  0.250000  1
  Sc  Sc16  1  0.922291  0.461145  0.250000  1
  Sc  Sc17  1  0.458636  0.541364  0.750000  1
  Sc  Sc18  1  0.458636  0.917273  0.750000  1
  Sc  Sc19  1  0.082727  0.541364  0.750000  1
  Mn  Mn20  1  0.333333  0.666667  0.250000  1
  Cd  Cd21  1  0.884834  0.115166  0.250000  1
  Cd  Cd22  1  0.884834  0.769669  0.250000  1
  Cd  Cd23  1  0.230331  0.115166  0.250000  1
  Cd  Cd24  1  0.115120  0.884880  0.750000  1
  Cd  Cd25  1  0.115120  0.230239  0.750000  1
  Cd  Cd26  1  0.769761  0.884880  0.750000  1
  Ru  Ru27  1  0.666667  0.333333  0.750000  1
