# generated using pymatgen
data_Ho20Sn8Bi5Pb3
_symmetry_space_group_name_H-M   'P 1'
_cell_length_a   8.14025199
_cell_length_b   8.14792725
_cell_length_c   15.43802600
_cell_angle_alpha   90.06906075
_cell_angle_beta   90.04008469
_cell_angle_gamma   89.94090444
_symmetry_Int_Tables_number   1
_chemical_formula_structural   Ho20Sn8Bi5Pb3
_chemical_formula_sum   'Ho20 Sn8 Bi5 Pb3'
_cell_volume   1023.94376850
_cell_formula_units_Z   1
loop_
 _symmetry_equiv_pos_site_id
 _symmetry_equiv_pos_as_xyz
  1  'x, y, z'
loop_
 _atom_site_type_symbol
 _atom_site_label
 _atom_site_symmetry_multiplicity
 _atom_site_fract_x
 _atom_site_fract_y
 _atom_site_fract_z
 _atom_site_occupancy
  Ho  Ho0  1  0.379882  0.839407  0.875513  1
  Ho  Ho1  1  0.882280  0.659522  0.624403  1
  Ho  Ho2  1  0.617894  0.159118  0.375501  1
  Ho  Ho3  1  0.117502  0.339749  0.124466  1
  Ho  Ho4  1  0.622008  0.162556  0.124650  1
  Ho  Ho5  1  0.123013  0.338818  0.376687  1
  Ho  Ho6  1  0.376101  0.839589  0.624035  1
  Ho  Ho7  1  0.878041  0.658381  0.875904  1
  Ho  Ho8  1  0.549506  0.331780  0.892116  1
  Ho  Ho9  1  0.049548  0.172042  0.607517  1
  Ho  Ho10  1  0.450793  0.672701  0.392572  1
  Ho  Ho11  1  0.953594  0.825519  0.108453  1
  Ho  Ho12  1  0.459081  0.669241  0.107546  1
  Ho  Ho13  1  0.962653  0.826813  0.393892  1
  Ho  Ho14  1  0.536794  0.326686  0.605780  1
  Ho  Ho15  1  0.041825  0.175817  0.892911  1
  Ho  Ho16  1  0.210996  0.500929  0.746758  1
  Ho  Ho17  1  0.710841  0.999510  0.749391  1
  Ho  Ho18  1  0.789136  0.499165  0.248484  1
  Ho  Ho19  1  0.289311  0.000732  0.252824  1
  Sn  Sn20  1  0.575860  0.625226  0.749282  1
  Sn  Sn21  1  0.075032  0.875874  0.751776  1
  Sn  Sn22  1  0.423579  0.375232  0.249484  1
  Sn  Sn23  1  0.924159  0.124199  0.250737  1
  Sn  Sn24  1  0.349491  0.147260  0.751781  1
  Sn  Sn25  1  0.848305  0.352339  0.749009  1
  Sn  Sn26  1  0.651831  0.852774  0.250306  1
  Sn  Sn27  1  0.151766  0.646447  0.249454  1
  Bi  Bi28  1  0.275538  0.024866  0.043858  1
  Bi  Bi29  1  0.775617  0.473502  0.456426  1
  Bi  Bi30  1  0.723741  0.973630  0.543224  1
  Bi  Bi31  1  0.223271  0.526167  0.956246  1
  Bi  Bi32  1  0.722849  0.973946  0.956551  1
  Pb  Pb33  1  0.221160  0.529778  0.542277  1
  Pb  Pb34  1  0.278866  0.028884  0.457889  1
  Pb  Pb35  1  0.778134  0.471803  0.042301  1
