# generated using pymatgen
data_Sc3Ti2Zn(Co5B2)2
_symmetry_space_group_name_H-M   'P 1'
_cell_length_a   8.74069212
_cell_length_b   8.76579107
_cell_length_c   2.96989500
_cell_angle_alpha   90.00000000
_cell_angle_beta   90.00000000
_cell_angle_gamma   90.70032292
_symmetry_Int_Tables_number   1
_chemical_formula_structural   Sc3Ti2Zn(Co5B2)2
_chemical_formula_sum   'Sc3 Ti2 Zn1 Co10 B4'
_cell_volume   227.53362738
_cell_formula_units_Z   1
loop_
 _symmetry_equiv_pos_site_id
 _symmetry_equiv_pos_as_xyz
  1  'x, y, z'
loop_
 _atom_site_type_symbol
 _atom_site_label
 _atom_site_symmetry_multiplicity
 _atom_site_fract_x
 _atom_site_fract_y
 _atom_site_fract_z
 _atom_site_occupancy
  Sc  Sc0  1  0.827382  0.322326  0.000000  1
  Sc  Sc1  1  0.319747  0.171847  0.000000  1
  Sc  Sc2  1  0.678424  0.826528  0.000000  1
  Ti  Ti3  1  0.500865  0.499666  0.000000  1
  Ti  Ti4  1  0.173181  0.676696  0.000000  1
  Zn  Zn5  1  0.999480  0.003232  0.000000  1
  Co  Co6  1  0.496116  0.996846  0.500000  1
  Co  Co7  1  0.006082  0.505933  0.500000  1
  Co  Co8  1  0.070440  0.228320  0.500000  1
  Co  Co9  1  0.217978  0.917535  0.500000  1
  Co  Co10  1  0.774751  0.070361  0.500000  1
  Co  Co11  1  0.939899  0.776137  0.500000  1
  Co  Co12  1  0.422862  0.718003  0.500000  1
  Co  Co13  1  0.567319  0.276531  0.500000  1
  Co  Co14  1  0.725932  0.569471  0.500000  1
  Co  Co15  1  0.277816  0.439448  0.500000  1
  B  B16  1  0.620332  0.116243  0.000000  1
  B  B17  1  0.121378  0.381921  0.000000  1
  B  B18  1  0.886467  0.625211  0.000000  1
  B  B19  1  0.373550  0.877746  0.000000  1
