# generated using pymatgen
data_TmScMn2Co10P7
_symmetry_space_group_name_H-M   'P 1'
_cell_length_a   9.00758429
_cell_length_b   8.98819673
_cell_length_c   3.56460100
_cell_angle_alpha   90.00000000
_cell_angle_beta   90.00000000
_cell_angle_gamma   120.03860798
_symmetry_Int_Tables_number   1
_chemical_formula_structural   TmScMn2Co10P7
_chemical_formula_sum   'Tm1 Sc1 Mn2 Co10 P7'
_cell_volume   249.83505282
_cell_formula_units_Z   1
loop_
 _symmetry_equiv_pos_site_id
 _symmetry_equiv_pos_as_xyz
  1  'x, y, z'
loop_
 _atom_site_type_symbol
 _atom_site_label
 _atom_site_symmetry_multiplicity
 _atom_site_fract_x
 _atom_site_fract_y
 _atom_site_fract_z
 _atom_site_occupancy
  Tm  Tm0  1  0.999197  0.997655  0.000000  1
  Sc  Sc1  1  0.666560  0.332995  0.500000  1
  Mn  Mn2  1  0.434388  0.889410  0.500000  1
  Mn  Mn3  1  0.111504  0.544332  0.500000  1
  Co  Co4  1  0.700315  0.602907  0.000000  1
  Co  Co5  1  0.397798  0.100228  0.000000  1
  Co  Co6  1  0.900759  0.298213  0.000000  1
  Co  Co7  1  0.217218  0.390446  0.000000  1
  Co  Co8  1  0.609725  0.825462  0.000000  1
  Co  Co9  1  0.172698  0.782226  0.000000  1
  Co  Co10  1  0.285751  0.231055  0.500000  1
  Co  Co11  1  0.770715  0.053720  0.500000  1
  Co  Co12  1  0.943636  0.715044  0.500000  1
  Co  Co13  1  0.459166  0.572987  0.500000  1
  P  P14  1  0.449801  0.368213  0.000000  1
  P  P15  1  0.633138  0.083265  0.000000  1
  P  P16  1  0.914678  0.549354  0.000000  1
  P  P17  1  0.044552  0.258236  0.500000  1
  P  P18  1  0.736375  0.781878  0.500000  1
  P  P19  1  0.217246  0.955235  0.500000  1
  P  P20  1  0.334779  0.667142  0.000000  1
