# generated using pymatgen
data_Tb2Y2GeBr6
_symmetry_space_group_name_H-M   'P 1'
_cell_length_a   4.09978800
_cell_length_b   13.31412400
_cell_length_c   14.13917800
_cell_angle_alpha   90.00000000
_cell_angle_beta   90.00000000
_cell_angle_gamma   90.00000000
_symmetry_Int_Tables_number   1
_chemical_formula_structural   Tb2Y2GeBr6
_chemical_formula_sum   'Tb4 Y4 Ge2 Br12'
_cell_volume   771.78824435
_cell_formula_units_Z   2
loop_
 _symmetry_equiv_pos_site_id
 _symmetry_equiv_pos_as_xyz
  1  'x, y, z'
loop_
 _atom_site_type_symbol
 _atom_site_label
 _atom_site_symmetry_multiplicity
 _atom_site_fract_x
 _atom_site_fract_y
 _atom_site_fract_z
 _atom_site_occupancy
  Tb  Tb0  1  0.000000  0.118929  0.578804  1
  Tb  Tb1  1  0.000000  0.881071  0.421196  1
  Tb  Tb2  1  0.000000  0.618929  0.921196  1
  Tb  Tb3  1  0.000000  0.381071  0.078804  1
  Y  Y4  1  0.500000  0.118662  0.340943  1
  Y  Y5  1  0.500000  0.881338  0.659057  1
  Y  Y6  1  0.500000  0.618662  0.159057  1
  Y  Y7  1  0.500000  0.381338  0.840943  1
  Ge  Ge8  1  0.500000  0.000000  0.500000  1
  Ge  Ge9  1  0.500000  0.500000  0.000000  1
  Br  Br10  1  0.500000  0.244934  0.163793  1
  Br  Br11  1  0.500000  0.755066  0.836207  1
  Br  Br12  1  0.500000  0.744934  0.336207  1
  Br  Br13  1  0.500000  0.255066  0.663793  1
  Br  Br14  1  0.000000  0.254346  0.410904  1
  Br  Br15  1  0.000000  0.745654  0.589096  1
  Br  Br16  1  0.000000  0.754346  0.089096  1
  Br  Br17  1  0.000000  0.245654  0.910904  1
  Br  Br18  1  0.000000  0.002829  0.244423  1
  Br  Br19  1  0.000000  0.997171  0.755577  1
  Br  Br20  1  0.000000  0.502829  0.255577  1
  Br  Br21  1  0.000000  0.497171  0.744423  1
