# generated using pymatgen
data_CaGd4Tm3(B6Os)4
_symmetry_space_group_name_H-M   'P 1'
_cell_length_a   3.65118600
_cell_length_b   9.13615304
_cell_length_c   11.52888405
_cell_angle_alpha   90.01012881
_cell_angle_beta   90.00000000
_cell_angle_gamma   90.00000000
_symmetry_Int_Tables_number   1
_chemical_formula_structural   CaGd4Tm3(B6Os)4
_chemical_formula_sum   'Ca1 Gd4 Tm3 B24 Os4'
_cell_volume   384.57813368
_cell_formula_units_Z   1
loop_
 _symmetry_equiv_pos_site_id
 _symmetry_equiv_pos_as_xyz
  1  'x, y, z'
loop_
 _atom_site_type_symbol
 _atom_site_label
 _atom_site_symmetry_multiplicity
 _atom_site_fract_x
 _atom_site_fract_y
 _atom_site_fract_z
 _atom_site_occupancy
  Ca  Ca0  1  0.000000  0.944259  0.373083  1
  Gd  Gd1  1  0.000000  0.322199  0.413069  1
  Gd  Gd2  1  0.000000  0.678058  0.585043  1
  Gd  Gd3  1  0.000000  0.822533  0.087226  1
  Gd  Gd4  1  0.000000  0.177986  0.914985  1
  Tm  Tm5  1  0.000000  0.055839  0.626855  1
  Tm  Tm6  1  0.000000  0.443928  0.127404  1
  Tm  Tm7  1  0.000000  0.555993  0.872864  1
  B  B8  1  0.500000  0.554444  0.431915  1
  B  B9  1  0.500000  0.445320  0.567895  1
  B  B10  1  0.500000  0.054559  0.068090  1
  B  B11  1  0.500000  0.945507  0.932092  1
  B  B12  1  0.500000  0.748779  0.418725  1
  B  B13  1  0.500000  0.250462  0.580875  1
  B  B14  1  0.500000  0.249327  0.080956  1
  B  B15  1  0.500000  0.750629  0.919032  1
  B  B16  1  0.500000  0.791095  0.266426  1
  B  B17  1  0.500000  0.208552  0.733440  1
  B  B18  1  0.500000  0.291120  0.233249  1
  B  B19  1  0.500000  0.708695  0.766565  1
  B  B20  1  0.500000  0.631119  0.185339  1
  B  B21  1  0.500000  0.368935  0.815095  1
  B  B22  1  0.500000  0.131145  0.314575  1
  B  B23  1  0.500000  0.868747  0.684681  1
  B  B24  1  0.500000  0.983808  0.213270  1
  B  B25  1  0.500000  0.016381  0.786356  1
  B  B26  1  0.500000  0.483411  0.286458  1
  B  B27  1  0.500000  0.516340  0.713625  1
  B  B28  1  0.500000  0.605050  0.028804  1
  B  B29  1  0.500000  0.395061  0.970934  1
  B  B30  1  0.500000  0.104872  0.471910  1
  B  B31  1  0.500000  0.895727  0.529565  1
  Os  Os32  1  0.000000  0.637292  0.319971  1
  Os  Os33  1  0.000000  0.361524  0.680307  1
  Os  Os34  1  0.000000  0.139789  0.178636  1
  Os  Os35  1  0.000000  0.861511  0.820684  1
