# generated using pymatgen
data_LaCuSbAs
_symmetry_space_group_name_H-M   'P 1'
_cell_length_a   4.21712700
_cell_length_b   4.21712700
_cell_length_c   10.37143000
_cell_angle_alpha   90.00000000
_cell_angle_beta   90.00000000
_cell_angle_gamma   90.00000000
_symmetry_Int_Tables_number   1
_chemical_formula_structural   LaCuSbAs
_chemical_formula_sum   'La2 Cu2 Sb2 As2'
_cell_volume   184.44717194
_cell_formula_units_Z   2
loop_
 _symmetry_equiv_pos_site_id
 _symmetry_equiv_pos_as_xyz
  1  'x, y, z'
loop_
 _atom_site_type_symbol
 _atom_site_label
 _atom_site_symmetry_multiplicity
 _atom_site_fract_x
 _atom_site_fract_y
 _atom_site_fract_z
 _atom_site_occupancy
  La  La0  1  0.000000  0.500000  0.738288  1
  La  La1  1  0.500000  0.000000  0.261712  1
  Cu  Cu2  1  0.500000  0.500000  0.500000  1
  Cu  Cu3  1  0.000000  0.000000  0.500000  1
  Sb  Sb4  1  0.500000  0.500000  0.000000  1
  Sb  Sb5  1  0.000000  0.000000  0.000000  1
  As  As6  1  0.000000  0.500000  0.359428  1
  As  As7  1  0.500000  0.000000  0.640572  1
