# generated using pymatgen
data_Nd6Sm2Sc11Si16Mo
_symmetry_space_group_name_H-M   'P 1'
_cell_length_a   7.19751386
_cell_length_b   7.44080414
_cell_length_c   14.06835797
_cell_angle_alpha   90.12812006
_cell_angle_beta   89.83152569
_cell_angle_gamma   89.69365239
_symmetry_Int_Tables_number   1
_chemical_formula_structural   Nd6Sm2Sc11Si16Mo
_chemical_formula_sum   'Nd6 Sm2 Sc11 Si16 Mo1'
_cell_volume   753.41906672
_cell_formula_units_Z   1
loop_
 _symmetry_equiv_pos_site_id
 _symmetry_equiv_pos_as_xyz
  1  'x, y, z'
loop_
 _atom_site_type_symbol
 _atom_site_label
 _atom_site_symmetry_multiplicity
 _atom_site_fract_x
 _atom_site_fract_y
 _atom_site_fract_z
 _atom_site_occupancy
  Nd  Nd0  1  0.011880  0.171409  0.097584  1
  Nd  Nd1  1  0.989045  0.828307  0.898114  1
  Nd  Nd2  1  0.486692  0.673829  0.898410  1
  Nd  Nd3  1  0.992272  0.831001  0.595612  1
  Nd  Nd4  1  0.513611  0.326756  0.096884  1
  Nd  Nd5  1  0.011736  0.172996  0.403602  1
  Sm  Sm6  1  0.507646  0.326501  0.409143  1
  Sm  Sm7  1  0.486794  0.674834  0.597529  1
  Sc  Sc8  1  0.163493  0.490088  0.744145  1
  Sc  Sc9  1  0.837994  0.499576  0.252409  1
  Sc  Sc10  1  0.338111  0.000431  0.252056  1
  Sc  Sc11  1  0.656572  0.004097  0.747150  1
  Sc  Sc12  1  0.665387  0.826019  0.379090  1
  Sc  Sc13  1  0.169772  0.676092  0.378287  1
  Sc  Sc14  1  0.669687  0.824243  0.124858  1
  Sc  Sc15  1  0.832042  0.325486  0.623653  1
  Sc  Sc16  1  0.332441  0.177416  0.875020  1
  Sc  Sc17  1  0.829085  0.323124  0.870673  1
  Sc  Sc18  1  0.170809  0.675708  0.125886  1
  Si  Si19  1  0.043936  0.126105  0.744631  1
  Si  Si20  1  0.962936  0.877349  0.251998  1
  Si  Si21  1  0.466067  0.623926  0.251747  1
  Si  Si22  1  0.530051  0.368679  0.744732  1
  Si  Si23  1  0.289465  0.890301  0.745850  1
  Si  Si24  1  0.709518  0.119502  0.251638  1
  Si  Si25  1  0.214704  0.380540  0.251602  1
  Si  Si26  1  0.785176  0.617586  0.746169  1
  Si  Si27  1  0.172549  0.450251  0.542678  1
  Si  Si28  1  0.845311  0.533706  0.460099  1
  Si  Si29  1  0.340679  0.969188  0.470559  1
  Si  Si30  1  0.848983  0.537217  0.038579  1
  Si  Si31  1  0.641416  0.038259  0.546008  1
  Si  Si32  1  0.149184  0.464427  0.958579  1
  Si  Si33  1  0.655879  0.037462  0.957896  1
  Si  Si34  1  0.346636  0.961618  0.038771  1
  Mo  Mo35  1  0.332446  0.175972  0.628354  1
