# generated using pymatgen
data_SmDy(Al5Cu6)2
_symmetry_space_group_name_H-M   'P 1'
_cell_length_a   10.33932420
_cell_length_b   8.18347085
_cell_length_c   7.85047136
_cell_angle_alpha   80.27803143
_cell_angle_beta   51.27184635
_cell_angle_gamma   48.45010997
_symmetry_Int_Tables_number   1
_chemical_formula_structural   SmDy(Al5Cu6)2
_chemical_formula_sum   'Sm1 Dy1 Al10 Cu12'
_cell_volume   351.66670753
_cell_formula_units_Z   1
loop_
 _symmetry_equiv_pos_site_id
 _symmetry_equiv_pos_as_xyz
  1  'x, y, z'
loop_
 _atom_site_type_symbol
 _atom_site_label
 _atom_site_symmetry_multiplicity
 _atom_site_fract_x
 _atom_site_fract_y
 _atom_site_fract_z
 _atom_site_occupancy
  Sm  Sm0  1  0.250000  0.250000  0.250000  1
  Dy  Dy1  1  0.000000  0.000000  0.000000  1
  Al  Al2  1  0.500000  0.500000  0.500000  1
  Al  Al3  1  0.750000  0.750000  0.750000  1
  Al  Al4  1  0.755815  0.070651  0.834537  1
  Al  Al5  1  0.834537  0.339000  0.755815  1
  Al  Al6  1  0.070651  0.755815  0.339000  1
  Al  Al7  1  0.339000  0.834537  0.070651  1
  Al  Al8  1  0.495383  0.178822  0.415047  1
  Al  Al9  1  0.415047  0.910747  0.495383  1
  Al  Al10  1  0.178822  0.495383  0.910747  1
  Al  Al11  1  0.910747  0.415047  0.178822  1
  Cu  Cu12  1  0.624663  0.125423  0.625234  1
  Cu  Cu13  1  0.625234  0.624680  0.624663  1
  Cu  Cu14  1  0.125423  0.624663  0.624680  1
  Cu  Cu15  1  0.624680  0.625234  0.125423  1
  Cu  Cu16  1  0.491300  0.434696  0.183239  1
  Cu  Cu17  1  0.183239  0.890764  0.491300  1
  Cu  Cu18  1  0.434696  0.491300  0.890764  1
  Cu  Cu19  1  0.890764  0.183239  0.434696  1
  Cu  Cu20  1  0.760039  0.814424  0.066240  1
  Cu  Cu21  1  0.066240  0.359298  0.760039  1
  Cu  Cu22  1  0.814424  0.760039  0.359298  1
  Cu  Cu23  1  0.359298  0.066240  0.814424  1
