# generated using pymatgen
data_YTm19(Cd3Ir)2
_symmetry_space_group_name_H-M   'P 1'
_cell_length_a   9.50095601
_cell_length_b   9.50039216
_cell_length_c   9.70860400
_cell_angle_alpha   90.00000000
_cell_angle_beta   90.00000000
_cell_angle_gamma   119.99803350
_symmetry_Int_Tables_number   1
_chemical_formula_structural   YTm19(Cd3Ir)2
_chemical_formula_sum   'Y1 Tm19 Cd6 Ir2'
_cell_volume   758.93549324
_cell_formula_units_Z   1
loop_
 _symmetry_equiv_pos_site_id
 _symmetry_equiv_pos_as_xyz
  1  'x, y, z'
loop_
 _atom_site_type_symbol
 _atom_site_label
 _atom_site_symmetry_multiplicity
 _atom_site_fract_x
 _atom_site_fract_y
 _atom_site_fract_z
 _atom_site_occupancy
  Y  Y0  1  0.083023  0.541511  0.750000  1
  Tm  Tm1  1  0.999981  0.999990  0.500057  1
  Tm  Tm2  1  0.999981  0.999990  0.999943  1
  Tm  Tm3  1  0.209567  0.790893  0.440855  1
  Tm  Tm4  1  0.209567  0.418674  0.440855  1
  Tm  Tm5  1  0.581255  0.790627  0.441113  1
  Tm  Tm6  1  0.790159  0.209007  0.558736  1
  Tm  Tm7  1  0.790159  0.581152  0.558736  1
  Tm  Tm8  1  0.418814  0.209407  0.558864  1
  Tm  Tm9  1  0.790159  0.209007  0.941264  1
  Tm  Tm10  1  0.790159  0.581152  0.941264  1
  Tm  Tm11  1  0.418814  0.209407  0.941136  1
  Tm  Tm12  1  0.209567  0.790893  0.059145  1
  Tm  Tm13  1  0.209567  0.418674  0.059145  1
  Tm  Tm14  1  0.581255  0.790627  0.058887  1
  Tm  Tm15  1  0.541427  0.458644  0.250000  1
  Tm  Tm16  1  0.541427  0.082784  0.250000  1
  Tm  Tm17  1  0.917299  0.458650  0.250000  1
  Tm  Tm18  1  0.459061  0.541360  0.750000  1
  Tm  Tm19  1  0.459061  0.917700  0.750000  1
  Cd  Cd20  1  0.885465  0.114410  0.250000  1
  Cd  Cd21  1  0.885465  0.771056  0.250000  1
  Cd  Cd22  1  0.229008  0.114504  0.250000  1
  Cd  Cd23  1  0.114564  0.886073  0.750000  1
  Cd  Cd24  1  0.114564  0.228490  0.750000  1
  Cd  Cd25  1  0.771004  0.885502  0.750000  1
  Ir  Ir26  1  0.333200  0.666601  0.250000  1
  Ir  Ir27  1  0.666429  0.333214  0.750000  1
