# generated using pymatgen
data_AcDy2PtO7
_symmetry_space_group_name_H-M   'P 1'
_cell_length_a   6.49292500
_cell_length_b   6.49292409
_cell_length_c   7.55357700
_cell_angle_alpha   90.00000000
_cell_angle_beta   90.00000000
_cell_angle_gamma   109.42572959
_symmetry_Int_Tables_number   1
_chemical_formula_structural   AcDy2PtO7
_chemical_formula_sum   'Ac2 Dy4 Pt2 O14'
_cell_volume   300.31627478
_cell_formula_units_Z   2
loop_
 _symmetry_equiv_pos_site_id
 _symmetry_equiv_pos_as_xyz
  1  'x, y, z'
loop_
 _atom_site_type_symbol
 _atom_site_label
 _atom_site_symmetry_multiplicity
 _atom_site_fract_x
 _atom_site_fract_y
 _atom_site_fract_z
 _atom_site_occupancy
  Ac  Ac0  1  0.000000  0.000000  0.500000  1
  Ac  Ac1  1  0.000000  0.000000  0.000000  1
  Dy  Dy2  1  0.485097  0.932076  0.750000  1
  Dy  Dy3  1  0.514903  0.067924  0.250000  1
  Dy  Dy4  1  0.932076  0.485097  0.750000  1
  Dy  Dy5  1  0.067924  0.514903  0.250000  1
  Pt  Pt6  1  0.500000  0.500000  0.500000  1
  Pt  Pt7  1  0.500000  0.500000  0.000000  1
  O  O8  1  0.605148  0.605148  0.750000  1
  O  O9  1  0.394852  0.394852  0.250000  1
  O  O10  1  0.832820  0.127773  0.750000  1
  O  O11  1  0.167180  0.872227  0.250000  1
  O  O12  1  0.127773  0.832820  0.750000  1
  O  O13  1  0.872227  0.167180  0.250000  1
  O  O14  1  0.442946  0.179543  0.965498  1
  O  O15  1  0.557054  0.820457  0.465498  1
  O  O16  1  0.179543  0.442946  0.965498  1
  O  O17  1  0.820457  0.557054  0.465498  1
  O  O18  1  0.442946  0.179543  0.534502  1
  O  O19  1  0.557054  0.820457  0.034502  1
  O  O20  1  0.820457  0.557054  0.034502  1
  O  O21  1  0.179543  0.442946  0.534502  1
