# generated using pymatgen
data_Ta5MnNbB4Ru9
_symmetry_space_group_name_H-M   'P 1'
_cell_length_a   9.38831820
_cell_length_b   9.38831847
_cell_length_c   3.02254800
_cell_angle_alpha   90.00000000
_cell_angle_beta   90.00000000
_cell_angle_gamma   90.30207549
_symmetry_Int_Tables_number   1
_chemical_formula_structural   Ta5MnNbB4Ru9
_chemical_formula_sum   'Ta5 Mn1 Nb1 B4 Ru9'
_cell_volume   266.40525343
_cell_formula_units_Z   1
loop_
 _symmetry_equiv_pos_site_id
 _symmetry_equiv_pos_as_xyz
  1  'x, y, z'
loop_
 _atom_site_type_symbol
 _atom_site_label
 _atom_site_symmetry_multiplicity
 _atom_site_fract_x
 _atom_site_fract_y
 _atom_site_fract_z
 _atom_site_occupancy
  Ta  Ta0  1  0.177566  0.322434  0.000000  1
  Ta  Ta1  1  0.332004  0.832059  0.000000  1
  Ta  Ta2  1  0.667941  0.167996  0.000000  1
  Ta  Ta3  1  0.500029  0.499983  0.000000  1
  Ta  Ta4  1  0.000017  0.999971  0.000000  1
  Mn  Mn5  1  0.499933  0.000067  0.500000  1
  Nb  Nb6  1  0.822545  0.677455  0.000000  1
  B  B7  1  0.612258  0.887742  0.000000  1
  B  B8  1  0.387803  0.112197  0.000000  1
  B  B9  1  0.122182  0.622261  0.000000  1
  B  B10  1  0.877739  0.377818  0.000000  1
  Ru  Ru11  1  0.569598  0.721609  0.500000  1
  Ru  Ru12  1  0.429895  0.278718  0.500000  1
  Ru  Ru13  1  0.072833  0.782599  0.500000  1
  Ru  Ru14  1  0.927651  0.217343  0.500000  1
  Ru  Ru15  1  0.282657  0.572349  0.500000  1
  Ru  Ru16  1  0.717401  0.427167  0.500000  1
  Ru  Ru17  1  0.221282  0.070105  0.500000  1
  Ru  Ru18  1  0.778391  0.930402  0.500000  1
  Ru  Ru19  1  0.000277  0.499723  0.500000  1
