# generated using pymatgen
data_Er20IrRu5Rh6
_symmetry_space_group_name_H-M   'P 1'
_cell_length_a   10.74815080
_cell_length_b   10.74815119
_cell_length_c   6.36729104
_cell_angle_alpha   89.97648515
_cell_angle_beta   89.97647903
_cell_angle_gamma   90.07259656
_symmetry_Int_Tables_number   1
_chemical_formula_structural   Er20IrRu5Rh6
_chemical_formula_sum   'Er20 Ir1 Ru5 Rh6'
_cell_volume   735.56625551
_cell_formula_units_Z   1
loop_
 _symmetry_equiv_pos_site_id
 _symmetry_equiv_pos_as_xyz
  1  'x, y, z'
loop_
 _atom_site_type_symbol
 _atom_site_label
 _atom_site_symmetry_multiplicity
 _atom_site_fract_x
 _atom_site_fract_y
 _atom_site_fract_z
 _atom_site_occupancy
  Er  Er0  1  0.294317  0.086064  0.376859  1
  Er  Er1  1  0.293759  0.912952  0.876936  1
  Er  Er2  1  0.707119  0.086824  0.877637  1
  Er  Er3  1  0.706747  0.914946  0.375710  1
  Er  Er4  1  0.585298  0.793851  0.876645  1
  Er  Er5  1  0.587711  0.205937  0.376850  1
  Er  Er6  1  0.413325  0.793607  0.377418  1
  Er  Er7  1  0.413588  0.205644  0.876368  1
  Er  Er8  1  0.206149  0.414702  0.623355  1
  Er  Er9  1  0.206393  0.586675  0.122582  1
  Er  Er10  1  0.794063  0.412289  0.123150  1
  Er  Er11  1  0.794356  0.586412  0.623632  1
  Er  Er12  1  0.913936  0.705683  0.123141  1
  Er  Er13  1  0.913176  0.292881  0.622363  1
  Er  Er14  1  0.087048  0.706241  0.623064  1
  Er  Er15  1  0.085054  0.293253  0.124290  1
  Er  Er16  1  0.999315  0.001124  0.499198  1
  Er  Er17  1  0.998876  0.000685  0.000802  1
  Er  Er18  1  0.499990  0.500425  0.999858  1
  Er  Er19  1  0.499575  0.500010  0.500142  1
  Ir  Ir20  1  0.347498  0.652502  0.750000  1
  Ru  Ru21  1  0.847823  0.152177  0.250000  1
  Ru  Ru22  1  0.500018  0.000428  0.122447  1
  Ru  Ru23  1  0.499761  0.000141  0.622592  1
  Ru  Ru24  1  0.999859  0.500239  0.877408  1
  Ru  Ru25  1  0.999572  0.499982  0.377553  1
  Rh  Rh26  1  0.846987  0.846416  0.749872  1
  Rh  Rh27  1  0.153584  0.153013  0.750128  1
  Rh  Rh28  1  0.152687  0.847313  0.250000  1
  Rh  Rh29  1  0.651729  0.348271  0.750000  1
  Rh  Rh30  1  0.653132  0.652443  0.249685  1
  Rh  Rh31  1  0.347557  0.346868  0.250315  1
