# generated using pymatgen
data_Y3HoPdPt3F28
_symmetry_space_group_name_H-M   'P 1'
_cell_length_a   5.54799811
_cell_length_b   8.87991388
_cell_length_c   11.98857903
_cell_angle_alpha   62.48087161
_cell_angle_beta   89.99441148
_cell_angle_gamma   89.97272587
_symmetry_Int_Tables_number   1
_chemical_formula_structural   Y3HoPdPt3F28
_chemical_formula_sum   'Y3 Ho1 Pd1 Pt3 F28'
_cell_volume   523.80076907
_cell_formula_units_Z   1
loop_
 _symmetry_equiv_pos_site_id
 _symmetry_equiv_pos_as_xyz
  1  'x, y, z'
loop_
 _atom_site_type_symbol
 _atom_site_label
 _atom_site_symmetry_multiplicity
 _atom_site_fract_x
 _atom_site_fract_y
 _atom_site_fract_z
 _atom_site_occupancy
  Y  Y0  1  0.761051  0.812986  0.764703  1
  Y  Y1  1  0.260804  0.186555  0.736129  1
  Y  Y2  1  0.238319  0.185645  0.235162  1
  Ho  Ho3  1  0.739027  0.813870  0.264342  1
  Pd  Pd4  1  0.758989  0.272095  0.957036  1
  Pt  Pt5  1  0.259035  0.727631  0.542746  1
  Pt  Pt6  1  0.241127  0.727572  0.043707  1
  Pt  Pt7  1  0.740998  0.272985  0.456562  1
  F  F8  1  0.435447  0.702695  0.916122  1
  F  F9  1  0.935649  0.297448  0.584218  1
  F  F10  1  0.565857  0.297168  0.083088  1
  F  F11  1  0.063268  0.703194  0.415335  1
  F  F12  1  0.439913  0.278291  0.542072  1
  F  F13  1  0.940380  0.721780  0.958095  1
  F  F14  1  0.560389  0.722489  0.456839  1
  F  F15  1  0.057610  0.278177  0.041450  1
  F  F16  1  0.775200  0.518834  0.859268  1
  F  F17  1  0.274995  0.478703  0.641576  1
  F  F18  1  0.225355  0.478491  0.141595  1
  F  F19  1  0.725181  0.522335  0.358178  1
  F  F20  1  0.754111  0.025141  0.049694  1
  F  F21  1  0.254077  0.976575  0.450007  1
  F  F22  1  0.245772  0.976423  0.950354  1
  F  F23  1  0.745761  0.023933  0.549613  1
  F  F24  1  0.966134  0.724602  0.635992  1
  F  F25  1  0.468413  0.275510  0.864773  1
  F  F26  1  0.034276  0.275330  0.363771  1
  F  F27  1  0.534608  0.725599  0.136517  1
  F  F28  1  0.050665  0.746388  0.175646  1
  F  F29  1  0.552256  0.254395  0.324189  1
  F  F30  1  0.945937  0.254511  0.825446  1
  F  F31  1  0.447501  0.745642  0.675396  1
  F  F32  1  0.417092  0.968575  0.232785  1
  F  F33  1  0.913939  0.028522  0.267601  1
  F  F34  1  0.585418  0.030342  0.767569  1
  F  F35  1  0.085449  0.969565  0.732420  1
