# generated using pymatgen
data_LiPrHgPd3
_symmetry_space_group_name_H-M   'P 1'
_cell_length_a   5.55236153
_cell_length_b   5.55236156
_cell_length_c   5.27737106
_cell_angle_alpha   58.26078934
_cell_angle_beta   58.26079538
_cell_angle_gamma   59.99999489
_symmetry_Int_Tables_number   1
_chemical_formula_structural   LiPrHgPd3
_chemical_formula_sum   'Li1 Pr1 Hg1 Pd3'
_cell_volume   111.92482254
_cell_formula_units_Z   1
loop_
 _symmetry_equiv_pos_site_id
 _symmetry_equiv_pos_as_xyz
  1  'x, y, z'
loop_
 _atom_site_type_symbol
 _atom_site_label
 _atom_site_symmetry_multiplicity
 _atom_site_fract_x
 _atom_site_fract_y
 _atom_site_fract_z
 _atom_site_occupancy
  Li  Li0  1  0.629293  0.629293  0.112123  1
  Pr  Pr1  1  0.245645  0.245645  0.263066  1
  Hg  Hg2  1  0.994635  0.994635  0.016096  1
  Pd  Pd3  1  0.626894  0.126640  0.619572  1
  Pd  Pd4  1  0.126640  0.626894  0.619572  1
  Pd  Pd5  1  0.626894  0.626894  0.619572  1
