# generated using pymatgen
data_VW3Se8
_symmetry_space_group_name_H-M   'P 1'
_cell_length_a   3.33021100
_cell_length_b   3.33021083
_cell_length_c   39.36739600
_cell_angle_alpha   90.00000000
_cell_angle_beta   90.00000000
_cell_angle_gamma   119.99997185
_symmetry_Int_Tables_number   1
_chemical_formula_structural   VW3Se8
_chemical_formula_sum   'V1 W3 Se8'
_cell_volume   378.10369720
_cell_formula_units_Z   1
loop_
 _symmetry_equiv_pos_site_id
 _symmetry_equiv_pos_as_xyz
  1  'x, y, z'
loop_
 _atom_site_type_symbol
 _atom_site_label
 _atom_site_symmetry_multiplicity
 _atom_site_fract_x
 _atom_site_fract_y
 _atom_site_fract_z
 _atom_site_occupancy
  V  V0  1  0.666667  0.333333  0.904672  1
  W  W1  1  0.666667  0.333333  0.282973  1
  W  W2  1  0.333333  0.666667  0.718970  1
  W  W3  1  0.333333  0.666667  0.093375  1
  Se  Se4  1  0.333333  0.666667  0.945423  1
  Se  Se5  1  0.333333  0.666667  0.325625  1
  Se  Se6  1  0.666667  0.333333  0.761616  1
  Se  Se7  1  0.666667  0.333333  0.136030  1
  Se  Se8  1  0.333333  0.666667  0.864037  1
  Se  Se9  1  0.333333  0.666667  0.240298  1
  Se  Se10  1  0.666667  0.333333  0.676282  1
  Se  Se11  1  0.666667  0.333333  0.050699  1
