# generated using pymatgen
data_La4Fe5NiN6
_symmetry_space_group_name_H-M   'P 1'
_cell_length_a   6.54918747
_cell_length_b   6.54918798
_cell_length_c   6.30366900
_cell_angle_alpha   88.14652774
_cell_angle_beta   88.14652760
_cell_angle_gamma   118.02564509
_symmetry_Int_Tables_number   1
_chemical_formula_structural   La4Fe5NiN6
_chemical_formula_sum   'La4 Fe5 Ni1 N6'
_cell_volume   238.19964486
_cell_formula_units_Z   1
loop_
 _symmetry_equiv_pos_site_id
 _symmetry_equiv_pos_as_xyz
  1  'x, y, z'
loop_
 _atom_site_type_symbol
 _atom_site_label
 _atom_site_symmetry_multiplicity
 _atom_site_fract_x
 _atom_site_fract_y
 _atom_site_fract_z
 _atom_site_occupancy
  La  La0  1  0.826031  0.672400  0.900702  1
  La  La1  1  0.327600  0.173969  0.599298  1
  La  La2  1  0.175052  0.328717  0.099187  1
  La  La3  1  0.671283  0.824948  0.400813  1
  Fe  Fe4  1  0.186012  0.813988  0.250000  1
  Fe  Fe5  1  0.564635  0.158768  0.108770  1
  Fe  Fe6  1  0.427251  0.832037  0.900111  1
  Fe  Fe7  1  0.841232  0.435365  0.391230  1
  Fe  Fe8  1  0.167963  0.572749  0.599889  1
  Ni  Ni9  1  0.817243  0.182757  0.750000  1
  N  N10  1  0.420289  0.579711  0.750000  1
  N  N11  1  0.579481  0.420519  0.250000  1
  N  N12  1  0.009295  0.737992  0.507272  1
  N  N13  1  0.725823  0.001199  0.008685  1
  N  N14  1  0.998801  0.274177  0.491315  1
  N  N15  1  0.262008  0.990705  0.992728  1
