# generated using pymatgen
data_CaYb9(Bi3Br)2
_symmetry_space_group_name_H-M   'P 1'
_cell_length_a   9.36311200
_cell_length_b   9.36311350
_cell_length_c   7.15127800
_cell_angle_alpha   90.00000000
_cell_angle_beta   90.00000000
_cell_angle_gamma   120.00000178
_symmetry_Int_Tables_number   1
_chemical_formula_structural   CaYb9(Bi3Br)2
_chemical_formula_sum   'Ca1 Yb9 Bi6 Br2'
_cell_volume   542.94369128
_cell_formula_units_Z   1
loop_
 _symmetry_equiv_pos_site_id
 _symmetry_equiv_pos_as_xyz
  1  'x, y, z'
loop_
 _atom_site_type_symbol
 _atom_site_label
 _atom_site_symmetry_multiplicity
 _atom_site_fract_x
 _atom_site_fract_y
 _atom_site_fract_z
 _atom_site_occupancy
  Ca  Ca0  1  0.333333  0.666667  0.500000  1
  Yb  Yb1  1  0.739929  0.000010  0.750017  1
  Yb  Yb2  1  0.999990  0.260071  0.249983  1
  Yb  Yb3  1  0.739929  0.739920  0.249983  1
  Yb  Yb4  1  0.333333  0.666667  0.000000  1
  Yb  Yb5  1  0.666667  0.333333  0.500000  1
  Yb  Yb6  1  0.666667  0.333333  0.000000  1
  Yb  Yb7  1  0.260080  0.000010  0.249983  1
  Yb  Yb8  1  0.260080  0.260071  0.750017  1
  Yb  Yb9  1  0.999990  0.739920  0.750017  1
  Bi  Bi10  1  0.391984  0.000151  0.750102  1
  Bi  Bi11  1  0.608166  0.000151  0.249898  1
  Bi  Bi12  1  0.999849  0.608016  0.249898  1
  Bi  Bi13  1  0.608166  0.608016  0.750102  1
  Bi  Bi14  1  0.999849  0.391834  0.750102  1
  Bi  Bi15  1  0.391984  0.391834  0.249898  1
  Br  Br16  1  0.000000  0.000000  0.500000  1
  Br  Br17  1  0.000000  0.000000  0.000000  1
