# generated using pymatgen
data_Y5Tm13(ThPt8)2
_symmetry_space_group_name_H-M   'P 1'
_cell_length_a   7.48571916
_cell_length_b   7.49769592
_cell_length_c   14.62887847
_cell_angle_alpha   89.99418306
_cell_angle_beta   89.97459453
_cell_angle_gamma   89.87476013
_symmetry_Int_Tables_number   1
_chemical_formula_structural   Y5Tm13(ThPt8)2
_chemical_formula_sum   'Y5 Tm13 Th2 Pt16'
_cell_volume   821.05320798
_cell_formula_units_Z   1
loop_
 _symmetry_equiv_pos_site_id
 _symmetry_equiv_pos_as_xyz
  1  'x, y, z'
loop_
 _atom_site_type_symbol
 _atom_site_label
 _atom_site_symmetry_multiplicity
 _atom_site_fract_x
 _atom_site_fract_y
 _atom_site_fract_z
 _atom_site_occupancy
  Y  Y0  1  0.001877  0.178595  0.907400  1
  Y  Y1  1  0.002095  0.176026  0.593112  1
  Y  Y2  1  0.501878  0.320051  0.905849  1
  Y  Y3  1  0.498195  0.680177  0.405839  1
  Y  Y4  1  0.997634  0.822857  0.093582  1
  Tm  Tm5  1  0.682422  0.993198  0.251840  1
  Tm  Tm6  1  0.178664  0.509076  0.252042  1
  Tm  Tm7  1  0.821654  0.490915  0.751435  1
  Tm  Tm8  1  0.317464  0.006845  0.751386  1
  Tm  Tm9  1  0.657239  0.832673  0.622281  1
  Tm  Tm10  1  0.155145  0.666267  0.877739  1
  Tm  Tm11  1  0.844904  0.333493  0.377842  1
  Tm  Tm12  1  0.342526  0.167577  0.122664  1
  Tm  Tm13  1  0.339421  0.164494  0.376260  1
  Tm  Tm14  1  0.846027  0.331369  0.123158  1
  Tm  Tm15  1  0.153366  0.668916  0.622381  1
  Tm  Tm16  1  0.659671  0.835138  0.875930  1
  Tm  Tm17  1  0.996536  0.820218  0.407000  1
  Th  Th18  1  0.500018  0.680353  0.093144  1
  Th  Th19  1  0.499825  0.319498  0.592696  1
  Pt  Pt20  1  0.817713  0.644396  0.251267  1
  Pt  Pt21  1  0.316907  0.856927  0.248655  1
  Pt  Pt22  1  0.682292  0.143092  0.747726  1
  Pt  Pt23  1  0.184309  0.356981  0.749248  1
  Pt  Pt24  1  0.546315  0.383693  0.249502  1
  Pt  Pt25  1  0.046265  0.116033  0.250979  1
  Pt  Pt26  1  0.953380  0.882771  0.750089  1
  Pt  Pt27  1  0.454303  0.616909  0.748957  1
  Pt  Pt28  1  0.815786  0.534406  0.540912  1
  Pt  Pt29  1  0.318630  0.962745  0.958659  1
  Pt  Pt30  1  0.684715  0.034919  0.457788  1
  Pt  Pt31  1  0.184298  0.467402  0.042126  1
  Pt  Pt32  1  0.185344  0.468428  0.457892  1
  Pt  Pt33  1  0.679421  0.033421  0.042236  1
  Pt  Pt34  1  0.320515  0.965745  0.541147  1
  Pt  Pt35  1  0.813250  0.534394  0.959236  1
