# generated using pymatgen
data_CsP4PdO12
_symmetry_space_group_name_H-M   'P 1'
_cell_length_a   13.86674800
_cell_length_b   5.35018153
_cell_length_c   7.61086876
_cell_angle_alpha   78.23152983
_cell_angle_beta   90.00000000
_cell_angle_gamma   90.00000000
_symmetry_Int_Tables_number   1
_chemical_formula_structural   CsP4PdO12
_chemical_formula_sum   'Cs2 P8 Pd2 O24'
_cell_volume   552.77843654
_cell_formula_units_Z   2
loop_
 _symmetry_equiv_pos_site_id
 _symmetry_equiv_pos_as_xyz
  1  'x, y, z'
loop_
 _atom_site_type_symbol
 _atom_site_label
 _atom_site_symmetry_multiplicity
 _atom_site_fract_x
 _atom_site_fract_y
 _atom_site_fract_z
 _atom_site_occupancy
  Cs  Cs0  1  0.002649  0.392811  0.833297  1
  Cs  Cs1  1  0.502649  0.607189  0.166703  1
  P  P2  1  0.875999  0.998854  0.443507  1
  P  P3  1  0.817968  0.788916  0.135501  1
  P  P4  1  0.375999  0.001146  0.556493  1
  P  P5  1  0.179465  0.861750  0.097282  1
  P  P6  1  0.095358  0.003966  0.426867  1
  P  P7  1  0.595358  0.996034  0.573133  1
  P  P8  1  0.679465  0.138250  0.902718  1
  P  P9  1  0.317968  0.211084  0.864499  1
  Pd  Pd10  1  0.235838  0.503067  0.487491  1
  Pd  Pd11  1  0.735838  0.496933  0.512509  1
  O  O12  1  0.155914  0.795985  0.541994  1
  O  O13  1  0.098845  0.261836  0.475164  1
  O  O14  1  0.617261  0.975345  0.781876  1
  O  O15  1  0.986201  0.898726  0.448494  1
  O  O16  1  0.872859  0.253103  0.497659  1
  O  O17  1  0.845094  0.022822  0.238789  1
  O  O18  1  0.117261  0.024655  0.218124  1
  O  O19  1  0.622323  0.163917  0.061432  1
  O  O20  1  0.122323  0.836083  0.938568  1
  O  O21  1  0.235031  0.361935  0.757893  1
  O  O22  1  0.372859  0.746897  0.502341  1
  O  O23  1  0.598845  0.738164  0.524836  1
  O  O24  1  0.655914  0.204015  0.458006  1
  O  O25  1  0.486201  0.101274  0.551506  1
  O  O26  1  0.271121  0.051626  0.046016  1
  O  O27  1  0.905888  0.660098  0.091497  1
  O  O28  1  0.720652  0.379247  0.783425  1
  O  O29  1  0.771121  0.948374  0.953984  1
  O  O30  1  0.405888  0.339902  0.908503  1
  O  O31  1  0.821297  0.783980  0.566382  1
  O  O32  1  0.321297  0.216020  0.433618  1
  O  O33  1  0.345094  0.977178  0.761211  1
  O  O34  1  0.735031  0.638065  0.242107  1
  O  O35  1  0.220652  0.620753  0.216575  1
