# generated using pymatgen
data_NpPdF12
_symmetry_space_group_name_H-M   'P 1'
_cell_length_a   5.26169613
_cell_length_b   9.06021500
_cell_length_c   9.92806117
_cell_angle_alpha   90.00000000
_cell_angle_beta   89.89596230
_cell_angle_gamma   90.00000000
_symmetry_Int_Tables_number   1
_chemical_formula_structural   NpPdF12
_chemical_formula_sum   'Np2 Pd2 F24'
_cell_volume   473.29072658
_cell_formula_units_Z   2
loop_
 _symmetry_equiv_pos_site_id
 _symmetry_equiv_pos_as_xyz
  1  'x, y, z'
loop_
 _atom_site_type_symbol
 _atom_site_label
 _atom_site_symmetry_multiplicity
 _atom_site_fract_x
 _atom_site_fract_y
 _atom_site_fract_z
 _atom_site_occupancy
  Np  Np0  1  0.418053  0.250000  0.868978  1
  Np  Np1  1  0.581947  0.750000  0.131022  1
  Pd  Pd2  1  0.921499  0.750000  0.628678  1
  Pd  Pd3  1  0.078501  0.250000  0.371322  1
  F  F4  1  0.216031  0.750000  0.518263  1
  F  F5  1  0.783969  0.250000  0.481737  1
  F  F6  1  0.726872  0.250000  0.985909  1
  F  F7  1  0.273128  0.750000  0.014091  1
  F  F8  1  0.627537  0.750000  0.740774  1
  F  F9  1  0.372463  0.250000  0.259226  1
  F  F10  1  0.107809  0.250000  0.754104  1
  F  F11  1  0.892191  0.750000  0.245896  1
  F  F12  1  0.772152  0.601831  0.519162  1
  F  F13  1  0.227848  0.398169  0.480838  1
  F  F14  1  0.261372  0.406369  0.984235  1
  F  F15  1  0.227848  0.101831  0.480838  1
  F  F16  1  0.738628  0.593631  0.015765  1
  F  F17  1  0.772152  0.898169  0.519162  1
  F  F18  1  0.738628  0.906369  0.015765  1
  F  F19  1  0.261372  0.093631  0.984235  1
  F  F20  1  0.068622  0.601500  0.739273  1
  F  F21  1  0.931378  0.398500  0.260727  1
  F  F22  1  0.575827  0.405382  0.755209  1
  F  F23  1  0.931378  0.101500  0.260727  1
  F  F24  1  0.424173  0.594618  0.244791  1
  F  F25  1  0.068622  0.898500  0.739273  1
  F  F26  1  0.424173  0.905382  0.244791  1
  F  F27  1  0.575827  0.094618  0.755209  1
