# generated using pymatgen
data_Dy3Er6Th3Ru4
_symmetry_space_group_name_H-M   'P 1'
_cell_length_a   6.32753841
_cell_length_b   7.19613629
_cell_length_c   9.47106012
_cell_angle_alpha   90.00964307
_cell_angle_beta   90.16694995
_cell_angle_gamma   90.64710361
_symmetry_Int_Tables_number   1
_chemical_formula_structural   Dy3Er6Th3Ru4
_chemical_formula_sum   'Dy3 Er6 Th3 Ru4'
_cell_volume   431.22428576
_cell_formula_units_Z   1
loop_
 _symmetry_equiv_pos_site_id
 _symmetry_equiv_pos_as_xyz
  1  'x, y, z'
loop_
 _atom_site_type_symbol
 _atom_site_label
 _atom_site_symmetry_multiplicity
 _atom_site_fract_x
 _atom_site_fract_y
 _atom_site_fract_z
 _atom_site_occupancy
  Dy  Dy0  1  0.334781  0.677642  0.063439  1
  Dy  Dy1  1  0.164766  0.175644  0.435718  1
  Dy  Dy2  1  0.362661  0.963263  0.749959  1
  Er  Er3  1  0.667303  0.324101  0.567308  1
  Er  Er4  1  0.829949  0.823673  0.931275  1
  Er  Er5  1  0.667420  0.323419  0.932826  1
  Er  Er6  1  0.829602  0.823455  0.568910  1
  Er  Er7  1  0.335226  0.677049  0.436463  1
  Er  Er8  1  0.164372  0.175465  0.064285  1
  Th  Th9  1  0.850981  0.547199  0.250106  1
  Th  Th10  1  0.646490  0.045619  0.249906  1
  Th  Th11  1  0.149403  0.453346  0.749985  1
  Ru  Ru12  1  0.035728  0.871353  0.250068  1
  Ru  Ru13  1  0.466291  0.369880  0.249952  1
  Ru  Ru14  1  0.961039  0.131863  0.750326  1
  Ru  Ru15  1  0.533988  0.617029  0.749473  1
