# generated using pymatgen
data_Mn(Al2Au5)2
_symmetry_space_group_name_H-M   'P 1'
_cell_length_a   3.38820600
_cell_length_b   8.97493800
_cell_length_c   16.90065500
_cell_angle_alpha   90.00000000
_cell_angle_beta   90.00000000
_cell_angle_gamma   90.00000000
_symmetry_Int_Tables_number   1
_chemical_formula_structural   Mn(Al2Au5)2
_chemical_formula_sum   'Mn2 Al8 Au20'
_cell_volume   513.93098326
_cell_formula_units_Z   2
loop_
 _symmetry_equiv_pos_site_id
 _symmetry_equiv_pos_as_xyz
  1  'x, y, z'
loop_
 _atom_site_type_symbol
 _atom_site_label
 _atom_site_symmetry_multiplicity
 _atom_site_fract_x
 _atom_site_fract_y
 _atom_site_fract_z
 _atom_site_occupancy
  Mn  Mn0  1  0.000000  0.000000  0.000000  1
  Mn  Mn1  1  0.500000  0.500000  0.500000  1
  Al  Al2  1  0.000000  0.976711  0.198998  1
  Al  Al3  1  0.000000  0.023289  0.801002  1
  Al  Al4  1  0.500000  0.476711  0.301002  1
  Al  Al5  1  0.500000  0.523289  0.698998  1
  Al  Al6  1  0.000000  0.025485  0.401912  1
  Al  Al7  1  0.000000  0.974515  0.598088  1
  Al  Al8  1  0.500000  0.525485  0.098088  1
  Al  Al9  1  0.500000  0.474515  0.901912  1
  Au  Au10  1  0.000000  0.341871  0.013901  1
  Au  Au11  1  0.000000  0.658129  0.986099  1
  Au  Au12  1  0.500000  0.841871  0.486099  1
  Au  Au13  1  0.500000  0.158129  0.513901  1
  Au  Au14  1  0.000000  0.360604  0.187702  1
  Au  Au15  1  0.000000  0.639396  0.812298  1
  Au  Au16  1  0.500000  0.860604  0.312298  1
  Au  Au17  1  0.500000  0.139396  0.687702  1
  Au  Au18  1  0.000000  0.321967  0.403238  1
  Au  Au19  1  0.000000  0.678033  0.596762  1
  Au  Au20  1  0.500000  0.821967  0.096762  1
  Au  Au21  1  0.500000  0.178033  0.903238  1
  Au  Au22  1  0.000000  0.364078  0.608302  1
  Au  Au23  1  0.000000  0.635922  0.391698  1
  Au  Au24  1  0.500000  0.864078  0.891698  1
  Au  Au25  1  0.500000  0.135922  0.108302  1
  Au  Au26  1  0.000000  0.332188  0.786398  1
  Au  Au27  1  0.000000  0.667812  0.213602  1
  Au  Au28  1  0.500000  0.832188  0.713602  1
  Au  Au29  1  0.500000  0.167812  0.286398  1
