# generated using pymatgen
data_Zr9Sn6MoN2
_symmetry_space_group_name_H-M   'P 1'
_cell_length_a   8.44530900
_cell_length_b   8.44531000
_cell_length_c   5.72312600
_cell_angle_alpha   90.00000000
_cell_angle_beta   90.00000000
_cell_angle_gamma   120.00000001
_symmetry_Int_Tables_number   1
_chemical_formula_structural   Zr9Sn6MoN2
_chemical_formula_sum   'Zr9 Sn6 Mo1 N2'
_cell_volume   353.50460778
_cell_formula_units_Z   1
loop_
 _symmetry_equiv_pos_site_id
 _symmetry_equiv_pos_as_xyz
  1  'x, y, z'
loop_
 _atom_site_type_symbol
 _atom_site_label
 _atom_site_symmetry_multiplicity
 _atom_site_fract_x
 _atom_site_fract_y
 _atom_site_fract_z
 _atom_site_occupancy
  Zr  Zr0  1  0.333333  0.666667  0.000000  1
  Zr  Zr1  1  0.333333  0.666667  0.500000  1
  Zr  Zr2  1  0.666667  0.333333  0.500000  1
  Zr  Zr3  1  0.778674  0.778890  0.749631  1
  Zr  Zr4  1  0.221110  0.999785  0.749631  1
  Zr  Zr5  1  0.000215  0.221326  0.749631  1
  Zr  Zr6  1  0.221110  0.221326  0.250369  1
  Zr  Zr7  1  0.778674  0.999785  0.250369  1
  Zr  Zr8  1  0.000215  0.778890  0.250369  1
  Sn  Sn9  1  0.409625  0.404749  0.756396  1
  Sn  Sn10  1  0.595251  0.004876  0.756396  1
  Sn  Sn11  1  0.995124  0.590375  0.756396  1
  Sn  Sn12  1  0.595251  0.590375  0.243604  1
  Sn  Sn13  1  0.409625  0.004876  0.243604  1
  Sn  Sn14  1  0.995124  0.404749  0.243604  1
  Mo  Mo15  1  0.666667  0.333333  0.000000  1
  N  N16  1  0.000000  0.000000  0.000000  1
  N  N17  1  0.000000  0.000000  0.500000  1
