# generated using pymatgen
data_Ba4CaPu2O12
_symmetry_space_group_name_H-M   'P 1'
_cell_length_a   10.38681410
_cell_length_b   10.38681454
_cell_length_c   10.38681500
_cell_angle_alpha   33.85428687
_cell_angle_beta   33.85428320
_cell_angle_gamma   33.85428846
_symmetry_Int_Tables_number   1
_chemical_formula_structural   Ba4CaPu2O12
_chemical_formula_sum   'Ba4 Ca1 Pu2 O12'
_cell_volume   309.91483368
_cell_formula_units_Z   1
loop_
 _symmetry_equiv_pos_site_id
 _symmetry_equiv_pos_as_xyz
  1  'x, y, z'
loop_
 _atom_site_type_symbol
 _atom_site_label
 _atom_site_symmetry_multiplicity
 _atom_site_fract_x
 _atom_site_fract_y
 _atom_site_fract_z
 _atom_site_occupancy
  Ba  Ba0  1  0.714105  0.714105  0.714105  1
  Ba  Ba1  1  0.285895  0.285895  0.285895  1
  Ba  Ba2  1  0.863317  0.863317  0.863317  1
  Ba  Ba3  1  0.136683  0.136683  0.136683  1
  Ca  Ca4  1  0.000000  0.000000  0.000000  1
  Pu  Pu5  1  0.580569  0.580569  0.580569  1
  Pu  Pu6  1  0.419431  0.419431  0.419431  1
  O  O7  1  0.222416  0.690967  0.222416  1
  O  O8  1  0.222416  0.222416  0.690967  1
  O  O9  1  0.690967  0.222416  0.222416  1
  O  O10  1  0.777584  0.309033  0.777584  1
  O  O11  1  0.777584  0.777584  0.309033  1
  O  O12  1  0.309033  0.777584  0.777584  1
  O  O13  1  0.381976  0.870470  0.381976  1
  O  O14  1  0.381976  0.381976  0.870470  1
  O  O15  1  0.870470  0.381976  0.381976  1
  O  O16  1  0.618024  0.129530  0.618024  1
  O  O17  1  0.618024  0.618024  0.129530  1
  O  O18  1  0.129530  0.618024  0.618024  1
