# generated using pymatgen
data_Ca2TbNdPd4
_symmetry_space_group_name_H-M   'P 1'
_cell_length_a   4.48971900
_cell_length_b   5.76557069
_cell_length_c   7.40126381
_cell_angle_alpha   89.26526185
_cell_angle_beta   90.00000000
_cell_angle_gamma   90.00000000
_symmetry_Int_Tables_number   1
_chemical_formula_structural   Ca2TbNdPd4
_chemical_formula_sum   'Ca2 Tb1 Nd1 Pd4'
_cell_volume   191.57182516
_cell_formula_units_Z   1
loop_
 _symmetry_equiv_pos_site_id
 _symmetry_equiv_pos_as_xyz
  1  'x, y, z'
loop_
 _atom_site_type_symbol
 _atom_site_label
 _atom_site_symmetry_multiplicity
 _atom_site_fract_x
 _atom_site_fract_y
 _atom_site_fract_z
 _atom_site_occupancy
  Ca  Ca0  1  0.250000  0.137919  0.182101  1
  Ca  Ca1  1  0.750000  0.640201  0.314742  1
  Tb  Tb2  1  0.750000  0.862662  0.817779  1
  Nd  Nd3  1  0.250000  0.360876  0.684116  1
  Pd  Pd4  1  0.250000  0.851413  0.556228  1
  Pd  Pd5  1  0.250000  0.653001  0.023449  1
  Pd  Pd6  1  0.750000  0.141848  0.469502  1
  Pd  Pd7  1  0.750000  0.352079  0.952084  1
