# generated using pymatgen
data_Y3Er7Si5Pb
_symmetry_space_group_name_H-M   'P 1'
_cell_length_a   8.46814949
_cell_length_b   8.51220027
_cell_length_c   6.36191700
_cell_angle_alpha   90.00000000
_cell_angle_beta   90.00000000
_cell_angle_gamma   119.89686895
_symmetry_Int_Tables_number   1
_chemical_formula_structural   Y3Er7Si5Pb
_chemical_formula_sum   'Y3 Er7 Si5 Pb1'
_cell_volume   397.55696656
_cell_formula_units_Z   1
loop_
 _symmetry_equiv_pos_site_id
 _symmetry_equiv_pos_as_xyz
  1  'x, y, z'
loop_
 _atom_site_type_symbol
 _atom_site_label
 _atom_site_symmetry_multiplicity
 _atom_site_fract_x
 _atom_site_fract_y
 _atom_site_fract_z
 _atom_site_occupancy
  Y  Y0  1  0.767188  0.999710  0.750000  1
  Y  Y1  1  0.240976  0.252999  0.750000  1
  Y  Y2  1  0.239865  0.999614  0.250000  1
  Er  Er3  1  0.987314  0.746002  0.750000  1
  Er  Er4  1  0.997832  0.243021  0.250000  1
  Er  Er5  1  0.755426  0.757240  0.250000  1
  Er  Er6  1  0.330858  0.655576  0.496102  1
  Er  Er7  1  0.675658  0.344694  0.003784  1
  Er  Er8  1  0.675658  0.344694  0.496216  1
  Er  Er9  1  0.330858  0.655576  0.003898  1
  Si  Si10  1  0.393787  0.392930  0.250000  1
  Si  Si11  1  0.000822  0.606883  0.250000  1
  Si  Si12  1  0.998149  0.395868  0.750000  1
  Si  Si13  1  0.604682  0.605497  0.750000  1
  Si  Si14  1  0.606502  0.999963  0.250000  1
  Pb  Pb15  1  0.394426  0.999733  0.750000  1
