# generated using pymatgen
data_SmLu3(WO6)2
_symmetry_space_group_name_H-M   'P 1'
_cell_length_a   5.35950700
_cell_length_b   7.65014477
_cell_length_c   11.38269356
_cell_angle_alpha   75.26313155
_cell_angle_beta   90.00000000
_cell_angle_gamma   90.00000000
_symmetry_Int_Tables_number   1
_chemical_formula_structural   SmLu3(WO6)2
_chemical_formula_sum   'Sm2 Lu6 W4 O24'
_cell_volume   451.34936864
_cell_formula_units_Z   2
loop_
 _symmetry_equiv_pos_site_id
 _symmetry_equiv_pos_as_xyz
  1  'x, y, z'
loop_
 _atom_site_type_symbol
 _atom_site_label
 _atom_site_symmetry_multiplicity
 _atom_site_fract_x
 _atom_site_fract_y
 _atom_site_fract_z
 _atom_site_occupancy
  Sm  Sm0  1  0.314153  0.500000  0.750000  1
  Sm  Sm1  1  0.685847  0.500000  0.250000  1
  Lu  Lu2  1  0.257461  0.000000  0.750000  1
  Lu  Lu3  1  0.184210  0.796987  0.078088  1
  Lu  Lu4  1  0.184210  0.203013  0.421912  1
  Lu  Lu5  1  0.742539  0.000000  0.250000  1
  Lu  Lu6  1  0.815790  0.203013  0.921912  1
  Lu  Lu7  1  0.815790  0.796987  0.578088  1
  W  W8  1  0.744533  0.727235  0.884848  1
  W  W9  1  0.255467  0.727235  0.384848  1
  W  W10  1  0.744533  0.272765  0.615152  1
  W  W11  1  0.255467  0.272765  0.115152  1
  O  O12  1  0.541457  0.154267  0.069203  1
  O  O13  1  0.041289  0.056311  0.104361  1
  O  O14  1  0.015987  0.719183  0.768350  1
  O  O15  1  0.458543  0.154267  0.569203  1
  O  O16  1  0.351065  0.489193  0.387472  1
  O  O17  1  0.958711  0.056311  0.604361  1
  O  O18  1  0.541882  0.797770  0.724632  1
  O  O19  1  0.458118  0.797770  0.224632  1
  O  O20  1  0.143335  0.639423  0.548032  1
  O  O21  1  0.041289  0.943689  0.395639  1
  O  O22  1  0.458543  0.845733  0.930797  1
  O  O23  1  0.458118  0.202230  0.275368  1
  O  O24  1  0.856665  0.360577  0.451968  1
  O  O25  1  0.648935  0.489193  0.887472  1
  O  O26  1  0.351065  0.510807  0.112528  1
  O  O27  1  0.958711  0.943689  0.895639  1
  O  O28  1  0.541457  0.845733  0.430797  1
  O  O29  1  0.984013  0.280817  0.231650  1
  O  O30  1  0.541882  0.202230  0.775368  1
  O  O31  1  0.856665  0.639423  0.048032  1
  O  O32  1  0.015987  0.280817  0.731650  1
  O  O33  1  0.143335  0.360577  0.951968  1
  O  O34  1  0.984013  0.719183  0.268350  1
  O  O35  1  0.648935  0.510807  0.612528  1
