# generated using pymatgen
data_K3RbBa4(AsSe3)4
_symmetry_space_group_name_H-M   'P 1'
_cell_length_a   9.22275787
_cell_length_b   9.46241103
_cell_length_c   9.79565180
_cell_angle_alpha   71.82659460
_cell_angle_beta   90.08049777
_cell_angle_gamma   89.91861054
_symmetry_Int_Tables_number   1
_chemical_formula_structural   K3RbBa4(AsSe3)4
_chemical_formula_sum   'K3 Rb1 Ba4 As4 Se12'
_cell_volume   812.21639142
_cell_formula_units_Z   1
loop_
 _symmetry_equiv_pos_site_id
 _symmetry_equiv_pos_as_xyz
  1  'x, y, z'
loop_
 _atom_site_type_symbol
 _atom_site_label
 _atom_site_symmetry_multiplicity
 _atom_site_fract_x
 _atom_site_fract_y
 _atom_site_fract_z
 _atom_site_occupancy
  K  K0  1  0.084216  0.270163  0.582711  1
  K  K1  1  0.415164  0.767078  0.582885  1
  K  K2  1  0.915931  0.729534  0.418856  1
  Rb  Rb3  1  0.578803  0.221880  0.407403  1
  Ba  Ba4  1  0.216602  0.468930  0.077454  1
  Ba  Ba5  1  0.714456  0.033901  0.919765  1
  Ba  Ba6  1  0.785185  0.533814  0.919531  1
  Ba  Ba7  1  0.284448  0.966355  0.081846  1
  As  As8  1  0.958345  0.147937  0.244012  1
  As  As9  1  0.457873  0.355355  0.757743  1
  As  As10  1  0.041772  0.856591  0.756274  1
  As  As11  1  0.542111  0.644280  0.243691  1
  Se  Se12  1  0.698023  0.398965  0.655216  1
  Se  Se13  1  0.198281  0.097732  0.347416  1
  Se  Se14  1  0.300922  0.599875  0.344209  1
  Se  Se15  1  0.800129  0.899016  0.655900  1
  Se  Se16  1  0.509150  0.278425  0.018463  1
  Se  Se17  1  0.008631  0.222463  0.984074  1
  Se  Se18  1  0.492434  0.723106  0.982917  1
  Se  Se19  1  0.992660  0.779415  0.016319  1
  Se  Se20  1  0.901770  0.389254  0.266964  1
  Se  Se21  1  0.392959  0.116072  0.735796  1
  Se  Se22  1  0.104298  0.616881  0.732113  1
  Se  Se23  1  0.605838  0.882977  0.268441  1
