# generated using pymatgen
data_Tb19YCd3Ag3Ru2
_symmetry_space_group_name_H-M   'P 1'
_cell_length_a   9.65535903
_cell_length_b   9.65658841
_cell_length_c   9.73061200
_cell_angle_alpha   90.00000000
_cell_angle_beta   90.00000000
_cell_angle_gamma   120.00421179
_symmetry_Int_Tables_number   1
_chemical_formula_structural   Tb19YCd3Ag3Ru2
_chemical_formula_sum   'Tb19 Y1 Cd3 Ag3 Ru2'
_cell_volume   785.67783730
_cell_formula_units_Z   1
loop_
 _symmetry_equiv_pos_site_id
 _symmetry_equiv_pos_as_xyz
  1  'x, y, z'
loop_
 _atom_site_type_symbol
 _atom_site_label
 _atom_site_symmetry_multiplicity
 _atom_site_fract_x
 _atom_site_fract_y
 _atom_site_fract_z
 _atom_site_occupancy
  Tb  Tb0  1  0.999959  0.999979  0.477483  1
  Tb  Tb1  1  0.999959  0.999979  0.022517  1
  Tb  Tb2  1  0.210378  0.789723  0.440705  1
  Tb  Tb3  1  0.210378  0.420656  0.440705  1
  Tb  Tb4  1  0.579262  0.789632  0.440705  1
  Tb  Tb5  1  0.790727  0.209287  0.559964  1
  Tb  Tb6  1  0.790727  0.581440  0.559964  1
  Tb  Tb7  1  0.418620  0.209310  0.559948  1
  Tb  Tb8  1  0.790727  0.209287  0.940036  1
  Tb  Tb9  1  0.790727  0.581440  0.940036  1
  Tb  Tb10  1  0.418620  0.209310  0.940052  1
  Tb  Tb11  1  0.210378  0.789723  0.059295  1
  Tb  Tb12  1  0.210378  0.420656  0.059295  1
  Tb  Tb13  1  0.579262  0.789632  0.059295  1
  Tb  Tb14  1  0.541219  0.458878  0.250000  1
  Tb  Tb15  1  0.541219  0.082341  0.250000  1
  Tb  Tb16  1  0.917691  0.458846  0.250000  1
  Tb  Tb17  1  0.458867  0.541040  0.750000  1
  Tb  Tb18  1  0.458867  0.917826  0.750000  1
  Y  Y19  1  0.082243  0.541121  0.750000  1
  Cd  Cd20  1  0.111338  0.888531  0.750000  1
  Cd  Cd21  1  0.111338  0.222806  0.750000  1
  Cd  Cd22  1  0.777276  0.888637  0.750000  1
  Ag  Ag23  1  0.876467  0.123436  0.250000  1
  Ag  Ag24  1  0.876467  0.753033  0.250000  1
  Ag  Ag25  1  0.246983  0.123492  0.250000  1
  Ru  Ru26  1  0.333385  0.666693  0.250000  1
  Ru  Ru27  1  0.666532  0.333265  0.750000  1
