# generated using pymatgen
data_Ca4Ge12Pd19Rh
_symmetry_space_group_name_H-M   'P 1'
_cell_length_a   4.05907100
_cell_length_b   7.56033003
_cell_length_c   20.22281005
_cell_angle_alpha   90.00895911
_cell_angle_beta   90.00000000
_cell_angle_gamma   90.00000000
_symmetry_Int_Tables_number   1
_chemical_formula_structural   Ca4Ge12Pd19Rh
_chemical_formula_sum   'Ca4 Ge12 Pd19 Rh1'
_cell_volume   620.59589591
_cell_formula_units_Z   1
loop_
 _symmetry_equiv_pos_site_id
 _symmetry_equiv_pos_as_xyz
  1  'x, y, z'
loop_
 _atom_site_type_symbol
 _atom_site_label
 _atom_site_symmetry_multiplicity
 _atom_site_fract_x
 _atom_site_fract_y
 _atom_site_fract_z
 _atom_site_occupancy
  Ca  Ca0  1  0.750000  0.374319  0.357824  1
  Ca  Ca1  1  0.750000  0.122104  0.856550  1
  Ca  Ca2  1  0.250000  0.622159  0.642139  1
  Ca  Ca3  1  0.250000  0.878380  0.143455  1
  Ge  Ge4  1  0.250000  0.370500  0.240951  1
  Ge  Ge5  1  0.750000  0.147400  0.077428  1
  Ge  Ge6  1  0.750000  0.907512  0.582922  1
  Ge  Ge7  1  0.750000  0.872443  0.260295  1
  Ge  Ge8  1  0.750000  0.595896  0.085107  1
  Ge  Ge9  1  0.250000  0.852261  0.922343  1
  Ge  Ge10  1  0.250000  0.127751  0.739956  1
  Ge  Ge11  1  0.250000  0.404944  0.914939  1
  Ge  Ge12  1  0.250000  0.100566  0.419220  1
  Ge  Ge13  1  0.750000  0.351707  0.575757  1
  Ge  Ge14  1  0.750000  0.628149  0.758987  1
  Ge  Ge15  1  0.250000  0.648267  0.422149  1
  Pd  Pd16  1  0.250000  0.825334  0.798934  1
  Pd  Pd17  1  0.250000  0.674393  0.298990  1
  Pd  Pd18  1  0.750000  0.638676  0.883508  1
  Pd  Pd19  1  0.250000  0.139948  0.615043  1
  Pd  Pd20  1  0.250000  0.126499  0.994709  1
  Pd  Pd21  1  0.750000  0.174644  0.200984  1
  Pd  Pd22  1  0.250000  0.360123  0.116119  1
  Pd  Pd23  1  0.750000  0.857826  0.384615  1
  Pd  Pd24  1  0.250000  0.433658  0.794282  1
  Pd  Pd25  1  0.250000  0.873043  0.511209  1
  Pd  Pd26  1  0.750000  0.626755  0.504849  1
  Pd  Pd27  1  0.750000  0.376781  0.988432  1
  Pd  Pd28  1  0.250000  0.377264  0.494835  1
  Pd  Pd29  1  0.250000  0.066549  0.296423  1
  Pd  Pd30  1  0.750000  0.566184  0.205427  1
  Pd  Pd31  1  0.750000  0.933178  0.704502  1
  Pd  Pd32  1  0.750000  0.325018  0.699988  1
  Pd  Pd33  1  0.750000  0.873241  0.004688  1
  Pd  Pd34  1  0.250000  0.623573  0.011771  1
  Rh  Rh35  1  0.750000  0.122957  0.490670  1
