# generated using pymatgen
data_Lu12FeNi4Pb
_symmetry_space_group_name_H-M   'P 1'
_cell_length_a   8.15546857
_cell_length_b   8.15546931
_cell_length_c   8.15546900
_cell_angle_alpha   111.58289794
_cell_angle_beta   110.46975907
_cell_angle_gamma   106.40588590
_symmetry_Int_Tables_number   1
_chemical_formula_structural   Lu12FeNi4Pb
_chemical_formula_sum   'Lu12 Fe1 Ni4 Pb1'
_cell_volume   416.63387167
_cell_formula_units_Z   1
loop_
 _symmetry_equiv_pos_site_id
 _symmetry_equiv_pos_as_xyz
  1  'x, y, z'
loop_
 _atom_site_type_symbol
 _atom_site_label
 _atom_site_symmetry_multiplicity
 _atom_site_fract_x
 _atom_site_fract_y
 _atom_site_fract_z
 _atom_site_occupancy
  Lu  Lu0  1  0.679569  0.871937  0.192369  1
  Lu  Lu1  1  0.320431  0.512800  0.192369  1
  Lu  Lu2  1  0.820363  0.780399  0.600762  1
  Lu  Lu3  1  0.179637  0.780399  0.960036  1
  Lu  Lu4  1  0.820363  0.219601  0.039964  1
  Lu  Lu5  1  0.179637  0.219601  0.399238  1
  Lu  Lu6  1  0.679569  0.487200  0.807631  1
  Lu  Lu7  1  0.320431  0.128063  0.807631  1
  Lu  Lu8  1  0.591622  0.281621  0.310000  1
  Lu  Lu9  1  0.408378  0.718379  0.690000  1
  Lu  Lu10  1  0.028381  0.718379  0.310000  1
  Lu  Lu11  1  0.971619  0.281621  0.690000  1
  Fe  Fe12  1  0.000000  0.500000  0.500000  1
  Ni  Ni13  1  0.355912  0.500000  0.855912  1
  Ni  Ni14  1  0.644088  0.500000  0.144088  1
  Ni  Ni15  1  0.879403  0.879403  0.000000  1
  Ni  Ni16  1  0.120597  0.120597  0.000000  1
  Pb  Pb17  1  0.500000  0.000000  0.500000  1
