# generated using pymatgen
data_YHoHf2Zr4F30
_symmetry_space_group_name_H-M   'P 1'
_cell_length_a   8.18376554
_cell_length_b   8.18376517
_cell_length_c   8.17580534
_cell_angle_alpha   79.82140250
_cell_angle_beta   79.82140145
_cell_angle_gamma   100.11498216
_symmetry_Int_Tables_number   1
_chemical_formula_structural   YHoHf2Zr4F30
_chemical_formula_sum   'Y1 Ho1 Hf2 Zr4 F30'
_cell_volume   518.23321164
_cell_formula_units_Z   1
loop_
 _symmetry_equiv_pos_site_id
 _symmetry_equiv_pos_as_xyz
  1  'x, y, z'
loop_
 _atom_site_type_symbol
 _atom_site_label
 _atom_site_symmetry_multiplicity
 _atom_site_fract_x
 _atom_site_fract_y
 _atom_site_fract_z
 _atom_site_occupancy
  Y  Y0  1  0.821851  0.178149  0.750000  1
  Ho  Ho1  1  0.178191  0.821809  0.250000  1
  Hf  Hf2  1  0.750986  0.249014  0.250000  1
  Hf  Hf3  1  0.248966  0.751034  0.750000  1
  Zr  Zr4  1  0.748533  0.677846  0.674694  1
  Zr  Zr5  1  0.322154  0.251467  0.825306  1
  Zr  Zr6  1  0.251668  0.322219  0.324939  1
  Zr  Zr7  1  0.677781  0.748332  0.175061  1
  F  F8  1  0.315965  0.349935  0.053126  1
  F  F9  1  0.936960  0.812928  0.151392  1
  F  F10  1  0.845598  0.461547  0.682715  1
  F  F11  1  0.460167  0.844976  0.183365  1
  F  F12  1  0.813205  0.936185  0.650449  1
  F  F13  1  0.349966  0.315958  0.553177  1
  F  F14  1  0.684042  0.650034  0.946822  1
  F  F15  1  0.063815  0.186795  0.849551  1
  F  F16  1  0.155024  0.539833  0.316635  1
  F  F17  1  0.538453  0.154402  0.817285  1
  F  F18  1  0.187072  0.063040  0.348608  1
  F  F19  1  0.650065  0.684035  0.446874  1
  F  F20  1  0.774213  0.280951  0.999050  1
  F  F21  1  0.004220  0.275608  0.220420  1
  F  F22  1  0.775657  0.503887  0.224073  1
  F  F23  1  0.503858  0.775714  0.724004  1
  F  F24  1  0.275525  0.004232  0.720423  1
  F  F25  1  0.280170  0.774454  0.498614  1
  F  F26  1  0.225546  0.719830  0.001386  1
  F  F27  1  0.995768  0.724475  0.779577  1
  F  F28  1  0.224286  0.496142  0.775996  1
  F  F29  1  0.496113  0.224343  0.275927  1
  F  F30  1  0.724392  0.995780  0.279580  1
  F  F31  1  0.719049  0.225787  0.500950  1
  F  F32  1  0.466499  0.533501  0.250000  1
  F  F33  1  0.747430  0.954474  0.971528  1
  F  F34  1  0.045526  0.252570  0.528472  1
  F  F35  1  0.252233  0.044493  0.029595  1
  F  F36  1  0.955507  0.747767  0.470405  1
  F  F37  1  0.533547  0.466453  0.750000  1
