# generated using pymatgen
data_Dy9HoIr5Au
_symmetry_space_group_name_H-M   'P 1'
_cell_length_a   11.04108752
_cell_length_b   10.97584300
_cell_length_c   6.32907502
_cell_angle_alpha   90.00000000
_cell_angle_beta   89.87473992
_cell_angle_gamma   90.00000000
_symmetry_Int_Tables_number   1
_chemical_formula_structural   Dy9HoIr5Au
_chemical_formula_sum   'Dy18 Ho2 Ir10 Au2'
_cell_volume   766.98866264
_cell_formula_units_Z   2
loop_
 _symmetry_equiv_pos_site_id
 _symmetry_equiv_pos_as_xyz
  1  'x, y, z'
loop_
 _atom_site_type_symbol
 _atom_site_label
 _atom_site_symmetry_multiplicity
 _atom_site_fract_x
 _atom_site_fract_y
 _atom_site_fract_z
 _atom_site_occupancy
  Dy  Dy0  1  0.292153  0.088511  0.371958  1
  Dy  Dy1  1  0.292153  0.911489  0.871958  1
  Dy  Dy2  1  0.698005  0.092252  0.865612  1
  Dy  Dy3  1  0.698005  0.907748  0.365612  1
  Dy  Dy4  1  0.578053  0.789351  0.877083  1
  Dy  Dy5  1  0.578053  0.210649  0.377083  1
  Dy  Dy6  1  0.408199  0.790650  0.376919  1
  Dy  Dy7  1  0.408199  0.209350  0.876919  1
  Dy  Dy8  1  0.209941  0.411165  0.621386  1
  Dy  Dy9  1  0.209941  0.588835  0.121386  1
  Dy  Dy10  1  0.788960  0.419588  0.123348  1
  Dy  Dy11  1  0.788960  0.580412  0.623348  1
  Dy  Dy12  1  0.917429  0.705270  0.139134  1
  Dy  Dy13  1  0.917429  0.294730  0.639134  1
  Dy  Dy14  1  0.096199  0.702561  0.624166  1
  Dy  Dy15  1  0.096199  0.297439  0.124166  1
  Dy  Dy16  1  0.009539  0.997328  0.499765  1
  Dy  Dy17  1  0.009539  0.002672  0.999765  1
  Ho  Ho18  1  0.499778  0.498884  0.000718  1
  Ho  Ho19  1  0.499778  0.501116  0.500718  1
  Ir  Ir20  1  0.153979  0.153962  0.750212  1
  Ir  Ir21  1  0.153979  0.846038  0.250212  1
  Ir  Ir22  1  0.655369  0.346425  0.748167  1
  Ir  Ir23  1  0.655369  0.653575  0.248167  1
  Ir  Ir24  1  0.347573  0.346467  0.251522  1
  Ir  Ir25  1  0.347573  0.653533  0.751522  1
  Ir  Ir26  1  0.499842  0.999704  0.120882  1
  Ir  Ir27  1  0.499842  0.000296  0.620882  1
  Ir  Ir28  1  0.999653  0.500986  0.878925  1
  Ir  Ir29  1  0.999653  0.499014  0.378925  1
  Au  Au30  1  0.845325  0.154960  0.250205  1
  Au  Au31  1  0.845325  0.845040  0.750205  1
