# generated using pymatgen
data_SmGaNi3B
_symmetry_space_group_name_H-M   'P 1'
_cell_length_a   5.28436000
_cell_length_b   5.28478436
_cell_length_c   6.64540800
_cell_angle_alpha   90.00000000
_cell_angle_beta   90.00000000
_cell_angle_gamma   119.99734381
_symmetry_Int_Tables_number   1
_chemical_formula_structural   SmGaNi3B
_chemical_formula_sum   'Sm2 Ga2 Ni6 B2'
_cell_volume   160.72505105
_cell_formula_units_Z   2
loop_
 _symmetry_equiv_pos_site_id
 _symmetry_equiv_pos_as_xyz
  1  'x, y, z'
loop_
 _atom_site_type_symbol
 _atom_site_label
 _atom_site_symmetry_multiplicity
 _atom_site_fract_x
 _atom_site_fract_y
 _atom_site_fract_z
 _atom_site_occupancy
  Sm  Sm0  1  0.999981  0.000000  0.000000  1
  Sm  Sm1  1  0.999983  0.000000  0.500000  1
  Ga  Ga2  1  0.333259  0.666554  0.000000  1
  Ga  Ga3  1  0.666706  0.333446  0.000000  1
  Ni  Ni4  1  0.499983  0.000000  0.297929  1
  Ni  Ni5  1  0.499983  0.499999  0.297983  1
  Ni  Ni6  1  0.999984  0.500001  0.297983  1
  Ni  Ni7  1  0.499983  0.000000  0.702071  1
  Ni  Ni8  1  0.499983  0.499999  0.702017  1
  Ni  Ni9  1  0.999984  0.500001  0.702017  1
  B  B10  1  0.333352  0.666736  0.500000  1
  B  B11  1  0.666616  0.333264  0.500000  1
