# generated using pymatgen
data_NiSb2F12
_symmetry_space_group_name_H-M   'P 1'
_cell_length_a   5.22499699
_cell_length_b   5.50247375
_cell_length_c   9.05939031
_cell_angle_alpha   73.77179326
_cell_angle_beta   88.64793984
_cell_angle_gamma   62.12174417
_symmetry_Int_Tables_number   1
_chemical_formula_structural   NiSb2F12
_chemical_formula_sum   'Ni1 Sb2 F12'
_cell_volume   219.29307002
_cell_formula_units_Z   1
loop_
 _symmetry_equiv_pos_site_id
 _symmetry_equiv_pos_as_xyz
  1  'x, y, z'
loop_
 _atom_site_type_symbol
 _atom_site_label
 _atom_site_symmetry_multiplicity
 _atom_site_fract_x
 _atom_site_fract_y
 _atom_site_fract_z
 _atom_site_occupancy
  Ni  Ni0  1  0.500000  0.500000  0.500000  1
  Sb  Sb1  1  0.775665  0.003815  0.242025  1
  Sb  Sb2  1  0.224335  0.996185  0.757975  1
  F  F3  1  0.953525  0.240637  0.206437  1
  F  F4  1  0.046475  0.759363  0.793563  1
  F  F5  1  0.027034  0.749301  0.137592  1
  F  F6  1  0.465862  0.772268  0.623183  1
  F  F7  1  0.534138  0.227732  0.376817  1
  F  F8  1  0.937645  0.248152  0.568891  1
  F  F9  1  0.062355  0.751848  0.431109  1
  F  F10  1  0.405856  0.243382  0.679156  1
  F  F11  1  0.594144  0.756618  0.320844  1
  F  F12  1  0.524165  0.771631  0.924669  1
  F  F13  1  0.475835  0.228369  0.075331  1
  F  F14  1  0.972966  0.250699  0.862408  1
