# generated using pymatgen
data_Yb6Y2Si12NiPd3
_symmetry_space_group_name_H-M   'P 1'
_cell_length_a   8.18815300
_cell_length_b   8.18815094
_cell_length_c   8.16016000
_cell_angle_alpha   90.00000000
_cell_angle_beta   90.00000000
_cell_angle_gamma   119.99999619
_symmetry_Int_Tables_number   1
_chemical_formula_structural   Yb6Y2Si12NiPd3
_chemical_formula_sum   'Yb6 Y2 Si12 Ni1 Pd3'
_cell_volume   473.80660625
_cell_formula_units_Z   1
loop_
 _symmetry_equiv_pos_site_id
 _symmetry_equiv_pos_as_xyz
  1  'x, y, z'
loop_
 _atom_site_type_symbol
 _atom_site_label
 _atom_site_symmetry_multiplicity
 _atom_site_fract_x
 _atom_site_fract_y
 _atom_site_fract_z
 _atom_site_occupancy
  Yb  Yb0  1  0.498664  0.997328  0.249194  1
  Yb  Yb1  1  0.498870  0.997740  0.750880  1
  Yb  Yb2  1  0.002672  0.501336  0.249194  1
  Yb  Yb3  1  0.002260  0.501130  0.750880  1
  Yb  Yb4  1  0.498664  0.501336  0.249194  1
  Yb  Yb5  1  0.498870  0.501130  0.750880  1
  Y  Y6  1  0.000000  0.000000  0.249023  1
  Y  Y7  1  0.000000  0.000000  0.751033  1
  Si  Si8  1  0.169785  0.339571  0.000248  1
  Si  Si9  1  0.836182  0.672364  0.999650  1
  Si  Si10  1  0.660429  0.830215  0.000248  1
  Si  Si11  1  0.835680  0.671361  0.499576  1
  Si  Si12  1  0.327636  0.163818  0.999650  1
  Si  Si13  1  0.163936  0.327873  0.500535  1
  Si  Si14  1  0.169785  0.830215  0.000248  1
  Si  Si15  1  0.328639  0.164320  0.499576  1
  Si  Si16  1  0.836182  0.163818  0.999650  1
  Si  Si17  1  0.672127  0.836064  0.500535  1
  Si  Si18  1  0.835680  0.164320  0.499576  1
  Si  Si19  1  0.163936  0.836064  0.500535  1
  Ni  Ni20  1  0.333333  0.666667  0.999440  1
  Pd  Pd21  1  0.666667  0.333333  0.999578  1
  Pd  Pd22  1  0.666667  0.333333  0.499688  1
  Pd  Pd23  1  0.333333  0.666667  0.500988  1
