# generated using pymatgen
data_La5P12Ir10Ru9
_symmetry_space_group_name_H-M   'P 1'
_cell_length_a   12.75181300
_cell_length_b   12.75181288
_cell_length_c   4.04300600
_cell_angle_alpha   90.00000000
_cell_angle_beta   90.00000000
_cell_angle_gamma   120.00000809
_symmetry_Int_Tables_number   1
_chemical_formula_structural   La5P12Ir10Ru9
_chemical_formula_sum   'La5 P12 Ir10 Ru9'
_cell_volume   569.34937577
_cell_formula_units_Z   1
loop_
 _symmetry_equiv_pos_site_id
 _symmetry_equiv_pos_as_xyz
  1  'x, y, z'
loop_
 _atom_site_type_symbol
 _atom_site_label
 _atom_site_symmetry_multiplicity
 _atom_site_fract_x
 _atom_site_fract_y
 _atom_site_fract_z
 _atom_site_occupancy
  La  La0  1  0.000000  0.186012  0.500000  1
  La  La1  1  0.813988  0.813988  0.500000  1
  La  La2  1  0.186012  0.000000  0.500000  1
  La  La3  1  0.666667  0.333333  0.000000  1
  La  La4  1  0.333333  0.666667  0.000000  1
  P  P5  1  0.000000  0.815394  0.000000  1
  P  P6  1  0.184606  0.184606  0.000000  1
  P  P7  1  0.815394  0.000000  0.000000  1
  P  P8  1  0.692433  0.173655  0.500000  1
  P  P9  1  0.826345  0.518779  0.500000  1
  P  P10  1  0.481221  0.307567  0.500000  1
  P  P11  1  0.173655  0.692433  0.500000  1
  P  P12  1  0.518779  0.826345  0.500000  1
  P  P13  1  0.307567  0.481221  0.500000  1
  P  P14  1  0.000000  0.370063  0.000000  1
  P  P15  1  0.629937  0.629937  0.000000  1
  P  P16  1  0.370063  0.000000  0.000000  1
  Ir  Ir17  1  0.000000  0.549260  0.000000  1
  Ir  Ir18  1  0.450740  0.450740  0.000000  1
  Ir  Ir19  1  0.549260  0.000000  0.000000  1
  Ir  Ir20  1  0.803713  0.181269  0.000000  1
  Ir  Ir21  1  0.818731  0.622445  0.000000  1
  Ir  Ir22  1  0.377555  0.196287  0.000000  1
  Ir  Ir23  1  0.181269  0.803713  0.000000  1
  Ir  Ir24  1  0.622445  0.818731  0.000000  1
  Ir  Ir25  1  0.196287  0.377555  0.000000  1
  Ir  Ir26  1  0.000000  0.000000  0.000000  1
  Ru  Ru27  1  0.000000  0.708017  0.500000  1
  Ru  Ru28  1  0.291983  0.291983  0.500000  1
  Ru  Ru29  1  0.708017  0.000000  0.500000  1
  Ru  Ru30  1  0.875031  0.364590  0.500000  1
  Ru  Ru31  1  0.635410  0.510441  0.500000  1
  Ru  Ru32  1  0.489559  0.124969  0.500000  1
  Ru  Ru33  1  0.364590  0.875031  0.500000  1
  Ru  Ru34  1  0.510441  0.635410  0.500000  1
  Ru  Ru35  1  0.124969  0.489559  0.500000  1
