# generated using pymatgen
data_TbPr5Ho10(CdPt)4
_symmetry_space_group_name_H-M   'P 1'
_cell_length_a   9.74885654
_cell_length_b   9.76686541
_cell_length_c   9.76686388
_cell_angle_alpha   60.21244631
_cell_angle_beta   60.06097058
_cell_angle_gamma   60.06097330
_symmetry_Int_Tables_number   1
_chemical_formula_structural   TbPr5Ho10(CdPt)4
_chemical_formula_sum   'Tb1 Pr5 Ho10 Cd4 Pt4'
_cell_volume   659.23821332
_cell_formula_units_Z   1
loop_
 _symmetry_equiv_pos_site_id
 _symmetry_equiv_pos_as_xyz
  1  'x, y, z'
loop_
 _atom_site_type_symbol
 _atom_site_label
 _atom_site_symmetry_multiplicity
 _atom_site_fract_x
 _atom_site_fract_y
 _atom_site_fract_z
 _atom_site_occupancy
  Tb  Tb0  1  0.942086  0.557914  0.557914  1
  Pr  Pr1  1  0.560340  0.939660  0.939660  1
  Pr  Pr2  1  0.564168  0.936984  0.561282  1
  Pr  Pr3  1  0.937566  0.561282  0.936984  1
  Pr  Pr4  1  0.564168  0.561282  0.936984  1
  Pr  Pr5  1  0.937566  0.936984  0.561282  1
  Ho  Ho6  1  0.349919  0.350522  0.350522  1
  Ho  Ho7  1  0.350107  0.352156  0.947631  1
  Ho  Ho8  1  0.350107  0.947631  0.352156  1
  Ho  Ho9  1  0.949038  0.350522  0.350522  1
  Ho  Ho10  1  0.811911  0.188089  0.188089  1
  Ho  Ho11  1  0.187554  0.812446  0.812446  1
  Ho  Ho12  1  0.187047  0.811879  0.189246  1
  Ho  Ho13  1  0.811828  0.189246  0.811879  1
  Ho  Ho14  1  0.187047  0.189246  0.811879  1
  Ho  Ho15  1  0.811828  0.811879  0.189246  1
  Cd  Cd16  1  0.582278  0.578893  0.578893  1
  Cd  Cd17  1  0.578957  0.580263  0.261822  1
  Cd  Cd18  1  0.578957  0.261822  0.580263  1
  Cd  Cd19  1  0.259936  0.578893  0.578893  1
  Pt  Pt20  1  0.143146  0.142655  0.142655  1
  Pt  Pt21  1  0.141451  0.145079  0.572021  1
  Pt  Pt22  1  0.141451  0.572021  0.145079  1
  Pt  Pt23  1  0.571545  0.142655  0.142655  1
