# generated using pymatgen
data_Pa6Mn5P12Ir13
_symmetry_space_group_name_H-M   'P 1'
_cell_length_a   3.91862200
_cell_length_b   11.16140622
_cell_length_c   12.68104900
_cell_angle_alpha   90.17187107
_cell_angle_beta   90.00000000
_cell_angle_gamma   90.00000000
_symmetry_Int_Tables_number   1
_chemical_formula_structural   Pa6Mn5P12Ir13
_chemical_formula_sum   'Pa6 Mn5 P12 Ir13'
_cell_volume   554.63275423
_cell_formula_units_Z   1
loop_
 _symmetry_equiv_pos_site_id
 _symmetry_equiv_pos_as_xyz
  1  'x, y, z'
loop_
 _atom_site_type_symbol
 _atom_site_label
 _atom_site_symmetry_multiplicity
 _atom_site_fract_x
 _atom_site_fract_y
 _atom_site_fract_z
 _atom_site_occupancy
  Pa  Pa0  1  0.000000  0.499141  0.522900  1
  Pa  Pa1  1  0.500000  0.000586  0.476479  1
  Pa  Pa2  1  0.500000  0.824583  0.199706  1
  Pa  Pa3  1  0.500000  0.182639  0.197156  1
  Pa  Pa4  1  0.000000  0.672418  0.800233  1
  Pa  Pa5  1  0.000000  0.322715  0.803165  1
  Mn  Mn6  1  0.500000  0.499180  0.158358  1
  Mn  Mn7  1  0.000000  0.000731  0.840401  1
  Mn  Mn8  1  0.000000  0.499729  0.986419  1
  Mn  Mn9  1  0.500000  0.000486  0.010967  1
  Mn  Mn10  1  0.500000  0.335838  0.997665  1
  P  P11  1  0.500000  0.490160  0.888801  1
  P  P12  1  0.000000  0.001204  0.114645  1
  P  P13  1  0.500000  0.499230  0.338205  1
  P  P14  1  0.000000  0.000264  0.661500  1
  P  P15  1  0.500000  0.314259  0.620538  1
  P  P16  1  0.500000  0.684990  0.619304  1
  P  P17  1  0.000000  0.185754  0.380144  1
  P  P18  1  0.000000  0.815179  0.380868  1
  P  P19  1  0.500000  0.851079  0.895701  1
  P  P20  1  0.500000  0.158509  0.900547  1
  P  P21  1  0.000000  0.647519  0.103214  1
  P  P22  1  0.000000  0.349989  0.097371  1
  Ir  Ir23  1  0.500000  0.500544  0.701910  1
  Ir  Ir24  1  0.000000  0.000034  0.298495  1
  Ir  Ir25  1  0.500000  0.663705  0.993237  1
  Ir  Ir26  1  0.000000  0.165622  0.005072  1
  Ir  Ir27  1  0.000000  0.834909  0.005269  1
  Ir  Ir28  1  0.500000  0.303160  0.434250  1
  Ir  Ir29  1  0.500000  0.694596  0.433931  1
  Ir  Ir30  1  0.000000  0.193636  0.566897  1
  Ir  Ir31  1  0.000000  0.805785  0.566125  1
  Ir  Ir32  1  0.500000  0.869576  0.715268  1
  Ir  Ir33  1  0.500000  0.131008  0.717883  1
  Ir  Ir34  1  0.000000  0.631393  0.284077  1
  Ir  Ir35  1  0.000000  0.369852  0.283301  1
