# generated using pymatgen
data_Ce4SiPt7Rh5
_symmetry_space_group_name_H-M   'P 1'
_cell_length_a   7.30013430
_cell_length_b   7.30013404
_cell_length_c   7.30013496
_cell_angle_alpha   109.33739809
_cell_angle_beta   109.33739887
_cell_angle_gamma   109.73919835
_symmetry_Int_Tables_number   1
_chemical_formula_structural   Ce4SiPt7Rh5
_chemical_formula_sum   'Ce4 Si1 Pt7 Rh5'
_cell_volume   299.47705278
_cell_formula_units_Z   1
loop_
 _symmetry_equiv_pos_site_id
 _symmetry_equiv_pos_as_xyz
  1  'x, y, z'
loop_
 _atom_site_type_symbol
 _atom_site_label
 _atom_site_symmetry_multiplicity
 _atom_site_fract_x
 _atom_site_fract_y
 _atom_site_fract_z
 _atom_site_occupancy
  Ce  Ce0  1  0.002766  0.002766  0.504952  1
  Ce  Ce1  1  0.002766  0.497814  0.000000  1
  Ce  Ce2  1  0.497814  0.002766  0.000000  1
  Ce  Ce3  1  0.497814  0.497814  0.495048  1
  Si  Si4  1  0.000846  0.000846  0.000000  1
  Pt  Pt5  1  0.750492  0.250492  0.500000  1
  Pt  Pt6  1  0.751312  0.499778  0.251534  1
  Pt  Pt7  1  0.499778  0.248244  0.748466  1
  Pt  Pt8  1  0.248244  0.499778  0.748466  1
  Pt  Pt9  1  0.250492  0.750492  0.500000  1
  Pt  Pt10  1  0.499778  0.751312  0.251534  1
  Pt  Pt11  1  0.721160  0.721160  0.000000  1
  Rh  Rh12  1  0.274799  0.000146  0.274653  1
  Rh  Rh13  1  0.000146  0.274799  0.274653  1
  Rh  Rh14  1  0.276152  0.276152  0.000000  1
  Rh  Rh15  1  0.725494  0.000146  0.725347  1
  Rh  Rh16  1  0.000146  0.725494  0.725347  1
