# generated using pymatgen
data_Y4Ti4Ir3Rh
_symmetry_space_group_name_H-M   'P 1'
_cell_length_a   4.34838000
_cell_length_b   6.94182126
_cell_length_c   8.18093486
_cell_angle_alpha   89.82450294
_cell_angle_beta   90.00000000
_cell_angle_gamma   90.00000000
_symmetry_Int_Tables_number   1
_chemical_formula_structural   Y4Ti4Ir3Rh
_chemical_formula_sum   'Y4 Ti4 Ir3 Rh1'
_cell_volume   246.94589653
_cell_formula_units_Z   1
loop_
 _symmetry_equiv_pos_site_id
 _symmetry_equiv_pos_as_xyz
  1  'x, y, z'
loop_
 _atom_site_type_symbol
 _atom_site_label
 _atom_site_symmetry_multiplicity
 _atom_site_fract_x
 _atom_site_fract_y
 _atom_site_fract_z
 _atom_site_occupancy
  Y  Y0  1  0.250000  0.983761  0.316638  1
  Y  Y1  1  0.250000  0.486441  0.182128  1
  Y  Y2  1  0.750000  0.013808  0.681774  1
  Y  Y3  1  0.750000  0.515474  0.817757  1
  Ti  Ti4  1  0.250000  0.361416  0.569411  1
  Ti  Ti5  1  0.250000  0.862077  0.933574  1
  Ti  Ti6  1  0.750000  0.638070  0.433658  1
  Ti  Ti7  1  0.750000  0.138686  0.063845  1
  Ir  Ir8  1  0.250000  0.220429  0.906890  1
  Ir  Ir9  1  0.250000  0.718528  0.591307  1
  Ir  Ir10  1  0.750000  0.780495  0.093140  1
  Rh  Rh11  1  0.750000  0.280817  0.409875  1
