# generated using pymatgen
data_Er2Lu6Ti11NbSi16
_symmetry_space_group_name_H-M   'P 1'
_cell_length_a   6.99961394
_cell_length_b   7.00136879
_cell_length_c   12.83209925
_cell_angle_alpha   89.98203285
_cell_angle_beta   90.02216198
_cell_angle_gamma   89.99764714
_symmetry_Int_Tables_number   1
_chemical_formula_structural   Er2Lu6Ti11NbSi16
_chemical_formula_sum   'Er2 Lu6 Ti11 Nb1 Si16'
_cell_volume   628.86105221
_cell_formula_units_Z   1
loop_
 _symmetry_equiv_pos_site_id
 _symmetry_equiv_pos_as_xyz
  1  'x, y, z'
loop_
 _atom_site_type_symbol
 _atom_site_label
 _atom_site_symmetry_multiplicity
 _atom_site_fract_x
 _atom_site_fract_y
 _atom_site_fract_z
 _atom_site_occupancy
  Er  Er0  1  0.002385  0.341474  0.532995  1
  Er  Er1  1  0.998020  0.658107  0.033063  1
  Lu  Lu2  1  0.341968  0.001444  0.466907  1
  Lu  Lu3  1  0.498477  0.840887  0.716789  1
  Lu  Lu4  1  0.500893  0.158049  0.216459  1
  Lu  Lu5  1  0.840702  0.498461  0.283209  1
  Lu  Lu6  1  0.158345  0.500959  0.783598  1
  Lu  Lu7  1  0.657497  0.998998  0.966876  1
  Ti  Ti8  1  0.172410  0.827627  0.250126  1
  Ti  Ti9  1  0.827355  0.172154  0.749970  1
  Ti  Ti10  1  0.672202  0.672683  0.499977  1
  Ti  Ti11  1  0.152550  0.007107  0.875913  1
  Ti  Ti12  1  0.493538  0.650582  0.124623  1
  Ti  Ti13  1  0.506383  0.349289  0.625203  1
  Ti  Ti14  1  0.650308  0.493062  0.875333  1
  Ti  Ti15  1  0.349548  0.506708  0.374832  1
  Ti  Ti16  1  0.848185  0.993805  0.375761  1
  Ti  Ti17  1  0.007248  0.152422  0.123965  1
  Ti  Ti18  1  0.993560  0.848250  0.624174  1
  Nb  Nb19  1  0.327683  0.327205  0.999941  1
  Si  Si20  1  0.204041  0.131922  0.682881  1
  Si  Si21  1  0.367897  0.704934  0.931785  1
  Si  Si22  1  0.632460  0.296453  0.432160  1
  Si  Si23  1  0.704007  0.366186  0.067992  1
  Si  Si24  1  0.297403  0.634150  0.567531  1
  Si  Si25  1  0.795934  0.868238  0.183412  1
  Si  Si26  1  0.132841  0.203159  0.317428  1
  Si  Si27  1  0.867217  0.796901  0.816908  1
  Si  Si28  1  0.293014  0.953041  0.064781  1
  Si  Si29  1  0.546288  0.792948  0.314569  1
  Si  Si30  1  0.454583  0.206214  0.812836  1
  Si  Si31  1  0.792281  0.547035  0.685815  1
  Si  Si32  1  0.206980  0.453842  0.187483  1
  Si  Si33  1  0.706788  0.045895  0.564526  1
  Si  Si34  1  0.952220  0.291367  0.934971  1
  Si  Si35  1  0.046790  0.708448  0.435208  1
