# generated using pymatgen
data_Y13Lu3MgAg3Rh4
_symmetry_space_group_name_H-M   'P 1'
_cell_length_a   9.53264474
_cell_length_b   9.58140828
_cell_length_c   9.58142783
_cell_angle_alpha   60.15273957
_cell_angle_beta   59.93823682
_cell_angle_gamma   59.93937067
_symmetry_Int_Tables_number   1
_chemical_formula_structural   Y13Lu3MgAg3Rh4
_chemical_formula_sum   'Y13 Lu3 Mg1 Ag3 Rh4'
_cell_volume   618.94710387
_cell_formula_units_Z   1
loop_
 _symmetry_equiv_pos_site_id
 _symmetry_equiv_pos_as_xyz
  1  'x, y, z'
loop_
 _atom_site_type_symbol
 _atom_site_label
 _atom_site_symmetry_multiplicity
 _atom_site_fract_x
 _atom_site_fract_y
 _atom_site_fract_z
 _atom_site_occupancy
  Y  Y0  1  0.188043  0.603637  0.603633  1
  Y  Y1  1  0.058612  0.438506  0.438502  1
  Y  Y2  1  0.436256  0.061912  0.061894  1
  Y  Y3  1  0.437035  0.061839  0.437641  1
  Y  Y4  1  0.058262  0.438460  0.060577  1
  Y  Y5  1  0.437048  0.437634  0.061827  1
  Y  Y6  1  0.058249  0.060582  0.438462  1
  Y  Y7  1  0.185599  0.812582  0.812593  1
  Y  Y8  1  0.813396  0.187380  0.187396  1
  Y  Y9  1  0.811850  0.188076  0.814159  1
  Y  Y10  1  0.186281  0.813089  0.184233  1
  Y  Y11  1  0.811849  0.814143  0.188098  1
  Y  Y12  1  0.186255  0.184246  0.813087  1
  Lu  Lu13  1  0.600882  0.597997  0.597972  1
  Lu  Lu14  1  0.597471  0.598703  0.207914  1
  Lu  Lu15  1  0.597456  0.207919  0.598695  1
  Mg  Mg16  1  0.542359  0.819687  0.819739  1
  Ag  Ag17  1  0.828621  0.836585  0.836643  1
  Ag  Ag18  1  0.832245  0.837308  0.498015  1
  Ag  Ag19  1  0.832205  0.497999  0.837344  1
  Rh  Rh20  1  0.394085  0.393062  0.393055  1
  Rh  Rh21  1  0.394931  0.396566  0.817733  1
  Rh  Rh22  1  0.394909  0.817803  0.396522  1
  Rh  Rh23  1  0.816101  0.394288  0.394267  1
