# generated using pymatgen
data_CaHoSi7Rh12
_symmetry_space_group_name_H-M   'P 1'
_cell_length_a   9.75498500
_cell_length_b   9.75498454
_cell_length_c   3.84906600
_cell_angle_alpha   90.00000000
_cell_angle_beta   90.00000000
_cell_angle_gamma   120.00000496
_symmetry_Int_Tables_number   1
_chemical_formula_structural   CaHoSi7Rh12
_chemical_formula_sum   'Ca1 Ho1 Si7 Rh12'
_cell_volume   317.20436813
_cell_formula_units_Z   1
loop_
 _symmetry_equiv_pos_site_id
 _symmetry_equiv_pos_as_xyz
  1  'x, y, z'
loop_
 _atom_site_type_symbol
 _atom_site_label
 _atom_site_symmetry_multiplicity
 _atom_site_fract_x
 _atom_site_fract_y
 _atom_site_fract_z
 _atom_site_occupancy
  Ca  Ca0  1  0.333333  0.666667  0.749093  1
  Ho  Ho1  1  0.666667  0.333333  0.250640  1
  Si  Si2  1  0.000000  0.000000  0.500182  1
  Si  Si3  1  0.400182  0.290631  0.750811  1
  Si  Si4  1  0.709369  0.109551  0.750811  1
  Si  Si5  1  0.890449  0.599818  0.750811  1
  Si  Si6  1  0.600138  0.710491  0.249275  1
  Si  Si7  1  0.289509  0.889647  0.249275  1
  Si  Si8  1  0.110353  0.399862  0.249275  1
  Rh  Rh9  1  0.444181  0.064477  0.751938  1
  Rh  Rh10  1  0.935523  0.379704  0.751938  1
  Rh  Rh11  1  0.620296  0.555819  0.751938  1
  Rh  Rh12  1  0.557086  0.938717  0.248168  1
  Rh  Rh13  1  0.061283  0.618369  0.248168  1
  Rh  Rh14  1  0.381631  0.442914  0.248168  1
  Rh  Rh15  1  0.142177  0.260919  0.744192  1
  Rh  Rh16  1  0.739081  0.881258  0.744192  1
  Rh  Rh17  1  0.118742  0.857823  0.744192  1
  Rh  Rh18  1  0.856531  0.738240  0.255645  1
  Rh  Rh19  1  0.261760  0.118291  0.255645  1
  Rh  Rh20  1  0.881709  0.143469  0.255645  1
