# generated using pymatgen
data_TmTa3(BOs)4
_symmetry_space_group_name_H-M   'P 1'
_cell_length_a   3.16398800
_cell_length_b   9.14908556
_cell_length_c   15.96376612
_cell_angle_alpha   90.06135548
_cell_angle_beta   90.00000000
_cell_angle_gamma   90.00000000
_symmetry_Int_Tables_number   1
_chemical_formula_structural   TmTa3(BOs)4
_chemical_formula_sum   'Tm3 Ta9 B12 Os12'
_cell_volume   462.11240189
_cell_formula_units_Z   3
loop_
 _symmetry_equiv_pos_site_id
 _symmetry_equiv_pos_as_xyz
  1  'x, y, z'
loop_
 _atom_site_type_symbol
 _atom_site_label
 _atom_site_symmetry_multiplicity
 _atom_site_fract_x
 _atom_site_fract_y
 _atom_site_fract_z
 _atom_site_occupancy
  Tm  Tm0  1  0.000000  0.320268  0.791056  1
  Tm  Tm1  1  0.000000  0.181668  0.291153  1
  Tm  Tm2  1  0.000000  0.820007  0.709074  1
  Ta  Ta3  1  0.000000  0.801675  0.493839  1
  Ta  Ta4  1  0.000000  0.197867  0.504926  1
  Ta  Ta5  1  0.000000  0.300692  0.005007  1
  Ta  Ta6  1  0.000000  0.698435  0.995783  1
  Ta  Ta7  1  0.000000  0.515033  0.594054  1
  Ta  Ta8  1  0.000000  0.484877  0.406261  1
  Ta  Ta9  1  0.000000  0.013938  0.905857  1
  Ta  Ta10  1  0.000000  0.984819  0.094505  1
  Ta  Ta11  1  0.000000  0.683873  0.204773  1
  B  B12  1  0.500000  0.603839  0.495194  1
  B  B13  1  0.500000  0.396462  0.503093  1
  B  B14  1  0.500000  0.102818  0.004208  1
  B  B15  1  0.500000  0.895587  0.998166  1
  B  B16  1  0.000000  0.607984  0.832765  1
  B  B17  1  0.000000  0.392532  0.168363  1
  B  B18  1  0.000000  0.107824  0.667325  1
  B  B19  1  0.000000  0.890376  0.333749  1
  B  B20  1  0.500000  0.712837  0.593543  1
  B  B21  1  0.500000  0.287979  0.405501  1
  B  B22  1  0.500000  0.210537  0.905700  1
  B  B23  1  0.500000  0.784776  0.099403  1
  Os  Os24  1  0.500000  0.717534  0.357006  1
  Os  Os25  1  0.500000  0.278489  0.636414  1
  Os  Os26  1  0.500000  0.222856  0.137800  1
  Os  Os27  1  0.500000  0.778269  0.864688  1
  Os  Os28  1  0.500000  0.520529  0.096089  1
  Os  Os29  1  0.500000  0.487243  0.911551  1
  Os  Os30  1  0.500000  0.010881  0.405906  1
  Os  Os31  1  0.500000  0.986760  0.590348  1
  Os  Os32  1  0.500000  0.565186  0.735245  1
  Os  Os33  1  0.500000  0.445329  0.263892  1
  Os  Os34  1  0.500000  0.065698  0.766318  1
  Os  Os35  1  0.500000  0.924525  0.231447  1
