# generated using pymatgen
data_LiNb8VS16
_symmetry_space_group_name_H-M   'P 1'
_cell_length_a   6.73358300
_cell_length_b   6.73358367
_cell_length_c   12.47808200
_cell_angle_alpha   90.00000000
_cell_angle_beta   90.00000000
_cell_angle_gamma   119.99999179
_symmetry_Int_Tables_number   1
_chemical_formula_structural   LiNb8VS16
_chemical_formula_sum   'Li1 Nb8 V1 S16'
_cell_volume   489.97168313
_cell_formula_units_Z   1
loop_
 _symmetry_equiv_pos_site_id
 _symmetry_equiv_pos_as_xyz
  1  'x, y, z'
loop_
 _atom_site_type_symbol
 _atom_site_label
 _atom_site_symmetry_multiplicity
 _atom_site_fract_x
 _atom_site_fract_y
 _atom_site_fract_z
 _atom_site_occupancy
  Li  Li0  1  0.000000  0.000000  0.500000  1
  Nb  Nb1  1  0.000000  0.000000  0.248278  1
  Nb  Nb2  1  0.000000  0.000000  0.751722  1
  Nb  Nb3  1  0.504907  0.495093  0.246066  1
  Nb  Nb4  1  0.504907  0.009814  0.246066  1
  Nb  Nb5  1  0.990186  0.495093  0.246066  1
  Nb  Nb6  1  0.495093  0.504907  0.753934  1
  Nb  Nb7  1  0.495093  0.990186  0.753934  1
  Nb  Nb8  1  0.009814  0.504907  0.753934  1
  V  V9  1  0.000000  0.000000  0.000000  1
  S  S10  1  0.333333  0.666667  0.880220  1
  S  S11  1  0.666667  0.333333  0.119780  1
  S  S12  1  0.666667  0.333333  0.372803  1
  S  S13  1  0.333333  0.666667  0.627197  1
  S  S14  1  0.168375  0.831625  0.370786  1
  S  S15  1  0.168375  0.336750  0.370786  1
  S  S16  1  0.663250  0.831625  0.370786  1
  S  S17  1  0.831625  0.168375  0.629214  1
  S  S18  1  0.831625  0.663250  0.629214  1
  S  S19  1  0.336750  0.168375  0.629214  1
  S  S20  1  0.835686  0.164314  0.878751  1
  S  S21  1  0.835686  0.671372  0.878751  1
  S  S22  1  0.328628  0.164314  0.878751  1
  S  S23  1  0.164314  0.835686  0.121249  1
  S  S24  1  0.164314  0.328628  0.121249  1
  S  S25  1  0.671372  0.835686  0.121249  1
