# generated using pymatgen
data_Yb10InCu4Ag
_symmetry_space_group_name_H-M   'P 1'
_cell_length_a   8.92611018
_cell_length_b   8.92611037
_cell_length_c   8.92611036
_cell_angle_alpha   128.21620305
_cell_angle_beta   128.21620650
_cell_angle_gamma   76.27504604
_symmetry_Int_Tables_number   1
_chemical_formula_structural   Yb10InCu4Ag
_chemical_formula_sum   'Yb10 In1 Cu4 Ag1'
_cell_volume   426.65639575
_cell_formula_units_Z   1
loop_
 _symmetry_equiv_pos_site_id
 _symmetry_equiv_pos_as_xyz
  1  'x, y, z'
loop_
 _atom_site_type_symbol
 _atom_site_label
 _atom_site_symmetry_multiplicity
 _atom_site_fract_x
 _atom_site_fract_y
 _atom_site_fract_z
 _atom_site_occupancy
  Yb  Yb0  1  0.505023  0.505023  0.000000  1
  Yb  Yb1  1  0.994977  0.994977  0.000000  1
  Yb  Yb2  1  0.524388  0.032562  0.834634  1
  Yb  Yb3  1  0.197929  0.689754  0.165366  1
  Yb  Yb4  1  0.032562  0.197929  0.508174  1
  Yb  Yb5  1  0.689754  0.524388  0.491826  1
  Yb  Yb6  1  0.467438  0.975612  0.165366  1
  Yb  Yb7  1  0.810246  0.302071  0.834634  1
  Yb  Yb8  1  0.975612  0.810246  0.508174  1
  Yb  Yb9  1  0.302071  0.467438  0.491826  1
  In  In10  1  0.750000  0.750000  0.000000  1
  Cu  Cu11  1  0.116480  0.616480  0.732961  1
  Cu  Cu12  1  0.883520  0.383520  0.267039  1
  Cu  Cu13  1  0.616480  0.883520  0.500000  1
  Cu  Cu14  1  0.383520  0.116480  0.500000  1
  Ag  Ag15  1  0.250000  0.250000  0.000000  1
