# generated using pymatgen
data_Y12ZnTc3
_symmetry_space_group_name_H-M   'P 1'
_cell_length_a   6.37061800
_cell_length_b   7.50182512
_cell_length_c   9.22083900
_cell_angle_alpha   90.00000000
_cell_angle_beta   90.00000000
_cell_angle_gamma   90.22747060
_symmetry_Int_Tables_number   1
_chemical_formula_structural   Y12ZnTc3
_chemical_formula_sum   'Y12 Zn1 Tc3'
_cell_volume   440.67206097
_cell_formula_units_Z   1
loop_
 _symmetry_equiv_pos_site_id
 _symmetry_equiv_pos_as_xyz
  1  'x, y, z'
loop_
 _atom_site_type_symbol
 _atom_site_label
 _atom_site_symmetry_multiplicity
 _atom_site_fract_x
 _atom_site_fract_y
 _atom_site_fract_z
 _atom_site_occupancy
  Y  Y0  1  0.621038  0.046643  0.250000  1
  Y  Y1  1  0.365838  0.955818  0.750000  1
  Y  Y2  1  0.125942  0.461925  0.750000  1
  Y  Y3  1  0.867007  0.527962  0.250000  1
  Y  Y4  1  0.165700  0.186806  0.056666  1
  Y  Y5  1  0.830894  0.825436  0.931159  1
  Y  Y6  1  0.662458  0.319951  0.935244  1
  Y  Y7  1  0.830894  0.825436  0.568841  1
  Y  Y8  1  0.347029  0.668137  0.059049  1
  Y  Y9  1  0.165700  0.186806  0.443334  1
  Y  Y10  1  0.347029  0.668137  0.440951  1
  Y  Y11  1  0.662458  0.319951  0.564756  1
  Zn  Zn12  1  0.056201  0.889247  0.250000  1
  Tc  Tc13  1  0.452281  0.384364  0.250000  1
  Tc  Tc14  1  0.537818  0.615167  0.750000  1
  Tc  Tc15  1  0.961712  0.118211  0.750000  1
