# generated using pymatgen
data_TbEr5NbCo17P12
_symmetry_space_group_name_H-M   'P 1'
_cell_length_a   3.69464800
_cell_length_b   10.55587900
_cell_length_c   12.24626700
_cell_angle_alpha   90.00000000
_cell_angle_beta   90.00000000
_cell_angle_gamma   90.00000000
_symmetry_Int_Tables_number   1
_chemical_formula_structural   TbEr5NbCo17P12
_chemical_formula_sum   'Tb1 Er5 Nb1 Co17 P12'
_cell_volume   477.60756318
_cell_formula_units_Z   1
loop_
 _symmetry_equiv_pos_site_id
 _symmetry_equiv_pos_as_xyz
  1  'x, y, z'
loop_
 _atom_site_type_symbol
 _atom_site_label
 _atom_site_symmetry_multiplicity
 _atom_site_fract_x
 _atom_site_fract_y
 _atom_site_fract_z
 _atom_site_occupancy
  Tb  Tb0  1  0.250000  0.750000  0.522673  1
  Er  Er1  1  0.750000  0.250000  0.472868  1
  Er  Er2  1  0.250000  0.930207  0.793136  1
  Er  Er3  1  0.250000  0.569793  0.793136  1
  Er  Er4  1  0.750000  0.067454  0.204091  1
  Er  Er5  1  0.750000  0.432546  0.204091  1
  Nb  Nb6  1  0.250000  0.250000  0.844638  1
  Co  Co7  1  0.750000  0.750000  0.161221  1
  Co  Co8  1  0.250000  0.250000  0.298095  1
  Co  Co9  1  0.750000  0.750000  0.704377  1
  Co  Co10  1  0.750000  0.250000  0.015930  1
  Co  Co11  1  0.250000  0.750000  0.985879  1
  Co  Co12  1  0.250000  0.420321  0.010881  1
  Co  Co13  1  0.250000  0.079679  0.010881  1
  Co  Co14  1  0.750000  0.586202  0.996064  1
  Co  Co15  1  0.750000  0.913798  0.996064  1
  Co  Co16  1  0.250000  0.454098  0.566965  1
  Co  Co17  1  0.250000  0.045902  0.566965  1
  Co  Co18  1  0.750000  0.546721  0.430038  1
  Co  Co19  1  0.750000  0.953279  0.430038  1
  Co  Co20  1  0.250000  0.870895  0.291404  1
  Co  Co21  1  0.250000  0.629105  0.291404  1
  Co  Co22  1  0.750000  0.126862  0.705482  1
  Co  Co23  1  0.750000  0.373138  0.705482  1
  P  P24  1  0.250000  0.250000  0.119672  1
  P  P25  1  0.750000  0.750000  0.882866  1
  P  P26  1  0.250000  0.250000  0.643192  1
  P  P27  1  0.750000  0.750000  0.343864  1
  P  P28  1  0.250000  0.439498  0.382357  1
  P  P29  1  0.250000  0.060502  0.382357  1
  P  P30  1  0.750000  0.561321  0.614915  1
  P  P31  1  0.750000  0.938679  0.614915  1
  P  P32  1  0.250000  0.899257  0.110157  1
  P  P33  1  0.250000  0.600743  0.110157  1
  P  P34  1  0.750000  0.088633  0.896873  1
  P  P35  1  0.750000  0.411367  0.896873  1
