# generated using pymatgen
data_PrNdZn2(BRh3)2
_symmetry_space_group_name_H-M   'P 1'
_cell_length_a   5.57567600
_cell_length_b   5.57567731
_cell_length_c   7.03015000
_cell_angle_alpha   90.00000000
_cell_angle_beta   90.00000000
_cell_angle_gamma   120.00000407
_symmetry_Int_Tables_number   1
_chemical_formula_structural   PrNdZn2(BRh3)2
_chemical_formula_sum   'Pr1 Nd1 Zn2 B2 Rh6'
_cell_volume   189.27374105
_cell_formula_units_Z   1
loop_
 _symmetry_equiv_pos_site_id
 _symmetry_equiv_pos_as_xyz
  1  'x, y, z'
loop_
 _atom_site_type_symbol
 _atom_site_label
 _atom_site_symmetry_multiplicity
 _atom_site_fract_x
 _atom_site_fract_y
 _atom_site_fract_z
 _atom_site_occupancy
  Pr  Pr0  1  0.000000  0.000000  0.000000  1
  Nd  Nd1  1  0.000000  0.000000  0.500000  1
  Zn  Zn2  1  0.333333  0.666667  0.000000  1
  Zn  Zn3  1  0.666667  0.333333  0.000000  1
  B  B4  1  0.666667  0.333333  0.500000  1
  B  B5  1  0.333333  0.666667  0.500000  1
  Rh  Rh6  1  0.500000  0.000000  0.295015  1
  Rh  Rh7  1  0.500000  0.500000  0.295015  1
  Rh  Rh8  1  0.000000  0.500000  0.295015  1
  Rh  Rh9  1  0.500000  0.000000  0.704985  1
  Rh  Rh10  1  0.500000  0.500000  0.704985  1
  Rh  Rh11  1  0.000000  0.500000  0.704985  1
