# generated using pymatgen
data_Dy4Al5Tc2Mo
_symmetry_space_group_name_H-M   'P 1'
_cell_length_a   5.55958953
_cell_length_b   5.60502107
_cell_length_c   8.76046300
_cell_angle_alpha   90.00000000
_cell_angle_beta   90.00000000
_cell_angle_gamma   120.27066177
_symmetry_Int_Tables_number   1
_chemical_formula_structural   Dy4Al5Tc2Mo
_chemical_formula_sum   'Dy4 Al5 Tc2 Mo1'
_cell_volume   235.76900785
_cell_formula_units_Z   1
loop_
 _symmetry_equiv_pos_site_id
 _symmetry_equiv_pos_as_xyz
  1  'x, y, z'
loop_
 _atom_site_type_symbol
 _atom_site_label
 _atom_site_symmetry_multiplicity
 _atom_site_fract_x
 _atom_site_fract_y
 _atom_site_fract_z
 _atom_site_occupancy
  Dy  Dy0  1  0.337572  0.668786  0.443469  1
  Dy  Dy1  1  0.663830  0.331915  0.553844  1
  Dy  Dy2  1  0.663830  0.331915  0.946156  1
  Dy  Dy3  1  0.337572  0.668786  0.056531  1
  Al  Al4  1  0.837256  0.160699  0.250000  1
  Al  Al5  1  0.837256  0.676557  0.250000  1
  Al  Al6  1  0.321895  0.160947  0.250000  1
  Al  Al7  1  0.182051  0.845129  0.750000  1
  Al  Al8  1  0.182051  0.336923  0.750000  1
  Tc  Tc9  1  0.978860  0.989430  0.509130  1
  Tc  Tc10  1  0.978860  0.989430  0.990870  1
  Mo  Mo11  1  0.678968  0.839484  0.750000  1
