# generated using pymatgen
data_Y10CuGePb6
_symmetry_space_group_name_H-M   'P 1'
_cell_length_a   9.22258100
_cell_length_b   9.22258124
_cell_length_c   6.78152400
_cell_angle_alpha   90.00000000
_cell_angle_beta   90.00000000
_cell_angle_gamma   119.99999555
_symmetry_Int_Tables_number   1
_chemical_formula_structural   Y10CuGePb6
_chemical_formula_sum   'Y10 Cu1 Ge1 Pb6'
_cell_volume   499.53154871
_cell_formula_units_Z   1
loop_
 _symmetry_equiv_pos_site_id
 _symmetry_equiv_pos_as_xyz
  1  'x, y, z'
loop_
 _atom_site_type_symbol
 _atom_site_label
 _atom_site_symmetry_multiplicity
 _atom_site_fract_x
 _atom_site_fract_y
 _atom_site_fract_z
 _atom_site_occupancy
  Y  Y0  1  0.000000  0.749516  0.757641  1
  Y  Y1  1  0.333333  0.666667  0.500000  1
  Y  Y2  1  0.333333  0.666667  0.000000  1
  Y  Y3  1  0.749516  0.749516  0.242359  1
  Y  Y4  1  0.250484  0.250484  0.757641  1
  Y  Y5  1  0.000000  0.250484  0.242359  1
  Y  Y6  1  0.666667  0.333333  0.500000  1
  Y  Y7  1  0.250484  0.000000  0.242359  1
  Y  Y8  1  0.749516  0.000000  0.757641  1
  Y  Y9  1  0.666667  0.333333  0.000000  1
  Cu  Cu10  1  0.000000  0.000000  0.500000  1
  Ge  Ge11  1  0.000000  0.000000  0.000000  1
  Pb  Pb12  1  0.393709  0.000000  0.750153  1
  Pb  Pb13  1  0.393709  0.393709  0.249847  1
  Pb  Pb14  1  0.606291  0.606291  0.750153  1
  Pb  Pb15  1  0.000000  0.606291  0.249847  1
  Pb  Pb16  1  0.000000  0.393709  0.750153  1
  Pb  Pb17  1  0.606291  0.000000  0.249847  1
