# generated using pymatgen
data_La10Co2Ge3Au
_symmetry_space_group_name_H-M   'P 1'
_cell_length_a   8.00066100
_cell_length_b   9.04001935
_cell_length_c   12.44320300
_cell_angle_alpha   89.28985793
_cell_angle_beta   90.00000000
_cell_angle_gamma   90.00000000
_symmetry_Int_Tables_number   1
_chemical_formula_structural   La10Co2Ge3Au
_chemical_formula_sum   'La20 Co4 Ge6 Au2'
_cell_volume   899.89959572
_cell_formula_units_Z   2
loop_
 _symmetry_equiv_pos_site_id
 _symmetry_equiv_pos_as_xyz
  1  'x, y, z'
loop_
 _atom_site_type_symbol
 _atom_site_label
 _atom_site_symmetry_multiplicity
 _atom_site_fract_x
 _atom_site_fract_y
 _atom_site_fract_z
 _atom_site_occupancy
  La  La0  1  0.159482  0.754265  0.213586  1
  La  La1  1  0.659482  0.245735  0.286414  1
  La  La2  1  0.841131  0.248814  0.789654  1
  La  La3  1  0.341131  0.751186  0.710346  1
  La  La4  1  0.457773  0.750859  0.998106  1
  La  La5  1  0.957773  0.249141  0.501894  1
  La  La6  1  0.549518  0.242418  0.998865  1
  La  La7  1  0.049518  0.757582  0.501135  1
  La  La8  1  0.629151  0.757347  0.306053  1
  La  La9  1  0.129151  0.242653  0.193947  1
  La  La10  1  0.364924  0.249843  0.699422  1
  La  La11  1  0.864924  0.750157  0.800578  1
  La  La12  1  0.818080  0.965283  0.073479  1
  La  La13  1  0.318080  0.034717  0.426521  1
  La  La14  1  0.180608  0.466659  0.920692  1
  La  La15  1  0.680608  0.533341  0.579308  1
  La  La16  1  0.181423  0.028123  0.928572  1
  La  La17  1  0.681423  0.971877  0.571428  1
  La  La18  1  0.826569  0.530312  0.070939  1
  La  La19  1  0.326569  0.469688  0.429061  1
  Co  Co20  1  0.428786  0.751558  0.487028  1
  Co  Co21  1  0.928786  0.248442  0.012972  1
  Co  Co22  1  0.575023  0.255320  0.510994  1
  Co  Co23  1  0.075023  0.744680  0.989006  1
  Ge  Ge24  1  0.928958  0.995646  0.330639  1
  Ge  Ge25  1  0.428958  0.004354  0.169361  1
  Ge  Ge26  1  0.066339  0.496288  0.668675  1
  Ge  Ge27  1  0.566339  0.503712  0.831325  1
  Ge  Ge28  1  0.067923  0.006992  0.670062  1
  Ge  Ge29  1  0.567923  0.993008  0.829938  1
  Au  Au30  1  0.924311  0.511227  0.331265  1
  Au  Au31  1  0.424311  0.488773  0.168735  1
