# generated using pymatgen
data_Dy2YU(ReB6)2
_symmetry_space_group_name_H-M   'P 1'
_cell_length_a   3.67748800
_cell_length_b   9.19882807
_cell_length_c   11.45326440
_cell_angle_alpha   89.40782352
_cell_angle_beta   90.00000000
_cell_angle_gamma   90.00000000
_symmetry_Int_Tables_number   1
_chemical_formula_structural   Dy2YU(ReB6)2
_chemical_formula_sum   'Dy4 Y2 U2 Re4 B24'
_cell_volume   387.42697535
_cell_formula_units_Z   2
loop_
 _symmetry_equiv_pos_site_id
 _symmetry_equiv_pos_as_xyz
  1  'x, y, z'
loop_
 _atom_site_type_symbol
 _atom_site_label
 _atom_site_symmetry_multiplicity
 _atom_site_fract_x
 _atom_site_fract_y
 _atom_site_fract_z
 _atom_site_occupancy
  Dy  Dy0  1  0.000000  0.325220  0.411675  1
  Dy  Dy1  1  0.000000  0.674780  0.588325  1
  Dy  Dy2  1  0.000000  0.834556  0.089537  1
  Dy  Dy3  1  0.000000  0.165444  0.910463  1
  Y  Y4  1  0.000000  0.945036  0.371659  1
  Y  Y5  1  0.000000  0.054964  0.628341  1
  U  U6  1  0.000000  0.454170  0.105404  1
  U  U7  1  0.000000  0.545830  0.894596  1
  Re  Re8  1  0.000000  0.636037  0.314134  1
  Re  Re9  1  0.000000  0.363963  0.685866  1
  Re  Re10  1  0.000000  0.148736  0.176530  1
  Re  Re11  1  0.000000  0.851264  0.823470  1
  B  B12  1  0.500000  0.553814  0.431917  1
  B  B13  1  0.500000  0.446186  0.568083  1
  B  B14  1  0.500000  0.052435  0.067449  1
  B  B15  1  0.500000  0.947565  0.932551  1
  B  B16  1  0.500000  0.747683  0.418838  1
  B  B17  1  0.500000  0.252317  0.581162  1
  B  B18  1  0.500000  0.245620  0.079215  1
  B  B19  1  0.500000  0.754380  0.920785  1
  B  B20  1  0.500000  0.795944  0.268022  1
  B  B21  1  0.500000  0.204056  0.731978  1
  B  B22  1  0.500000  0.297601  0.229585  1
  B  B23  1  0.500000  0.702399  0.770415  1
  B  B24  1  0.500000  0.637245  0.186570  1
  B  B25  1  0.500000  0.362755  0.813430  1
  B  B26  1  0.500000  0.136156  0.313337  1
  B  B27  1  0.500000  0.863844  0.686663  1
  B  B28  1  0.500000  0.987550  0.213431  1
  B  B29  1  0.500000  0.012450  0.786569  1
  B  B30  1  0.500000  0.484126  0.282179  1
  B  B31  1  0.500000  0.515874  0.717821  1
  B  B32  1  0.500000  0.631870  0.035963  1
  B  B33  1  0.500000  0.368130  0.964037  1
  B  B34  1  0.500000  0.109427  0.469867  1
  B  B35  1  0.500000  0.890573  0.530133  1
