# generated using pymatgen
data_Ho4TmIrPt2
_symmetry_space_group_name_H-M   'P 1'
_cell_length_a   10.99946400
_cell_length_b   10.99946400
_cell_length_c   6.29815500
_cell_angle_alpha   90.00000000
_cell_angle_beta   90.00000000
_cell_angle_gamma   90.00000000
_symmetry_Int_Tables_number   1
_chemical_formula_structural   Ho4TmIrPt2
_chemical_formula_sum   'Ho16 Tm4 Ir4 Pt8'
_cell_volume   762.00248897
_cell_formula_units_Z   4
loop_
 _symmetry_equiv_pos_site_id
 _symmetry_equiv_pos_as_xyz
  1  'x, y, z'
loop_
 _atom_site_type_symbol
 _atom_site_label
 _atom_site_symmetry_multiplicity
 _atom_site_fract_x
 _atom_site_fract_y
 _atom_site_fract_z
 _atom_site_occupancy
  Ho  Ho0  1  0.294206  0.086933  0.374373  1
  Ho  Ho1  1  0.294206  0.913067  0.874373  1
  Ho  Ho2  1  0.705794  0.086933  0.874373  1
  Ho  Ho3  1  0.705794  0.913067  0.374373  1
  Ho  Ho4  1  0.586933  0.794206  0.874373  1
  Ho  Ho5  1  0.586933  0.205794  0.374373  1
  Ho  Ho6  1  0.413067  0.794206  0.374373  1
  Ho  Ho7  1  0.413067  0.205794  0.874373  1
  Ho  Ho8  1  0.205794  0.413067  0.625627  1
  Ho  Ho9  1  0.205794  0.586933  0.125627  1
  Ho  Ho10  1  0.794206  0.413067  0.125627  1
  Ho  Ho11  1  0.794206  0.586933  0.625627  1
  Ho  Ho12  1  0.913067  0.705794  0.125627  1
  Ho  Ho13  1  0.913067  0.294206  0.625627  1
  Ho  Ho14  1  0.086933  0.705794  0.625627  1
  Ho  Ho15  1  0.086933  0.294206  0.125627  1
  Tm  Tm16  1  0.000000  0.000000  0.500000  1
  Tm  Tm17  1  0.000000  0.000000  0.000000  1
  Tm  Tm18  1  0.500000  0.500000  0.000000  1
  Tm  Tm19  1  0.500000  0.500000  0.500000  1
  Ir  Ir20  1  0.500000  0.000000  0.120784  1
  Ir  Ir21  1  0.500000  0.000000  0.620784  1
  Ir  Ir22  1  0.000000  0.500000  0.879216  1
  Ir  Ir23  1  0.000000  0.500000  0.379216  1
  Pt  Pt24  1  0.847474  0.152526  0.250000  1
  Pt  Pt25  1  0.847474  0.847474  0.750000  1
  Pt  Pt26  1  0.152526  0.152526  0.750000  1
  Pt  Pt27  1  0.152526  0.847474  0.250000  1
  Pt  Pt28  1  0.652526  0.347474  0.750000  1
  Pt  Pt29  1  0.652526  0.652526  0.250000  1
  Pt  Pt30  1  0.347474  0.347474  0.250000  1
  Pt  Pt31  1  0.347474  0.652526  0.750000  1
