# generated using pymatgen
data_Li3Tm3LuCo17P12
_symmetry_space_group_name_H-M   'P 1'
_cell_length_a   3.66473800
_cell_length_b   10.21374930
_cell_length_c   11.83245202
_cell_angle_alpha   89.87382043
_cell_angle_beta   90.00000000
_cell_angle_gamma   90.00000000
_symmetry_Int_Tables_number   1
_chemical_formula_structural   Li3Tm3LuCo17P12
_chemical_formula_sum   'Li3 Tm3 Lu1 Co17 P12'
_cell_volume   442.89606759
_cell_formula_units_Z   1
loop_
 _symmetry_equiv_pos_site_id
 _symmetry_equiv_pos_as_xyz
  1  'x, y, z'
loop_
 _atom_site_type_symbol
 _atom_site_label
 _atom_site_symmetry_multiplicity
 _atom_site_fract_x
 _atom_site_fract_y
 _atom_site_fract_z
 _atom_site_occupancy
  Li  Li0  1  0.250000  0.702420  0.991737  1
  Li  Li1  1  0.250000  0.797033  0.491890  1
  Li  Li2  1  0.750000  0.296847  0.007164  1
  Tm  Tm3  1  0.250000  0.921791  0.203502  1
  Tm  Tm4  1  0.750000  0.421747  0.298853  1
  Tm  Tm5  1  0.750000  0.078279  0.796190  1
  Lu  Lu6  1  0.250000  0.577919  0.701596  1
  Co  Co7  1  0.750000  0.212242  0.507660  1
  Co  Co8  1  0.250000  0.405006  0.485343  1
  Co  Co9  1  0.250000  0.094545  0.985543  1
  Co  Co10  1  0.750000  0.591885  0.516572  1
  Co  Co11  1  0.750000  0.906730  0.015633  1
  Co  Co12  1  0.250000  0.223056  0.177007  1
  Co  Co13  1  0.250000  0.275983  0.670865  1
  Co  Co14  1  0.750000  0.777639  0.826680  1
  Co  Co15  1  0.750000  0.720706  0.326891  1
  Co  Co16  1  0.250000  0.879603  0.700178  1
  Co  Co17  1  0.250000  0.621244  0.199510  1
  Co  Co18  1  0.750000  0.120017  0.300868  1
  Co  Co19  1  0.750000  0.377634  0.797329  1
  Co  Co20  1  0.250000  0.464087  0.930821  1
  Co  Co21  1  0.250000  0.036443  0.432433  1
  Co  Co22  1  0.750000  0.534461  0.066731  1
  Co  Co23  1  0.750000  0.965395  0.567554  1
  P  P24  1  0.250000  0.424840  0.115736  1
  P  P25  1  0.250000  0.076361  0.612606  1
  P  P26  1  0.750000  0.574406  0.882689  1
  P  P27  1  0.750000  0.923002  0.384615  1
  P  P28  1  0.250000  0.266617  0.859625  1
  P  P29  1  0.250000  0.232805  0.366689  1
  P  P30  1  0.750000  0.731851  0.139724  1
  P  P31  1  0.750000  0.767064  0.639080  1
  P  P32  1  0.250000  0.601554  0.392866  1
  P  P33  1  0.250000  0.899010  0.892965  1
  P  P34  1  0.750000  0.397275  0.605892  1
  P  P35  1  0.750000  0.102503  0.108961  1
