# generated using pymatgen
data_Li3HoNi9MoP7
_symmetry_space_group_name_H-M   'P 1'
_cell_length_a   9.12227529
_cell_length_b   9.09802712
_cell_length_c   3.66483400
_cell_angle_alpha   90.00000000
_cell_angle_beta   90.00000000
_cell_angle_gamma   119.43363471
_symmetry_Int_Tables_number   1
_chemical_formula_structural   Li3HoNi9MoP7
_chemical_formula_sum   'Li3 Ho1 Ni9 Mo1 P7'
_cell_volume   264.90228653
_cell_formula_units_Z   1
loop_
 _symmetry_equiv_pos_site_id
 _symmetry_equiv_pos_as_xyz
  1  'x, y, z'
loop_
 _atom_site_type_symbol
 _atom_site_label
 _atom_site_symmetry_multiplicity
 _atom_site_fract_x
 _atom_site_fract_y
 _atom_site_fract_z
 _atom_site_occupancy
  Li  Li0  1  0.893543  0.117621  0.500000  1
  Li  Li1  1  0.219870  0.105898  0.500000  1
  Li  Li2  1  0.663196  0.331859  0.500000  1
  Ho  Ho3  1  0.332663  0.663639  0.000000  1
  Ni  Ni4  1  0.716788  0.882740  0.000000  1
  Ni  Ni5  1  0.163141  0.281069  0.000000  1
  Ni  Ni6  1  0.126742  0.839731  0.000000  1
  Ni  Ni7  1  0.629431  0.566983  0.000000  1
  Ni  Ni8  1  0.936401  0.366357  0.000000  1
  Ni  Ni9  1  0.430122  0.059788  0.000000  1
  Ni  Ni10  1  0.565345  0.955447  0.500000  1
  Ni  Ni11  1  0.391143  0.434394  0.500000  1
  Ni  Ni12  1  0.049030  0.610715  0.500000  1
  Mo  Mo13  1  0.883119  0.785490  0.500000  1
  P  P14  1  0.593701  0.711097  0.500000  1
  P  P15  1  0.119482  0.406611  0.500000  1
  P  P16  1  0.287853  0.879453  0.500000  1
  P  P17  1  0.000216  0.998851  0.000000  1
  P  P18  1  0.881503  0.578856  0.000000  1
  P  P19  1  0.694853  0.121216  0.000000  1
  P  P20  1  0.421863  0.302186  0.000000  1
