# generated using pymatgen
data_Yb4B16Ru3W
_symmetry_space_group_name_H-M   'P 1'
_cell_length_a   3.53027500
_cell_length_b   5.98187358
_cell_length_c   11.57012191
_cell_angle_alpha   89.85798124
_cell_angle_beta   90.00000000
_cell_angle_gamma   90.00000000
_symmetry_Int_Tables_number   1
_chemical_formula_structural   Yb4B16Ru3W
_chemical_formula_sum   'Yb4 B16 Ru3 W1'
_cell_volume   244.33313570
_cell_formula_units_Z   1
loop_
 _symmetry_equiv_pos_site_id
 _symmetry_equiv_pos_as_xyz
  1  'x, y, z'
loop_
 _atom_site_type_symbol
 _atom_site_label
 _atom_site_symmetry_multiplicity
 _atom_site_fract_x
 _atom_site_fract_y
 _atom_site_fract_z
 _atom_site_occupancy
  Yb  Yb0  1  0.500000  0.628488  0.147066  1
  Yb  Yb1  1  0.500000  0.370341  0.850787  1
  Yb  Yb2  1  0.500000  0.130376  0.346856  1
  Yb  Yb3  1  0.500000  0.873548  0.653388  1
  B  B4  1  0.000000  0.977321  0.190433  1
  B  B5  1  0.000000  0.024012  0.808498  1
  B  B6  1  0.000000  0.472845  0.305809  1
  B  B7  1  0.000000  0.522087  0.694059  1
  B  B8  1  0.000000  0.790458  0.312014  1
  B  B9  1  0.000000  0.214413  0.685768  1
  B  B10  1  0.000000  0.283821  0.183320  1
  B  B11  1  0.000000  0.714040  0.815375  1
  B  B12  1  0.000000  0.869324  0.470512  1
  B  B13  1  0.000000  0.135442  0.534018  1
  B  B14  1  0.000000  0.364060  0.030436  1
  B  B15  1  0.000000  0.635432  0.968500  1
  B  B16  1  0.000000  0.887219  0.046423  1
  B  B17  1  0.000000  0.112072  0.952378  1
  B  B18  1  0.000000  0.380670  0.454946  1
  B  B19  1  0.000000  0.611447  0.551010  1
  Ru  Ru20  1  0.500000  0.370426  0.585981  1
  Ru  Ru21  1  0.500000  0.135509  0.084977  1
  Ru  Ru22  1  0.500000  0.863777  0.912311  1
  W  W23  1  0.500000  0.632872  0.415137  1
