# generated using pymatgen
data_Rb2Np(SF)2
_symmetry_space_group_name_H-M   'P 1'
_cell_length_a   7.38519323
_cell_length_b   7.38519372
_cell_length_c   8.57819800
_cell_angle_alpha   72.34188678
_cell_angle_beta   72.34189371
_cell_angle_gamma   63.37661136
_symmetry_Int_Tables_number   1
_chemical_formula_structural   Rb2Np(SF)2
_chemical_formula_sum   'Rb4 Np2 S4 F4'
_cell_volume   390.77874292
_cell_formula_units_Z   2
loop_
 _symmetry_equiv_pos_site_id
 _symmetry_equiv_pos_as_xyz
  1  'x, y, z'
loop_
 _atom_site_type_symbol
 _atom_site_label
 _atom_site_symmetry_multiplicity
 _atom_site_fract_x
 _atom_site_fract_y
 _atom_site_fract_z
 _atom_site_occupancy
  Rb  Rb0  1  0.674758  0.665746  0.670657  1
  Rb  Rb1  1  0.334254  0.325242  0.829343  1
  Rb  Rb2  1  0.325242  0.334254  0.329343  1
  Rb  Rb3  1  0.665746  0.674758  0.170657  1
  Np  Np4  1  0.001797  0.998203  0.750000  1
  Np  Np5  1  0.998203  0.001797  0.250000  1
  S  S6  1  0.222177  0.779642  0.000935  1
  S  S7  1  0.220358  0.777823  0.499065  1
  S  S8  1  0.777823  0.220358  0.999065  1
  S  S9  1  0.779642  0.222177  0.500935  1
  F  F10  1  0.190386  0.183559  0.653524  1
  F  F11  1  0.816441  0.809614  0.846476  1
  F  F12  1  0.809614  0.816441  0.346476  1
  F  F13  1  0.183559  0.190386  0.153524  1
