# generated using pymatgen
data_LiIn11Ir3Ru
_symmetry_space_group_name_H-M   'P 1'
_cell_length_a   7.07836490
_cell_length_b   7.18849166
_cell_length_c   7.19039300
_cell_angle_alpha   90.00000000
_cell_angle_beta   90.00000000
_cell_angle_gamma   89.52977248
_symmetry_Int_Tables_number   1
_chemical_formula_structural   LiIn11Ir3Ru
_chemical_formula_sum   'Li1 In11 Ir3 Ru1'
_cell_volume   365.85477017
_cell_formula_units_Z   1
loop_
 _symmetry_equiv_pos_site_id
 _symmetry_equiv_pos_as_xyz
  1  'x, y, z'
loop_
 _atom_site_type_symbol
 _atom_site_label
 _atom_site_symmetry_multiplicity
 _atom_site_fract_x
 _atom_site_fract_y
 _atom_site_fract_z
 _atom_site_occupancy
  Li  Li0  1  0.000917  0.500538  0.500000  1
  In  In1  1  0.501979  0.997860  0.000000  1
  In  In2  1  0.499365  0.001315  0.500000  1
  In  In3  1  0.998539  0.501412  0.000000  1
  In  In4  1  0.340083  0.651080  0.244476  1
  In  In5  1  0.663543  0.352462  0.244721  1
  In  In6  1  0.149683  0.170887  0.728978  1
  In  In7  1  0.848860  0.828111  0.731816  1
  In  In8  1  0.663543  0.352462  0.755279  1
  In  In9  1  0.340083  0.651080  0.755524  1
  In  In10  1  0.848860  0.828111  0.268184  1
  In  In11  1  0.149683  0.170887  0.271022  1
  Ir  Ir12  1  0.155069  0.853317  0.500000  1
  Ir  Ir13  1  0.843337  0.145246  0.500000  1
  Ir  Ir14  1  0.345561  0.341410  0.000000  1
  Ru  Ru15  1  0.650897  0.653821  0.000000  1
