# generated using pymatgen
data_Y3Th2Pb3C
_symmetry_space_group_name_H-M   'P 1'
_cell_length_a   9.22483553
_cell_length_b   9.22483653
_cell_length_c   6.60589200
_cell_angle_alpha   90.00000000
_cell_angle_beta   90.00000000
_cell_angle_gamma   119.50653433
_symmetry_Int_Tables_number   1
_chemical_formula_structural   Y3Th2Pb3C
_chemical_formula_sum   'Y6 Th4 Pb6 C2'
_cell_volume   489.23501226
_cell_formula_units_Z   2
loop_
 _symmetry_equiv_pos_site_id
 _symmetry_equiv_pos_as_xyz
  1  'x, y, z'
loop_
 _atom_site_type_symbol
 _atom_site_label
 _atom_site_symmetry_multiplicity
 _atom_site_fract_x
 _atom_site_fract_y
 _atom_site_fract_z
 _atom_site_occupancy
  Y  Y0  1  0.781480  0.781480  0.250000  1
  Y  Y1  1  0.218520  0.218520  0.750000  1
  Y  Y2  1  0.333068  0.666932  0.000000  1
  Y  Y3  1  0.666932  0.333068  0.000000  1
  Y  Y4  1  0.666932  0.333068  0.500000  1
  Y  Y5  1  0.333068  0.666932  0.500000  1
  Th  Th6  1  0.215713  0.998263  0.250000  1
  Th  Th7  1  0.784287  0.001737  0.750000  1
  Th  Th8  1  0.998263  0.215713  0.250000  1
  Th  Th9  1  0.001737  0.784287  0.750000  1
  Pb  Pb10  1  0.594309  0.997560  0.250000  1
  Pb  Pb11  1  0.405691  0.002440  0.750000  1
  Pb  Pb12  1  0.997560  0.594309  0.250000  1
  Pb  Pb13  1  0.002440  0.405691  0.750000  1
  Pb  Pb14  1  0.408486  0.408486  0.250000  1
  Pb  Pb15  1  0.591514  0.591514  0.750000  1
  C  C16  1  0.000000  0.000000  0.000000  1
  C  C17  1  0.000000  0.000000  0.500000  1
