# generated using pymatgen
data_TbY5(P2Ir3)6
_symmetry_space_group_name_H-M   'P 1'
_cell_length_a   3.99133600
_cell_length_b   11.20707200
_cell_length_c   12.78112200
_cell_angle_alpha   90.00000000
_cell_angle_beta   90.00000000
_cell_angle_gamma   90.00000000
_symmetry_Int_Tables_number   1
_chemical_formula_structural   TbY5(P2Ir3)6
_chemical_formula_sum   'Tb1 Y5 P12 Ir18'
_cell_volume   571.71479568
_cell_formula_units_Z   1
loop_
 _symmetry_equiv_pos_site_id
 _symmetry_equiv_pos_as_xyz
  1  'x, y, z'
loop_
 _atom_site_type_symbol
 _atom_site_label
 _atom_site_symmetry_multiplicity
 _atom_site_fract_x
 _atom_site_fract_y
 _atom_site_fract_z
 _atom_site_occupancy
  Tb  Tb0  1  0.500000  0.000000  0.476985  1
  Y  Y1  1  0.000000  0.500000  0.522742  1
  Y  Y2  1  0.500000  0.815493  0.204117  1
  Y  Y3  1  0.500000  0.184507  0.204117  1
  Y  Y4  1  0.000000  0.684524  0.795878  1
  Y  Y5  1  0.000000  0.315476  0.795878  1
  P  P6  1  0.500000  0.500000  0.876537  1
  P  P7  1  0.000000  0.000000  0.123412  1
  P  P8  1  0.500000  0.500000  0.359205  1
  P  P9  1  0.000000  0.000000  0.640895  1
  P  P10  1  0.500000  0.314849  0.618187  1
  P  P11  1  0.500000  0.685151  0.618187  1
  P  P12  1  0.000000  0.185119  0.381827  1
  P  P13  1  0.000000  0.814881  0.381827  1
  P  P14  1  0.500000  0.844733  0.893775  1
  P  P15  1  0.500000  0.155267  0.893775  1
  P  P16  1  0.000000  0.655241  0.106252  1
  P  P17  1  0.000000  0.344759  0.106252  1
  Ir  Ir18  1  0.500000  0.500000  0.180746  1
  Ir  Ir19  1  0.000000  0.000000  0.819393  1
  Ir  Ir20  1  0.500000  0.500000  0.699754  1
  Ir  Ir21  1  0.000000  0.000000  0.300123  1
  Ir  Ir22  1  0.000000  0.500000  0.973403  1
  Ir  Ir23  1  0.500000  0.000000  0.026498  1
  Ir  Ir24  1  0.500000  0.336383  0.999655  1
  Ir  Ir25  1  0.500000  0.663617  0.999655  1
  Ir  Ir26  1  0.000000  0.163676  0.000399  1
  Ir  Ir27  1  0.000000  0.836324  0.000399  1
  Ir  Ir28  1  0.500000  0.295177  0.430321  1
  Ir  Ir29  1  0.500000  0.704823  0.430321  1
  Ir  Ir30  1  0.000000  0.205083  0.569727  1
  Ir  Ir31  1  0.000000  0.794917  0.569727  1
  Ir  Ir32  1  0.500000  0.870116  0.713759  1
  Ir  Ir33  1  0.500000  0.129884  0.713759  1
  Ir  Ir34  1  0.000000  0.629965  0.286254  1
  Ir  Ir35  1  0.000000  0.370035  0.286254  1
