# generated using pymatgen
data_LiPr7ThZn7Rh8
_symmetry_space_group_name_H-M   'P 1'
_cell_length_a   4.05432400
_cell_length_b   7.35326480
_cell_length_c   16.66507721
_cell_angle_alpha   89.55885049
_cell_angle_beta   90.00000000
_cell_angle_gamma   90.00000000
_symmetry_Int_Tables_number   1
_chemical_formula_structural   LiPr7ThZn7Rh8
_chemical_formula_sum   'Li1 Pr7 Th1 Zn7 Rh8'
_cell_volume   496.81318713
_cell_formula_units_Z   1
loop_
 _symmetry_equiv_pos_site_id
 _symmetry_equiv_pos_as_xyz
  1  'x, y, z'
loop_
 _atom_site_type_symbol
 _atom_site_label
 _atom_site_symmetry_multiplicity
 _atom_site_fract_x
 _atom_site_fract_y
 _atom_site_fract_z
 _atom_site_occupancy
  Li  Li0  1  0.250000  0.997860  0.440815  1
  Pr  Pr1  1  0.750000  0.950065  0.282345  1
  Pr  Pr2  1  0.750000  0.828054  0.059448  1
  Pr  Pr3  1  0.250000  0.047105  0.716372  1
  Pr  Pr4  1  0.250000  0.169744  0.939250  1
  Pr  Pr5  1  0.250000  0.548338  0.784199  1
  Pr  Pr6  1  0.750000  0.338575  0.441690  1
  Pr  Pr7  1  0.250000  0.670331  0.561166  1
  Th  Th8  1  0.750000  0.447652  0.216277  1
  Zn  Zn9  1  0.750000  0.501303  0.940047  1
  Zn  Zn10  1  0.750000  0.003894  0.558152  1
  Zn  Zn11  1  0.250000  0.630704  0.352016  1
  Zn  Zn12  1  0.750000  0.376302  0.650696  1
  Zn  Zn13  1  0.750000  0.877390  0.849695  1
  Zn  Zn14  1  0.250000  0.497587  0.057795  1
  Zn  Zn15  1  0.250000  0.118783  0.150463  1
  Rh  Rh16  1  0.250000  0.248323  0.566053  1
  Rh  Rh17  1  0.750000  0.258561  0.069567  1
  Rh  Rh18  1  0.250000  0.258727  0.304760  1
  Rh  Rh19  1  0.750000  0.255696  0.813504  1
  Rh  Rh20  1  0.250000  0.745829  0.934216  1
  Rh  Rh21  1  0.750000  0.755213  0.687355  1
  Rh  Rh22  1  0.750000  0.752747  0.435709  1
  Rh  Rh23  1  0.250000  0.721220  0.188410  1
