# generated using pymatgen
data_Li4Pr3Si3Ge
_symmetry_space_group_name_H-M   'P 1'
_cell_length_a   4.44866421
_cell_length_b   6.79240212
_cell_length_c   8.43627998
_cell_angle_alpha   113.73900230
_cell_angle_beta   105.28751599
_cell_angle_gamma   89.99999812
_symmetry_Int_Tables_number   1
_chemical_formula_structural   Li4Pr3Si3Ge
_chemical_formula_sum   'Li4 Pr3 Si3 Ge1'
_cell_volume   223.46159928
_cell_formula_units_Z   1
loop_
 _symmetry_equiv_pos_site_id
 _symmetry_equiv_pos_as_xyz
  1  'x, y, z'
loop_
 _atom_site_type_symbol
 _atom_site_label
 _atom_site_symmetry_multiplicity
 _atom_site_fract_x
 _atom_site_fract_y
 _atom_site_fract_z
 _atom_site_occupancy
  Li  Li0  1  0.670620  0.979840  0.341238  1
  Li  Li1  1  0.329448  0.018639  0.658898  1
  Li  Li2  1  0.329448  0.640258  0.658898  1
  Li  Li3  1  0.670620  0.361398  0.341238  1
  Pr  Pr4  1  0.999393  0.999393  0.998786  1
  Pr  Pr5  1  0.131262  0.631262  0.262524  1
  Pr  Pr6  1  0.869293  0.369293  0.738586  1
  Si  Si7  1  0.500015  0.676543  0.000031  1
  Si  Si8  1  0.500015  0.323488  0.000031  1
  Si  Si9  1  0.787484  0.787484  0.574966  1
  Ge  Ge10  1  0.212402  0.212402  0.424804  1
