# generated using pymatgen
data_Tb7DyHo4GaNi4Sn
_symmetry_space_group_name_H-M   'P 1'
_cell_length_a   8.37303216
_cell_length_b   8.37316869
_cell_length_c   8.37266240
_cell_angle_alpha   112.86498557
_cell_angle_beta   109.54401185
_cell_angle_gamma   106.07728250
_symmetry_Int_Tables_number   1
_chemical_formula_structural   Tb7DyHo4GaNi4Sn
_chemical_formula_sum   'Tb7 Dy1 Ho4 Ga1 Ni4 Sn1'
_cell_volume   450.27807411
_cell_formula_units_Z   1
loop_
 _symmetry_equiv_pos_site_id
 _symmetry_equiv_pos_as_xyz
  1  'x, y, z'
loop_
 _atom_site_type_symbol
 _atom_site_label
 _atom_site_symmetry_multiplicity
 _atom_site_fract_x
 _atom_site_fract_y
 _atom_site_fract_z
 _atom_site_occupancy
  Tb  Tb0  1  0.427585  0.229545  0.197947  1
  Tb  Tb1  1  0.572586  0.770571  0.802096  1
  Tb  Tb2  1  0.031526  0.229522  0.802104  1
  Tb  Tb3  1  0.968403  0.770355  0.197935  1
  Tb  Tb4  1  0.180527  0.286648  0.467176  1
  Tb  Tb5  1  0.819367  0.713308  0.532677  1
  Tb  Tb6  1  0.180636  0.713368  0.894007  1
  Dy  Dy7  1  0.819407  0.286663  0.106068  1
  Ho  Ho8  1  0.322970  0.632515  0.309518  1
  Ho  Ho9  1  0.676976  0.367393  0.690550  1
  Ho  Ho10  1  0.323148  0.013551  0.690535  1
  Ho  Ho11  1  0.676992  0.986532  0.309514  1
  Ga  Ga12  1  0.999943  0.000174  0.000116  1
  Ni  Ni13  1  0.352387  0.999971  0.352370  1
  Ni  Ni14  1  0.647708  0.000169  0.647884  1
  Ni  Ni15  1  0.122249  0.622210  0.499739  1
  Ni  Ni16  1  0.877562  0.377508  0.499737  1
  Sn  Sn17  1  0.500028  0.499996  0.000027  1
