# generated using pymatgen
data_La4Al24Ir2Pt7
_symmetry_space_group_name_H-M   'P 1'
_cell_length_a   7.56143621
_cell_length_b   7.59264059
_cell_length_c   13.44180157
_cell_angle_alpha   84.70776704
_cell_angle_beta   100.80630511
_cell_angle_gamma   119.52004745
_symmetry_Int_Tables_number   1
_chemical_formula_structural   La4Al24Ir2Pt7
_chemical_formula_sum   'La4 Al24 Ir2 Pt7'
_cell_volume   659.62144164
_cell_formula_units_Z   1
loop_
 _symmetry_equiv_pos_site_id
 _symmetry_equiv_pos_as_xyz
  1  'x, y, z'
loop_
 _atom_site_type_symbol
 _atom_site_label
 _atom_site_symmetry_multiplicity
 _atom_site_fract_x
 _atom_site_fract_y
 _atom_site_fract_z
 _atom_site_occupancy
  La  La0  1  0.732377  0.998335  0.190852  1
  La  La1  1  0.267438  0.001637  0.809051  1
  La  La2  1  0.062061  0.668230  0.191596  1
  La  La3  1  0.937778  0.331754  0.808640  1
  Al  Al4  1  0.805503  0.865993  0.818235  1
  Al  Al5  1  0.195117  0.133298  0.181673  1
  Al  Al6  1  0.983302  0.669203  0.948700  1
  Al  Al7  1  0.022483  0.334304  0.051298  1
  Al  Al8  1  0.400400  0.663259  0.819308  1
  Al  Al9  1  0.598029  0.335581  0.182885  1
  Al  Al10  1  0.877555  0.665086  0.668654  1
  Al  Al11  1  0.122389  0.334698  0.330598  1
  Al  Al12  1  0.603171  0.463363  0.816714  1
  Al  Al13  1  0.397620  0.539354  0.180888  1
  Al  Al14  1  0.232701  0.343064  0.665329  1
  Al  Al15  1  0.767516  0.656852  0.334639  1
  Al  Al16  1  0.854172  0.333806  0.556910  1
  Al  Al17  1  0.185694  0.999339  0.557150  1
  Al  Al18  1  0.815094  0.000623  0.442923  1
  Al  Al19  1  0.348009  0.998171  0.050879  1
  Al  Al20  1  0.648409  0.995996  0.949249  1
  Al  Al21  1  0.555279  0.989749  0.668842  1
  Al  Al22  1  0.445057  0.009961  0.331686  1
  Al  Al23  1  0.521821  0.669414  0.558261  1
  Al  Al24  1  0.478059  0.330769  0.441533  1
  Al  Al25  1  0.679375  0.669713  0.037775  1
  Al  Al26  1  0.317338  0.333674  0.962260  1
  Al  Al27  1  0.145946  0.665318  0.443463  1
  Ir  Ir28  1  0.329353  0.670129  0.000016  1
  Ir  Ir29  1  0.999721  0.000235  0.000002  1
  Pt  Pt30  1  0.546339  0.327235  0.634473  1
  Pt  Pt31  1  0.453602  0.672300  0.365034  1
  Pt  Pt32  1  0.884692  0.005613  0.635939  1
  Pt  Pt33  1  0.115610  0.994386  0.364103  1
  Pt  Pt34  1  0.670574  0.329845  0.999981  1
  Pt  Pt35  1  0.206086  0.667110  0.636320  1
  Pt  Pt36  1  0.794327  0.332600  0.364145  1
