# generated using pymatgen
data_Hf8Ti12Ge9As7
_symmetry_space_group_name_H-M   'P 1'
_cell_length_a   6.78263282
_cell_length_b   6.85300802
_cell_length_c   13.11075740
_cell_angle_alpha   89.97262991
_cell_angle_beta   90.00780316
_cell_angle_gamma   90.05601999
_symmetry_Int_Tables_number   1
_chemical_formula_structural   Hf8Ti12Ge9As7
_chemical_formula_sum   'Hf8 Ti12 Ge9 As7'
_cell_volume   609.40647940
_cell_formula_units_Z   1
loop_
 _symmetry_equiv_pos_site_id
 _symmetry_equiv_pos_as_xyz
  1  'x, y, z'
loop_
 _atom_site_type_symbol
 _atom_site_label
 _atom_site_symmetry_multiplicity
 _atom_site_fract_x
 _atom_site_fract_y
 _atom_site_fract_z
 _atom_site_occupancy
  Hf  Hf0  1  0.484857  0.674254  0.591388  1
  Hf  Hf1  1  0.984464  0.825705  0.908298  1
  Hf  Hf2  1  0.514342  0.323683  0.092466  1
  Hf  Hf3  1  0.014537  0.176154  0.409195  1
  Hf  Hf4  1  0.513086  0.322980  0.408259  1
  Hf  Hf5  1  0.013699  0.177664  0.090245  1
  Hf  Hf6  1  0.485465  0.675210  0.909045  1
  Hf  Hf7  1  0.985190  0.824610  0.591354  1
  Ti  Ti8  1  0.661619  0.162220  0.623162  1
  Ti  Ti9  1  0.161855  0.337969  0.876608  1
  Ti  Ti10  1  0.340069  0.836641  0.122918  1
  Ti  Ti11  1  0.838595  0.663056  0.376185  1
  Ti  Ti12  1  0.342559  0.835986  0.376519  1
  Ti  Ti13  1  0.841079  0.663378  0.124317  1
  Ti  Ti14  1  0.660261  0.162509  0.876157  1
  Ti  Ti15  1  0.160212  0.337633  0.623975  1
  Ti  Ti16  1  0.829645  0.491999  0.749773  1
  Ti  Ti17  1  0.329587  0.008455  0.750154  1
  Ti  Ti18  1  0.171756  0.507474  0.249965  1
  Ti  Ti19  1  0.668976  0.993041  0.250059  1
  Ge  Ge20  1  0.311269  0.040465  0.541199  1
  Ge  Ge21  1  0.811046  0.459539  0.959010  1
  Ge  Ge22  1  0.689789  0.959517  0.041249  1
  Ge  Ge23  1  0.188687  0.541146  0.458702  1
  Ge  Ge24  1  0.040752  0.879891  0.250234  1
  Ge  Ge25  1  0.682788  0.848686  0.749846  1
  Ge  Ge26  1  0.183261  0.651487  0.750137  1
  Ge  Ge27  1  0.310820  0.146152  0.249935  1
  Ge  Ge28  1  0.817454  0.348293  0.250204  1
  As  As29  1  0.687187  0.959377  0.459436  1
  As  As30  1  0.186271  0.541318  0.040572  1
  As  As31  1  0.314035  0.040709  0.959425  1
  As  As32  1  0.813795  0.459613  0.540283  1
  As  As33  1  0.460489  0.376401  0.749696  1
  As  As34  1  0.960107  0.123681  0.750315  1
  As  As35  1  0.540396  0.623103  0.249716  1
