# generated using pymatgen
data_MgSn3Ru4
_symmetry_space_group_name_H-M   'P 1'
_cell_length_a   7.85587038
_cell_length_b   7.85587012
_cell_length_c   7.85586851
_cell_angle_alpha   33.45506999
_cell_angle_beta   33.45507133
_cell_angle_gamma   33.45507328
_symmetry_Int_Tables_number   1
_chemical_formula_structural   MgSn3Ru4
_chemical_formula_sum   'Mg1 Sn3 Ru4'
_cell_volume   131.22056571
_cell_formula_units_Z   1
loop_
 _symmetry_equiv_pos_site_id
 _symmetry_equiv_pos_as_xyz
  1  'x, y, z'
loop_
 _atom_site_type_symbol
 _atom_site_label
 _atom_site_symmetry_multiplicity
 _atom_site_fract_x
 _atom_site_fract_y
 _atom_site_fract_z
 _atom_site_occupancy
  Mg  Mg0  1  0.000000  0.000000  0.000000  1
  Sn  Sn1  1  0.500000  0.500000  0.500000  1
  Sn  Sn2  1  0.255332  0.255332  0.255332  1
  Sn  Sn3  1  0.744668  0.744668  0.744668  1
  Ru  Ru4  1  0.622313  0.622313  0.622313  1
  Ru  Ru5  1  0.128514  0.128514  0.128514  1
  Ru  Ru6  1  0.871486  0.871486  0.871486  1
  Ru  Ru7  1  0.377687  0.377687  0.377687  1
