# generated using pymatgen
data_NdGd(CdIn)2
_symmetry_space_group_name_H-M   'P 1'
_cell_length_a   4.99064300
_cell_length_b   4.99064135
_cell_length_c   7.34650900
_cell_angle_alpha   90.00000000
_cell_angle_beta   90.00000000
_cell_angle_gamma   120.00000432
_symmetry_Int_Tables_number   1
_chemical_formula_structural   NdGd(CdIn)2
_chemical_formula_sum   'Nd1 Gd1 Cd2 In2'
_cell_volume   158.46176626
_cell_formula_units_Z   1
loop_
 _symmetry_equiv_pos_site_id
 _symmetry_equiv_pos_as_xyz
  1  'x, y, z'
loop_
 _atom_site_type_symbol
 _atom_site_label
 _atom_site_symmetry_multiplicity
 _atom_site_fract_x
 _atom_site_fract_y
 _atom_site_fract_z
 _atom_site_occupancy
  Nd  Nd0  1  0.000000  0.000000  0.500000  1
  Gd  Gd1  1  0.000000  0.000000  0.000000  1
  Cd  Cd2  1  0.333333  0.666667  0.771109  1
  Cd  Cd3  1  0.666667  0.333333  0.228891  1
  In  In4  1  0.333333  0.666667  0.238512  1
  In  In5  1  0.666667  0.333333  0.761488  1
