# generated using pymatgen
data_Tl3Re2NCl10
_symmetry_space_group_name_H-M   'P 1'
_cell_length_a   6.99665100
_cell_length_b   6.99665100
_cell_length_c   18.04885200
_cell_angle_alpha   90.00000000
_cell_angle_beta   90.00000000
_cell_angle_gamma   90.00000000
_symmetry_Int_Tables_number   1
_chemical_formula_structural   Tl3Re2NCl10
_chemical_formula_sum   'Tl6 Re4 N2 Cl20'
_cell_volume   883.54771196
_cell_formula_units_Z   2
loop_
 _symmetry_equiv_pos_site_id
 _symmetry_equiv_pos_as_xyz
  1  'x, y, z'
loop_
 _atom_site_type_symbol
 _atom_site_label
 _atom_site_symmetry_multiplicity
 _atom_site_fract_x
 _atom_site_fract_y
 _atom_site_fract_z
 _atom_site_occupancy
  Tl  Tl0  1  0.500000  0.500000  0.000000  1
  Tl  Tl1  1  0.000000  0.000000  0.500000  1
  Tl  Tl2  1  0.000000  0.500000  0.250000  1
  Tl  Tl3  1  0.500000  0.000000  0.750000  1
  Tl  Tl4  1  0.500000  0.000000  0.250000  1
  Tl  Tl5  1  0.000000  0.500000  0.750000  1
  Re  Re6  1  0.500000  0.500000  0.399821  1
  Re  Re7  1  0.000000  0.000000  0.899821  1
  Re  Re8  1  0.500000  0.500000  0.600179  1
  Re  Re9  1  0.000000  0.000000  0.100179  1
  N  N10  1  0.500000  0.500000  0.500000  1
  N  N11  1  0.000000  0.000000  0.000000  1
  Cl  Cl12  1  0.778444  0.690820  0.392491  1
  Cl  Cl13  1  0.221556  0.309180  0.392491  1
  Cl  Cl14  1  0.721556  0.190820  0.892491  1
  Cl  Cl15  1  0.278444  0.809180  0.892491  1
  Cl  Cl16  1  0.690820  0.221556  0.392491  1
  Cl  Cl17  1  0.309180  0.778444  0.392491  1
  Cl  Cl18  1  0.190820  0.278444  0.892491  1
  Cl  Cl19  1  0.809180  0.721556  0.892491  1
  Cl  Cl20  1  0.221556  0.309180  0.607509  1
  Cl  Cl21  1  0.778444  0.690820  0.607509  1
  Cl  Cl22  1  0.278444  0.809180  0.107509  1
  Cl  Cl23  1  0.721556  0.190820  0.107509  1
  Cl  Cl24  1  0.309180  0.778444  0.607509  1
  Cl  Cl25  1  0.690820  0.221556  0.607509  1
  Cl  Cl26  1  0.809180  0.721556  0.107509  1
  Cl  Cl27  1  0.190820  0.278444  0.107509  1
  Cl  Cl28  1  0.500000  0.500000  0.262685  1
  Cl  Cl29  1  0.000000  0.000000  0.762685  1
  Cl  Cl30  1  0.500000  0.500000  0.737315  1
  Cl  Cl31  1  0.000000  0.000000  0.237315  1
