# generated using pymatgen
data_Gd3(SiRh)2
_symmetry_space_group_name_H-M   'P 1'
_cell_length_a   5.51339500
_cell_length_b   7.74175000
_cell_length_c   12.90887100
_cell_angle_alpha   90.00000000
_cell_angle_beta   90.00000000
_cell_angle_gamma   90.00000000
_symmetry_Int_Tables_number   1
_chemical_formula_structural   Gd3(SiRh)2
_chemical_formula_sum   'Gd12 Si8 Rh8'
_cell_volume   550.99354584
_cell_formula_units_Z   4
loop_
 _symmetry_equiv_pos_site_id
 _symmetry_equiv_pos_as_xyz
  1  'x, y, z'
loop_
 _atom_site_type_symbol
 _atom_site_label
 _atom_site_symmetry_multiplicity
 _atom_site_fract_x
 _atom_site_fract_y
 _atom_site_fract_z
 _atom_site_occupancy
  Gd  Gd0  1  0.639411  0.246510  0.250000  1
  Gd  Gd1  1  0.360589  0.753490  0.750000  1
  Gd  Gd2  1  0.360589  0.746510  0.250000  1
  Gd  Gd3  1  0.639411  0.253490  0.750000  1
  Gd  Gd4  1  0.138996  0.390484  0.101904  1
  Gd  Gd5  1  0.861004  0.609516  0.898096  1
  Gd  Gd6  1  0.861004  0.609516  0.601904  1
  Gd  Gd7  1  0.861004  0.890484  0.398096  1
  Gd  Gd8  1  0.138996  0.390484  0.398096  1
  Gd  Gd9  1  0.138996  0.109516  0.601904  1
  Gd  Gd10  1  0.138996  0.109516  0.898096  1
  Gd  Gd11  1  0.861004  0.890484  0.101904  1
  Si  Si12  1  0.151070  0.099968  0.250000  1
  Si  Si13  1  0.848930  0.900032  0.750000  1
  Si  Si14  1  0.848930  0.599968  0.250000  1
  Si  Si15  1  0.151070  0.400032  0.750000  1
  Si  Si16  1  0.628815  0.250000  0.000000  1
  Si  Si17  1  0.371185  0.750000  0.000000  1
  Si  Si18  1  0.371185  0.750000  0.500000  1
  Si  Si19  1  0.628815  0.250000  0.500000  1
  Rh  Rh20  1  0.373236  0.033163  0.091043  1
  Rh  Rh21  1  0.626764  0.966837  0.908957  1
  Rh  Rh22  1  0.626764  0.966837  0.591043  1
  Rh  Rh23  1  0.626764  0.533163  0.408957  1
  Rh  Rh24  1  0.373236  0.033163  0.408957  1
  Rh  Rh25  1  0.373236  0.466837  0.591043  1
  Rh  Rh26  1  0.373236  0.466837  0.908957  1
  Rh  Rh27  1  0.626764  0.533163  0.091043  1
