# generated using pymatgen
data_Nb12CrFe11N4
_symmetry_space_group_name_H-M   'P 1'
_cell_length_a   8.01426865
_cell_length_b   8.01426933
_cell_length_c   8.01426906
_cell_angle_alpha   60.01134991
_cell_angle_beta   60.01135008
_cell_angle_gamma   60.01135082
_symmetry_Int_Tables_number   1
_chemical_formula_structural   Nb12CrFe11N4
_chemical_formula_sum   'Nb12 Cr1 Fe11 N4'
_cell_volume   364.07301396
_cell_formula_units_Z   1
loop_
 _symmetry_equiv_pos_site_id
 _symmetry_equiv_pos_as_xyz
  1  'x, y, z'
loop_
 _atom_site_type_symbol
 _atom_site_label
 _atom_site_symmetry_multiplicity
 _atom_site_fract_x
 _atom_site_fract_y
 _atom_site_fract_z
 _atom_site_occupancy
  Nb  Nb0  1  0.803012  0.803012  0.195261  1
  Nb  Nb1  1  0.199435  0.199435  0.800856  1
  Nb  Nb2  1  0.803012  0.195261  0.803012  1
  Nb  Nb3  1  0.199435  0.800856  0.199435  1
  Nb  Nb4  1  0.195261  0.803012  0.803012  1
  Nb  Nb5  1  0.800856  0.199435  0.199435  1
  Nb  Nb6  1  0.446988  0.446988  0.054739  1
  Nb  Nb7  1  0.050565  0.050565  0.449144  1
  Nb  Nb8  1  0.446988  0.054739  0.446988  1
  Nb  Nb9  1  0.050565  0.449144  0.050565  1
  Nb  Nb10  1  0.054739  0.446988  0.446988  1
  Nb  Nb11  1  0.449144  0.050565  0.050565  1
  Cr  Cr12  1  0.625000  0.625000  0.625000  1
  Fe  Fe13  1  0.125000  0.625000  0.625000  1
  Fe  Fe14  1  0.625000  0.125000  0.625000  1
  Fe  Fe15  1  0.625000  0.625000  0.125000  1
  Fe  Fe16  1  0.728724  0.425029  0.425029  1
  Fe  Fe17  1  0.425029  0.728724  0.425029  1
  Fe  Fe18  1  0.425029  0.425029  0.728724  1
  Fe  Fe19  1  0.425216  0.425216  0.425216  1
  Fe  Fe20  1  0.521276  0.824971  0.824971  1
  Fe  Fe21  1  0.824971  0.521276  0.824971  1
  Fe  Fe22  1  0.824971  0.824971  0.521276  1
  Fe  Fe23  1  0.824784  0.824784  0.824784  1
  N  N24  1  0.625000  0.125000  0.125000  1
  N  N25  1  0.125000  0.625000  0.125000  1
  N  N26  1  0.125000  0.125000  0.625000  1
  N  N27  1  0.125000  0.125000  0.125000  1
