# generated using pymatgen
data_HfMg3(B4Ru5)2
_symmetry_space_group_name_H-M   'P 1'
_cell_length_a   2.99021000
_cell_length_b   8.42794705
_cell_length_c   10.07972532
_cell_angle_alpha   90.44599201
_cell_angle_beta   90.00000000
_cell_angle_gamma   90.00000000
_symmetry_Int_Tables_number   1
_chemical_formula_structural   HfMg3(B4Ru5)2
_chemical_formula_sum   'Hf1 Mg3 B8 Ru10'
_cell_volume   254.01480384
_cell_formula_units_Z   1
loop_
 _symmetry_equiv_pos_site_id
 _symmetry_equiv_pos_as_xyz
  1  'x, y, z'
loop_
 _atom_site_type_symbol
 _atom_site_label
 _atom_site_symmetry_multiplicity
 _atom_site_fract_x
 _atom_site_fract_y
 _atom_site_fract_z
 _atom_site_occupancy
  Hf  Hf0  1  0.500000  0.653491  0.820356  1
  Mg  Mg1  1  0.500000  0.349993  0.188550  1
  Mg  Mg2  1  0.500000  0.152831  0.675908  1
  Mg  Mg3  1  0.500000  0.851637  0.313730  1
  B  B4  1  0.500000  0.854743  0.597559  1
  B  B5  1  0.500000  0.145150  0.394969  1
  B  B6  1  0.500000  0.347560  0.899147  1
  B  B7  1  0.500000  0.647301  0.107166  1
  B  B8  1  0.500000  0.962950  0.910177  1
  B  B9  1  0.500000  0.041084  0.088914  1
  B  B10  1  0.500000  0.458538  0.589218  1
  B  B11  1  0.500000  0.536292  0.411781  1
  Ru  Ru12  1  0.000000  0.396688  0.739674  1
  Ru  Ru13  1  0.000000  0.603648  0.264433  1
  Ru  Ru14  1  0.000000  0.902551  0.760314  1
  Ru  Ru15  1  0.000000  0.103788  0.236179  1
  Ru  Ru16  1  0.000000  0.998802  0.497843  1
  Ru  Ru17  1  0.000000  0.497682  0.001813  1
  Ru  Ru18  1  0.000000  0.656828  0.552873  1
  Ru  Ru19  1  0.000000  0.343252  0.454393  1
  Ru  Ru20  1  0.000000  0.155527  0.951931  1
  Ru  Ru21  1  0.000000  0.839663  0.043071  1
