# generated using pymatgen
data_Sr3Y2Ti2GeO12
_symmetry_space_group_name_H-M   'P 1'
_cell_length_a   11.55917724
_cell_length_b   11.55881070
_cell_length_c   11.55928721
_cell_angle_alpha   109.49374624
_cell_angle_beta   109.45688928
_cell_angle_gamma   109.45757320
_symmetry_Int_Tables_number   1
_chemical_formula_structural   Sr3Y2Ti2GeO12
_chemical_formula_sum   'Sr12 Y8 Ti8 Ge4 O48'
_cell_volume   1188.99059373
_cell_formula_units_Z   4
loop_
 _symmetry_equiv_pos_site_id
 _symmetry_equiv_pos_as_xyz
  1  'x, y, z'
loop_
 _atom_site_type_symbol
 _atom_site_label
 _atom_site_symmetry_multiplicity
 _atom_site_fract_x
 _atom_site_fract_y
 _atom_site_fract_z
 _atom_site_occupancy
  Sr  Sr0  1  0.749956  0.125772  0.375184  1
  Sr  Sr1  1  0.250042  0.375099  0.123940  1
  Sr  Sr2  1  0.124355  0.250214  0.374342  1
  Sr  Sr3  1  0.374958  0.749981  0.124746  1
  Sr  Sr4  1  0.750026  0.624538  0.874486  1
  Sr  Sr5  1  0.124603  0.374822  0.750069  1
  Sr  Sr6  1  0.625425  0.874845  0.750311  1
  Sr  Sr7  1  0.249943  0.875240  0.625704  1
  Sr  Sr8  1  0.874556  0.624241  0.250572  1
  Sr  Sr9  1  0.624968  0.249436  0.875276  1
  Sr  Sr10  1  0.875070  0.749697  0.625636  1
  Sr  Sr11  1  0.376162  0.126126  0.249781  1
  Y  Y12  1  0.999537  0.000610  0.999207  1
  Y  Y13  1  0.500897  0.002729  0.001369  1
  Y  Y14  1  0.999471  0.498694  0.999039  1
  Y  Y15  1  0.499670  0.498162  0.000539  1
  Y  Y16  1  0.997131  0.498575  0.498029  1
  Y  Y17  1  0.500875  0.001288  0.500887  1
  Y  Y18  1  0.501330  0.498914  0.499441  1
  Y  Y19  1  0.001100  0.001008  0.501521  1
  Ti  Ti20  1  0.124884  0.875032  0.249560  1
  Ti  Ti21  1  0.874977  0.125038  0.750116  1
  Ti  Ti22  1  0.249733  0.624521  0.374959  1
  Ti  Ti23  1  0.375385  0.250413  0.625223  1
  Ti  Ti24  1  0.749620  0.874922  0.124957  1
  Ti  Ti25  1  0.125229  0.750185  0.874823  1
  Ti  Ti26  1  0.374548  0.624982  0.749829  1
  Ti  Ti27  1  0.625220  0.749889  0.375196  1
  Ge  Ge28  1  0.874668  0.249993  0.124707  1
  Ge  Ge29  1  0.250137  0.125056  0.875355  1
  Ge  Ge30  1  0.750275  0.374970  0.625017  1
  Ge  Ge31  1  0.625039  0.374996  0.249989  1
  O  O32  1  0.412025  0.806748  0.790965  1
  O  O33  1  0.880489  0.391492  0.089591  1
  O  O34  1  0.108220  0.989395  0.699148  1
  O  O35  1  0.515022  0.620325  0.709552  1
  O  O36  1  0.694302  0.089058  0.711024  1
  O  O37  1  0.621769  0.710200  0.516356  1
  O  O38  1  0.619666  0.409536  0.108372  1
  O  O39  1  0.710112  0.511026  0.619641  1
  O  O40  1  0.800972  0.511276  0.391683  1
  O  O41  1  0.984381  0.789875  0.879073  1
  O  O42  1  0.789890  0.878377  0.984139  1
  O  O43  1  0.709608  0.693997  0.089149  1
  O  O44  1  0.410644  0.105377  0.621598  1
  O  O45  1  0.394543  0.805447  0.515269  1
  O  O46  1  0.087961  0.709584  0.693275  1
  O  O47  1  0.105165  0.621343  0.411453  1
  O  O48  1  0.516908  0.394634  0.806510  1
  O  O49  1  0.089382  0.879070  0.394642  1
  O  O50  1  0.983685  0.693467  0.105328  1
  O  O51  1  0.193120  0.484249  0.605271  1
  O  O52  1  0.698292  0.108448  0.988988  1
  O  O53  1  0.790588  0.409027  0.801207  1
  O  O54  1  0.391775  0.090517  0.880754  1
  O  O55  1  0.878172  0.983346  0.788762  1
  O  O56  1  0.590608  0.199006  0.210455  1
  O  O57  1  0.121346  0.605633  0.911205  1
  O  O58  1  0.894513  0.015535  0.305757  1
  O  O59  1  0.488955  0.380935  0.289896  1
  O  O60  1  0.306053  0.911971  0.290135  1
  O  O61  1  0.378389  0.289328  0.483450  1
  O  O62  1  0.378743  0.587849  0.894116  1
  O  O63  1  0.290750  0.483760  0.378268  1
  O  O64  1  0.121607  0.016278  0.209624  1
  O  O65  1  0.605424  0.912142  0.121638  1
  O  O66  1  0.210007  0.589096  0.194491  1
  O  O67  1  0.194644  0.210913  0.589009  1
  O  O68  1  0.306106  0.894955  0.016011  1
  O  O69  1  0.016925  0.305559  0.894760  1
  O  O70  1  0.910255  0.121312  0.604896  1
  O  O71  1  0.483677  0.605236  0.194427  1
  O  O72  1  0.891778  0.380582  0.590026  1
  O  O73  1  0.909438  0.290145  0.300989  1
  O  O74  1  0.608295  0.198902  0.489221  1
  O  O75  1  0.589755  0.895101  0.379316  1
  O  O76  1  0.290135  0.300950  0.909154  1
  O  O77  1  0.209243  0.119455  0.011163  1
  O  O78  1  0.010433  0.209507  0.118497  1
  O  O79  1  0.806439  0.790047  0.411937  1
