# generated using pymatgen
data_CdGa4GeBr16
_symmetry_space_group_name_H-M   'P 1'
_cell_length_a   7.62161236
_cell_length_b   7.69198636
_cell_length_c   14.11769853
_cell_angle_alpha   87.58892800
_cell_angle_beta   89.46333175
_cell_angle_gamma   90.33468333
_symmetry_Int_Tables_number   1
_chemical_formula_structural   CdGa4GeBr16
_chemical_formula_sum   'Cd1 Ga4 Ge1 Br16'
_cell_volume   826.86976670
_cell_formula_units_Z   1
loop_
 _symmetry_equiv_pos_site_id
 _symmetry_equiv_pos_as_xyz
  1  'x, y, z'
loop_
 _atom_site_type_symbol
 _atom_site_label
 _atom_site_symmetry_multiplicity
 _atom_site_fract_x
 _atom_site_fract_y
 _atom_site_fract_z
 _atom_site_occupancy
  Cd  Cd0  1  0.244954  0.077596  0.309224  1
  Ga  Ga1  1  0.939497  0.221504  0.577358  1
  Ga  Ga2  1  0.067633  0.220087  0.078425  1
  Ga  Ga3  1  0.569665  0.639919  0.778090  1
  Ga  Ga4  1  0.418588  0.638113  0.276721  1
  Ge  Ge5  1  0.758770  0.067004  0.807929  1
  Br  Br6  1  0.426509  0.615439  0.636763  1
  Br  Br7  1  0.577899  0.612618  0.139333  1
  Br  Br8  1  0.871288  0.742088  0.760181  1
  Br  Br9  1  0.122398  0.734235  0.261482  1
  Br  Br10  1  0.933626  0.485695  0.496500  1
  Br  Br11  1  0.063973  0.484748  0.997319  1
  Br  Br12  1  0.920496  0.996094  0.998551  1
  Br  Br13  1  0.084814  0.998875  0.494324  1
  Br  Br14  1  0.647343  0.119231  0.621970  1
  Br  Br15  1  0.359545  0.124477  0.117419  1
  Br  Br16  1  0.570794  0.381775  0.875739  1
  Br  Br17  1  0.424359  0.373823  0.375195  1
  Br  Br18  1  0.451193  0.874331  0.865605  1
  Br  Br19  1  0.535000  0.872344  0.367783  1
  Br  Br20  1  0.942205  0.229375  0.236688  1
  Br  Br21  1  0.069452  0.225428  0.731806  1
