# generated using pymatgen
data_Tb2Al5Ga4Ir3
_symmetry_space_group_name_H-M   'P 1'
_cell_length_a   7.55942872
_cell_length_b   7.55430448
_cell_length_c   9.58967497
_cell_angle_alpha   90.08975592
_cell_angle_beta   89.86355284
_cell_angle_gamma   119.64995117
_symmetry_Int_Tables_number   1
_chemical_formula_structural   Tb2Al5Ga4Ir3
_chemical_formula_sum   'Tb4 Al10 Ga8 Ir6'
_cell_volume   475.92423649
_cell_formula_units_Z   2
loop_
 _symmetry_equiv_pos_site_id
 _symmetry_equiv_pos_as_xyz
  1  'x, y, z'
loop_
 _atom_site_type_symbol
 _atom_site_label
 _atom_site_symmetry_multiplicity
 _atom_site_fract_x
 _atom_site_fract_y
 _atom_site_fract_z
 _atom_site_occupancy
  Tb  Tb0  1  0.996127  0.667129  0.246113  1
  Tb  Tb1  1  0.003873  0.332871  0.753887  1
  Tb  Tb2  1  0.671874  0.998210  0.249010  1
  Tb  Tb3  1  0.328126  0.001790  0.750990  1
  Al  Al4  1  0.997926  0.665451  0.570462  1
  Al  Al5  1  0.334535  0.001038  0.428014  1
  Al  Al6  1  0.002074  0.334549  0.429538  1
  Al  Al7  1  0.665465  0.998962  0.571986  1
  Al  Al8  1  0.664234  0.996895  0.926811  1
  Al  Al9  1  0.335766  0.003105  0.073189  1
  Al  Al10  1  0.333584  0.333517  0.554321  1
  Al  Al11  1  0.666416  0.666483  0.445679  1
  Al  Al12  1  0.666682  0.666106  0.053586  1
  Al  Al13  1  0.333318  0.333894  0.946414  1
  Ga  Ga14  1  0.129645  0.126756  0.250546  1
  Ga  Ga15  1  0.870355  0.873244  0.749454  1
  Ga  Ga16  1  0.999495  0.333676  0.078825  1
  Ga  Ga17  1  0.000505  0.666324  0.921175  1
  Ga  Ga18  1  0.340645  0.548169  0.250701  1
  Ga  Ga19  1  0.659355  0.451831  0.749299  1
  Ga  Ga20  1  0.546351  0.339657  0.250256  1
  Ga  Ga21  1  0.453649  0.660343  0.749744  1
  Ir  Ir22  1  0.666695  0.325951  0.999281  1
  Ir  Ir23  1  0.333305  0.674049  0.000719  1
  Ir  Ir24  1  0.328304  0.671542  0.500550  1
  Ir  Ir25  1  0.671696  0.328458  0.499450  1
  Ir  Ir26  1  0.000000  0.000000  0.000000  1
  Ir  Ir27  1  0.000000  0.000000  0.500000  1
