# generated using pymatgen
data_KRbHo4(CuSe4)2
_symmetry_space_group_name_H-M   'P 1'
_cell_length_a   7.37574763
_cell_length_b   4.12275006
_cell_length_c   14.40454800
_cell_angle_alpha   90.00000000
_cell_angle_beta   90.00000000
_cell_angle_gamma   106.22920354
_symmetry_Int_Tables_number   1
_chemical_formula_structural   KRbHo4(CuSe4)2
_chemical_formula_sum   'K1 Rb1 Ho4 Cu2 Se8'
_cell_volume   420.56428741
_cell_formula_units_Z   1
loop_
 _symmetry_equiv_pos_site_id
 _symmetry_equiv_pos_as_xyz
  1  'x, y, z'
loop_
 _atom_site_type_symbol
 _atom_site_label
 _atom_site_symmetry_multiplicity
 _atom_site_fract_x
 _atom_site_fract_y
 _atom_site_fract_z
 _atom_site_occupancy
  K  K0  1  0.774451  0.887227  0.750000  1
  Rb  Rb1  1  0.224504  0.112252  0.250000  1
  Ho  Ho2  1  0.733335  0.366668  0.063562  1
  Ho  Ho3  1  0.733335  0.366668  0.436438  1
  Ho  Ho4  1  0.268003  0.634002  0.565313  1
  Ho  Ho5  1  0.268003  0.634002  0.934687  1
  Cu  Cu6  1  0.678913  0.839457  0.250000  1
  Cu  Cu7  1  0.320322  0.160162  0.750000  1
  Se  Se8  1  0.000772  0.000386  0.999832  1
  Se  Se9  1  0.476510  0.738256  0.107863  1
  Se  Se10  1  0.861202  0.430602  0.250000  1
  Se  Se11  1  0.476510  0.738256  0.392138  1
  Se  Se12  1  0.000772  0.000386  0.500168  1
  Se  Se13  1  0.526473  0.263237  0.610799  1
  Se  Se14  1  0.130420  0.565211  0.750000  1
  Se  Se15  1  0.526473  0.263237  0.889200  1
