# generated using pymatgen
data_PaSF34
_symmetry_space_group_name_H-M   'P 1'
_cell_length_a   8.68140265
_cell_length_b   8.19160707
_cell_length_c   9.94800200
_cell_angle_alpha   84.27625039
_cell_angle_beta   88.32225512
_cell_angle_gamma   68.24979189
_symmetry_Int_Tables_number   1
_chemical_formula_structural   PaSF34
_chemical_formula_sum   'Pa1 S1 F34'
_cell_volume   653.78545908
_cell_formula_units_Z   1
loop_
 _symmetry_equiv_pos_site_id
 _symmetry_equiv_pos_as_xyz
  1  'x, y, z'
loop_
 _atom_site_type_symbol
 _atom_site_label
 _atom_site_symmetry_multiplicity
 _atom_site_fract_x
 _atom_site_fract_y
 _atom_site_fract_z
 _atom_site_occupancy
  Pa  Pa0  1  0.125339  0.746514  0.243546  1
  S  S1  1  0.870130  0.250046  0.760939  1
  F  F2  1  0.619156  0.205532  0.479368  1
  F  F3  1  0.404834  0.781987  0.528201  1
  F  F4  1  0.801318  0.723523  0.718887  1
  F  F5  1  0.187343  0.286668  0.256769  1
  F  F6  1  0.079288  0.745647  0.858180  1
  F  F7  1  0.902975  0.236243  0.138391  1
  F  F8  1  0.554921  0.142177  0.373789  1
  F  F9  1  0.436853  0.864020  0.639353  1
  F  F10  1  0.683346  0.317319  0.705188  1
  F  F11  1  0.362827  0.665510  0.328760  1
  F  F12  1  0.922538  0.089888  0.668903  1
  F  F13  1  0.048692  0.934103  0.383310  1
  F  F14  1  0.913972  0.369278  0.640692  1
  F  F15  1  0.081220  0.585512  0.402017  1
  F  F16  1  0.860538  0.805018  0.606876  1
  F  F17  1  0.155542  0.191877  0.375527  1
  F  F18  1  0.817829  0.410975  0.853110  1
  F  F19  1  0.198894  0.548564  0.111868  1
  F  F20  1  0.220945  0.701540  0.773674  1
  F  F21  1  0.770591  0.301517  0.230578  1
  F  F22  1  0.897584  0.829971  0.142782  1
  F  F23  1  0.055483  0.184060  0.817617  1
  F  F24  1  0.825024  0.130997  0.880901  1
  F  F25  1  0.184922  0.908785  0.093354  1
  F  F26  1  0.501343  0.595329  0.994390  1
  F  F27  1  0.516951  0.415792  0.997551  1
  F  F28  1  0.433301  0.119618  0.877452  1
  F  F29  1  0.570368  0.901460  0.125678  1
  F  F30  1  0.292061  0.258021  0.605118  1
  F  F31  1  0.708666  0.735557  0.394106  1
  F  F32  1  0.262119  0.411082  0.674127  1
  F  F33  1  0.735654  0.584329  0.323383  1
  F  F34  1  0.554974  0.966031  0.829163  1
  F  F35  1  0.442461  0.055514  0.166453  1
