# generated using pymatgen
data_La8Dy3Lu9Si16
_symmetry_space_group_name_H-M   'P 1'
_cell_length_a   7.77275273
_cell_length_b   7.76699957
_cell_length_c   14.31868900
_cell_angle_alpha   89.83155739
_cell_angle_beta   89.87089784
_cell_angle_gamma   90.00248266
_symmetry_Int_Tables_number   1
_chemical_formula_structural   La8Dy3Lu9Si16
_chemical_formula_sum   'La8 Dy3 Lu9 Si16'
_cell_volume   864.42717228
_cell_formula_units_Z   1
loop_
 _symmetry_equiv_pos_site_id
 _symmetry_equiv_pos_as_xyz
  1  'x, y, z'
loop_
 _atom_site_type_symbol
 _atom_site_label
 _atom_site_symmetry_multiplicity
 _atom_site_fract_x
 _atom_site_fract_y
 _atom_site_fract_z
 _atom_site_occupancy
  La  La0  1  0.990566  0.644770  0.038656  1
  La  La1  1  0.008912  0.354722  0.542169  1
  La  La2  1  0.646782  0.992207  0.958882  1
  La  La3  1  0.147461  0.508768  0.788868  1
  La  La4  1  0.855661  0.491910  0.291060  1
  La  La5  1  0.506687  0.145366  0.207697  1
  La  La6  1  0.491756  0.854184  0.711537  1
  La  La7  1  0.354833  0.006724  0.460787  1
  Dy  Dy8  1  0.358347  0.492035  0.376693  1
  Dy  Dy9  1  0.857770  0.007842  0.374947  1
  Dy  Dy10  1  0.992439  0.140423  0.123493  1
  Lu  Lu11  1  0.005304  0.859303  0.626151  1
  Lu  Lu12  1  0.640277  0.505819  0.873482  1
  Lu  Lu13  1  0.494089  0.359592  0.627062  1
  Lu  Lu14  1  0.505828  0.641334  0.123276  1
  Lu  Lu15  1  0.141420  0.995125  0.874747  1
  Lu  Lu16  1  0.681763  0.680658  0.500963  1
  Lu  Lu17  1  0.820604  0.180941  0.750035  1
  Lu  Lu18  1  0.182244  0.817375  0.249912  1
  Lu  Lu19  1  0.320230  0.320138  0.998921  1
  Si  Si20  1  0.060726  0.711703  0.438935  1
  Si  Si21  1  0.937486  0.290634  0.934521  1
  Si  Si22  1  0.710280  0.062658  0.565318  1
  Si  Si23  1  0.211552  0.439415  0.185780  1
  Si  Si24  1  0.788753  0.562112  0.687071  1
  Si  Si25  1  0.437927  0.211739  0.813520  1
  Si  Si26  1  0.560890  0.787385  0.311582  1
  Si  Si27  1  0.289453  0.936473  0.061804  1
  Si  Si28  1  0.852321  0.796018  0.810892  1
  Si  Si29  1  0.151580  0.202106  0.308492  1
  Si  Si30  1  0.793227  0.847097  0.189222  1
  Si  Si31  1  0.295139  0.649745  0.563391  1
  Si  Si32  1  0.700935  0.352762  0.057563  1
  Si  Si33  1  0.650573  0.297872  0.444268  1
  Si  Si34  1  0.351642  0.704953  0.938306  1
  Si  Si35  1  0.204543  0.148094  0.689998  1
