# generated using pymatgen
data_LaHoMn5(PIr)7
_symmetry_space_group_name_H-M   'P 1'
_cell_length_a   9.38579311
_cell_length_b   9.35659815
_cell_length_c   3.92032500
_cell_angle_alpha   90.00000000
_cell_angle_beta   90.00000000
_cell_angle_gamma   119.63632987
_symmetry_Int_Tables_number   1
_chemical_formula_structural   LaHoMn5(PIr)7
_chemical_formula_sum   'La1 Ho1 Mn5 P7 Ir7'
_cell_volume   299.24129810
_cell_formula_units_Z   1
loop_
 _symmetry_equiv_pos_site_id
 _symmetry_equiv_pos_as_xyz
  1  'x, y, z'
loop_
 _atom_site_type_symbol
 _atom_site_label
 _atom_site_symmetry_multiplicity
 _atom_site_fract_x
 _atom_site_fract_y
 _atom_site_fract_z
 _atom_site_occupancy
  La  La0  1  0.664303  0.332500  0.000000  1
  Ho  Ho1  1  0.335124  0.669359  0.500000  1
  Mn  Mn2  1  0.263223  0.161589  0.000000  1
  Mn  Mn3  1  0.840380  0.109795  0.000000  1
  Mn  Mn4  1  0.893627  0.729153  0.000000  1
  Mn  Mn5  1  0.787352  0.879044  0.500000  1
  Mn  Mn6  1  0.123257  0.907104  0.500000  1
  P  P7  1  0.310590  0.419450  0.000000  1
  P  P8  1  0.589281  0.891854  0.000000  1
  P  P9  1  0.112621  0.698251  0.000000  1
  P  P10  1  0.386789  0.111713  0.500000  1
  P  P11  1  0.878017  0.273945  0.500000  1
  P  P12  1  0.726921  0.612254  0.500000  1
  P  P13  1  0.995873  0.995617  0.000000  1
  Ir  Ir14  1  0.070450  0.425060  0.000000  1
  Ir  Ir15  1  0.579019  0.643808  0.000000  1
  Ir  Ir16  1  0.358647  0.935798  0.000000  1
  Ir  Ir17  1  0.436738  0.389329  0.500000  1
  Ir  Ir18  1  0.610244  0.046418  0.500000  1
  Ir  Ir19  1  0.952897  0.559896  0.500000  1
  Ir  Ir20  1  0.084642  0.208062  0.500000  1
