# generated using pymatgen
data_Er8Ga12AgIrPtAu
_symmetry_space_group_name_H-M   'P 1'
_cell_length_a   7.01494200
_cell_length_b   8.86171758
_cell_length_c   8.86171700
_cell_angle_alpha   119.99999411
_cell_angle_beta   90.00000000
_cell_angle_gamma   90.00000000
_symmetry_Int_Tables_number   1
_chemical_formula_structural   Er8Ga12AgIrPtAu
_chemical_formula_sum   'Er8 Ga12 Ag1 Ir1 Pt1 Au1'
_cell_volume   477.07924555
_cell_formula_units_Z   1
loop_
 _symmetry_equiv_pos_site_id
 _symmetry_equiv_pos_as_xyz
  1  'x, y, z'
loop_
 _atom_site_type_symbol
 _atom_site_label
 _atom_site_symmetry_multiplicity
 _atom_site_fract_x
 _atom_site_fract_y
 _atom_site_fract_z
 _atom_site_occupancy
  Er  Er0  1  0.750577  0.000000  0.000000  1
  Er  Er1  1  0.252279  0.000000  0.000000  1
  Er  Er2  1  0.746025  0.474310  0.525690  1
  Er  Er3  1  0.251805  0.510076  0.489924  1
  Er  Er4  1  0.746025  0.051381  0.525690  1
  Er  Er5  1  0.251805  0.979847  0.489924  1
  Er  Er6  1  0.746025  0.474310  0.948619  1
  Er  Er7  1  0.251805  0.510076  0.020153  1
  Ga  Ga8  1  0.955715  0.835228  0.164772  1
  Ga  Ga9  1  0.043304  0.165031  0.834969  1
  Ga  Ga10  1  0.955715  0.329545  0.164772  1
  Ga  Ga11  1  0.456241  0.166952  0.833048  1
  Ga  Ga12  1  0.043304  0.669937  0.834969  1
  Ga  Ga13  1  0.545199  0.835694  0.164306  1
  Ga  Ga14  1  0.955715  0.835228  0.670455  1
  Ga  Ga15  1  0.456241  0.666097  0.833048  1
  Ga  Ga16  1  0.043304  0.165031  0.330063  1
  Ga  Ga17  1  0.545199  0.328612  0.164306  1
  Ga  Ga18  1  0.456241  0.166952  0.333903  1
  Ga  Ga19  1  0.545199  0.835694  0.671388  1
  Ag  Ag20  1  0.966372  0.666667  0.333333  1
  Ir  Ir21  1  0.476466  0.333333  0.666667  1
  Pt  Pt22  1  0.034580  0.333333  0.666667  1
  Au  Au23  1  0.524857  0.666667  0.333333  1
