# generated using pymatgen
data_Mg4SnHgPd10
_symmetry_space_group_name_H-M   'P 1'
_cell_length_a   4.18398800
_cell_length_b   5.62916713
_cell_length_c   11.13248658
_cell_angle_alpha   90.83875686
_cell_angle_beta   90.00000000
_cell_angle_gamma   90.00000000
_symmetry_Int_Tables_number   1
_chemical_formula_structural   Mg4SnHgPd10
_chemical_formula_sum   'Mg4 Sn1 Hg1 Pd10'
_cell_volume   262.16832343
_cell_formula_units_Z   1
loop_
 _symmetry_equiv_pos_site_id
 _symmetry_equiv_pos_as_xyz
  1  'x, y, z'
loop_
 _atom_site_type_symbol
 _atom_site_label
 _atom_site_symmetry_multiplicity
 _atom_site_fract_x
 _atom_site_fract_y
 _atom_site_fract_z
 _atom_site_occupancy
  Mg  Mg0  1  0.500000  0.177177  0.139607  1
  Mg  Mg1  1  0.500000  0.822823  0.860393  1
  Mg  Mg2  1  0.500000  0.308907  0.636552  1
  Mg  Mg3  1  0.500000  0.691093  0.363448  1
  Sn  Sn4  1  0.000000  0.500000  0.000000  1
  Hg  Hg5  1  0.000000  0.000000  0.500000  1
  Pd  Pd6  1  0.500000  0.211855  0.378381  1
  Pd  Pd7  1  0.500000  0.788145  0.621619  1
  Pd  Pd8  1  0.500000  0.301749  0.886259  1
  Pd  Pd9  1  0.500000  0.698251  0.113741  1
  Pd  Pd10  1  0.000000  0.435448  0.243097  1
  Pd  Pd11  1  0.000000  0.564552  0.756903  1
  Pd  Pd12  1  0.000000  0.066304  0.749955  1
  Pd  Pd13  1  0.000000  0.933696  0.250045  1
  Pd  Pd14  1  0.000000  0.000000  0.000000  1
  Pd  Pd15  1  0.000000  0.500000  0.500000  1
