# generated using pymatgen
data_ErPa(MnAl5)4
_symmetry_space_group_name_H-M   'P 1'
_cell_length_a   6.79272487
_cell_length_b   6.79361159
_cell_length_c   9.00152100
_cell_angle_alpha   90.00000000
_cell_angle_beta   90.00000000
_cell_angle_gamma   97.56185015
_symmetry_Int_Tables_number   1
_chemical_formula_structural   ErPa(MnAl5)4
_chemical_formula_sum   'Er1 Pa1 Mn4 Al20'
_cell_volume   411.78187305
_cell_formula_units_Z   1
loop_
 _symmetry_equiv_pos_site_id
 _symmetry_equiv_pos_as_xyz
  1  'x, y, z'
loop_
 _atom_site_type_symbol
 _atom_site_label
 _atom_site_symmetry_multiplicity
 _atom_site_fract_x
 _atom_site_fract_y
 _atom_site_fract_z
 _atom_site_occupancy
  Er  Er0  1  0.127014  0.872990  0.250000  1
  Pa  Pa1  1  0.871363  0.128707  0.750000  1
  Mn  Mn2  1  0.999009  0.495054  0.502137  1
  Mn  Mn3  1  0.999009  0.495054  0.997863  1
  Mn  Mn4  1  0.504916  0.000984  0.997861  1
  Mn  Mn5  1  0.504916  0.000984  0.502139  1
  Al  Al6  1  0.624061  0.375813  0.548244  1
  Al  Al7  1  0.374539  0.625591  0.455665  1
  Al  Al8  1  0.374539  0.625591  0.044335  1
  Al  Al9  1  0.624061  0.375813  0.951756  1
  Al  Al10  1  0.228447  0.226778  0.498970  1
  Al  Al11  1  0.773073  0.771684  0.499004  1
  Al  Al12  1  0.773073  0.771684  0.000996  1
  Al  Al13  1  0.228447  0.226778  0.001030  1
  Al  Al14  1  0.842211  0.157665  0.097408  1
  Al  Al15  1  0.156528  0.843602  0.903294  1
  Al  Al16  1  0.156528  0.843602  0.596706  1
  Al  Al17  1  0.842211  0.157665  0.402592  1
  Al  Al18  1  0.867334  0.591508  0.750000  1
  Al  Al19  1  0.132412  0.411722  0.250000  1
  Al  Al20  1  0.408560  0.132563  0.750000  1
  Al  Al21  1  0.588197  0.867723  0.250000  1
  Al  Al22  1  0.217699  0.475656  0.750000  1
  Al  Al23  1  0.782853  0.525345  0.250000  1
  Al  Al24  1  0.524329  0.782430  0.750000  1
  Al  Al25  1  0.474670  0.217012  0.250000  1
