# generated using pymatgen
data_AlCo20(ReB3)2
_symmetry_space_group_name_H-M   'P 1'
_cell_length_a   7.39690916
_cell_length_b   7.39690941
_cell_length_c   7.39690900
_cell_angle_alpha   59.99999737
_cell_angle_beta   59.99999625
_cell_angle_gamma   59.99999604
_symmetry_Int_Tables_number   1
_chemical_formula_structural   AlCo20(ReB3)2
_chemical_formula_sum   'Al1 Co20 Re2 B6'
_cell_volume   286.17772661
_cell_formula_units_Z   1
loop_
 _symmetry_equiv_pos_site_id
 _symmetry_equiv_pos_as_xyz
  1  'x, y, z'
loop_
 _atom_site_type_symbol
 _atom_site_label
 _atom_site_symmetry_multiplicity
 _atom_site_fract_x
 _atom_site_fract_y
 _atom_site_fract_z
 _atom_site_occupancy
  Al  Al0  1  0.000000  0.000000  0.000000  1
  Co  Co1  1  0.618464  0.618464  0.144610  1
  Co  Co2  1  0.618464  0.144610  0.618464  1
  Co  Co3  1  0.144610  0.618464  0.618464  1
  Co  Co4  1  0.618464  0.618464  0.618464  1
  Co  Co5  1  0.381536  0.381536  0.855390  1
  Co  Co6  1  0.381536  0.855390  0.381536  1
  Co  Co7  1  0.855390  0.381536  0.381536  1
  Co  Co8  1  0.381536  0.381536  0.381536  1
  Co  Co9  1  0.000000  0.000000  0.341789  1
  Co  Co10  1  0.658211  0.000000  0.341789  1
  Co  Co11  1  0.000000  0.658211  0.341789  1
  Co  Co12  1  0.658211  0.341789  0.000000  1
  Co  Co13  1  0.000000  0.341789  0.000000  1
  Co  Co14  1  0.000000  0.341789  0.658211  1
  Co  Co15  1  0.341789  0.658211  0.000000  1
  Co  Co16  1  0.341789  0.000000  0.658211  1
  Co  Co17  1  0.341789  0.000000  0.000000  1
  Co  Co18  1  0.000000  0.000000  0.658211  1
  Co  Co19  1  0.000000  0.658211  0.000000  1
  Co  Co20  1  0.658211  0.000000  0.000000  1
  Re  Re21  1  0.750000  0.750000  0.750000  1
  Re  Re22  1  0.250000  0.250000  0.250000  1
  B  B23  1  0.723963  0.723963  0.276037  1
  B  B24  1  0.276037  0.723963  0.276037  1
  B  B25  1  0.723963  0.276037  0.276037  1
  B  B26  1  0.276037  0.276037  0.723963  1
  B  B27  1  0.723963  0.276037  0.723963  1
  B  B28  1  0.276037  0.723963  0.723963  1
