# generated using pymatgen
data_Nb2PdF12
_symmetry_space_group_name_H-M   'P 1'
_cell_length_a   11.59802822
_cell_length_b   5.74740063
_cell_length_c   5.76949290
_cell_angle_alpha   57.74839859
_cell_angle_beta   57.68727403
_cell_angle_gamma   57.87088362
_symmetry_Int_Tables_number   1
_chemical_formula_structural   Nb2PdF12
_chemical_formula_sum   'Nb2 Pd1 F12'
_cell_volume   258.00654142
_cell_formula_units_Z   1
loop_
 _symmetry_equiv_pos_site_id
 _symmetry_equiv_pos_as_xyz
  1  'x, y, z'
loop_
 _atom_site_type_symbol
 _atom_site_label
 _atom_site_symmetry_multiplicity
 _atom_site_fract_x
 _atom_site_fract_y
 _atom_site_fract_z
 _atom_site_occupancy
  Nb  Nb0  1  0.013038  0.984885  0.996571  1
  Nb  Nb1  1  0.486962  0.015115  0.003429  1
  Pd  Pd2  1  0.750000  0.500000  0.500000  1
  F  F3  1  0.165773  0.134678  0.763445  1
  F  F4  1  0.663315  0.141691  0.770585  1
  F  F5  1  0.059294  0.776086  0.337872  1
  F  F6  1  0.574858  0.764363  0.317451  1
  F  F7  1  0.112748  0.662428  0.872651  1
  F  F8  1  0.619044  0.674630  0.857689  1
  F  F9  1  0.440706  0.223914  0.662128  1
  F  F10  1  0.925142  0.235637  0.682549  1
  F  F11  1  0.334227  0.865322  0.236555  1
  F  F12  1  0.836685  0.858309  0.229415  1
  F  F13  1  0.387252  0.337572  0.127349  1
  F  F14  1  0.880956  0.325370  0.142311  1
