# generated using pymatgen
data_Sc12Mn3Si12Ir
_symmetry_space_group_name_H-M   'P 1'
_cell_length_a   3.96987800
_cell_length_b   10.26834007
_cell_length_c   11.71067808
_cell_angle_alpha   89.98668509
_cell_angle_beta   90.00000000
_cell_angle_gamma   90.00000000
_symmetry_Int_Tables_number   1
_chemical_formula_structural   Sc12Mn3Si12Ir
_chemical_formula_sum   'Sc12 Mn3 Si12 Ir1'
_cell_volume   477.37473979
_cell_formula_units_Z   1
loop_
 _symmetry_equiv_pos_site_id
 _symmetry_equiv_pos_as_xyz
  1  'x, y, z'
loop_
 _atom_site_type_symbol
 _atom_site_label
 _atom_site_symmetry_multiplicity
 _atom_site_fract_x
 _atom_site_fract_y
 _atom_site_fract_z
 _atom_site_occupancy
  Sc  Sc0  1  0.250000  0.878654  0.021006  1
  Sc  Sc1  1  0.250000  0.620980  0.521535  1
  Sc  Sc2  1  0.750000  0.122855  0.980538  1
  Sc  Sc3  1  0.750000  0.378969  0.479254  1
  Sc  Sc4  1  0.250000  0.921993  0.602749  1
  Sc  Sc5  1  0.250000  0.578540  0.102173  1
  Sc  Sc6  1  0.750000  0.077925  0.398156  1
  Sc  Sc7  1  0.750000  0.421544  0.897128  1
  Sc  Sc8  1  0.250000  0.657679  0.798616  1
  Sc  Sc9  1  0.250000  0.839942  0.299036  1
  Sc  Sc10  1  0.750000  0.340842  0.200750  1
  Sc  Sc11  1  0.750000  0.160021  0.700516  1
  Mn  Mn12  1  0.250000  0.387570  0.677017  1
  Mn  Mn13  1  0.250000  0.113034  0.176561  1
  Mn  Mn14  1  0.750000  0.613933  0.322796  1
  Si  Si15  1  0.250000  0.015659  0.822611  1
  Si  Si16  1  0.250000  0.485636  0.322814  1
  Si  Si17  1  0.750000  0.985250  0.177647  1
  Si  Si18  1  0.750000  0.513921  0.677843  1
  Si  Si19  1  0.250000  0.251745  0.841246  1
  Si  Si20  1  0.250000  0.247465  0.341614  1
  Si  Si21  1  0.750000  0.747785  0.158212  1
  Si  Si22  1  0.750000  0.750441  0.656934  1
  Si  Si23  1  0.250000  0.194780  0.544829  1
  Si  Si24  1  0.250000  0.305372  0.044451  1
  Si  Si25  1  0.750000  0.805281  0.455226  1
  Si  Si26  1  0.750000  0.694470  0.955746  1
  Ir  Ir27  1  0.750000  0.887714  0.822998  1
