# generated using pymatgen
data_DyHo15Cd4(NiIr)2
_symmetry_space_group_name_H-M   'P 1'
_cell_length_a   9.54527254
_cell_length_b   9.54527276
_cell_length_c   9.59769105
_cell_angle_alpha   59.82777093
_cell_angle_beta   59.82777089
_cell_angle_gamma   59.57813245
_symmetry_Int_Tables_number   1
_chemical_formula_structural   DyHo15Cd4(NiIr)2
_chemical_formula_sum   'Dy1 Ho15 Cd4 Ni2 Ir2'
_cell_volume   614.74690305
_cell_formula_units_Z   1
loop_
 _symmetry_equiv_pos_site_id
 _symmetry_equiv_pos_as_xyz
  1  'x, y, z'
loop_
 _atom_site_type_symbol
 _atom_site_label
 _atom_site_symmetry_multiplicity
 _atom_site_fract_x
 _atom_site_fract_y
 _atom_site_fract_z
 _atom_site_occupancy
  Dy  Dy0  1  0.350736  0.350736  0.344004  1
  Ho  Ho1  1  0.350565  0.350565  0.954716  1
  Ho  Ho2  1  0.354017  0.951256  0.347344  1
  Ho  Ho3  1  0.951256  0.354017  0.347344  1
  Ho  Ho4  1  0.809126  0.187159  0.190645  1
  Ho  Ho5  1  0.187299  0.808912  0.813106  1
  Ho  Ho6  1  0.187159  0.809126  0.190645  1
  Ho  Ho7  1  0.808912  0.187299  0.813106  1
  Ho  Ho8  1  0.189104  0.189104  0.810982  1
  Ho  Ho9  1  0.811217  0.811217  0.188850  1
  Ho  Ho10  1  0.937290  0.561077  0.566376  1
  Ho  Ho11  1  0.561006  0.937403  0.935315  1
  Ho  Ho12  1  0.561077  0.937290  0.566376  1
  Ho  Ho13  1  0.937403  0.561006  0.935315  1
  Ho  Ho14  1  0.566304  0.566304  0.933707  1
  Ho  Ho15  1  0.939317  0.939317  0.560756  1
  Cd  Cd16  1  0.579775  0.579775  0.583205  1
  Cd  Cd17  1  0.579937  0.579937  0.257260  1
  Cd  Cd18  1  0.580046  0.255612  0.582342  1
  Cd  Cd19  1  0.255612  0.580046  0.582342  1
  Ni  Ni20  1  0.141736  0.575179  0.141085  1
  Ni  Ni21  1  0.575179  0.141736  0.141085  1
  Ir  Ir22  1  0.143151  0.143151  0.141500  1
  Ir  Ir23  1  0.142777  0.142777  0.572588  1
