# generated using pymatgen
data_Ce7(ErTc2)3
_symmetry_space_group_name_H-M   'P 1'
_cell_length_a   7.94058400
_cell_length_b   7.94058360
_cell_length_c   6.77180500
_cell_angle_alpha   90.00000000
_cell_angle_beta   90.00000000
_cell_angle_gamma   120.00000168
_symmetry_Int_Tables_number   1
_chemical_formula_structural   Ce7(ErTc2)3
_chemical_formula_sum   'Ce7 Er3 Tc6'
_cell_volume   369.77703407
_cell_formula_units_Z   1
loop_
 _symmetry_equiv_pos_site_id
 _symmetry_equiv_pos_as_xyz
  1  'x, y, z'
loop_
 _atom_site_type_symbol
 _atom_site_label
 _atom_site_symmetry_multiplicity
 _atom_site_fract_x
 _atom_site_fract_y
 _atom_site_fract_z
 _atom_site_occupancy
  Ce  Ce0  1  0.666667  0.333333  0.500000  1
  Ce  Ce1  1  0.761164  0.762184  0.749990  1
  Ce  Ce2  1  0.237816  0.998980  0.749990  1
  Ce  Ce3  1  0.001020  0.238836  0.749990  1
  Ce  Ce4  1  0.237816  0.238836  0.250010  1
  Ce  Ce5  1  0.761164  0.998980  0.250010  1
  Ce  Ce6  1  0.001020  0.762184  0.250010  1
  Er  Er7  1  0.666667  0.333333  0.000000  1
  Er  Er8  1  0.333333  0.666667  0.000000  1
  Er  Er9  1  0.333333  0.666667  0.500000  1
  Tc  Tc10  1  0.367015  0.363655  0.747653  1
  Tc  Tc11  1  0.636345  0.003361  0.747653  1
  Tc  Tc12  1  0.996639  0.632985  0.747653  1
  Tc  Tc13  1  0.636345  0.632985  0.252347  1
  Tc  Tc14  1  0.367015  0.003361  0.252347  1
  Tc  Tc15  1  0.996639  0.363655  0.252347  1
