# generated using pymatgen
data_MnNb4B4Ru9W2
_symmetry_space_group_name_H-M   'P 1'
_cell_length_a   9.44388577
_cell_length_b   9.44388586
_cell_length_c   2.96593000
_cell_angle_alpha   90.00000000
_cell_angle_beta   90.00000000
_cell_angle_gamma   90.53222859
_symmetry_Int_Tables_number   1
_chemical_formula_structural   MnNb4B4Ru9W2
_chemical_formula_sum   'Mn1 Nb4 B4 Ru9 W2'
_cell_volume   264.51092492
_cell_formula_units_Z   1
loop_
 _symmetry_equiv_pos_site_id
 _symmetry_equiv_pos_as_xyz
  1  'x, y, z'
loop_
 _atom_site_type_symbol
 _atom_site_label
 _atom_site_symmetry_multiplicity
 _atom_site_fract_x
 _atom_site_fract_y
 _atom_site_fract_z
 _atom_site_occupancy
  Mn  Mn0  1  0.500000  0.000000  0.500000  1
  Nb  Nb1  1  0.822162  0.677838  0.000000  1
  Nb  Nb2  1  0.177838  0.322162  0.000000  1
  Nb  Nb3  1  0.330562  0.830562  0.000000  1
  Nb  Nb4  1  0.669438  0.169438  0.000000  1
  B  B5  1  0.611385  0.888615  0.000000  1
  B  B6  1  0.388615  0.111385  0.000000  1
  B  B7  1  0.121787  0.621787  0.000000  1
  B  B8  1  0.878213  0.378213  0.000000  1
  Ru  Ru9  1  0.570096  0.722289  0.500000  1
  Ru  Ru10  1  0.429904  0.277711  0.500000  1
  Ru  Ru11  1  0.072798  0.782445  0.500000  1
  Ru  Ru12  1  0.927202  0.217555  0.500000  1
  Ru  Ru13  1  0.282445  0.572798  0.500000  1
  Ru  Ru14  1  0.717555  0.427202  0.500000  1
  Ru  Ru15  1  0.222289  0.070096  0.500000  1
  Ru  Ru16  1  0.777711  0.929904  0.500000  1
  Ru  Ru17  1  0.000000  0.500000  0.500000  1
  W  W18  1  0.500000  0.500000  0.000000  1
  W  W19  1  0.000000  0.000000  0.000000  1
