# generated using pymatgen
data_Er10Ru3Rh
_symmetry_space_group_name_H-M   'P 1'
_cell_length_a   6.28970495
_cell_length_b   7.27552168
_cell_length_c   8.40452207
_cell_angle_alpha   96.79047523
_cell_angle_beta   111.89056702
_cell_angle_gamma   90.05348127
_symmetry_Int_Tables_number   1
_chemical_formula_structural   Er10Ru3Rh
_chemical_formula_sum   'Er10 Ru3 Rh1'
_cell_volume   353.94135186
_cell_formula_units_Z   1
loop_
 _symmetry_equiv_pos_site_id
 _symmetry_equiv_pos_as_xyz
  1  'x, y, z'
loop_
 _atom_site_type_symbol
 _atom_site_label
 _atom_site_symmetry_multiplicity
 _atom_site_fract_x
 _atom_site_fract_y
 _atom_site_fract_z
 _atom_site_occupancy
  Er  Er0  1  0.793007  0.582183  0.814688  1
  Er  Er1  1  0.980054  0.915095  0.188712  1
  Er  Er2  1  0.208165  0.415343  0.186157  1
  Er  Er3  1  0.024019  0.086018  0.814593  1
  Er  Er4  1  0.203526  0.683271  0.563661  1
  Er  Er5  1  0.642527  0.814935  0.432948  1
  Er  Er6  1  0.793194  0.314924  0.434926  1
  Er  Er7  1  0.356870  0.186630  0.563640  1
  Er  Er8  1  0.418993  0.749109  0.000811  1
  Er  Er9  1  0.580487  0.252088  0.001276  1
  Ru  Ru10  1  0.823884  0.576899  0.219820  1
  Ru  Ru11  1  0.396231  0.075601  0.220861  1
  Ru  Ru12  1  0.177490  0.424128  0.779417  1
  Rh  Rh13  1  0.601554  0.923775  0.778490  1
