# generated using pymatgen
data_NaNi2HgF7
_symmetry_space_group_name_H-M   'P 1'
_cell_length_a   7.49708288
_cell_length_b   7.49708243
_cell_length_c   7.49708200
_cell_angle_alpha   120.32333390
_cell_angle_beta   119.84349865
_cell_angle_gamma   89.85607859
_symmetry_Int_Tables_number   1
_chemical_formula_structural   NaNi2HgF7
_chemical_formula_sum   'Na2 Ni4 Hg2 F14'
_cell_volume   297.57944192
_cell_formula_units_Z   2
loop_
 _symmetry_equiv_pos_site_id
 _symmetry_equiv_pos_as_xyz
  1  'x, y, z'
loop_
 _atom_site_type_symbol
 _atom_site_label
 _atom_site_symmetry_multiplicity
 _atom_site_fract_x
 _atom_site_fract_y
 _atom_site_fract_z
 _atom_site_occupancy
  Na  Na0  1  0.500000  0.000000  0.000000  1
  Na  Na1  1  0.500000  0.500000  0.500000  1
  Ni  Ni2  1  0.000000  0.500000  0.000000  1
  Ni  Ni3  1  0.000000  0.000000  0.500000  1
  Ni  Ni4  1  0.000000  0.500000  0.500000  1
  Ni  Ni5  1  0.500000  0.500000  0.000000  1
  Hg  Hg6  1  0.500000  0.000000  0.500000  1
  Hg  Hg7  1  0.000000  0.000000  0.000000  1
  F  F8  1  0.326269  0.582056  0.156472  1
  F  F9  1  0.925583  0.169797  0.343528  1
  F  F10  1  0.322479  0.572479  0.750000  1
  F  F11  1  0.923238  0.173238  0.750000  1
  F  F12  1  0.326269  0.169797  0.744214  1
  F  F13  1  0.925583  0.582056  0.755786  1
  F  F14  1  0.673731  0.417944  0.843528  1
  F  F15  1  0.074417  0.830203  0.656472  1
  F  F16  1  0.677521  0.427521  0.250000  1
  F  F17  1  0.076762  0.826762  0.250000  1
  F  F18  1  0.673731  0.830203  0.255786  1
  F  F19  1  0.074417  0.417944  0.244214  1
  F  F20  1  0.629679  0.879679  0.750000  1
  F  F21  1  0.370321  0.120321  0.250000  1
