# generated using pymatgen
data_La15Pr(LuIr3)4
_symmetry_space_group_name_H-M   'P 1'
_cell_length_a   11.36948667
_cell_length_b   11.38383896
_cell_length_c   6.55402000
_cell_angle_alpha   89.83266996
_cell_angle_beta   89.98031093
_cell_angle_gamma   90.14081856
_symmetry_Int_Tables_number   1
_chemical_formula_structural   La15Pr(LuIr3)4
_chemical_formula_sum   'La15 Pr1 Lu4 Ir12'
_cell_volume   848.27012514
_cell_formula_units_Z   1
loop_
 _symmetry_equiv_pos_site_id
 _symmetry_equiv_pos_as_xyz
  1  'x, y, z'
loop_
 _atom_site_type_symbol
 _atom_site_label
 _atom_site_symmetry_multiplicity
 _atom_site_fract_x
 _atom_site_fract_y
 _atom_site_fract_z
 _atom_site_occupancy
  La  La0  1  0.285900  0.087107  0.388666  1
  La  La1  1  0.286303  0.913998  0.889452  1
  La  La2  1  0.714079  0.086695  0.890513  1
  La  La3  1  0.713489  0.913336  0.390513  1
  La  La4  1  0.587266  0.786581  0.889776  1
  La  La5  1  0.587032  0.213617  0.390342  1
  La  La6  1  0.412463  0.786445  0.389899  1
  La  La7  1  0.412268  0.213718  0.890345  1
  La  La8  1  0.213359  0.412551  0.609705  1
  La  La9  1  0.212927  0.584656  0.109054  1
  La  La10  1  0.787525  0.413520  0.107877  1
  La  La11  1  0.786305  0.586891  0.609153  1
  La  La12  1  0.913672  0.714668  0.109798  1
  La  La13  1  0.914847  0.285901  0.608280  1
  La  La14  1  0.086350  0.714062  0.609295  1
  Pr  Pr15  1  0.086082  0.285775  0.111176  1
  Lu  Lu16  1  0.999718  0.999936  0.500096  1
  Lu  Lu17  1  0.000786  0.001185  0.000886  1
  Lu  Lu18  1  0.500036  0.499570  0.001098  1
  Lu  Lu19  1  0.500074  0.499894  0.501168  1
  Ir  Ir20  1  0.854606  0.145638  0.249787  1
  Ir  Ir21  1  0.854273  0.854916  0.750871  1
  Ir  Ir22  1  0.146327  0.143908  0.747476  1
  Ir  Ir23  1  0.145468  0.854958  0.249903  1
  Ir  Ir24  1  0.645356  0.354421  0.750531  1
  Ir  Ir25  1  0.644423  0.646159  0.250461  1
  Ir  Ir26  1  0.354717  0.354361  0.251014  1
  Ir  Ir27  1  0.354738  0.644902  0.750284  1
  Ir  Ir28  1  0.499786  0.000337  0.121551  1
  Ir  Ir29  1  0.500409  0.999823  0.621327  1
  Ir  Ir30  1  0.000177  0.499603  0.878708  1
  Ir  Ir31  1  0.999243  0.500870  0.380996  1
