# generated using pymatgen
data_Mg3Zr5(B6Ru)4
_symmetry_space_group_name_H-M   'P 1'
_cell_length_a   8.90824935
_cell_length_b   11.19416660
_cell_length_c   3.49273300
_cell_angle_alpha   90.00000000
_cell_angle_beta   90.00000000
_cell_angle_gamma   89.87495320
_symmetry_Int_Tables_number   1
_chemical_formula_structural   Mg3Zr5(B6Ru)4
_chemical_formula_sum   'Mg3 Zr5 B24 Ru4'
_cell_volume   348.29599807
_cell_formula_units_Z   1
loop_
 _symmetry_equiv_pos_site_id
 _symmetry_equiv_pos_as_xyz
  1  'x, y, z'
loop_
 _atom_site_type_symbol
 _atom_site_label
 _atom_site_symmetry_multiplicity
 _atom_site_fract_x
 _atom_site_fract_y
 _atom_site_fract_z
 _atom_site_occupancy
  Mg  Mg0  1  0.443660  0.630009  0.000000  1
  Mg  Mg1  1  0.947055  0.871951  0.000000  1
  Mg  Mg2  1  0.320401  0.911267  0.000000  1
  Zr  Zr3  1  0.680764  0.085540  0.000000  1
  Zr  Zr4  1  0.056220  0.123465  0.000000  1
  Zr  Zr5  1  0.554875  0.375973  0.000000  1
  Zr  Zr6  1  0.179702  0.416415  0.000000  1
  Zr  Zr7  1  0.820419  0.589240  0.000000  1
  B  B8  1  0.896825  0.026015  0.500000  1
  B  B9  1  0.445906  0.062459  0.500000  1
  B  B10  1  0.249465  0.074771  0.500000  1
  B  B11  1  0.868063  0.180561  0.500000  1
  B  B12  1  0.519664  0.211424  0.500000  1
  B  B13  1  0.205047  0.236302  0.500000  1
  B  B14  1  0.704518  0.262328  0.500000  1
  B  B15  1  0.020262  0.286905  0.500000  1
  B  B16  1  0.368139  0.318748  0.500000  1
  B  B17  1  0.748049  0.424097  0.500000  1
  B  B18  1  0.945542  0.437005  0.500000  1
  B  B19  1  0.395762  0.473644  0.500000  1
  B  B20  1  0.601403  0.530224  0.500000  1
  B  B21  1  0.054637  0.565695  0.500000  1
  B  B22  1  0.252974  0.580665  0.500000  1
  B  B23  1  0.630108  0.684223  0.500000  1
  B  B24  1  0.980641  0.713339  0.500000  1
  B  B25  1  0.294828  0.736844  0.500000  1
  B  B26  1  0.795934  0.763960  0.500000  1
  B  B27  1  0.479365  0.787029  0.500000  1
  B  B28  1  0.129990  0.816725  0.500000  1
  B  B29  1  0.753130  0.920104  0.500000  1
  B  B30  1  0.554792  0.933541  0.500000  1
  B  B31  1  0.099840  0.969960  0.500000  1
  Ru  Ru32  1  0.359840  0.179710  0.000000  1
  Ru  Ru33  1  0.860969  0.322034  0.000000  1
  Ru  Ru34  1  0.138863  0.678363  0.000000  1
  Ru  Ru35  1  0.642348  0.819458  0.000000  1
