# generated using pymatgen
data_Yb7Hf(Ge4Mo3)4
_symmetry_space_group_name_H-M   'P 1'
_cell_length_a   6.83242556
_cell_length_b   7.01184522
_cell_length_c   13.19647180
_cell_angle_alpha   90.19082829
_cell_angle_beta   90.09135453
_cell_angle_gamma   90.11023052
_symmetry_Int_Tables_number   1
_chemical_formula_structural   Yb7Hf(Ge4Mo3)4
_chemical_formula_sum   'Yb7 Hf1 Ge16 Mo12'
_cell_volume   632.20990372
_cell_formula_units_Z   1
loop_
 _symmetry_equiv_pos_site_id
 _symmetry_equiv_pos_as_xyz
  1  'x, y, z'
loop_
 _atom_site_type_symbol
 _atom_site_label
 _atom_site_symmetry_multiplicity
 _atom_site_fract_x
 _atom_site_fract_y
 _atom_site_fract_z
 _atom_site_occupancy
  Yb  Yb0  1  0.492491  0.670999  0.589138  1
  Yb  Yb1  1  0.991939  0.829661  0.911078  1
  Yb  Yb2  1  0.507533  0.329277  0.089656  1
  Yb  Yb3  1  0.007042  0.172882  0.409700  1
  Yb  Yb4  1  0.505636  0.327193  0.411206  1
  Yb  Yb5  1  0.007063  0.172561  0.089511  1
  Yb  Yb6  1  0.491921  0.670254  0.910291  1
  Hf  Hf7  1  0.989029  0.821576  0.594794  1
  Ge  Ge8  1  0.674627  0.955593  0.456275  1
  Ge  Ge9  1  0.170626  0.544631  0.045197  1
  Ge  Ge10  1  0.329840  0.045505  0.953307  1
  Ge  Ge11  1  0.829324  0.455241  0.545153  1
  Ge  Ge12  1  0.320217  0.040765  0.545916  1
  Ge  Ge13  1  0.829876  0.454526  0.953161  1
  Ge  Ge14  1  0.669497  0.955288  0.045607  1
  Ge  Ge15  1  0.171436  0.547614  0.456995  1
  Ge  Ge16  1  0.469274  0.375646  0.747324  1
  Ge  Ge17  1  0.967547  0.121895  0.748823  1
  Ge  Ge18  1  0.533475  0.620148  0.250810  1
  Ge  Ge19  1  0.032684  0.883052  0.249235  1
  Ge  Ge20  1  0.689730  0.849061  0.750928  1
  Ge  Ge21  1  0.192036  0.649997  0.750628  1
  Ge  Ge22  1  0.308511  0.149074  0.250025  1
  Ge  Ge23  1  0.807692  0.353980  0.250610  1
  Mo  Mo24  1  0.667913  0.152895  0.626908  1
  Mo  Mo25  1  0.163873  0.339593  0.868858  1
  Mo  Mo26  1  0.337710  0.838028  0.129118  1
  Mo  Mo27  1  0.841951  0.666436  0.374323  1
  Mo  Mo28  1  0.337409  0.837726  0.371333  1
  Mo  Mo29  1  0.838271  0.662981  0.129970  1
  Mo  Mo30  1  0.663240  0.160621  0.869840  1
  Mo  Mo31  1  0.164170  0.341313  0.627257  1
  Mo  Mo32  1  0.839265  0.490523  0.746819  1
  Mo  Mo33  1  0.335989  0.010539  0.747780  1
  Mo  Mo34  1  0.160521  0.516313  0.251068  1
  Mo  Mo35  1  0.660638  0.986614  0.251356  1
