# generated using pymatgen
data_Tb2ErGaSn3Ir2
_symmetry_space_group_name_H-M   'P 1'
_cell_length_a   7.43666461
_cell_length_b   7.45084675
_cell_length_c   4.12202900
_cell_angle_alpha   90.00000000
_cell_angle_beta   90.00000000
_cell_angle_gamma   119.98328024
_symmetry_Int_Tables_number   1
_chemical_formula_structural   Tb2ErGaSn3Ir2
_chemical_formula_sum   'Tb2 Er1 Ga1 Sn3 Ir2'
_cell_volume   197.83295845
_cell_formula_units_Z   1
loop_
 _symmetry_equiv_pos_site_id
 _symmetry_equiv_pos_as_xyz
  1  'x, y, z'
loop_
 _atom_site_type_symbol
 _atom_site_label
 _atom_site_symmetry_multiplicity
 _atom_site_fract_x
 _atom_site_fract_y
 _atom_site_fract_z
 _atom_site_occupancy
  Tb  Tb0  1  0.397188  0.410486  0.500000  1
  Tb  Tb1  1  0.589645  0.986928  0.500000  1
  Er  Er2  1  0.014217  0.604145  0.500000  1
  Ga  Ga3  1  0.667892  0.334210  0.000000  1
  Sn  Sn4  1  0.744058  0.748160  0.000000  1
  Sn  Sn5  1  0.251093  0.994402  0.000000  1
  Sn  Sn6  1  0.004349  0.256791  0.000000  1
  Ir  Ir7  1  0.331560  0.666209  0.000000  1
  Ir  Ir8  1  0.000000  0.998668  0.500000  1
