# generated using pymatgen
data_Y3MgZn2Sn2Pd
_symmetry_space_group_name_H-M   'P 1'
_cell_length_a   7.20345760
_cell_length_b   7.23399300
_cell_length_c   4.51205100
_cell_angle_alpha   90.00000000
_cell_angle_beta   90.00000000
_cell_angle_gamma   120.14031875
_symmetry_Int_Tables_number   1
_chemical_formula_structural   Y3MgZn2Sn2Pd
_chemical_formula_sum   'Y3 Mg1 Zn2 Sn2 Pd1'
_cell_volume   203.33302127
_cell_formula_units_Z   1
loop_
 _symmetry_equiv_pos_site_id
 _symmetry_equiv_pos_as_xyz
  1  'x, y, z'
loop_
 _atom_site_type_symbol
 _atom_site_label
 _atom_site_symmetry_multiplicity
 _atom_site_fract_x
 _atom_site_fract_y
 _atom_site_fract_z
 _atom_site_occupancy
  Y  Y0  1  0.406585  0.406136  0.500000  1
  Y  Y1  1  0.000000  0.603034  0.500000  1
  Y  Y2  1  0.593415  0.999550  0.500000  1
  Mg  Mg3  1  0.000000  0.219957  0.000000  1
  Zn  Zn4  1  0.772519  0.770910  0.000000  1
  Zn  Zn5  1  0.227481  0.998391  0.000000  1
  Sn  Sn6  1  0.664016  0.335001  0.000000  1
  Sn  Sn7  1  0.335984  0.670986  0.000000  1
  Pd  Pd8  1  0.000000  0.996033  0.500000  1
