# generated using pymatgen
data_Ho3ThInCo
_symmetry_space_group_name_H-M   'P 1'
_cell_length_a   9.60196645
_cell_length_b   9.60196543
_cell_length_c   9.60196600
_cell_angle_alpha   59.99999803
_cell_angle_beta   60.00000154
_cell_angle_gamma   60.00000348
_symmetry_Int_Tables_number   1
_chemical_formula_structural   Ho3ThInCo
_chemical_formula_sum   'Ho12 Th4 In4 Co4'
_cell_volume   625.98726492
_cell_formula_units_Z   4
loop_
 _symmetry_equiv_pos_site_id
 _symmetry_equiv_pos_as_xyz
  1  'x, y, z'
loop_
 _atom_site_type_symbol
 _atom_site_label
 _atom_site_symmetry_multiplicity
 _atom_site_fract_x
 _atom_site_fract_y
 _atom_site_fract_z
 _atom_site_occupancy
  Ho  Ho0  1  0.812656  0.187344  0.187344  1
  Ho  Ho1  1  0.187344  0.812656  0.812656  1
  Ho  Ho2  1  0.187344  0.812656  0.187344  1
  Ho  Ho3  1  0.812656  0.187344  0.812656  1
  Ho  Ho4  1  0.187344  0.187344  0.812656  1
  Ho  Ho5  1  0.812656  0.812656  0.187344  1
  Ho  Ho6  1  0.936536  0.563464  0.563464  1
  Ho  Ho7  1  0.563464  0.936536  0.936536  1
  Ho  Ho8  1  0.563464  0.936536  0.563464  1
  Ho  Ho9  1  0.936536  0.563464  0.936536  1
  Ho  Ho10  1  0.563464  0.563464  0.936536  1
  Ho  Ho11  1  0.936536  0.936536  0.563464  1
  Th  Th12  1  0.345167  0.345167  0.345167  1
  Th  Th13  1  0.345167  0.345167  0.964502  1
  Th  Th14  1  0.345167  0.964502  0.345167  1
  Th  Th15  1  0.964502  0.345167  0.345167  1
  In  In16  1  0.583374  0.583374  0.583374  1
  In  In17  1  0.583374  0.583374  0.249875  1
  In  In18  1  0.583374  0.249875  0.583374  1
  In  In19  1  0.249875  0.583374  0.583374  1
  Co  Co20  1  0.143992  0.143992  0.143992  1
  Co  Co21  1  0.143992  0.143992  0.568023  1
  Co  Co22  1  0.143992  0.568023  0.143992  1
  Co  Co23  1  0.568023  0.143992  0.143992  1
