# generated using pymatgen
data_TmZr3(ScRu2)4
_symmetry_space_group_name_H-M   'P 1'
_cell_length_a   6.51132900
_cell_length_b   4.58146400
_cell_length_c   9.23416800
_cell_angle_alpha   90.00000000
_cell_angle_beta   89.99718001
_cell_angle_gamma   90.00000000
_symmetry_Int_Tables_number   1
_chemical_formula_structural   TmZr3(ScRu2)4
_chemical_formula_sum   'Tm1 Zr3 Sc4 Ru8'
_cell_volume   275.46833830
_cell_formula_units_Z   1
loop_
 _symmetry_equiv_pos_site_id
 _symmetry_equiv_pos_as_xyz
  1  'x, y, z'
loop_
 _atom_site_type_symbol
 _atom_site_label
 _atom_site_symmetry_multiplicity
 _atom_site_fract_x
 _atom_site_fract_y
 _atom_site_fract_z
 _atom_site_occupancy
  Tm  Tm0  1  0.749916  0.250000  0.124996  1
  Zr  Zr1  1  0.249992  0.750000  0.374545  1
  Zr  Zr2  1  0.750113  0.250000  0.625044  1
  Zr  Zr3  1  0.250018  0.750000  0.875421  1
  Sc  Sc4  1  0.249779  0.250000  0.125018  1
  Sc  Sc5  1  0.750102  0.750000  0.375589  1
  Sc  Sc6  1  0.250287  0.250000  0.625000  1
  Sc  Sc7  1  0.749893  0.750000  0.874435  1
  Ru  Ru8  1  0.493383  0.750000  0.124928  1
  Ru  Ru9  1  0.006384  0.750000  0.124908  1
  Ru  Ru10  1  0.496733  0.250000  0.379512  1
  Ru  Ru11  1  0.003129  0.250000  0.379481  1
  Ru  Ru12  1  0.999713  0.750000  0.625019  1
  Ru  Ru13  1  0.500493  0.750000  0.625050  1
  Ru  Ru14  1  0.003146  0.250000  0.870526  1
  Ru  Ru15  1  0.496917  0.250000  0.870530  1
