# generated using pymatgen
data_Ba2AuIO2
_symmetry_space_group_name_H-M   'P 1'
_cell_length_a   10.86512148
_cell_length_b   10.86512140
_cell_length_c   10.86512199
_cell_angle_alpha   23.54198580
_cell_angle_beta   23.54198536
_cell_angle_gamma   23.54198493
_symmetry_Int_Tables_number   1
_chemical_formula_structural   Ba2AuIO2
_chemical_formula_sum   'Ba2 Au1 I1 O2'
_cell_volume   179.70507408
_cell_formula_units_Z   1
loop_
 _symmetry_equiv_pos_site_id
 _symmetry_equiv_pos_as_xyz
  1  'x, y, z'
loop_
 _atom_site_type_symbol
 _atom_site_label
 _atom_site_symmetry_multiplicity
 _atom_site_fract_x
 _atom_site_fract_y
 _atom_site_fract_z
 _atom_site_occupancy
  Ba  Ba0  1  0.249088  0.249088  0.249088  1
  Ba  Ba1  1  0.750912  0.750912  0.750912  1
  Au  Au2  1  0.500000  0.500000  0.500000  1
  I  I3  1  0.000000  0.000000  0.000000  1
  O  O4  1  0.435843  0.435843  0.435843  1
  O  O5  1  0.564157  0.564157  0.564157  1
