# generated using pymatgen
data_Y3AlCd2CuPd2
_symmetry_space_group_name_H-M   'P 1'
_cell_length_a   7.63043400
_cell_length_b   7.61366046
_cell_length_c   3.77411200
_cell_angle_alpha   90.00000000
_cell_angle_beta   90.00000000
_cell_angle_gamma   120.07292163
_symmetry_Int_Tables_number   1
_chemical_formula_structural   Y3AlCd2CuPd2
_chemical_formula_sum   'Y3 Al1 Cd2 Cu1 Pd2'
_cell_volume   189.74422625
_cell_formula_units_Z   1
loop_
 _symmetry_equiv_pos_site_id
 _symmetry_equiv_pos_as_xyz
  1  'x, y, z'
loop_
 _atom_site_type_symbol
 _atom_site_label
 _atom_site_symmetry_multiplicity
 _atom_site_fract_x
 _atom_site_fract_y
 _atom_site_fract_z
 _atom_site_occupancy
  Y  Y0  1  0.406934  0.405589  0.500000  1
  Y  Y1  1  0.581574  0.000000  0.500000  1
  Y  Y2  1  0.001346  0.594411  0.500000  1
  Al  Al3  1  0.252897  0.000000  0.000000  1
  Cd  Cd4  1  0.996528  0.245681  0.000000  1
  Cd  Cd5  1  0.750848  0.754319  0.000000  1
  Cu  Cu6  1  0.030954  0.000000  0.500000  1
  Pd  Pd7  1  0.651259  0.323600  0.000000  1
  Pd  Pd8  1  0.327658  0.676400  0.000000  1
