# generated using pymatgen
data_TbErLu5CoI12
_symmetry_space_group_name_H-M   'P 1'
_cell_length_a   9.64142531
_cell_length_b   9.63737798
_cell_length_c   9.65596991
_cell_angle_alpha   106.84502344
_cell_angle_beta   106.88368379
_cell_angle_gamma   106.71714618
_symmetry_Int_Tables_number   1
_chemical_formula_structural   TbErLu5CoI12
_chemical_formula_sum   'Tb1 Er1 Lu5 Co1 I12'
_cell_volume   750.94029662
_cell_formula_units_Z   1
loop_
 _symmetry_equiv_pos_site_id
 _symmetry_equiv_pos_as_xyz
  1  'x, y, z'
loop_
 _atom_site_type_symbol
 _atom_site_label
 _atom_site_symmetry_multiplicity
 _atom_site_fract_x
 _atom_site_fract_y
 _atom_site_fract_z
 _atom_site_occupancy
  Tb  Tb0  1  0.907332  0.978537  0.710305  1
  Er  Er1  1  0.500005  0.499855  0.500300  1
  Lu  Lu2  1  0.282802  0.089825  0.022267  1
  Lu  Lu3  1  0.021332  0.282827  0.091584  1
  Lu  Lu4  1  0.089803  0.020894  0.281664  1
  Lu  Lu5  1  0.717883  0.910241  0.979944  1
  Lu  Lu6  1  0.979561  0.717565  0.911514  1
  Co  Co7  1  0.000085  0.000071  0.000234  1
  I  I8  1  0.463491  0.160499  0.386210  1
  I  I9  1  0.386093  0.463023  0.160729  1
  I  I10  1  0.160633  0.386459  0.463450  1
  I  I11  1  0.533657  0.838673  0.614225  1
  I  I12  1  0.613970  0.537035  0.839772  1
  I  I13  1  0.839693  0.611261  0.536743  1
  I  I14  1  0.324111  0.776764  0.930303  1
  I  I15  1  0.930815  0.327505  0.778813  1
  I  I16  1  0.775412  0.929420  0.321689  1
  I  I17  1  0.676003  0.223257  0.070018  1
  I  I18  1  0.069777  0.675198  0.223389  1
  I  I19  1  0.227544  0.071091  0.676846  1
