# generated using pymatgen
data_Ba6Nd2TlInO12
_symmetry_space_group_name_H-M   'P 1'
_cell_length_a   7.40377563
_cell_length_b   7.40377561
_cell_length_c   7.40377724
_cell_angle_alpha   92.30318753
_cell_angle_beta   92.30318360
_cell_angle_gamma   92.30319920
_symmetry_Int_Tables_number   1
_chemical_formula_structural   Ba6Nd2TlInO12
_chemical_formula_sum   'Ba6 Nd2 Tl1 In1 O12'
_cell_volume   404.83388837
_cell_formula_units_Z   1
loop_
 _symmetry_equiv_pos_site_id
 _symmetry_equiv_pos_as_xyz
  1  'x, y, z'
loop_
 _atom_site_type_symbol
 _atom_site_label
 _atom_site_symmetry_multiplicity
 _atom_site_fract_x
 _atom_site_fract_y
 _atom_site_fract_z
 _atom_site_occupancy
  Ba  Ba0  1  0.247547  0.887998  0.611401  1
  Ba  Ba1  1  0.887998  0.611401  0.247547  1
  Ba  Ba2  1  0.752453  0.112002  0.388599  1
  Ba  Ba3  1  0.388599  0.752453  0.112002  1
  Ba  Ba4  1  0.112002  0.388599  0.752453  1
  Ba  Ba5  1  0.611401  0.247547  0.887998  1
  Nd  Nd6  1  0.751100  0.751100  0.751100  1
  Nd  Nd7  1  0.248900  0.248900  0.248900  1
  Tl  Tl8  1  0.500000  0.500000  0.500000  1
  In  In9  1  0.000000  0.000000  0.000000  1
  O  O10  1  0.599703  0.799158  0.462519  1
  O  O11  1  0.462519  0.599703  0.799158  1
  O  O12  1  0.799158  0.462519  0.599703  1
  O  O13  1  0.906466  0.039034  0.711610  1
  O  O14  1  0.711610  0.906466  0.039034  1
  O  O15  1  0.039034  0.711610  0.906466  1
  O  O16  1  0.400297  0.200842  0.537481  1
  O  O17  1  0.537481  0.400297  0.200842  1
  O  O18  1  0.200842  0.537481  0.400297  1
  O  O19  1  0.093534  0.960966  0.288390  1
  O  O20  1  0.960966  0.288390  0.093534  1
  O  O21  1  0.288390  0.093534  0.960966  1
