# generated using pymatgen
data_La19PrSn9Bi7
_symmetry_space_group_name_H-M   'P 1'
_cell_length_a   8.61178096
_cell_length_b   8.67223462
_cell_length_c   16.59258500
_cell_angle_alpha   90.03818074
_cell_angle_beta   89.68522954
_cell_angle_gamma   89.87203953
_symmetry_Int_Tables_number   1
_chemical_formula_structural   La19PrSn9Bi7
_chemical_formula_sum   'La19 Pr1 Sn9 Bi7'
_cell_volume   1239.16833777
_cell_formula_units_Z   1
loop_
 _symmetry_equiv_pos_site_id
 _symmetry_equiv_pos_as_xyz
  1  'x, y, z'
loop_
 _atom_site_type_symbol
 _atom_site_label
 _atom_site_symmetry_multiplicity
 _atom_site_fract_x
 _atom_site_fract_y
 _atom_site_fract_z
 _atom_site_occupancy
  La  La0  1  0.396949  0.836409  0.880826  1
  La  La1  1  0.899698  0.665148  0.619016  1
  La  La2  1  0.600581  0.162789  0.380320  1
  La  La3  1  0.100800  0.337185  0.119164  1
  La  La4  1  0.605287  0.166919  0.119250  1
  La  La5  1  0.101208  0.335269  0.380423  1
  La  La6  1  0.399132  0.836539  0.619539  1
  La  La7  1  0.893810  0.662112  0.882364  1
  La  La8  1  0.560201  0.330914  0.891730  1
  La  La9  1  0.061454  0.171501  0.611652  1
  La  La10  1  0.438169  0.669751  0.388216  1
  La  La11  1  0.942206  0.823137  0.109781  1
  La  La12  1  0.447845  0.668822  0.108756  1
  La  La13  1  0.938372  0.829678  0.387895  1
  La  La14  1  0.561844  0.329781  0.611529  1
  La  La15  1  0.053421  0.175692  0.891491  1
  La  La16  1  0.227373  0.498474  0.750714  1
  La  La17  1  0.727525  0.003988  0.750788  1
  La  La18  1  0.772933  0.501964  0.246222  1
  Pr  Pr19  1  0.271856  0.996165  0.248774  1
  Sn  Sn20  1  0.765871  0.481781  0.045469  1
  Sn  Sn21  1  0.598605  0.625980  0.749743  1
  Sn  Sn22  1  0.098079  0.875978  0.750799  1
  Sn  Sn23  1  0.400433  0.373220  0.250460  1
  Sn  Sn24  1  0.902927  0.123461  0.250260  1
  Sn  Sn25  1  0.359783  0.137458  0.750952  1
  Sn  Sn26  1  0.860375  0.364682  0.750087  1
  Sn  Sn27  1  0.637867  0.863690  0.249911  1
  Sn  Sn28  1  0.141671  0.637269  0.249940  1
  Bi  Bi29  1  0.264314  0.015049  0.046937  1
  Bi  Bi30  1  0.761885  0.486870  0.452859  1
  Bi  Bi31  1  0.738301  0.987838  0.546687  1
  Bi  Bi32  1  0.234771  0.517263  0.954534  1
  Bi  Bi33  1  0.734179  0.983057  0.954551  1
  Bi  Bi34  1  0.238564  0.512781  0.546537  1
  Bi  Bi35  1  0.261709  0.011383  0.451820  1
