# generated using pymatgen
data_Tb11Y5In6CoRh
_symmetry_space_group_name_H-M   'P 1'
_cell_length_a   10.44716900
_cell_length_b   10.45760523
_cell_length_c   7.05559292
_cell_angle_alpha   90.07305796
_cell_angle_beta   90.00007910
_cell_angle_gamma   119.96670297
_symmetry_Int_Tables_number   1
_chemical_formula_structural   Tb11Y5In6CoRh
_chemical_formula_sum   'Tb11 Y5 In6 Co1 Rh1'
_cell_volume   667.79037969
_cell_formula_units_Z   1
loop_
 _symmetry_equiv_pos_site_id
 _symmetry_equiv_pos_as_xyz
  1  'x, y, z'
loop_
 _atom_site_type_symbol
 _atom_site_label
 _atom_site_symmetry_multiplicity
 _atom_site_fract_x
 _atom_site_fract_y
 _atom_site_fract_z
 _atom_site_occupancy
  Tb  Tb0  1  0.467018  0.533409  0.482313  1
  Tb  Tb1  1  0.066391  0.533410  0.482313  1
  Tb  Tb2  1  0.467071  0.934143  0.482280  1
  Tb  Tb3  1  0.535839  0.464036  0.982952  1
  Tb  Tb4  1  0.928197  0.464036  0.982952  1
  Tb  Tb5  1  0.536016  0.072032  0.982974  1
  Tb  Tb6  1  0.822244  0.178024  0.273749  1
  Tb  Tb7  1  0.355783  0.178027  0.273749  1
  Tb  Tb8  1  0.822012  0.644026  0.273847  1
  Tb  Tb9  1  0.176201  0.823862  0.775819  1
  Tb  Tb10  1  0.647660  0.823861  0.775817  1
  Y  Y11  1  0.175525  0.351051  0.775473  1
  Y  Y12  1  0.333255  0.666513  0.101806  1
  Y  Y13  1  0.666708  0.333415  0.592173  1
  Y  Y14  1  0.999919  0.999837  0.493956  1
  Y  Y15  1  0.999647  0.999292  0.996662  1
  In  In16  1  0.162539  0.837585  0.235278  1
  In  In17  1  0.675051  0.837588  0.235278  1
  In  In18  1  0.162489  0.324978  0.234231  1
  In  In19  1  0.836870  0.163696  0.733428  1
  In  In20  1  0.326823  0.163695  0.733429  1
  In  In21  1  0.836398  0.672796  0.733412  1
  Co  Co22  1  0.666721  0.333441  0.204899  1
  Rh  Rh23  1  0.333623  0.667245  0.705760  1
