# generated using pymatgen
data_Nb5CoAs2
_symmetry_space_group_name_H-M   'P 1'
_cell_length_a   7.61256659
_cell_length_b   7.61256997
_cell_length_c   7.61256757
_cell_angle_alpha   96.37598032
_cell_angle_beta   96.37576583
_cell_angle_gamma   141.06934677
_symmetry_Int_Tables_number   1
_chemical_formula_structural   Nb5CoAs2
_chemical_formula_sum   'Nb10 Co2 As4'
_cell_volume   261.36837229
_cell_formula_units_Z   2
loop_
 _symmetry_equiv_pos_site_id
 _symmetry_equiv_pos_as_xyz
  1  'x, y, z'
loop_
 _atom_site_type_symbol
 _atom_site_label
 _atom_site_symmetry_multiplicity
 _atom_site_fract_x
 _atom_site_fract_y
 _atom_site_fract_z
 _atom_site_occupancy
  Nb  Nb0  1  0.250001  0.750001  0.499999  1
  Nb  Nb1  1  0.749999  0.249999  0.500001  1
  Nb  Nb2  1  0.786749  0.924422  0.711175  1
  Nb  Nb3  1  0.924428  0.213247  0.137676  1
  Nb  Nb4  1  0.075572  0.786753  0.862324  1
  Nb  Nb5  1  0.213251  0.075578  0.288825  1
  Nb  Nb6  1  0.575578  0.713251  0.288825  1
  Nb  Nb7  1  0.424422  0.286749  0.711175  1
  Nb  Nb8  1  0.286754  0.575575  0.862321  1
  Nb  Nb9  1  0.713246  0.424425  0.137679  1
  Co  Co10  1  0.750000  0.750000  0.000000  1
  Co  Co11  1  0.250000  0.250000  0.000000  1
  As  As12  1  0.334718  0.834718  0.169439  1
  As  As13  1  0.834725  0.665278  0.500002  1
  As  As14  1  0.165275  0.334722  0.499998  1
  As  As15  1  0.665282  0.165282  0.830561  1
