# generated using pymatgen
data_Y6Co17Si8TcP4
_symmetry_space_group_name_H-M   'P 1'
_cell_length_a   3.74031900
_cell_length_b   10.67635600
_cell_length_c   12.29910500
_cell_angle_alpha   90.00000000
_cell_angle_beta   90.00000000
_cell_angle_gamma   90.00000000
_symmetry_Int_Tables_number   1
_chemical_formula_structural   Y6Co17Si8TcP4
_chemical_formula_sum   'Y6 Co17 Si8 Tc1 P4'
_cell_volume   491.13987952
_cell_formula_units_Z   1
loop_
 _symmetry_equiv_pos_site_id
 _symmetry_equiv_pos_as_xyz
  1  'x, y, z'
loop_
 _atom_site_type_symbol
 _atom_site_label
 _atom_site_symmetry_multiplicity
 _atom_site_fract_x
 _atom_site_fract_y
 _atom_site_fract_z
 _atom_site_occupancy
  Y  Y0  1  0.000000  0.500000  0.525225  1
  Y  Y1  1  0.500000  0.000000  0.475579  1
  Y  Y2  1  0.500000  0.819375  0.205557  1
  Y  Y3  1  0.500000  0.180625  0.205557  1
  Y  Y4  1  0.000000  0.681452  0.797753  1
  Y  Y5  1  0.000000  0.318548  0.797753  1
  Co  Co6  1  0.000000  0.000000  0.840198  1
  Co  Co7  1  0.500000  0.500000  0.702113  1
  Co  Co8  1  0.000000  0.000000  0.297752  1
  Co  Co9  1  0.000000  0.500000  0.979447  1
  Co  Co10  1  0.500000  0.000000  0.021771  1
  Co  Co11  1  0.500000  0.330666  0.989773  1
  Co  Co12  1  0.500000  0.669334  0.989773  1
  Co  Co13  1  0.000000  0.163531  0.006983  1
  Co  Co14  1  0.000000  0.836469  0.006983  1
  Co  Co15  1  0.500000  0.303531  0.430290  1
  Co  Co16  1  0.500000  0.696469  0.430290  1
  Co  Co17  1  0.000000  0.195731  0.572542  1
  Co  Co18  1  0.000000  0.804269  0.572542  1
  Co  Co19  1  0.500000  0.884729  0.706546  1
  Co  Co20  1  0.500000  0.115271  0.706546  1
  Co  Co21  1  0.000000  0.617424  0.293532  1
  Co  Co22  1  0.000000  0.382576  0.293532  1
  Si  Si23  1  0.500000  0.305818  0.616219  1
  Si  Si24  1  0.500000  0.694182  0.616219  1
  Si  Si25  1  0.000000  0.194431  0.386797  1
  Si  Si26  1  0.000000  0.805569  0.386797  1
  Si  Si27  1  0.500000  0.855850  0.892009  1
  Si  Si28  1  0.500000  0.144150  0.892009  1
  Si  Si29  1  0.000000  0.651988  0.104012  1
  Si  Si30  1  0.000000  0.348012  0.104012  1
  Tc  Tc31  1  0.500000  0.500000  0.152863  1
  P  P32  1  0.500000  0.500000  0.883022  1
  P  P33  1  0.000000  0.000000  0.117018  1
  P  P34  1  0.500000  0.500000  0.342924  1
  P  P35  1  0.000000  0.000000  0.658060  1
