# generated using pymatgen
data_Y4Er4Re(B8Ru)3
_symmetry_space_group_name_H-M   'P 1'
_cell_length_a   3.65516500
_cell_length_b   9.12096927
_cell_length_c   11.51462363
_cell_angle_alpha   89.87696494
_cell_angle_beta   90.00000000
_cell_angle_gamma   90.00000000
_symmetry_Int_Tables_number   1
_chemical_formula_structural   Y4Er4Re(B8Ru)3
_chemical_formula_sum   'Y4 Er4 Re1 B24 Ru3'
_cell_volume   383.88109455
_cell_formula_units_Z   1
loop_
 _symmetry_equiv_pos_site_id
 _symmetry_equiv_pos_as_xyz
  1  'x, y, z'
loop_
 _atom_site_type_symbol
 _atom_site_label
 _atom_site_symmetry_multiplicity
 _atom_site_fract_x
 _atom_site_fract_y
 _atom_site_fract_z
 _atom_site_occupancy
  Y  Y0  1  0.000000  0.323197  0.413580  1
  Y  Y1  1  0.000000  0.677590  0.583865  1
  Y  Y2  1  0.000000  0.820350  0.087517  1
  Y  Y3  1  0.000000  0.177600  0.914894  1
  Er  Er4  1  0.000000  0.943792  0.372284  1
  Er  Er5  1  0.000000  0.057177  0.628448  1
  Er  Er6  1  0.000000  0.443638  0.127860  1
  Er  Er7  1  0.000000  0.556796  0.871308  1
  Re  Re8  1  0.000000  0.637971  0.320714  1
  B  B9  1  0.500000  0.553076  0.433034  1
  B  B10  1  0.500000  0.445999  0.567768  1
  B  B11  1  0.500000  0.054132  0.067329  1
  B  B12  1  0.500000  0.945951  0.932770  1
  B  B13  1  0.500000  0.749053  0.418988  1
  B  B14  1  0.500000  0.251360  0.581079  1
  B  B15  1  0.500000  0.248643  0.080820  1
  B  B16  1  0.500000  0.751223  0.919071  1
  B  B17  1  0.500000  0.791809  0.265912  1
  B  B18  1  0.500000  0.209038  0.734023  1
  B  B19  1  0.500000  0.290817  0.233343  1
  B  B20  1  0.500000  0.709451  0.766024  1
  B  B21  1  0.500000  0.630827  0.185146  1
  B  B22  1  0.500000  0.368752  0.815139  1
  B  B23  1  0.500000  0.130986  0.314625  1
  B  B24  1  0.500000  0.869391  0.685056  1
  B  B25  1  0.500000  0.983251  0.212970  1
  B  B26  1  0.500000  0.016829  0.787393  1
  B  B27  1  0.500000  0.482094  0.287011  1
  B  B28  1  0.500000  0.516562  0.712952  1
  B  B29  1  0.500000  0.605332  0.028419  1
  B  B30  1  0.500000  0.394026  0.970426  1
  B  B31  1  0.500000  0.105987  0.471204  1
  B  B32  1  0.500000  0.895483  0.529584  1
  Ru  Ru33  1  0.000000  0.361884  0.679559  1
  Ru  Ru34  1  0.000000  0.137683  0.179219  1
  Ru  Ru35  1  0.000000  0.862253  0.820666  1
