# generated using pymatgen
data_Pr2Er4Ga17Pd5
_symmetry_space_group_name_H-M   'P 1'
_cell_length_a   8.17884418
_cell_length_b   8.17884380
_cell_length_c   15.80662207
_cell_angle_alpha   76.37898394
_cell_angle_beta   76.37898507
_cell_angle_gamma   30.51020497
_symmetry_Int_Tables_number   1
_chemical_formula_structural   Pr2Er4Ga17Pd5
_chemical_formula_sum   'Pr2 Er4 Ga17 Pd5'
_cell_volume   520.57455033
_cell_formula_units_Z   1
loop_
 _symmetry_equiv_pos_site_id
 _symmetry_equiv_pos_as_xyz
  1  'x, y, z'
loop_
 _atom_site_type_symbol
 _atom_site_label
 _atom_site_symmetry_multiplicity
 _atom_site_fract_x
 _atom_site_fract_y
 _atom_site_fract_z
 _atom_site_occupancy
  Pr  Pr0  1  0.755672  0.755672  0.750103  1
  Pr  Pr1  1  0.244328  0.244328  0.249897  1
  Er  Er2  1  0.600624  0.600624  0.597300  1
  Er  Er3  1  0.089306  0.089306  0.092599  1
  Er  Er4  1  0.910694  0.910694  0.907401  1
  Er  Er5  1  0.399376  0.399376  0.402700  1
  Ga  Ga6  1  0.822590  0.822590  0.538669  1
  Ga  Ga7  1  0.326780  0.326780  0.043096  1
  Ga  Ga8  1  0.673220  0.673220  0.956904  1
  Ga  Ga9  1  0.177410  0.177410  0.461331  1
  Ga  Ga10  1  0.546846  0.546846  0.826292  1
  Ga  Ga11  1  0.036234  0.036234  0.323034  1
  Ga  Ga12  1  0.963766  0.963766  0.676966  1
  Ga  Ga13  1  0.453154  0.453154  0.173708  1
  Ga  Ga14  1  0.270645  0.270645  0.899607  1
  Ga  Ga15  1  0.760678  0.760678  0.396951  1
  Ga  Ga16  1  0.239322  0.239322  0.603049  1
  Ga  Ga17  1  0.729355  0.729355  0.100393  1
  Ga  Ga18  1  0.404091  0.404091  0.764927  1
  Ga  Ga19  1  0.892669  0.892669  0.266972  1
  Ga  Ga20  1  0.107331  0.107331  0.733028  1
  Ga  Ga21  1  0.595909  0.595909  0.235073  1
  Ga  Ga22  1  0.000000  0.000000  0.500000  1
  Pd  Pd23  1  0.105962  0.105962  0.896977  1
  Pd  Pd24  1  0.592046  0.592046  0.405667  1
  Pd  Pd25  1  0.407954  0.407954  0.594333  1
  Pd  Pd26  1  0.894038  0.894038  0.103023  1
  Pd  Pd27  1  0.500000  0.500000  0.000000  1
