# generated using pymatgen
data_Tm10SnBi5S2
_symmetry_space_group_name_H-M   'P 1'
_cell_length_a   9.09683500
_cell_length_b   9.11023615
_cell_length_c   6.48777800
_cell_angle_alpha   90.00000000
_cell_angle_beta   90.00000000
_cell_angle_gamma   120.04875467
_symmetry_Int_Tables_number   1
_chemical_formula_structural   Tm10SnBi5S2
_chemical_formula_sum   'Tm10 Sn1 Bi5 S2'
_cell_volume   465.40708748
_cell_formula_units_Z   1
loop_
 _symmetry_equiv_pos_site_id
 _symmetry_equiv_pos_as_xyz
  1  'x, y, z'
loop_
 _atom_site_type_symbol
 _atom_site_label
 _atom_site_symmetry_multiplicity
 _atom_site_fract_x
 _atom_site_fract_y
 _atom_site_fract_z
 _atom_site_occupancy
  Tm  Tm0  1  0.671690  0.334931  0.001794  1
  Tm  Tm1  1  0.328310  0.663241  0.001794  1
  Tm  Tm2  1  0.328310  0.663241  0.498206  1
  Tm  Tm3  1  0.671690  0.334931  0.498206  1
  Tm  Tm4  1  0.753039  0.753532  0.750000  1
  Tm  Tm5  1  0.246961  0.000492  0.750000  1
  Tm  Tm6  1  0.000000  0.247214  0.750000  1
  Tm  Tm7  1  0.242496  0.248442  0.250000  1
  Tm  Tm8  1  0.757504  0.005946  0.250000  1
  Tm  Tm9  1  0.000000  0.749686  0.250000  1
  Sn  Sn10  1  0.000000  0.396411  0.250000  1
  Bi  Bi11  1  0.395594  0.394341  0.750000  1
  Bi  Bi12  1  0.604406  0.998746  0.750000  1
  Bi  Bi13  1  0.000000  0.604279  0.750000  1
  Bi  Bi14  1  0.606022  0.607131  0.250000  1
  Bi  Bi15  1  0.393978  0.001109  0.250000  1
  S  S16  1  0.000000  0.998165  0.999598  1
  S  S17  1  0.000000  0.998165  0.500402  1
