# generated using pymatgen
data_Pr3Nd2P12Ru15Rh4
_symmetry_space_group_name_H-M   'P 1'
_cell_length_a   12.70084051
_cell_length_b   12.67600513
_cell_length_c   4.02045300
_cell_angle_alpha   90.00000000
_cell_angle_beta   90.00000000
_cell_angle_gamma   120.07283121
_symmetry_Int_Tables_number   1
_chemical_formula_structural   Pr3Nd2P12Ru15Rh4
_chemical_formula_sum   'Pr3 Nd2 P12 Ru15 Rh4'
_cell_volume   560.14607187
_cell_formula_units_Z   1
loop_
 _symmetry_equiv_pos_site_id
 _symmetry_equiv_pos_as_xyz
  1  'x, y, z'
loop_
 _atom_site_type_symbol
 _atom_site_label
 _atom_site_symmetry_multiplicity
 _atom_site_fract_x
 _atom_site_fract_y
 _atom_site_fract_z
 _atom_site_occupancy
  Pr  Pr0  1  0.000946  0.183292  0.500000  1
  Pr  Pr1  1  0.816932  0.815385  0.500000  1
  Pr  Pr2  1  0.183092  0.999612  0.500000  1
  Nd  Nd3  1  0.666544  0.333251  0.000000  1
  Nd  Nd4  1  0.333470  0.666921  0.000000  1
  P  P5  1  0.999749  0.810925  0.000000  1
  P  P6  1  0.188600  0.188622  0.000000  1
  P  P7  1  0.812157  0.996813  0.000000  1
  P  P8  1  0.692829  0.172396  0.500000  1
  P  P9  1  0.824563  0.521947  0.500000  1
  P  P10  1  0.476734  0.302739  0.500000  1
  P  P11  1  0.175956  0.698682  0.500000  1
  P  P12  1  0.523108  0.825277  0.500000  1
  P  P13  1  0.302249  0.477794  0.500000  1
  P  P14  1  0.003581  0.375695  0.000000  1
  P  P15  1  0.626979  0.627239  0.000000  1
  P  P16  1  0.372787  0.000195  0.000000  1
  Ru  Ru17  1  0.999913  0.711957  0.500000  1
  Ru  Ru18  1  0.287440  0.288000  0.500000  1
  Ru  Ru19  1  0.714044  0.001291  0.500000  1
  Ru  Ru20  1  0.814558  0.620131  0.000000  1
  Ru  Ru21  1  0.378680  0.194384  0.000000  1
  Ru  Ru22  1  0.185108  0.805276  0.000000  1
  Ru  Ru23  1  0.620706  0.816299  0.000000  1
  Ru  Ru24  1  0.194909  0.379700  0.000000  1
  Ru  Ru25  1  0.874076  0.365153  0.500000  1
  Ru  Ru26  1  0.631748  0.507940  0.500000  1
  Ru  Ru27  1  0.490334  0.124176  0.500000  1
  Ru  Ru28  1  0.369395  0.877060  0.500000  1
  Ru  Ru29  1  0.508558  0.632259  0.500000  1
  Ru  Ru30  1  0.123006  0.492041  0.500000  1
  Ru  Ru31  1  0.000385  0.000141  0.000000  1
  Rh  Rh32  1  0.997092  0.551535  0.000000  1
  Rh  Rh33  1  0.446802  0.447100  0.000000  1
  Rh  Rh34  1  0.554609  0.003461  0.000000  1
  Rh  Rh35  1  0.808359  0.185308  0.000000  1
