# generated using pymatgen
data_Hf4CrGe3N
_symmetry_space_group_name_H-M   'P 1'
_cell_length_a   7.77631700
_cell_length_b   7.77631806
_cell_length_c   5.42239500
_cell_angle_alpha   90.00000000
_cell_angle_beta   90.00000000
_cell_angle_gamma   119.99999976
_symmetry_Int_Tables_number   1
_chemical_formula_structural   Hf4CrGe3N
_chemical_formula_sum   'Hf8 Cr2 Ge6 N2'
_cell_volume   283.96823043
_cell_formula_units_Z   2
loop_
 _symmetry_equiv_pos_site_id
 _symmetry_equiv_pos_as_xyz
  1  'x, y, z'
loop_
 _atom_site_type_symbol
 _atom_site_label
 _atom_site_symmetry_multiplicity
 _atom_site_fract_x
 _atom_site_fract_y
 _atom_site_fract_z
 _atom_site_occupancy
  Hf  Hf0  1  0.234254  0.000000  0.248692  1
  Hf  Hf1  1  0.765746  0.000000  0.751308  1
  Hf  Hf2  1  0.000000  0.234254  0.248692  1
  Hf  Hf3  1  0.000000  0.765746  0.751308  1
  Hf  Hf4  1  0.765746  0.765746  0.248692  1
  Hf  Hf5  1  0.234254  0.234254  0.751308  1
  Hf  Hf6  1  0.666667  0.333333  0.500000  1
  Hf  Hf7  1  0.333333  0.666667  0.500000  1
  Cr  Cr8  1  0.333333  0.666667  0.000000  1
  Cr  Cr9  1  0.666667  0.333333  0.000000  1
  Ge  Ge10  1  0.591270  0.000000  0.227759  1
  Ge  Ge11  1  0.408730  0.000000  0.772241  1
  Ge  Ge12  1  0.000000  0.591270  0.227759  1
  Ge  Ge13  1  0.000000  0.408730  0.772241  1
  Ge  Ge14  1  0.408730  0.408730  0.227759  1
  Ge  Ge15  1  0.591270  0.591270  0.772241  1
  N  N16  1  0.000000  0.000000  0.000000  1
  N  N17  1  0.000000  0.000000  0.500000  1
