# generated using pymatgen
data_Nd3SmY4(ReB6)4
_symmetry_space_group_name_H-M   'P 1'
_cell_length_a   3.73185200
_cell_length_b   9.26230207
_cell_length_c   11.71000709
_cell_angle_alpha   90.01386763
_cell_angle_beta   90.00000000
_cell_angle_gamma   90.00000000
_symmetry_Int_Tables_number   1
_chemical_formula_structural   Nd3SmY4(ReB6)4
_chemical_formula_sum   'Nd3 Sm1 Y4 Re4 B24'
_cell_volume   404.76271228
_cell_formula_units_Z   1
loop_
 _symmetry_equiv_pos_site_id
 _symmetry_equiv_pos_as_xyz
  1  'x, y, z'
loop_
 _atom_site_type_symbol
 _atom_site_label
 _atom_site_symmetry_multiplicity
 _atom_site_fract_x
 _atom_site_fract_y
 _atom_site_fract_z
 _atom_site_occupancy
  Nd  Nd0  1  0.000000  0.822799  0.085888  1
  Nd  Nd1  1  0.000000  0.177139  0.913949  1
  Nd  Nd2  1  0.000000  0.322956  0.414241  1
  Sm  Sm3  1  0.000000  0.676696  0.585904  1
  Y  Y4  1  0.000000  0.442736  0.130733  1
  Y  Y5  1  0.000000  0.557445  0.869243  1
  Y  Y6  1  0.000000  0.942509  0.369768  1
  Y  Y7  1  0.000000  0.057218  0.630392  1
  Re  Re8  1  0.000000  0.138828  0.180442  1
  Re  Re9  1  0.000000  0.860730  0.819027  1
  Re  Re10  1  0.000000  0.638747  0.320288  1
  Re  Re11  1  0.000000  0.361786  0.680074  1
  B  B12  1  0.500000  0.054600  0.069423  1
  B  B13  1  0.500000  0.945201  0.930339  1
  B  B14  1  0.500000  0.554898  0.431455  1
  B  B15  1  0.500000  0.446355  0.569258  1
  B  B16  1  0.500000  0.248959  0.084069  1
  B  B17  1  0.500000  0.751035  0.915573  1
  B  B18  1  0.500000  0.748944  0.417052  1
  B  B19  1  0.500000  0.251397  0.584118  1
  B  B20  1  0.500000  0.290792  0.233899  1
  B  B21  1  0.500000  0.708745  0.765342  1
  B  B22  1  0.500000  0.790696  0.266572  1
  B  B23  1  0.500000  0.209403  0.733699  1
  B  B24  1  0.500000  0.129527  0.313453  1
  B  B25  1  0.500000  0.869729  0.685862  1
  B  B26  1  0.500000  0.629661  0.186889  1
  B  B27  1  0.500000  0.370759  0.813091  1
  B  B28  1  0.500000  0.484008  0.287478  1
  B  B29  1  0.500000  0.517221  0.712344  1
  B  B30  1  0.500000  0.983709  0.212950  1
  B  B31  1  0.500000  0.015915  0.786916  1
  B  B32  1  0.500000  0.096624  0.473061  1
  B  B33  1  0.500000  0.902096  0.527305  1
  B  B34  1  0.500000  0.596483  0.026894  1
  B  B35  1  0.500000  0.403656  0.973010  1
