# generated using pymatgen
data_Dy7Er3(Bi2Pt)2
_symmetry_space_group_name_H-M   'P 1'
_cell_length_a   8.05841184
_cell_length_b   9.03408625
_cell_length_c   12.42982125
_cell_angle_alpha   89.98195281
_cell_angle_beta   90.04815729
_cell_angle_gamma   90.02035749
_symmetry_Int_Tables_number   1
_chemical_formula_structural   Dy7Er3(Bi2Pt)2
_chemical_formula_sum   'Dy14 Er6 Bi8 Pt4'
_cell_volume   904.89538367
_cell_formula_units_Z   2
loop_
 _symmetry_equiv_pos_site_id
 _symmetry_equiv_pos_as_xyz
  1  'x, y, z'
loop_
 _atom_site_type_symbol
 _atom_site_label
 _atom_site_symmetry_multiplicity
 _atom_site_fract_x
 _atom_site_fract_y
 _atom_site_fract_z
 _atom_site_occupancy
  Dy  Dy0  1  0.838679  0.750145  0.790298  1
  Dy  Dy1  1  0.161321  0.249855  0.209702  1
  Dy  Dy2  1  0.338983  0.249924  0.709496  1
  Dy  Dy3  1  0.661017  0.750076  0.290504  1
  Dy  Dy4  1  0.371372  0.750069  0.697140  1
  Dy  Dy5  1  0.628628  0.249931  0.302860  1
  Dy  Dy6  1  0.871210  0.249785  0.802554  1
  Dy  Dy7  1  0.128790  0.750215  0.197446  1
  Dy  Dy8  1  0.949730  0.750002  0.500018  1
  Dy  Dy9  1  0.050270  0.249998  0.499982  1
  Dy  Dy10  1  0.449926  0.249708  0.999983  1
  Dy  Dy11  1  0.550074  0.750292  0.000017  1
  Dy  Dy12  1  0.820554  0.454058  0.066826  1
  Dy  Dy13  1  0.179446  0.545942  0.933174  1
  Er  Er14  1  0.677962  0.045965  0.566397  1
  Er  Er15  1  0.322038  0.954035  0.433603  1
  Er  Er16  1  0.178132  0.954061  0.933472  1
  Er  Er17  1  0.322048  0.545952  0.433596  1
  Er  Er18  1  0.821868  0.045939  0.066528  1
  Er  Er19  1  0.677952  0.454048  0.566404  1
  Bi  Bi20  1  0.568979  0.491098  0.827218  1
  Bi  Bi21  1  0.431021  0.508902  0.172782  1
  Bi  Bi22  1  0.068443  0.508841  0.672535  1
  Bi  Bi23  1  0.431453  0.991111  0.172694  1
  Bi  Bi24  1  0.931557  0.491159  0.327465  1
  Bi  Bi25  1  0.568547  0.008889  0.827306  1
  Bi  Bi26  1  0.931467  0.008879  0.327367  1
  Bi  Bi27  1  0.068533  0.991121  0.672633  1
  Pt  Pt28  1  0.574398  0.749989  0.511342  1
  Pt  Pt29  1  0.425602  0.250011  0.488658  1
  Pt  Pt30  1  0.074610  0.248916  0.988554  1
  Pt  Pt31  1  0.925390  0.751084  0.011446  1
