# generated using pymatgen
data_LaY3(Bi2O7)2
_symmetry_space_group_name_H-M   'P 1'
_cell_length_a   6.62500864
_cell_length_b   6.70547928
_cell_length_c   7.78743200
_cell_angle_alpha   106.65653338
_cell_angle_beta   89.50761411
_cell_angle_gamma   98.55282549
_symmetry_Int_Tables_number   1
_chemical_formula_structural   LaY3(Bi2O7)2
_chemical_formula_sum   'La1 Y3 Bi4 O14'
_cell_volume   327.53451931
_cell_formula_units_Z   1
loop_
 _symmetry_equiv_pos_site_id
 _symmetry_equiv_pos_as_xyz
  1  'x, y, z'
loop_
 _atom_site_type_symbol
 _atom_site_label
 _atom_site_symmetry_multiplicity
 _atom_site_fract_x
 _atom_site_fract_y
 _atom_site_fract_z
 _atom_site_occupancy
  La  La0  1  0.739361  0.464682  0.114567  1
  Y  Y1  1  0.459442  0.002775  0.251757  1
  Y  Y2  1  0.538620  0.993016  0.747584  1
  Y  Y3  1  0.261351  0.537596  0.884809  1
  Bi  Bi4  1  0.002621  0.005811  0.502958  1
  Bi  Bi5  1  0.005206  0.999602  0.997910  1
  Bi  Bi6  1  0.721889  0.463120  0.614537  1
  Bi  Bi7  1  0.266744  0.534535  0.388492  1
  O  O8  1  0.435698  0.652061  0.165816  1
  O  O9  1  0.543008  0.343850  0.826319  1
  O  O10  1  0.306919  0.926504  0.951176  1
  O  O11  1  0.701615  0.064480  0.052614  1
  O  O12  1  0.301323  0.921410  0.512869  1
  O  O13  1  0.701048  0.079195  0.486704  1
  O  O14  1  0.534859  0.357730  0.348940  1
  O  O15  1  0.454069  0.640882  0.659779  1
  O  O16  1  0.942563  0.669209  0.952081  1
  O  O17  1  0.079405  0.325500  0.032855  1
  O  O18  1  0.090735  0.330254  0.628616  1
  O  O19  1  0.914763  0.680583  0.378175  1
  O  O20  1  0.875552  0.927737  0.732442  1
  O  O21  1  0.123207  0.079469  0.268996  1
