# generated using pymatgen
data_Hf6MnNiPb
_symmetry_space_group_name_H-M   'P 1'
_cell_length_a   3.33657200
_cell_length_b   7.92144632
_cell_length_c   7.91939000
_cell_angle_alpha   119.98672833
_cell_angle_beta   90.00000000
_cell_angle_gamma   90.00000000
_symmetry_Int_Tables_number   1
_chemical_formula_structural   Hf6MnNiPb
_chemical_formula_sum   'Hf6 Mn1 Ni1 Pb1'
_cell_volume   181.29482659
_cell_formula_units_Z   1
loop_
 _symmetry_equiv_pos_site_id
 _symmetry_equiv_pos_as_xyz
  1  'x, y, z'
loop_
 _atom_site_type_symbol
 _atom_site_label
 _atom_site_symmetry_multiplicity
 _atom_site_fract_x
 _atom_site_fract_y
 _atom_site_fract_z
 _atom_site_occupancy
  Hf  Hf0  1  0.500000  0.618050  0.055683  1
  Hf  Hf1  1  0.500000  0.437946  0.381754  1
  Hf  Hf2  1  0.500000  0.944089  0.562439  1
  Hf  Hf3  1  0.000000  0.246179  0.996839  1
  Hf  Hf4  1  0.000000  0.750481  0.753652  1
  Hf  Hf5  1  0.000000  0.003063  0.249539  1
  Mn  Mn6  1  0.000000  0.667093  0.333445  1
  Ni  Ni7  1  0.500000  0.999772  0.000050  1
  Pb  Pb8  1  0.000000  0.333231  0.666602  1
