# generated using pymatgen
data_Yb3In3IrPt2
_symmetry_space_group_name_H-M   'P 1'
_cell_length_a   7.50942600
_cell_length_b   7.50942541
_cell_length_c   4.05778400
_cell_angle_alpha   90.00000000
_cell_angle_beta   90.00000000
_cell_angle_gamma   120.00000261
_symmetry_Int_Tables_number   1
_chemical_formula_structural   Yb3In3IrPt2
_chemical_formula_sum   'Yb3 In3 Ir1 Pt2'
_cell_volume   198.16775774
_cell_formula_units_Z   1
loop_
 _symmetry_equiv_pos_site_id
 _symmetry_equiv_pos_as_xyz
  1  'x, y, z'
loop_
 _atom_site_type_symbol
 _atom_site_label
 _atom_site_symmetry_multiplicity
 _atom_site_fract_x
 _atom_site_fract_y
 _atom_site_fract_z
 _atom_site_occupancy
  Yb  Yb0  1  0.404590  0.000000  0.000000  1
  Yb  Yb1  1  0.000000  0.404590  0.000000  1
  Yb  Yb2  1  0.595410  0.595410  0.000000  1
  In  In3  1  0.745481  0.000000  0.500000  1
  In  In4  1  0.000000  0.745481  0.500000  1
  In  In5  1  0.254519  0.254519  0.500000  1
  Ir  Ir6  1  0.000000  0.000000  0.000000  1
  Pt  Pt7  1  0.333333  0.666667  0.500000  1
  Pt  Pt8  1  0.666667  0.333333  0.500000  1
