# generated using pymatgen
data_BaYGe4N7
_symmetry_space_group_name_H-M   'P 1'
_cell_length_a   6.35151600
_cell_length_b   6.35151582
_cell_length_c   10.38935000
_cell_angle_alpha   90.00000000
_cell_angle_beta   90.00000000
_cell_angle_gamma   120.00000094
_symmetry_Int_Tables_number   1
_chemical_formula_structural   BaYGe4N7
_chemical_formula_sum   'Ba2 Y2 Ge8 N14'
_cell_volume   362.97255233
_cell_formula_units_Z   2
loop_
 _symmetry_equiv_pos_site_id
 _symmetry_equiv_pos_as_xyz
  1  'x, y, z'
loop_
 _atom_site_type_symbol
 _atom_site_label
 _atom_site_symmetry_multiplicity
 _atom_site_fract_x
 _atom_site_fract_y
 _atom_site_fract_z
 _atom_site_occupancy
  Ba  Ba0  1  0.333333  0.666667  0.363888  1
  Ba  Ba1  1  0.666667  0.333333  0.863888  1
  Y  Y2  1  0.333333  0.666667  0.736418  1
  Y  Y3  1  0.666667  0.333333  0.236418  1
  Ge  Ge4  1  0.826306  0.652610  0.546753  1
  Ge  Ge5  1  0.173694  0.826306  0.046753  1
  Ge  Ge6  1  0.652610  0.826306  0.046753  1
  Ge  Ge7  1  0.347390  0.173694  0.546753  1
  Ge  Ge8  1  0.826306  0.173694  0.546753  1
  Ge  Ge9  1  0.173694  0.347390  0.046753  1
  Ge  Ge10  1  0.000000  0.000000  0.812902  1
  Ge  Ge11  1  0.000000  0.000000  0.312902  1
  N  N12  1  0.000000  0.000000  0.620836  1
  N  N13  1  0.000000  0.000000  0.120836  1
  N  N14  1  0.158590  0.317180  0.869187  1
  N  N15  1  0.841410  0.158590  0.369187  1
  N  N16  1  0.317180  0.158590  0.369187  1
  N  N17  1  0.682820  0.841410  0.869187  1
  N  N18  1  0.158590  0.841410  0.869187  1
  N  N19  1  0.841410  0.682820  0.369187  1
  N  N20  1  0.987472  0.493737  0.604011  1
  N  N21  1  0.493737  0.987472  0.104011  1
  N  N22  1  0.493737  0.506263  0.104011  1
  N  N23  1  0.506263  0.493737  0.604011  1
  N  N24  1  0.012528  0.506263  0.104011  1
  N  N25  1  0.506263  0.012528  0.604011  1
