# generated using pymatgen
data_TbDy5C2Cl7
_symmetry_space_group_name_H-M   'P 1'
_cell_length_a   10.15206205
_cell_length_b   10.15206217
_cell_length_c   11.58448273
_cell_angle_alpha   56.70122152
_cell_angle_beta   56.70122697
_cell_angle_gamma   21.19242277
_symmetry_Int_Tables_number   1
_chemical_formula_structural   TbDy5C2Cl7
_chemical_formula_sum   'Tb1 Dy5 C2 Cl7'
_cell_volume   358.01682976
_cell_formula_units_Z   1
loop_
 _symmetry_equiv_pos_site_id
 _symmetry_equiv_pos_as_xyz
  1  'x, y, z'
loop_
 _atom_site_type_symbol
 _atom_site_label
 _atom_site_symmetry_multiplicity
 _atom_site_fract_x
 _atom_site_fract_y
 _atom_site_fract_z
 _atom_site_occupancy
  Tb  Tb0  1  0.225784  0.225784  0.848282  1
  Dy  Dy1  1  0.317541  0.317541  0.359882  1
  Dy  Dy2  1  0.127947  0.127947  0.442096  1
  Dy  Dy3  1  0.871965  0.871965  0.557956  1
  Dy  Dy4  1  0.682558  0.682558  0.640112  1
  Dy  Dy5  1  0.774118  0.774118  0.152476  1
  C  C6  1  0.279651  0.279651  0.608826  1
  C  C7  1  0.720524  0.720524  0.390218  1
  Cl  Cl8  1  0.168865  0.168865  0.162115  1
  Cl  Cl9  1  0.831886  0.831886  0.838011  1
  Cl  Cl10  1  0.058702  0.058702  0.715486  1
  Cl  Cl11  1  0.941331  0.941331  0.284344  1
  Cl  Cl12  1  0.500062  0.500062  0.499935  1
  Cl  Cl13  1  0.388987  0.388987  0.068382  1
  Cl  Cl14  1  0.610080  0.610080  0.931880  1
