# generated using pymatgen
data_Er4SiBr6
_symmetry_space_group_name_H-M   'P 1'
_cell_length_a   4.01565400
_cell_length_b   13.10400400
_cell_length_c   13.87886900
_cell_angle_alpha   90.00000000
_cell_angle_beta   90.00000000
_cell_angle_gamma   90.00000000
_symmetry_Int_Tables_number   1
_chemical_formula_structural   Er4SiBr6
_chemical_formula_sum   'Er8 Si2 Br12'
_cell_volume   730.32199305
_cell_formula_units_Z   2
loop_
 _symmetry_equiv_pos_site_id
 _symmetry_equiv_pos_as_xyz
  1  'x, y, z'
loop_
 _atom_site_type_symbol
 _atom_site_label
 _atom_site_symmetry_multiplicity
 _atom_site_fract_x
 _atom_site_fract_y
 _atom_site_fract_z
 _atom_site_occupancy
  Er  Er0  1  0.500000  0.118135  0.341134  1
  Er  Er1  1  0.500000  0.881865  0.658866  1
  Er  Er2  1  0.500000  0.618135  0.158866  1
  Er  Er3  1  0.500000  0.381865  0.841134  1
  Er  Er4  1  0.000000  0.117625  0.578033  1
  Er  Er5  1  0.000000  0.882375  0.421967  1
  Er  Er6  1  0.000000  0.617625  0.921967  1
  Er  Er7  1  0.000000  0.382375  0.078033  1
  Si  Si8  1  0.500000  0.000000  0.500000  1
  Si  Si9  1  0.500000  0.500000  0.000000  1
  Br  Br10  1  0.500000  0.243533  0.162518  1
  Br  Br11  1  0.500000  0.756467  0.837482  1
  Br  Br12  1  0.500000  0.743533  0.337482  1
  Br  Br13  1  0.500000  0.256467  0.662518  1
  Br  Br14  1  0.000000  0.255887  0.411292  1
  Br  Br15  1  0.000000  0.744113  0.588708  1
  Br  Br16  1  0.000000  0.755887  0.088708  1
  Br  Br17  1  0.000000  0.244113  0.911292  1
  Br  Br18  1  0.000000  0.001507  0.242696  1
  Br  Br19  1  0.000000  0.998493  0.757304  1
  Br  Br20  1  0.000000  0.501507  0.257304  1
  Br  Br21  1  0.000000  0.498493  0.742696  1
