# generated using pymatgen
data_DyHo7(TcC2)4
_symmetry_space_group_name_H-M   'P 1'
_cell_length_a   5.08175600
_cell_length_b   6.55355769
_cell_length_c   9.84611000
_cell_angle_alpha   89.95829819
_cell_angle_beta   90.00000000
_cell_angle_gamma   90.00000000
_symmetry_Int_Tables_number   1
_chemical_formula_structural   DyHo7(TcC2)4
_chemical_formula_sum   'Dy1 Ho7 Tc4 C8'
_cell_volume   327.91063624
_cell_formula_units_Z   1
loop_
 _symmetry_equiv_pos_site_id
 _symmetry_equiv_pos_as_xyz
  1  'x, y, z'
loop_
 _atom_site_type_symbol
 _atom_site_label
 _atom_site_symmetry_multiplicity
 _atom_site_fract_x
 _atom_site_fract_y
 _atom_site_fract_z
 _atom_site_occupancy
  Dy  Dy0  1  0.250000  0.032541  0.284137  1
  Ho  Ho1  1  0.250000  0.677568  0.557770  1
  Ho  Ho2  1  0.750000  0.322741  0.442391  1
  Ho  Ho3  1  0.750000  0.822451  0.057610  1
  Ho  Ho4  1  0.250000  0.177321  0.942280  1
  Ho  Ho5  1  0.250000  0.532451  0.216261  1
  Ho  Ho6  1  0.750000  0.467290  0.783600  1
  Ho  Ho7  1  0.750000  0.967368  0.716199  1
  Tc  Tc8  1  0.250000  0.718612  0.866289  1
  Tc  Tc9  1  0.750000  0.281228  0.133445  1
  Tc  Tc10  1  0.750000  0.781053  0.366377  1
  Tc  Tc11  1  0.250000  0.218992  0.633641  1
  C  C12  1  0.250000  0.451907  0.758676  1
  C  C13  1  0.750000  0.547982  0.241374  1
  C  C14  1  0.750000  0.048039  0.258434  1
  C  C15  1  0.250000  0.951934  0.741352  1
  C  C16  1  0.250000  0.821610  0.049249  1
  C  C17  1  0.750000  0.177891  0.950459  1
  C  C18  1  0.750000  0.677792  0.549588  1
  C  C19  1  0.250000  0.323225  0.450869  1
