# generated using pymatgen
data_YHf11(TaSi2)8
_symmetry_space_group_name_H-M   'P 1'
_cell_length_a   6.92568574
_cell_length_b   6.92669926
_cell_length_c   12.73899800
_cell_angle_alpha   90.32285557
_cell_angle_beta   89.94049274
_cell_angle_gamma   89.98361816
_symmetry_Int_Tables_number   1
_chemical_formula_structural   YHf11(TaSi2)8
_chemical_formula_sum   'Y1 Hf11 Ta8 Si16'
_cell_volume   611.10696685
_cell_formula_units_Z   1
loop_
 _symmetry_equiv_pos_site_id
 _symmetry_equiv_pos_as_xyz
  1  'x, y, z'
loop_
 _atom_site_type_symbol
 _atom_site_label
 _atom_site_symmetry_multiplicity
 _atom_site_fract_x
 _atom_site_fract_y
 _atom_site_fract_z
 _atom_site_occupancy
  Y  Y0  1  0.338950  0.004975  0.468549  1
  Hf  Hf1  1  0.650262  0.496034  0.876797  1
  Hf  Hf2  1  0.503636  0.351909  0.624731  1
  Hf  Hf3  1  0.500210  0.647411  0.123860  1
  Hf  Hf4  1  0.147741  0.999328  0.874325  1
  Hf  Hf5  1  0.000415  0.656141  0.033608  1
  Hf  Hf6  1  0.998406  0.345998  0.529195  1
  Hf  Hf7  1  0.658207  0.998162  0.969593  1
  Hf  Hf8  1  0.154298  0.499649  0.780087  1
  Hf  Hf9  1  0.843332  0.501017  0.279761  1
  Hf  Hf10  1  0.500984  0.157676  0.220433  1
  Hf  Hf11  1  0.500597  0.841625  0.717582  1
  Ta  Ta12  1  0.350543  0.507068  0.374621  1
  Ta  Ta13  1  0.852034  0.997620  0.373082  1
  Ta  Ta14  1  0.006010  0.148615  0.125569  1
  Ta  Ta15  1  0.994999  0.848334  0.626917  1
  Ta  Ta16  1  0.674724  0.672154  0.498889  1
  Ta  Ta17  1  0.829308  0.171218  0.750253  1
  Ta  Ta18  1  0.170418  0.830194  0.250094  1
  Ta  Ta19  1  0.328219  0.324511  0.001557  1
  Si  Si20  1  0.043736  0.699582  0.435371  1
  Si  Si21  1  0.957003  0.301452  0.936740  1
  Si  Si22  1  0.705362  0.045262  0.564084  1
  Si  Si23  1  0.198464  0.454256  0.185873  1
  Si  Si24  1  0.802899  0.546822  0.684773  1
  Si  Si25  1  0.454357  0.195247  0.815092  1
  Si  Si26  1  0.550109  0.799580  0.314121  1
  Si  Si27  1  0.302051  0.955225  0.065730  1
  Si  Si28  1  0.855300  0.795273  0.820242  1
  Si  Si29  1  0.135126  0.212163  0.320635  1
  Si  Si30  1  0.797018  0.863086  0.178192  1
  Si  Si31  1  0.288906  0.638477  0.573245  1
  Si  Si32  1  0.709285  0.353852  0.074549  1
  Si  Si33  1  0.641514  0.297004  0.425482  1
  Si  Si34  1  0.355557  0.701560  0.928106  1
  Si  Si35  1  0.200023  0.141517  0.678264  1
