# generated using pymatgen
data_Tb4ErTm3Pt4
_symmetry_space_group_name_H-M   'P 1'
_cell_length_a   4.75306200
_cell_length_b   7.13095401
_cell_length_c   8.77264088
_cell_angle_alpha   90.04906212
_cell_angle_beta   90.00000000
_cell_angle_gamma   90.00000000
_symmetry_Int_Tables_number   1
_chemical_formula_structural   Tb4ErTm3Pt4
_chemical_formula_sum   'Tb4 Er1 Tm3 Pt4'
_cell_volume   297.33860991
_cell_formula_units_Z   1
loop_
 _symmetry_equiv_pos_site_id
 _symmetry_equiv_pos_as_xyz
  1  'x, y, z'
loop_
 _atom_site_type_symbol
 _atom_site_label
 _atom_site_symmetry_multiplicity
 _atom_site_fract_x
 _atom_site_fract_y
 _atom_site_fract_z
 _atom_site_occupancy
  Tb  Tb0  1  0.750000  0.507471  0.831029  1
  Tb  Tb1  1  0.250000  0.492375  0.169397  1
  Tb  Tb2  1  0.750000  0.007758  0.668954  1
  Tb  Tb3  1  0.250000  0.992236  0.330477  1
  Er  Er4  1  0.750000  0.643210  0.419369  1
  Tm  Tm5  1  0.250000  0.356530  0.580497  1
  Tm  Tm6  1  0.750000  0.143154  0.080477  1
  Tm  Tm7  1  0.250000  0.857096  0.919547  1
  Pt  Pt8  1  0.750000  0.243642  0.408579  1
  Pt  Pt9  1  0.250000  0.756017  0.591458  1
  Pt  Pt10  1  0.750000  0.744222  0.091437  1
  Pt  Pt11  1  0.250000  0.256289  0.908780  1
