# generated using pymatgen
data_Dy12InSi4Au
_symmetry_space_group_name_H-M   'P 1'
_cell_length_a   8.48674685
_cell_length_b   8.48674780
_cell_length_c   8.48674700
_cell_angle_alpha   112.26186132
_cell_angle_beta   111.09456469
_cell_angle_gamma   105.14433195
_symmetry_Int_Tables_number   1
_chemical_formula_structural   Dy12InSi4Au
_chemical_formula_sum   'Dy12 In1 Si4 Au1'
_cell_volume   468.50030807
_cell_formula_units_Z   1
loop_
 _symmetry_equiv_pos_site_id
 _symmetry_equiv_pos_as_xyz
  1  'x, y, z'
loop_
 _atom_site_type_symbol
 _atom_site_label
 _atom_site_symmetry_multiplicity
 _atom_site_fract_x
 _atom_site_fract_y
 _atom_site_fract_z
 _atom_site_occupancy
  Dy  Dy0  1  0.435556  0.235420  0.200138  1
  Dy  Dy1  1  0.564444  0.764580  0.799862  1
  Dy  Dy2  1  0.035281  0.235420  0.799862  1
  Dy  Dy3  1  0.964719  0.764580  0.200138  1
  Dy  Dy4  1  0.182888  0.272718  0.455606  1
  Dy  Dy5  1  0.817112  0.727282  0.544394  1
  Dy  Dy6  1  0.182888  0.727282  0.910171  1
  Dy  Dy7  1  0.817112  0.272718  0.089829  1
  Dy  Dy8  1  0.321241  0.617843  0.296603  1
  Dy  Dy9  1  0.678759  0.382157  0.703397  1
  Dy  Dy10  1  0.321241  0.024639  0.703397  1
  Dy  Dy11  1  0.678759  0.975361  0.296603  1
  In  In12  1  0.500000  0.500000  0.000000  1
  Si  Si13  1  0.366544  0.000000  0.366544  1
  Si  Si14  1  0.633456  0.000000  0.633456  1
  Si  Si15  1  0.116349  0.616349  0.500000  1
  Si  Si16  1  0.883651  0.383651  0.500000  1
  Au  Au17  1  0.000000  0.000000  0.000000  1
