# generated using pymatgen
data_CaEr6(CCl5)2
_symmetry_space_group_name_H-M   'P 1'
_cell_length_a   10.09185141
_cell_length_b   10.09185099
_cell_length_c   12.59167333
_cell_angle_alpha   80.91187032
_cell_angle_beta   80.91187031
_cell_angle_gamma   21.52637150
_symmetry_Int_Tables_number   1
_chemical_formula_structural   CaEr6(CCl5)2
_chemical_formula_sum   'Ca1 Er6 C2 Cl10'
_cell_volume   464.43013917
_cell_formula_units_Z   1
loop_
 _symmetry_equiv_pos_site_id
 _symmetry_equiv_pos_as_xyz
  1  'x, y, z'
loop_
 _atom_site_type_symbol
 _atom_site_label
 _atom_site_symmetry_multiplicity
 _atom_site_fract_x
 _atom_site_fract_y
 _atom_site_fract_z
 _atom_site_occupancy
  Ca  Ca0  1  0.000000  0.000000  0.000000  1
  Er  Er1  1  0.818115  0.818115  0.509615  1
  Er  Er2  1  0.181885  0.181885  0.490385  1
  Er  Er3  1  0.697842  0.697842  0.724441  1
  Er  Er4  1  0.302158  0.302158  0.275559  1
  Er  Er5  1  0.347250  0.347250  0.734614  1
  Er  Er6  1  0.652750  0.652750  0.265386  1
  C  C7  1  0.263138  0.263138  0.625835  1
  C  C8  1  0.736862  0.736862  0.374165  1
  Cl  Cl9  1  0.449785  0.449785  0.877443  1
  Cl  Cl10  1  0.550215  0.550215  0.122557  1
  Cl  Cl11  1  0.786297  0.786297  0.870975  1
  Cl  Cl12  1  0.213703  0.213703  0.129025  1
  Cl  Cl13  1  0.126283  0.126283  0.860015  1
  Cl  Cl14  1  0.075045  0.075045  0.371408  1
  Cl  Cl15  1  0.924955  0.924955  0.628592  1
  Cl  Cl16  1  0.403598  0.403598  0.386613  1
  Cl  Cl17  1  0.596402  0.596402  0.613387  1
  Cl  Cl18  1  0.873717  0.873717  0.139985  1
