# generated using pymatgen
data_HoMo(SeO3)4
_symmetry_space_group_name_H-M   'P 1'
_cell_length_a   8.60290500
_cell_length_b   8.81242348
_cell_length_c   8.46892300
_cell_angle_alpha   91.02911923
_cell_angle_beta   90.00000000
_cell_angle_gamma   90.00000000
_symmetry_Int_Tables_number   1
_chemical_formula_structural   HoMo(SeO3)4
_chemical_formula_sum   'Ho2 Mo2 Se8 O24'
_cell_volume   641.94616864
_cell_formula_units_Z   2
loop_
 _symmetry_equiv_pos_site_id
 _symmetry_equiv_pos_as_xyz
  1  'x, y, z'
loop_
 _atom_site_type_symbol
 _atom_site_label
 _atom_site_symmetry_multiplicity
 _atom_site_fract_x
 _atom_site_fract_y
 _atom_site_fract_z
 _atom_site_occupancy
  Ho  Ho0  1  0.000000  0.500000  0.000000  1
  Ho  Ho1  1  0.500000  0.500000  0.500000  1
  Mo  Mo2  1  0.000000  0.000000  0.500000  1
  Mo  Mo3  1  0.500000  0.000000  0.000000  1
  Se  Se4  1  0.335538  0.691966  0.170905  1
  Se  Se5  1  0.835538  0.308034  0.329095  1
  Se  Se6  1  0.694066  0.840441  0.691629  1
  Se  Se7  1  0.194066  0.159559  0.808371  1
  Se  Se8  1  0.664462  0.308034  0.829095  1
  Se  Se9  1  0.164462  0.691966  0.670905  1
  Se  Se10  1  0.305934  0.159559  0.308371  1
  Se  Se11  1  0.805934  0.840441  0.191629  1
  O  O12  1  0.243574  0.569543  0.047633  1
  O  O13  1  0.743574  0.430457  0.452367  1
  O  O14  1  0.770881  0.962704  0.549541  1
  O  O15  1  0.270881  0.037296  0.950459  1
  O  O16  1  0.550687  0.966189  0.769197  1
  O  O17  1  0.474794  0.585252  0.253550  1
  O  O18  1  0.974794  0.414748  0.246450  1
  O  O19  1  0.050687  0.033811  0.730803  1
  O  O20  1  0.954103  0.213165  0.477342  1
  O  O21  1  0.579702  0.731943  0.575910  1
  O  O22  1  0.454103  0.786835  0.022658  1
  O  O23  1  0.079702  0.268057  0.924090  1
  O  O24  1  0.756426  0.430457  0.952367  1
  O  O25  1  0.256426  0.569543  0.547633  1
  O  O26  1  0.229119  0.037296  0.450459  1
  O  O27  1  0.729119  0.962704  0.049541  1
  O  O28  1  0.449313  0.033811  0.230803  1
  O  O29  1  0.525206  0.414748  0.746450  1
  O  O30  1  0.025206  0.585252  0.753550  1
  O  O31  1  0.949313  0.966189  0.269197  1
  O  O32  1  0.045897  0.786835  0.522658  1
  O  O33  1  0.420298  0.268057  0.424090  1
  O  O34  1  0.545897  0.213165  0.977342  1
  O  O35  1  0.920298  0.731943  0.075910  1
