# generated using pymatgen
data_Tm6Sc4(SnSb)3
_symmetry_space_group_name_H-M   'P 1'
_cell_length_a   8.73084122
_cell_length_b   8.72250772
_cell_length_c   6.12627900
_cell_angle_alpha   90.00000000
_cell_angle_beta   90.00000000
_cell_angle_gamma   120.00622434
_symmetry_Int_Tables_number   1
_chemical_formula_structural   Tm6Sc4(SnSb)3
_chemical_formula_sum   'Tm6 Sc4 Sn3 Sb3'
_cell_volume   404.01511484
_cell_formula_units_Z   1
loop_
 _symmetry_equiv_pos_site_id
 _symmetry_equiv_pos_as_xyz
  1  'x, y, z'
loop_
 _atom_site_type_symbol
 _atom_site_label
 _atom_site_symmetry_multiplicity
 _atom_site_fract_x
 _atom_site_fract_y
 _atom_site_fract_z
 _atom_site_occupancy
  Tm  Tm0  1  0.239646  0.998129  0.250000  1
  Tm  Tm1  1  0.759402  0.001087  0.750000  1
  Tm  Tm2  1  0.997185  0.240465  0.250000  1
  Tm  Tm3  1  0.758336  0.759252  0.250000  1
  Tm  Tm4  1  0.243016  0.241313  0.750000  1
  Tm  Tm5  1  0.002808  0.760513  0.750000  1
  Sc  Sc6  1  0.332904  0.666949  0.999528  1
  Sc  Sc7  1  0.667079  0.332781  0.500218  1
  Sc  Sc8  1  0.667079  0.332781  0.999782  1
  Sc  Sc9  1  0.332904  0.666949  0.500472  1
  Sn  Sn10  1  0.601298  0.999532  0.250000  1
  Sn  Sn11  1  0.399103  0.000865  0.750000  1
  Sn  Sn12  1  0.998837  0.602321  0.250000  1
  Sb  Sb13  1  0.394766  0.395302  0.250000  1
  Sb  Sb14  1  0.605094  0.605082  0.750000  1
  Sb  Sb15  1  0.000539  0.396680  0.750000  1
