# generated using pymatgen
data_DyLuThGa2
_symmetry_space_group_name_H-M   'P 1'
_cell_length_a   7.65656400
_cell_length_b   7.66659600
_cell_length_c   4.39872200
_cell_angle_alpha   90.00000000
_cell_angle_beta   90.00000000
_cell_angle_gamma   90.00000000
_symmetry_Int_Tables_number   1
_chemical_formula_structural   DyLuThGa2
_chemical_formula_sum   'Dy2 Lu2 Th2 Ga4'
_cell_volume   258.20402660
_cell_formula_units_Z   2
loop_
 _symmetry_equiv_pos_site_id
 _symmetry_equiv_pos_as_xyz
  1  'x, y, z'
loop_
 _atom_site_type_symbol
 _atom_site_label
 _atom_site_symmetry_multiplicity
 _atom_site_fract_x
 _atom_site_fract_y
 _atom_site_fract_z
 _atom_site_occupancy
  Dy  Dy0  1  0.675906  0.175501  0.500000  1
  Dy  Dy1  1  0.175906  0.324499  0.500000  1
  Lu  Lu2  1  0.999956  0.003760  0.000000  1
  Lu  Lu3  1  0.499956  0.496240  0.000000  1
  Th  Th4  1  0.825364  0.673600  0.500000  1
  Th  Th5  1  0.325364  0.826400  0.500000  1
  Ga  Ga6  1  0.877353  0.375903  0.000000  1
  Ga  Ga7  1  0.377353  0.124097  0.000000  1
  Ga  Ga8  1  0.621421  0.881825  0.000000  1
  Ga  Ga9  1  0.121421  0.618175  0.000000  1
