# generated using pymatgen
data_Sc5V3(P3Rh4)4
_symmetry_space_group_name_H-M   'P 1'
_cell_length_a   12.57257300
_cell_length_b   12.57257222
_cell_length_c   3.84101900
_cell_angle_alpha   90.00000000
_cell_angle_beta   90.00000000
_cell_angle_gamma   119.99999941
_symmetry_Int_Tables_number   1
_chemical_formula_structural   Sc5V3(P3Rh4)4
_chemical_formula_sum   'Sc5 V3 P12 Rh16'
_cell_volume   525.80582709
_cell_formula_units_Z   1
loop_
 _symmetry_equiv_pos_site_id
 _symmetry_equiv_pos_as_xyz
  1  'x, y, z'
loop_
 _atom_site_type_symbol
 _atom_site_label
 _atom_site_symmetry_multiplicity
 _atom_site_fract_x
 _atom_site_fract_y
 _atom_site_fract_z
 _atom_site_occupancy
  Sc  Sc0  1  0.333333  0.666667  0.000000  1
  Sc  Sc1  1  0.666667  0.333333  0.000000  1
  Sc  Sc2  1  0.811515  0.000000  0.500000  1
  Sc  Sc3  1  0.000000  0.811515  0.500000  1
  Sc  Sc4  1  0.188485  0.188485  0.500000  1
  V  V5  1  0.448900  0.000000  0.000000  1
  V  V6  1  0.000000  0.448900  0.000000  1
  V  V7  1  0.551100  0.551100  0.000000  1
  P  P8  1  0.174728  0.000000  0.000000  1
  P  P9  1  0.000000  0.174728  0.000000  1
  P  P10  1  0.825272  0.825272  0.000000  1
  P  P11  1  0.167063  0.484292  0.500000  1
  P  P12  1  0.515708  0.682770  0.500000  1
  P  P13  1  0.317230  0.832937  0.500000  1
  P  P14  1  0.682770  0.515708  0.500000  1
  P  P15  1  0.832937  0.317230  0.500000  1
  P  P16  1  0.484292  0.167063  0.500000  1
  P  P17  1  0.638981  0.000000  0.000000  1
  P  P18  1  0.000000  0.638981  0.000000  1
  P  P19  1  0.361019  0.361019  0.000000  1
  Rh  Rh20  1  0.357069  0.488559  0.500000  1
  Rh  Rh21  1  0.511441  0.868510  0.500000  1
  Rh  Rh22  1  0.131490  0.642931  0.500000  1
  Rh  Rh23  1  0.868510  0.511441  0.500000  1
  Rh  Rh24  1  0.642931  0.131490  0.500000  1
  Rh  Rh25  1  0.488559  0.357069  0.500000  1
  Rh  Rh26  1  0.178165  0.373854  0.000000  1
  Rh  Rh27  1  0.626146  0.804312  0.000000  1
  Rh  Rh28  1  0.195688  0.821835  0.000000  1
  Rh  Rh29  1  0.804312  0.626146  0.000000  1
  Rh  Rh30  1  0.821835  0.195688  0.000000  1
  Rh  Rh31  1  0.373854  0.178165  0.000000  1
  Rh  Rh32  1  0.281272  0.000000  0.500000  1
  Rh  Rh33  1  0.000000  0.281272  0.500000  1
  Rh  Rh34  1  0.718728  0.718728  0.500000  1
  Rh  Rh35  1  0.000000  0.000000  0.000000  1
