# generated using pymatgen
data_Tb11Hg9Ir4
_symmetry_space_group_name_H-M   'P 1'
_cell_length_a   3.74640200
_cell_length_b   13.09703366
_cell_length_c   13.09703435
_cell_angle_alpha   114.63392351
_cell_angle_beta   90.00000000
_cell_angle_gamma   90.00000000
_symmetry_Int_Tables_number   1
_chemical_formula_structural   Tb11Hg9Ir4
_chemical_formula_sum   'Tb11 Hg9 Ir4'
_cell_volume   584.14295555
_cell_formula_units_Z   1
loop_
 _symmetry_equiv_pos_site_id
 _symmetry_equiv_pos_as_xyz
  1  'x, y, z'
loop_
 _atom_site_type_symbol
 _atom_site_label
 _atom_site_symmetry_multiplicity
 _atom_site_fract_x
 _atom_site_fract_y
 _atom_site_fract_z
 _atom_site_occupancy
  Tb  Tb0  1  0.000000  0.912145  0.580903  1
  Tb  Tb1  1  0.000000  0.087855  0.419097  1
  Tb  Tb2  1  0.000000  0.580903  0.912145  1
  Tb  Tb3  1  0.000000  0.419097  0.087855  1
  Tb  Tb4  1  0.000000  0.166053  0.833947  1
  Tb  Tb5  1  0.000000  0.833947  0.166053  1
  Tb  Tb6  1  0.000000  0.365860  0.634140  1
  Tb  Tb7  1  0.000000  0.634140  0.365860  1
  Tb  Tb8  1  0.000000  0.706648  0.706648  1
  Tb  Tb9  1  0.000000  0.293352  0.293352  1
  Tb  Tb10  1  0.000000  0.000000  0.000000  1
  Hg  Hg11  1  0.500000  0.146043  0.632013  1
  Hg  Hg12  1  0.500000  0.853957  0.367987  1
  Hg  Hg13  1  0.500000  0.632013  0.146043  1
  Hg  Hg14  1  0.500000  0.367987  0.853957  1
  Hg  Hg15  1  0.500000  0.943015  0.789195  1
  Hg  Hg16  1  0.500000  0.056985  0.210805  1
  Hg  Hg17  1  0.500000  0.789195  0.943015  1
  Hg  Hg18  1  0.500000  0.210805  0.056985  1
  Hg  Hg19  1  0.500000  0.500000  0.500000  1
  Ir  Ir20  1  0.500000  0.739486  0.550144  1
  Ir  Ir21  1  0.500000  0.260514  0.449856  1
  Ir  Ir22  1  0.500000  0.550144  0.739486  1
  Ir  Ir23  1  0.500000  0.449856  0.260514  1
