# generated using pymatgen
data_Tb7SmHf11Si16Pd
_symmetry_space_group_name_H-M   'P 1'
_cell_length_a   7.30645233
_cell_length_b   7.30715795
_cell_length_c   13.30608974
_cell_angle_alpha   89.76563521
_cell_angle_beta   90.18808112
_cell_angle_gamma   89.86377488
_symmetry_Int_Tables_number   1
_chemical_formula_structural   Tb7SmHf11Si16Pd
_chemical_formula_sum   'Tb7 Sm1 Hf11 Si16 Pd1'
_cell_volume   710.39236247
_cell_formula_units_Z   1
loop_
 _symmetry_equiv_pos_site_id
 _symmetry_equiv_pos_as_xyz
  1  'x, y, z'
loop_
 _atom_site_type_symbol
 _atom_site_label
 _atom_site_symmetry_multiplicity
 _atom_site_fract_x
 _atom_site_fract_y
 _atom_site_fract_z
 _atom_site_occupancy
  Tb  Tb0  1  0.005074  0.653987  0.716764  1
  Tb  Tb1  1  0.155852  0.495091  0.464715  1
  Tb  Tb2  1  0.499187  0.848404  0.032755  1
  Tb  Tb3  1  0.848468  0.499534  0.966822  1
  Tb  Tb4  1  0.495047  0.155500  0.535584  1
  Tb  Tb5  1  0.345375  0.998019  0.789213  1
  Tb  Tb6  1  0.653816  0.004875  0.283368  1
  Sm  Sm7  1  0.997218  0.344694  0.210516  1
  Hf  Hf8  1  0.824646  0.824832  0.500225  1
  Hf  Hf9  1  0.322738  0.677290  0.248773  1
  Hf  Hf10  1  0.676921  0.322215  0.751289  1
  Hf  Hf11  1  0.146673  0.996203  0.373621  1
  Hf  Hf12  1  0.855815  0.003416  0.878562  1
  Hf  Hf13  1  0.503594  0.646790  0.626312  1
  Hf  Hf14  1  0.354454  0.493131  0.877755  1
  Hf  Hf15  1  0.492684  0.354392  0.121922  1
  Hf  Hf16  1  0.646812  0.504161  0.374092  1
  Hf  Hf17  1  0.996180  0.146011  0.626790  1
  Hf  Hf18  1  0.003476  0.855649  0.121113  1
  Si  Si19  1  0.361318  0.295483  0.315849  1
  Si  Si20  1  0.639083  0.704791  0.819358  1
  Si  Si21  1  0.206831  0.861613  0.568327  1
  Si  Si22  1  0.133610  0.781888  0.929340  1
  Si  Si23  1  0.780021  0.132219  0.069779  1
  Si  Si24  1  0.861633  0.206522  0.432184  1
  Si  Si25  1  0.295975  0.359755  0.684558  1
  Si  Si26  1  0.703599  0.640064  0.180693  1
  Si  Si27  1  0.293199  0.054053  0.185500  1
  Si  Si28  1  0.705158  0.949998  0.686780  1
  Si  Si29  1  0.450212  0.795561  0.435256  1
  Si  Si30  1  0.210263  0.562287  0.063336  1
  Si  Si31  1  0.560576  0.209326  0.936103  1
  Si  Si32  1  0.795517  0.450169  0.564964  1
  Si  Si33  1  0.055199  0.292220  0.814604  1
  Si  Si34  1  0.949642  0.706568  0.313657  1
  Pd  Pd35  1  0.174134  0.173291  0.999523  1
