# generated using pymatgen
data_DyThMn6Co6P7
_symmetry_space_group_name_H-M   'P 1'
_cell_length_a   9.13417600
_cell_length_b   9.13417474
_cell_length_c   3.66467100
_cell_angle_alpha   90.00000000
_cell_angle_beta   90.00000000
_cell_angle_gamma   120.00000457
_symmetry_Int_Tables_number   1
_chemical_formula_structural   DyThMn6Co6P7
_chemical_formula_sum   'Dy1 Th1 Mn6 Co6 P7'
_cell_volume   264.79165497
_cell_formula_units_Z   1
loop_
 _symmetry_equiv_pos_site_id
 _symmetry_equiv_pos_as_xyz
  1  'x, y, z'
loop_
 _atom_site_type_symbol
 _atom_site_label
 _atom_site_symmetry_multiplicity
 _atom_site_fract_x
 _atom_site_fract_y
 _atom_site_fract_z
 _atom_site_occupancy
  Dy  Dy0  1  0.666667  0.333333  0.000000  1
  Th  Th1  1  0.333333  0.666667  0.500000  1
  Mn  Mn2  1  0.876427  0.723598  0.000000  1
  Mn  Mn3  1  0.276402  0.152829  0.000000  1
  Mn  Mn4  1  0.847171  0.123573  0.000000  1
  Mn  Mn5  1  0.119392  0.894229  0.500000  1
  Mn  Mn6  1  0.105771  0.225163  0.500000  1
  Mn  Mn7  1  0.774837  0.880608  0.500000  1
  Co  Co8  1  0.369687  0.938951  0.000000  1
  Co  Co9  1  0.061049  0.430736  0.000000  1
  Co  Co10  1  0.569264  0.630313  0.000000  1
  Co  Co11  1  0.947692  0.561304  0.500000  1
  Co  Co12  1  0.438696  0.386388  0.500000  1
  Co  Co13  1  0.613612  0.052308  0.500000  1
  P  P14  1  0.102789  0.698423  0.000000  1
  P  P15  1  0.301577  0.404366  0.000000  1
  P  P16  1  0.595634  0.897211  0.000000  1
  P  P17  1  0.711322  0.593600  0.500000  1
  P  P18  1  0.406400  0.117723  0.500000  1
  P  P19  1  0.882277  0.288678  0.500000  1
  P  P20  1  0.000000  0.000000  0.000000  1
