# generated using pymatgen
data_Y5Al2P10Ir19
_symmetry_space_group_name_H-M   'P 1'
_cell_length_a   12.82427495
_cell_length_b   12.76002642
_cell_length_c   3.99657800
_cell_angle_alpha   90.00000000
_cell_angle_beta   90.00000000
_cell_angle_gamma   120.31240914
_symmetry_Int_Tables_number   1
_chemical_formula_structural   Y5Al2P10Ir19
_chemical_formula_sum   'Y5 Al2 P10 Ir19'
_cell_volume   564.58263480
_cell_formula_units_Z   1
loop_
 _symmetry_equiv_pos_site_id
 _symmetry_equiv_pos_as_xyz
  1  'x, y, z'
loop_
 _atom_site_type_symbol
 _atom_site_label
 _atom_site_symmetry_multiplicity
 _atom_site_fract_x
 _atom_site_fract_y
 _atom_site_fract_z
 _atom_site_occupancy
  Y  Y0  1  0.003816  0.816183  0.500000  1
  Y  Y1  1  0.180786  0.183824  0.500000  1
  Y  Y2  1  0.815092  0.998060  0.500000  1
  Y  Y3  1  0.334473  0.666492  0.000000  1
  Y  Y4  1  0.665807  0.333101  0.000000  1
  Al  Al5  1  0.519623  0.679408  0.500000  1
  Al  Al6  1  0.322479  0.839417  0.500000  1
  P  P7  1  0.994854  0.177284  0.000000  1
  P  P8  1  0.825741  0.818987  0.000000  1
  P  P9  1  0.180035  0.002491  0.000000  1
  P  P10  1  0.169647  0.482940  0.500000  1
  P  P11  1  0.481136  0.175345  0.500000  1
  P  P12  1  0.692597  0.517485  0.500000  1
  P  P13  1  0.824141  0.308117  0.500000  1
  P  P14  1  0.004828  0.642521  0.000000  1
  P  P15  1  0.357028  0.362773  0.000000  1
  P  P16  1  0.636339  0.993347  0.000000  1
  Ir  Ir17  1  0.994218  0.283095  0.500000  1
  Ir  Ir18  1  0.726837  0.715322  0.500000  1
  Ir  Ir19  1  0.282249  0.009207  0.500000  1
  Ir  Ir20  1  0.637096  0.808386  0.000000  1
  Ir  Ir21  1  0.191210  0.821854  0.000000  1
  Ir  Ir22  1  0.171670  0.374791  0.000000  1
  Ir  Ir23  1  0.377436  0.187557  0.000000  1
  Ir  Ir24  1  0.809521  0.620903  0.000000  1
  Ir  Ir25  1  0.813714  0.191145  0.000000  1
  Ir  Ir26  1  0.528896  0.879781  0.500000  1
  Ir  Ir27  1  0.127342  0.635618  0.500000  1
  Ir  Ir28  1  0.348093  0.472776  0.500000  1
  Ir  Ir29  1  0.496833  0.366330  0.500000  1
  Ir  Ir30  1  0.867427  0.503714  0.500000  1
  Ir  Ir31  1  0.634523  0.134426  0.500000  1
  Ir  Ir32  1  0.001216  0.002421  0.000000  1
  Ir  Ir33  1  0.994739  0.457545  0.000000  1
  Ir  Ir34  1  0.535253  0.547185  0.000000  1
  Ir  Ir35  1  0.453304  0.990168  0.000000  1
