# generated using pymatgen
data_DyAl5Cu6
_symmetry_space_group_name_H-M   'P 1'
_cell_length_a   10.30776493
_cell_length_b   8.16658409
_cell_length_c   7.81710408
_cell_angle_alpha   80.28278185
_cell_angle_beta   51.34379602
_cell_angle_gamma   48.37341037
_symmetry_Int_Tables_number   1
_chemical_formula_structural   DyAl5Cu6
_chemical_formula_sum   'Dy2 Al10 Cu12'
_cell_volume   348.28810815
_cell_formula_units_Z   2
loop_
 _symmetry_equiv_pos_site_id
 _symmetry_equiv_pos_as_xyz
  1  'x, y, z'
loop_
 _atom_site_type_symbol
 _atom_site_label
 _atom_site_symmetry_multiplicity
 _atom_site_fract_x
 _atom_site_fract_y
 _atom_site_fract_z
 _atom_site_occupancy
  Dy  Dy0  1  0.000000  0.000000  0.000000  1
  Dy  Dy1  1  0.250000  0.250000  0.250000  1
  Al  Al2  1  0.500000  0.500000  0.500000  1
  Al  Al3  1  0.750000  0.750000  0.750000  1
  Al  Al4  1  0.754456  0.071397  0.836107  1
  Al  Al5  1  0.836107  0.338041  0.754456  1
  Al  Al6  1  0.071397  0.754456  0.338041  1
  Al  Al7  1  0.338041  0.836107  0.071397  1
  Al  Al8  1  0.495544  0.178603  0.413893  1
  Al  Al9  1  0.413893  0.911959  0.495544  1
  Al  Al10  1  0.178603  0.495544  0.911959  1
  Al  Al11  1  0.911959  0.413893  0.178603  1
  Cu  Cu12  1  0.625000  0.125000  0.625000  1
  Cu  Cu13  1  0.625000  0.625000  0.625000  1
  Cu  Cu14  1  0.125000  0.625000  0.625000  1
  Cu  Cu15  1  0.625000  0.625000  0.125000  1
  Cu  Cu16  1  0.491487  0.434638  0.183207  1
  Cu  Cu17  1  0.183207  0.890668  0.491487  1
  Cu  Cu18  1  0.434638  0.491487  0.890668  1
  Cu  Cu19  1  0.890668  0.183207  0.434638  1
  Cu  Cu20  1  0.758513  0.815362  0.066793  1
  Cu  Cu21  1  0.066793  0.359332  0.758513  1
  Cu  Cu22  1  0.815362  0.758513  0.359332  1
  Cu  Cu23  1  0.359332  0.066793  0.815362  1
