# generated using pymatgen
data_La4Pr8Hg(IrI4)3
_symmetry_space_group_name_H-M   'P 1'
_cell_length_a   11.12114545
_cell_length_b   11.09930001
_cell_length_c   11.11953263
_cell_angle_alpha   109.46719012
_cell_angle_beta   110.19311610
_cell_angle_gamma   110.27654400
_symmetry_Int_Tables_number   1
_chemical_formula_structural   La4Pr8Hg(IrI4)3
_chemical_formula_sum   'La4 Pr8 Hg1 Ir3 I12'
_cell_volume   1036.21371689
_cell_formula_units_Z   1
loop_
 _symmetry_equiv_pos_site_id
 _symmetry_equiv_pos_as_xyz
  1  'x, y, z'
loop_
 _atom_site_type_symbol
 _atom_site_label
 _atom_site_symmetry_multiplicity
 _atom_site_fract_x
 _atom_site_fract_y
 _atom_site_fract_z
 _atom_site_occupancy
  La  La0  1  0.456598  0.494905  0.214275  1
  La  La1  1  0.745757  0.224741  0.270878  1
  La  La2  1  0.763606  0.028737  0.487025  1
  La  La3  1  0.213415  0.456580  0.494125  1
  Pr  Pr4  1  0.276309  0.755849  0.230606  1
  Pr  Pr5  1  0.033527  0.273299  0.007278  1
  Pr  Pr6  1  0.008241  0.031062  0.271156  1
  Pr  Pr7  1  0.483797  0.755637  0.022526  1
  Pr  Pr8  1  0.491269  0.218505  0.458411  1
  Pr  Pr9  1  0.028524  0.489221  0.765739  1
  Pr  Pr10  1  0.274624  0.008081  0.034578  1
  Pr  Pr11  1  0.226181  0.270063  0.748599  1
  Hg  Hg12  1  0.246316  0.245435  0.245973  1
  Ir  Ir13  1  0.506575  0.999709  0.250976  1
  Ir  Ir14  1  0.997581  0.250613  0.502084  1
  Ir  Ir15  1  0.252500  0.503328  0.000662  1
  I  I16  1  0.249269  0.762059  0.740880  1
  I  I17  1  0.512033  0.501982  0.753955  1
  I  I18  1  0.985185  0.744891  0.995847  1
  I  I19  1  0.740518  0.252493  0.761307  1
  I  I20  1  0.995638  0.984840  0.746873  1
  I  I21  1  0.250978  0.994155  0.504908  1
  I  I22  1  0.754908  0.512346  0.507377  1
  I  I23  1  0.502795  0.250088  0.992176  1
  I  I24  1  0.762918  0.740407  0.248755  1
  I  I25  1  0.744629  0.993048  0.984199  1
  I  I26  1  0.993122  0.503143  0.246757  1
  I  I27  1  0.503186  0.754783  0.512077  1
