# generated using pymatgen
data_Dy2TmCo8P6W
_symmetry_space_group_name_H-M   'P 1'
_cell_length_a   3.72073100
_cell_length_b   10.54556000
_cell_length_c   12.24338900
_cell_angle_alpha   90.00000000
_cell_angle_beta   90.00000000
_cell_angle_gamma   90.00000000
_symmetry_Int_Tables_number   1
_chemical_formula_structural   Dy2TmCo8P6W
_chemical_formula_sum   'Dy4 Tm2 Co16 P12 W2'
_cell_volume   480.39620498
_cell_formula_units_Z   2
loop_
 _symmetry_equiv_pos_site_id
 _symmetry_equiv_pos_as_xyz
  1  'x, y, z'
loop_
 _atom_site_type_symbol
 _atom_site_label
 _atom_site_symmetry_multiplicity
 _atom_site_fract_x
 _atom_site_fract_y
 _atom_site_fract_z
 _atom_site_occupancy
  Dy  Dy0  1  0.000000  0.500000  0.525104  1
  Dy  Dy1  1  0.500000  0.000000  0.475446  1
  Dy  Dy2  1  0.500000  0.819642  0.204942  1
  Dy  Dy3  1  0.500000  0.180358  0.204942  1
  Tm  Tm4  1  0.000000  0.680342  0.795022  1
  Tm  Tm5  1  0.000000  0.319658  0.795022  1
  Co  Co6  1  0.500000  0.500000  0.702377  1
  Co  Co7  1  0.000000  0.000000  0.298572  1
  Co  Co8  1  0.000000  0.500000  0.986610  1
  Co  Co9  1  0.500000  0.000000  0.011720  1
  Co  Co10  1  0.500000  0.332916  0.989445  1
  Co  Co11  1  0.500000  0.667084  0.989445  1
  Co  Co12  1  0.000000  0.167726  0.008756  1
  Co  Co13  1  0.000000  0.832274  0.008756  1
  Co  Co14  1  0.500000  0.295891  0.432002  1
  Co  Co15  1  0.500000  0.704109  0.432002  1
  Co  Co16  1  0.000000  0.204403  0.569405  1
  Co  Co17  1  0.000000  0.795597  0.569405  1
  Co  Co18  1  0.500000  0.877709  0.707698  1
  Co  Co19  1  0.500000  0.122291  0.707698  1
  Co  Co20  1  0.000000  0.621688  0.293024  1
  Co  Co21  1  0.000000  0.378312  0.293024  1
  P  P22  1  0.500000  0.500000  0.879835  1
  P  P23  1  0.000000  0.000000  0.118712  1
  P  P24  1  0.500000  0.500000  0.350543  1
  P  P25  1  0.000000  0.000000  0.649481  1
  P  P26  1  0.500000  0.311527  0.617052  1
  P  P27  1  0.500000  0.688473  0.617052  1
  P  P28  1  0.000000  0.188931  0.384603  1
  P  P29  1  0.000000  0.811069  0.384603  1
  P  P30  1  0.500000  0.843352  0.891774  1
  P  P31  1  0.500000  0.156648  0.891774  1
  P  P32  1  0.000000  0.655656  0.107284  1
  P  P33  1  0.000000  0.344344  0.107284  1
  W  W34  1  0.500000  0.500000  0.156359  1
  W  W35  1  0.000000  0.000000  0.843224  1
