# generated using pymatgen
data_Sm(ZnAu)3
_symmetry_space_group_name_H-M   'P 1'
_cell_length_a   5.51384195
_cell_length_b   5.51384004
_cell_length_c   5.71860539
_cell_angle_alpha   102.74822582
_cell_angle_beta   102.74821141
_cell_angle_gamma   122.83871309
_symmetry_Int_Tables_number   1
_chemical_formula_structural   Sm(ZnAu)3
_chemical_formula_sum   'Sm1 Zn3 Au3'
_cell_volume   129.60850428
_cell_formula_units_Z   1
loop_
 _symmetry_equiv_pos_site_id
 _symmetry_equiv_pos_as_xyz
  1  'x, y, z'
loop_
 _atom_site_type_symbol
 _atom_site_label
 _atom_site_symmetry_multiplicity
 _atom_site_fract_x
 _atom_site_fract_y
 _atom_site_fract_z
 _atom_site_occupancy
  Sm  Sm0  1  0.004681  0.004681  0.009361  1
  Zn  Zn1  1  0.248566  0.748566  0.497132  1
  Zn  Zn2  1  0.748566  0.248566  0.497132  1
  Zn  Zn3  1  0.304422  0.304422  0.608845  1
  Au  Au4  1  0.708418  0.708418  0.416838  1
  Au  Au5  1  0.678437  0.306909  0.985346  1
  Au  Au6  1  0.306909  0.678437  0.985346  1
