# generated using pymatgen
data_Ho4OsRu6W
_symmetry_space_group_name_H-M   'P 1'
_cell_length_a   5.50610000
_cell_length_b   5.17041711
_cell_length_c   9.03203200
_cell_angle_alpha   90.00000000
_cell_angle_beta   90.00000000
_cell_angle_gamma   122.14590206
_symmetry_Int_Tables_number   1
_chemical_formula_structural   Ho4OsRu6W
_chemical_formula_sum   'Ho4 Os1 Ru6 W1'
_cell_volume   217.71212232
_cell_formula_units_Z   1
loop_
 _symmetry_equiv_pos_site_id
 _symmetry_equiv_pos_as_xyz
  1  'x, y, z'
loop_
 _atom_site_type_symbol
 _atom_site_label
 _atom_site_symmetry_multiplicity
 _atom_site_fract_x
 _atom_site_fract_y
 _atom_site_fract_z
 _atom_site_occupancy
  Ho  Ho0  1  0.672766  0.345972  0.563488  1
  Ho  Ho1  1  0.334225  0.668711  0.431910  1
  Ho  Ho2  1  0.334225  0.668711  0.068090  1
  Ho  Ho3  1  0.672766  0.345972  0.936512  1
  Os  Os4  1  0.826580  0.652974  0.250000  1
  Ru  Ru5  1  0.006914  0.012997  0.498506  1
  Ru  Ru6  1  0.006914  0.012997  0.001494  1
  Ru  Ru7  1  0.171027  0.818408  0.750000  1
  Ru  Ru8  1  0.648064  0.818920  0.750000  1
  Ru  Ru9  1  0.832902  0.168643  0.250000  1
  Ru  Ru10  1  0.335932  0.168978  0.250000  1
  W  W11  1  0.157685  0.316716  0.750000  1
