# generated using pymatgen
data_Er8InAgRh2
_symmetry_space_group_name_H-M   'P 1'
_cell_length_a   9.54025732
_cell_length_b   9.52001685
_cell_length_c   9.52001621
_cell_angle_alpha   59.96157424
_cell_angle_beta   59.92964200
_cell_angle_gamma   59.92964295
_symmetry_Int_Tables_number   1
_chemical_formula_structural   Er8InAgRh2
_chemical_formula_sum   'Er16 In2 Ag2 Rh4'
_cell_volume   610.56487145
_cell_formula_units_Z   2
loop_
 _symmetry_equiv_pos_site_id
 _symmetry_equiv_pos_as_xyz
  1  'x, y, z'
loop_
 _atom_site_type_symbol
 _atom_site_label
 _atom_site_symmetry_multiplicity
 _atom_site_fract_x
 _atom_site_fract_y
 _atom_site_fract_z
 _atom_site_occupancy
  Er  Er0  1  0.188166  0.189597  0.811472  1
  Er  Er1  1  0.437384  0.062616  0.062616  1
  Er  Er2  1  0.436874  0.059842  0.436121  1
  Er  Er3  1  0.067163  0.436121  0.059842  1
  Er  Er4  1  0.650159  0.051573  0.648109  1
  Er  Er5  1  0.188266  0.811734  0.811734  1
  Er  Er6  1  0.067163  0.059842  0.436121  1
  Er  Er7  1  0.809710  0.190290  0.190290  1
  Er  Er8  1  0.810765  0.811472  0.189597  1
  Er  Er9  1  0.650159  0.648109  0.051573  1
  Er  Er10  1  0.651111  0.648954  0.648954  1
  Er  Er11  1  0.064196  0.435804  0.435804  1
  Er  Er12  1  0.050981  0.648954  0.648954  1
  Er  Er13  1  0.810765  0.189597  0.811472  1
  Er  Er14  1  0.436874  0.436121  0.059842  1
  Er  Er15  1  0.188166  0.811472  0.189597  1
  In  In16  1  0.742456  0.420542  0.420542  1
  In  In17  1  0.416459  0.420542  0.420542  1
  Ag  Ag18  1  0.416550  0.749356  0.417544  1
  Ag  Ag19  1  0.416550  0.417544  0.749356  1
  Rh  Rh20  1  0.857185  0.428118  0.857512  1
  Rh  Rh21  1  0.857185  0.857512  0.428118  1
  Rh  Rh22  1  0.428500  0.857143  0.857143  1
  Rh  Rh23  1  0.857213  0.857143  0.857143  1
