# generated using pymatgen
data_Ba2Na16Sr4Au
_symmetry_space_group_name_H-M   'P 1'
_cell_length_a   10.78703212
_cell_length_b   10.78111882
_cell_length_c   10.78111811
_cell_angle_alpha   110.10349065
_cell_angle_beta   109.14509772
_cell_angle_gamma   109.14510145
_symmetry_Int_Tables_number   1
_chemical_formula_structural   Ba2Na16Sr4Au
_chemical_formula_sum   'Ba2 Na16 Sr4 Au1'
_cell_volume   965.34878663
_cell_formula_units_Z   1
loop_
 _symmetry_equiv_pos_site_id
 _symmetry_equiv_pos_as_xyz
  1  'x, y, z'
loop_
 _atom_site_type_symbol
 _atom_site_label
 _atom_site_symmetry_multiplicity
 _atom_site_fract_x
 _atom_site_fract_y
 _atom_site_fract_z
 _atom_site_occupancy
  Ba  Ba0  1  0.257370  0.001498  0.255872  1
  Ba  Ba1  1  0.742630  0.744128  0.998502  1
  Na  Na2  1  0.500000  0.500591  0.499409  1
  Na  Na3  1  0.000000  0.000564  0.501972  1
  Na  Na4  1  0.500000  0.000591  0.999409  1
  Na  Na5  1  0.000000  0.498028  0.999436  1
  Na  Na6  1  0.345022  0.687164  0.344851  1
  Na  Na7  1  0.657462  0.000429  0.345721  1
  Na  Na8  1  0.345022  0.000171  0.657858  1
  Na  Na9  1  0.654978  0.342142  0.999829  1
  Na  Na10  1  0.342538  0.342968  0.688259  1
  Na  Na11  1  0.689937  0.345359  0.344578  1
  Na  Na12  1  0.000000  0.344394  0.655606  1
  Na  Na13  1  0.310063  0.655422  0.654641  1
  Na  Na14  1  0.342538  0.654279  0.999571  1
  Na  Na15  1  0.000000  0.654606  0.345394  1
  Na  Na16  1  0.654978  0.655149  0.312836  1
  Na  Na17  1  0.657462  0.311741  0.657032  1
  Sr  Sr18  1  0.252199  0.253537  0.998662  1
  Sr  Sr19  1  0.000000  0.255151  0.252628  1
  Sr  Sr20  1  0.000000  0.747372  0.744849  1
  Sr  Sr21  1  0.747801  0.001338  0.746463  1
  Au  Au22  1  0.000000  0.003379  0.996621  1
