# generated using pymatgen
data_Tb3Nd4LuAu4
_symmetry_space_group_name_H-M   'P 1'
_cell_length_a   5.02068500
_cell_length_b   7.29696622
_cell_length_c   9.08279816
_cell_angle_alpha   89.60919491
_cell_angle_beta   90.00000000
_cell_angle_gamma   90.00000000
_symmetry_Int_Tables_number   1
_chemical_formula_structural   Tb3Nd4LuAu4
_chemical_formula_sum   'Tb3 Nd4 Lu1 Au4'
_cell_volume   332.74755347
_cell_formula_units_Z   1
loop_
 _symmetry_equiv_pos_site_id
 _symmetry_equiv_pos_as_xyz
  1  'x, y, z'
loop_
 _atom_site_type_symbol
 _atom_site_label
 _atom_site_symmetry_multiplicity
 _atom_site_fract_x
 _atom_site_fract_y
 _atom_site_fract_z
 _atom_site_occupancy
  Tb  Tb0  1  0.250000  0.849356  0.918606  1
  Tb  Tb1  1  0.250000  0.348086  0.579754  1
  Tb  Tb2  1  0.750000  0.151589  0.083453  1
  Nd  Nd3  1  0.250000  0.491768  0.178095  1
  Nd  Nd4  1  0.250000  0.987863  0.322803  1
  Nd  Nd5  1  0.750000  0.509415  0.820099  1
  Nd  Nd6  1  0.750000  0.007090  0.676415  1
  Lu  Lu7  1  0.750000  0.650611  0.418381  1
  Au  Au8  1  0.250000  0.248267  0.902991  1
  Au  Au9  1  0.250000  0.745250  0.595168  1
  Au  Au10  1  0.750000  0.751456  0.101597  1
  Au  Au11  1  0.750000  0.259251  0.402641  1
