# generated using pymatgen
data_NdHoGa2CoNi5B2
_symmetry_space_group_name_H-M   'P 1'
_cell_length_a   5.25442200
_cell_length_b   5.25442156
_cell_length_c   6.70341700
_cell_angle_alpha   90.00000000
_cell_angle_beta   90.00000000
_cell_angle_gamma   119.99999020
_symmetry_Int_Tables_number   1
_chemical_formula_structural   NdHoGa2CoNi5B2
_chemical_formula_sum   'Nd1 Ho1 Ga2 Co1 Ni5 B2'
_cell_volume   160.27905506
_cell_formula_units_Z   1
loop_
 _symmetry_equiv_pos_site_id
 _symmetry_equiv_pos_as_xyz
  1  'x, y, z'
loop_
 _atom_site_type_symbol
 _atom_site_label
 _atom_site_symmetry_multiplicity
 _atom_site_fract_x
 _atom_site_fract_y
 _atom_site_fract_z
 _atom_site_occupancy
  Nd  Nd0  1  0.000000  0.000000  0.497311  1
  Ho  Ho1  1  0.000000  0.000000  0.001048  1
  Ga  Ga2  1  0.331317  0.665659  0.499611  1
  Ga  Ga3  1  0.668683  0.334341  0.499611  1
  Co  Co4  1  0.000000  0.500000  0.199450  1
  Ni  Ni5  1  0.500000  0.000000  0.798737  1
  Ni  Ni6  1  0.500000  0.500000  0.798737  1
  Ni  Ni7  1  0.000000  0.500000  0.800849  1
  Ni  Ni8  1  0.500000  0.000000  0.201242  1
  Ni  Ni9  1  0.500000  0.500000  0.201242  1
  B  B10  1  0.330041  0.665021  0.001081  1
  B  B11  1  0.669959  0.334979  0.001081  1
