# generated using pymatgen
data_Y2Tm7Lu(In2Pt)4
_symmetry_space_group_name_H-M   'P 1'
_cell_length_a   3.57491900
_cell_length_b   8.11245845
_cell_length_c   18.14196201
_cell_angle_alpha   90.03816834
_cell_angle_beta   90.00000000
_cell_angle_gamma   90.00000000
_symmetry_Int_Tables_number   1
_chemical_formula_structural   Y2Tm7Lu(In2Pt)4
_chemical_formula_sum   'Y2 Tm7 Lu1 In8 Pt4'
_cell_volume   526.14185090
_cell_formula_units_Z   1
loop_
 _symmetry_equiv_pos_site_id
 _symmetry_equiv_pos_as_xyz
  1  'x, y, z'
loop_
 _atom_site_type_symbol
 _atom_site_label
 _atom_site_symmetry_multiplicity
 _atom_site_fract_x
 _atom_site_fract_y
 _atom_site_fract_z
 _atom_site_occupancy
  Y  Y0  1  0.000000  0.000064  0.000119  1
  Y  Y1  1  0.000000  0.499955  0.499975  1
  Tm  Tm2  1  0.000000  0.116660  0.414134  1
  Tm  Tm3  1  0.000000  0.883048  0.585526  1
  Tm  Tm4  1  0.000000  0.383042  0.914475  1
  Tm  Tm5  1  0.000000  0.617053  0.085841  1
  Tm  Tm6  1  0.000000  0.243679  0.220929  1
  Tm  Tm7  1  0.000000  0.756539  0.779213  1
  Tm  Tm8  1  0.000000  0.256493  0.720797  1
  Lu  Lu9  1  0.000000  0.743906  0.278799  1
  In  In10  1  0.500000  0.423827  0.350847  1
  In  In11  1  0.500000  0.576638  0.649180  1
  In  In12  1  0.500000  0.076739  0.850823  1
  In  In13  1  0.500000  0.923019  0.149236  1
  In  In14  1  0.500000  0.293831  0.066758  1
  In  In15  1  0.500000  0.706402  0.933474  1
  In  In16  1  0.500000  0.206433  0.566588  1
  In  In17  1  0.500000  0.792924  0.432823  1
  Pt  Pt18  1  0.500000  0.023565  0.303064  1
  Pt  Pt19  1  0.500000  0.974411  0.696699  1
  Pt  Pt20  1  0.500000  0.474558  0.803213  1
  Pt  Pt21  1  0.500000  0.527213  0.197484  1
