# generated using pymatgen
data_Tm4Hf2Sn5
_symmetry_space_group_name_H-M   'P 1'
_cell_length_a   11.25949333
_cell_length_b   11.25949313
_cell_length_c   11.25949237
_cell_angle_alpha   148.40433236
_cell_angle_beta   131.84640810
_cell_angle_gamma   58.74133129
_symmetry_Int_Tables_number   1
_chemical_formula_structural   Tm4Hf2Sn5
_chemical_formula_sum   'Tm8 Hf4 Sn10'
_cell_volume   552.64078657
_cell_formula_units_Z   2
loop_
 _symmetry_equiv_pos_site_id
 _symmetry_equiv_pos_as_xyz
  1  'x, y, z'
loop_
 _atom_site_type_symbol
 _atom_site_label
 _atom_site_symmetry_multiplicity
 _atom_site_fract_x
 _atom_site_fract_y
 _atom_site_fract_z
 _atom_site_occupancy
  Tm  Tm0  1  0.673288  0.438989  0.234298  1
  Tm  Tm1  1  0.326712  0.561011  0.765702  1
  Tm  Tm2  1  0.204692  0.938989  0.265702  1
  Tm  Tm3  1  0.795308  0.061011  0.734298  1
  Tm  Tm4  1  0.259077  0.145261  0.113816  1
  Tm  Tm5  1  0.740923  0.854739  0.886184  1
  Tm  Tm6  1  0.031444  0.645261  0.386184  1
  Tm  Tm7  1  0.968556  0.354739  0.613816  1
  Hf  Hf8  1  0.305840  0.555840  0.250000  1
  Hf  Hf9  1  0.694160  0.444160  0.750000  1
  Hf  Hf10  1  0.694160  0.944160  0.250000  1
  Hf  Hf11  1  0.305840  0.055840  0.750000  1
  Sn  Sn12  1  0.590327  0.289840  0.300487  1
  Sn  Sn13  1  0.409673  0.710160  0.699513  1
  Sn  Sn14  1  0.989353  0.789840  0.199513  1
  Sn  Sn15  1  0.010647  0.210160  0.800487  1
  Sn  Sn16  1  0.000000  0.250000  0.250000  1
  Sn  Sn17  1  0.000000  0.750000  0.750000  1
  Sn  Sn18  1  0.477120  0.076053  0.401066  1
  Sn  Sn19  1  0.522880  0.923947  0.598934  1
  Sn  Sn20  1  0.674986  0.576053  0.098934  1
  Sn  Sn21  1  0.325014  0.423947  0.901066  1
