# generated using pymatgen
data_Hf10Ga5Te
_symmetry_space_group_name_H-M   'P 1'
_cell_length_a   8.08026600
_cell_length_b   8.10848566
_cell_length_c   5.64859900
_cell_angle_alpha   90.00000000
_cell_angle_beta   90.00000000
_cell_angle_gamma   119.88494047
_symmetry_Int_Tables_number   1
_chemical_formula_structural   Hf10Ga5Te
_chemical_formula_sum   'Hf10 Ga5 Te1'
_cell_volume   320.87741370
_cell_formula_units_Z   1
loop_
 _symmetry_equiv_pos_site_id
 _symmetry_equiv_pos_as_xyz
  1  'x, y, z'
loop_
 _atom_site_type_symbol
 _atom_site_label
 _atom_site_symmetry_multiplicity
 _atom_site_fract_x
 _atom_site_fract_y
 _atom_site_fract_z
 _atom_site_occupancy
  Hf  Hf0  1  0.233878  0.000000  0.250000  1
  Hf  Hf1  1  0.757496  0.000000  0.750000  1
  Hf  Hf2  1  0.010470  0.251688  0.250000  1
  Hf  Hf3  1  0.997950  0.753552  0.750000  1
  Hf  Hf4  1  0.758781  0.748312  0.250000  1
  Hf  Hf5  1  0.244398  0.246448  0.750000  1
  Hf  Hf6  1  0.327822  0.657156  0.996802  1
  Hf  Hf7  1  0.670668  0.342844  0.996802  1
  Hf  Hf8  1  0.670668  0.342844  0.503198  1
  Hf  Hf9  1  0.327822  0.657156  0.503198  1
  Ga  Ga10  1  0.389153  0.000000  0.750000  1
  Ga  Ga11  1  0.003177  0.608464  0.250000  1
  Ga  Ga12  1  0.997892  0.389773  0.750000  1
  Ga  Ga13  1  0.394712  0.391536  0.250000  1
  Ga  Ga14  1  0.608117  0.610227  0.750000  1
  Te  Te15  1  0.606997  0.000000  0.250000  1
