# generated using pymatgen
data_BaAlInAu5
_symmetry_space_group_name_H-M   'P 1'
_cell_length_a   7.40100300
_cell_length_b   9.39879400
_cell_length_c   10.38473200
_cell_angle_alpha   90.00000000
_cell_angle_beta   90.00000000
_cell_angle_gamma   90.00000000
_symmetry_Int_Tables_number   1
_chemical_formula_structural   BaAlInAu5
_chemical_formula_sum   'Ba4 Al4 In4 Au20'
_cell_volume   722.36717719
_cell_formula_units_Z   4
loop_
 _symmetry_equiv_pos_site_id
 _symmetry_equiv_pos_as_xyz
  1  'x, y, z'
loop_
 _atom_site_type_symbol
 _atom_site_label
 _atom_site_symmetry_multiplicity
 _atom_site_fract_x
 _atom_site_fract_y
 _atom_site_fract_z
 _atom_site_occupancy
  Ba  Ba0  1  0.250000  0.246455  0.119754  1
  Ba  Ba1  1  0.250000  0.746455  0.380246  1
  Ba  Ba2  1  0.750000  0.753545  0.880246  1
  Ba  Ba3  1  0.750000  0.253545  0.619754  1
  Al  Al4  1  0.250000  0.057423  0.615327  1
  Al  Al5  1  0.250000  0.557423  0.884673  1
  Al  Al6  1  0.750000  0.942577  0.384673  1
  Al  Al7  1  0.750000  0.442577  0.115327  1
  In  In8  1  0.250000  0.359658  0.473219  1
  In  In9  1  0.250000  0.859658  0.026781  1
  In  In10  1  0.750000  0.640342  0.526781  1
  In  In11  1  0.750000  0.140342  0.973219  1
  Au  Au12  1  0.055379  0.097078  0.398932  1
  Au  Au13  1  0.444621  0.597078  0.101068  1
  Au  Au14  1  0.555379  0.902922  0.601068  1
  Au  Au15  1  0.944621  0.402922  0.898932  1
  Au  Au16  1  0.944621  0.902922  0.601068  1
  Au  Au17  1  0.555379  0.402922  0.898932  1
  Au  Au18  1  0.444621  0.097078  0.398932  1
  Au  Au19  1  0.055379  0.597078  0.101068  1
  Au  Au20  1  0.050289  0.060808  0.839993  1
  Au  Au21  1  0.449711  0.560808  0.660007  1
  Au  Au22  1  0.550289  0.939192  0.160007  1
  Au  Au23  1  0.949711  0.439192  0.339993  1
  Au  Au24  1  0.949711  0.939192  0.160007  1
  Au  Au25  1  0.550289  0.439192  0.339993  1
  Au  Au26  1  0.449711  0.060808  0.839993  1
  Au  Au27  1  0.050289  0.560808  0.660007  1
  Au  Au28  1  0.250000  0.303636  0.740253  1
  Au  Au29  1  0.250000  0.803636  0.759747  1
  Au  Au30  1  0.750000  0.696364  0.259747  1
  Au  Au31  1  0.750000  0.196364  0.240253  1
