# generated using pymatgen
data_Tb2Lu2B12MoOs
_symmetry_space_group_name_H-M   'P 1'
_cell_length_a   3.62842100
_cell_length_b   9.15204999
_cell_length_c   11.55368707
_cell_angle_alpha   89.83084734
_cell_angle_beta   90.00000000
_cell_angle_gamma   90.00000000
_symmetry_Int_Tables_number   1
_chemical_formula_structural   Tb2Lu2B12MoOs
_chemical_formula_sum   'Tb4 Lu4 B24 Mo2 Os2'
_cell_volume   383.66728031
_cell_formula_units_Z   2
loop_
 _symmetry_equiv_pos_site_id
 _symmetry_equiv_pos_as_xyz
  1  'x, y, z'
loop_
 _atom_site_type_symbol
 _atom_site_label
 _atom_site_symmetry_multiplicity
 _atom_site_fract_x
 _atom_site_fract_y
 _atom_site_fract_z
 _atom_site_occupancy
  Tb  Tb0  1  0.000000  0.321514  0.414036  1
  Tb  Tb1  1  0.000000  0.678486  0.585964  1
  Tb  Tb2  1  0.000000  0.821529  0.085993  1
  Tb  Tb3  1  0.000000  0.178471  0.914007  1
  Lu  Lu4  1  0.000000  0.944486  0.371449  1
  Lu  Lu5  1  0.000000  0.055514  0.628551  1
  Lu  Lu6  1  0.000000  0.442775  0.128187  1
  Lu  Lu7  1  0.000000  0.557225  0.871813  1
  B  B8  1  0.500000  0.552221  0.433605  1
  B  B9  1  0.500000  0.447779  0.566395  1
  B  B10  1  0.500000  0.054548  0.067475  1
  B  B11  1  0.500000  0.945452  0.932525  1
  B  B12  1  0.500000  0.752147  0.420245  1
  B  B13  1  0.500000  0.247853  0.579755  1
  B  B14  1  0.500000  0.250096  0.081710  1
  B  B15  1  0.500000  0.749904  0.918290  1
  B  B16  1  0.500000  0.795627  0.264402  1
  B  B17  1  0.500000  0.204373  0.735597  1
  B  B18  1  0.500000  0.291180  0.233475  1
  B  B19  1  0.500000  0.708820  0.766526  1
  B  B20  1  0.500000  0.630630  0.182308  1
  B  B21  1  0.500000  0.369370  0.817692  1
  B  B22  1  0.500000  0.129669  0.313727  1
  B  B23  1  0.500000  0.870331  0.686273  1
  B  B24  1  0.500000  0.983126  0.212334  1
  B  B25  1  0.500000  0.016874  0.787666  1
  B  B26  1  0.500000  0.478588  0.285912  1
  B  B27  1  0.500000  0.521412  0.714088  1
  B  B28  1  0.500000  0.600329  0.027121  1
  B  B29  1  0.500000  0.399671  0.972879  1
  B  B30  1  0.500000  0.100231  0.471473  1
  B  B31  1  0.500000  0.899769  0.528527  1
  Mo  Mo32  1  0.000000  0.639863  0.318481  1
  Mo  Mo33  1  0.000000  0.360137  0.681519  1
  Os  Os34  1  0.000000  0.138710  0.178816  1
  Os  Os35  1  0.000000  0.861290  0.821184  1
