# generated using pymatgen
data_Er7Tm5Mn2In3
_symmetry_space_group_name_H-M   'P 1'
_cell_length_a   8.37403174
_cell_length_b   8.37325946
_cell_length_c   8.37426834
_cell_angle_alpha   110.12904674
_cell_angle_beta   110.15045600
_cell_angle_gamma   108.13313703
_symmetry_Int_Tables_number   1
_chemical_formula_structural   Er7Tm5Mn2In3
_chemical_formula_sum   'Er7 Tm5 Mn2 In3'
_cell_volume   451.88418320
_cell_formula_units_Z   1
loop_
 _symmetry_equiv_pos_site_id
 _symmetry_equiv_pos_as_xyz
  1  'x, y, z'
loop_
 _atom_site_type_symbol
 _atom_site_label
 _atom_site_symmetry_multiplicity
 _atom_site_fract_x
 _atom_site_fract_y
 _atom_site_fract_z
 _atom_site_occupancy
  Er  Er0  1  0.542845  0.789522  0.753280  1
  Er  Er1  1  0.963744  0.210439  0.753249  1
  Er  Er2  1  0.210473  0.963810  0.753370  1
  Er  Er3  1  0.036249  0.789583  0.246719  1
  Er  Er4  1  0.789543  0.036295  0.246739  1
  Er  Er5  1  0.210518  0.457105  0.246710  1
  Er  Er6  1  0.789483  0.542795  0.753186  1
  Tm  Tm7  1  0.303665  0.303594  0.607240  1
  Tm  Tm8  1  0.696286  0.696285  0.392675  1
  Tm  Tm9  1  0.303692  0.696403  0.000073  1
  Tm  Tm10  1  0.696260  0.303635  0.000002  1
  Tm  Tm11  1  0.457157  0.210519  0.246693  1
  Mn  Mn12  1  0.393730  0.393697  0.000040  1
  Mn  Mn13  1  0.606245  0.606238  0.000000  1
  In  In14  1  0.000130  0.000047  0.000081  1
  In  In15  1  0.499978  0.000033  0.499939  1
  In  In16  1  0.000001  0.500001  0.500004  1
