# generated using pymatgen
data_Zr2MnRe3
_symmetry_space_group_name_H-M   'P 1'
_cell_length_a   5.27603320
_cell_length_b   5.20762428
_cell_length_c   8.58008700
_cell_angle_alpha   90.00000000
_cell_angle_beta   90.00000000
_cell_angle_gamma   119.57200528
_symmetry_Int_Tables_number   1
_chemical_formula_structural   Zr2MnRe3
_chemical_formula_sum   'Zr4 Mn2 Re6'
_cell_volume   205.03423572
_cell_formula_units_Z   2
loop_
 _symmetry_equiv_pos_site_id
 _symmetry_equiv_pos_as_xyz
  1  'x, y, z'
loop_
 _atom_site_type_symbol
 _atom_site_label
 _atom_site_symmetry_multiplicity
 _atom_site_fract_x
 _atom_site_fract_y
 _atom_site_fract_z
 _atom_site_occupancy
  Zr  Zr0  1  0.331957  0.665979  0.439130  1
  Zr  Zr1  1  0.668043  0.334021  0.939130  1
  Zr  Zr2  1  0.668043  0.334021  0.560870  1
  Zr  Zr3  1  0.331957  0.665979  0.060870  1
  Mn  Mn4  1  0.658205  0.829102  0.750000  1
  Mn  Mn5  1  0.341795  0.170898  0.250000  1
  Re  Re6  1  0.829413  0.171071  0.250000  1
  Re  Re7  1  0.170587  0.341657  0.750000  1
  Re  Re8  1  0.170587  0.828929  0.750000  1
  Re  Re9  1  0.829413  0.658343  0.250000  1
  Re  Re10  1  0.000000  0.000000  0.500000  1
  Re  Re11  1  0.000000  0.000000  0.000000  1
