# generated using pymatgen
data_Gd6HoRhO12
_symmetry_space_group_name_H-M   'P 1'
_cell_length_a   6.71743204
_cell_length_b   6.71743194
_cell_length_c   6.71743155
_cell_angle_alpha   94.38666043
_cell_angle_beta   94.38668216
_cell_angle_gamma   94.38668655
_symmetry_Int_Tables_number   1
_chemical_formula_structural   Gd6HoRhO12
_chemical_formula_sum   'Gd6 Ho1 Rh1 O12'
_cell_volume   300.30803196
_cell_formula_units_Z   1
loop_
 _symmetry_equiv_pos_site_id
 _symmetry_equiv_pos_as_xyz
  1  'x, y, z'
loop_
 _atom_site_type_symbol
 _atom_site_label
 _atom_site_symmetry_multiplicity
 _atom_site_fract_x
 _atom_site_fract_y
 _atom_site_fract_z
 _atom_site_occupancy
  Gd  Gd0  1  0.569122  0.082972  0.263328  1
  Gd  Gd1  1  0.082972  0.263328  0.569122  1
  Gd  Gd2  1  0.736672  0.430878  0.917028  1
  Gd  Gd3  1  0.263328  0.569122  0.082972  1
  Gd  Gd4  1  0.917028  0.736672  0.430878  1
  Gd  Gd5  1  0.430878  0.917028  0.736672  1
  Ho  Ho6  1  0.000000  0.000000  0.000000  1
  Rh  Rh7  1  0.500000  0.500000  0.500000  1
  O  O8  1  0.683594  0.087030  0.933407  1
  O  O9  1  0.912970  0.066593  0.316406  1
  O  O10  1  0.413540  0.199137  0.542583  1
  O  O11  1  0.066593  0.316406  0.912970  1
  O  O12  1  0.542583  0.413540  0.199137  1
  O  O13  1  0.800863  0.457417  0.586460  1
  O  O14  1  0.199137  0.542583  0.413540  1
  O  O15  1  0.457417  0.586460  0.800863  1
  O  O16  1  0.933407  0.683594  0.087030  1
  O  O17  1  0.586460  0.800863  0.457417  1
  O  O18  1  0.087030  0.933407  0.683594  1
  O  O19  1  0.316406  0.912970  0.066593  1
