# generated using pymatgen
data_Tm8ReB24MoOs2
_symmetry_space_group_name_H-M   'P 1'
_cell_length_a   3.62417400
_cell_length_b   9.11555837
_cell_length_c   11.48966300
_cell_angle_alpha   90.14070729
_cell_angle_beta   90.00000000
_cell_angle_gamma   90.00000000
_symmetry_Int_Tables_number   1
_chemical_formula_structural   Tm8ReB24MoOs2
_chemical_formula_sum   'Tm8 Re1 B24 Mo1 Os2'
_cell_volume   379.57560951
_cell_formula_units_Z   1
loop_
 _symmetry_equiv_pos_site_id
 _symmetry_equiv_pos_as_xyz
  1  'x, y, z'
loop_
 _atom_site_type_symbol
 _atom_site_label
 _atom_site_symmetry_multiplicity
 _atom_site_fract_x
 _atom_site_fract_y
 _atom_site_fract_z
 _atom_site_occupancy
  Tm  Tm0  1  0.000000  0.321267  0.413441  1
  Tm  Tm1  1  0.000000  0.679561  0.587472  1
  Tm  Tm2  1  0.000000  0.822375  0.084412  1
  Tm  Tm3  1  0.000000  0.176117  0.914357  1
  Tm  Tm4  1  0.000000  0.942413  0.371843  1
  Tm  Tm5  1  0.000000  0.056880  0.629421  1
  Tm  Tm6  1  0.000000  0.444592  0.128277  1
  Tm  Tm7  1  0.000000  0.557462  0.871191  1
  Re  Re8  1  0.000000  0.861012  0.819385  1
  B  B9  1  0.500000  0.553375  0.433530  1
  B  B10  1  0.500000  0.446647  0.566505  1
  B  B11  1  0.500000  0.050906  0.064730  1
  B  B12  1  0.500000  0.946904  0.932700  1
  B  B13  1  0.500000  0.749088  0.419208  1
  B  B14  1  0.500000  0.250739  0.580956  1
  B  B15  1  0.500000  0.251321  0.078258  1
  B  B16  1  0.500000  0.750816  0.919192  1
  B  B17  1  0.500000  0.790829  0.265806  1
  B  B18  1  0.500000  0.208785  0.734423  1
  B  B19  1  0.500000  0.295181  0.236293  1
  B  B20  1  0.500000  0.707390  0.765042  1
  B  B21  1  0.500000  0.630562  0.185808  1
  B  B22  1  0.500000  0.369460  0.814409  1
  B  B23  1  0.500000  0.131260  0.317772  1
  B  B24  1  0.500000  0.868837  0.684268  1
  B  B25  1  0.500000  0.977728  0.212867  1
  B  B26  1  0.500000  0.018450  0.787432  1
  B  B27  1  0.500000  0.482551  0.288131  1
  B  B28  1  0.500000  0.517946  0.711798  1
  B  B29  1  0.500000  0.602896  0.028700  1
  B  B30  1  0.500000  0.397972  0.970614  1
  B  B31  1  0.500000  0.102302  0.472489  1
  B  B32  1  0.500000  0.897565  0.528549  1
  Mo  Mo33  1  0.000000  0.138619  0.179932  1
  Os  Os34  1  0.000000  0.637663  0.322411  1
  Os  Os35  1  0.000000  0.362530  0.678377  1
