# generated using pymatgen
data_LiYb4ReC8
_symmetry_space_group_name_H-M   'P 1'
_cell_length_a   6.83052442
_cell_length_b   6.83052391
_cell_length_c   6.83052218
_cell_angle_alpha   134.12197031
_cell_angle_beta   108.24036842
_cell_angle_gamma   89.47330574
_symmetry_Int_Tables_number   1
_chemical_formula_structural   LiYb4ReC8
_chemical_formula_sum   'Li1 Yb4 Re1 C8'
_cell_volume   206.84422160
_cell_formula_units_Z   1
loop_
 _symmetry_equiv_pos_site_id
 _symmetry_equiv_pos_as_xyz
  1  'x, y, z'
loop_
 _atom_site_type_symbol
 _atom_site_label
 _atom_site_symmetry_multiplicity
 _atom_site_fract_x
 _atom_site_fract_y
 _atom_site_fract_z
 _atom_site_occupancy
  Li  Li0  1  0.000000  0.250000  0.250000  1
  Yb  Yb1  1  0.203766  0.344763  0.849225  1
  Yb  Yb2  1  0.796234  0.645459  0.140997  1
  Yb  Yb3  1  0.495537  0.854541  0.650775  1
  Yb  Yb4  1  0.504463  0.155237  0.359003  1
  Re  Re5  1  0.000000  0.750000  0.750000  1
  C  C6  1  0.793287  0.138440  0.674334  1
  C  C7  1  0.206713  0.881046  0.345153  1
  C  C8  1  0.464106  0.618954  0.825666  1
  C  C9  1  0.535894  0.361560  0.154847  1
  C  C10  1  0.886066  0.024794  0.756156  1
  C  C11  1  0.113934  0.870089  0.138727  1
  C  C12  1  0.268638  0.629911  0.743844  1
  C  C13  1  0.731362  0.475206  0.361273  1
