# generated using pymatgen
data_AcLu(NiGe2)2
_symmetry_space_group_name_H-M   'P 1'
_cell_length_a   9.51684037
_cell_length_b   9.51684111
_cell_length_c   9.51684022
_cell_angle_alpha   154.06036178
_cell_angle_beta   126.06597008
_cell_angle_gamma   60.79264101
_symmetry_Int_Tables_number   1
_chemical_formula_structural   AcLu(NiGe2)2
_chemical_formula_sum   'Ac2 Lu2 Ni4 Ge8'
_cell_volume   302.67209398
_cell_formula_units_Z   2
loop_
 _symmetry_equiv_pos_site_id
 _symmetry_equiv_pos_as_xyz
  1  'x, y, z'
loop_
 _atom_site_type_symbol
 _atom_site_label
 _atom_site_symmetry_multiplicity
 _atom_site_fract_x
 _atom_site_fract_y
 _atom_site_fract_z
 _atom_site_occupancy
  Ac  Ac0  1  0.245590  0.500000  0.745590  1
  Ac  Ac1  1  0.754410  0.500000  0.254410  1
  Lu  Lu2  1  0.794625  0.294625  0.500000  1
  Lu  Lu3  1  0.205375  0.705375  0.500000  1
  Ni  Ni4  1  0.905463  0.155133  0.750329  1
  Ni  Ni5  1  0.094537  0.844867  0.249671  1
  Ni  Ni6  1  0.404804  0.155133  0.249671  1
  Ni  Ni7  1  0.595196  0.844867  0.750329  1
  Ge  Ge8  1  0.143127  0.299598  0.843530  1
  Ge  Ge9  1  0.587683  0.087683  0.500000  1
  Ge  Ge10  1  0.082511  0.082511  0.000000  1
  Ge  Ge11  1  0.856873  0.700402  0.156470  1
  Ge  Ge12  1  0.917489  0.917489  0.000000  1
  Ge  Ge13  1  0.456069  0.299598  0.156470  1
  Ge  Ge14  1  0.412317  0.912317  0.500000  1
  Ge  Ge15  1  0.543931  0.700402  0.843530  1
