# generated using pymatgen
data_Sc6Mn6Al10Os7
_symmetry_space_group_name_H-M   'P 1'
_cell_length_a   8.62386993
_cell_length_b   8.62387079
_cell_length_c   8.64210100
_cell_angle_alpha   59.93004344
_cell_angle_beta   59.93004014
_cell_angle_gamma   59.69776874
_symmetry_Int_Tables_number   1
_chemical_formula_structural   Sc6Mn6Al10Os7
_chemical_formula_sum   'Sc6 Mn6 Al10 Os7'
_cell_volume   452.94870624
_cell_formula_units_Z   1
loop_
 _symmetry_equiv_pos_site_id
 _symmetry_equiv_pos_as_xyz
  1  'x, y, z'
loop_
 _atom_site_type_symbol
 _atom_site_label
 _atom_site_symmetry_multiplicity
 _atom_site_fract_x
 _atom_site_fract_y
 _atom_site_fract_z
 _atom_site_occupancy
  Sc  Sc0  1  0.698698  0.305895  0.293164  1
  Sc  Sc1  1  0.305894  0.698700  0.702241  1
  Sc  Sc2  1  0.305895  0.698698  0.293164  1
  Sc  Sc3  1  0.295419  0.295419  0.704579  1
  Sc  Sc4  1  0.698700  0.305894  0.702241  1
  Sc  Sc5  1  0.700068  0.700068  0.299931  1
  Mn  Mn6  1  0.324055  0.324055  0.324120  1
  Mn  Mn7  1  0.324055  0.324055  0.027771  1
  Mn  Mn8  1  0.035420  0.323724  0.320428  1
  Mn  Mn9  1  0.323724  0.035420  0.320428  1
  Mn  Mn10  1  0.672265  0.672265  0.670483  1
  Mn  Mn11  1  0.672265  0.672265  0.984987  1
  Al  Al12  1  0.670867  0.989563  0.669785  1
  Al  Al13  1  0.989563  0.670867  0.669785  1
  Al  Al14  1  0.119237  0.119237  0.119426  1
  Al  Al15  1  0.119237  0.119237  0.642101  1
  Al  Al16  1  0.640840  0.120220  0.119471  1
  Al  Al17  1  0.120220  0.640840  0.119471  1
  Al  Al18  1  0.880889  0.880889  0.880255  1
  Al  Al19  1  0.880889  0.880889  0.357966  1
  Al  Al20  1  0.877302  0.360635  0.881032  1
  Al  Al21  1  0.360635  0.877302  0.881032  1
  Os  Os22  1  0.000748  0.000748  0.999252  1
  Os  Os23  1  0.498618  0.988791  0.013183  1
  Os  Os24  1  0.988791  0.498618  0.499406  1
  Os  Os25  1  0.988791  0.498618  0.013183  1
  Os  Os26  1  0.006592  0.006592  0.493407  1
  Os  Os27  1  0.498618  0.988791  0.499406  1
  Os  Os28  1  0.501700  0.501700  0.998299  1
