# generated using pymatgen
data_TbDyMn2Br
_symmetry_space_group_name_H-M   'P 1'
_cell_length_a   3.82744000
_cell_length_b   3.82743976
_cell_length_c   17.10749900
_cell_angle_alpha   90.00000000
_cell_angle_beta   90.00000000
_cell_angle_gamma   120.00000203
_symmetry_Int_Tables_number   1
_chemical_formula_structural   TbDyMn2Br
_chemical_formula_sum   'Tb2 Dy2 Mn4 Br2'
_cell_volume   217.03706210
_cell_formula_units_Z   2
loop_
 _symmetry_equiv_pos_site_id
 _symmetry_equiv_pos_as_xyz
  1  'x, y, z'
loop_
 _atom_site_type_symbol
 _atom_site_label
 _atom_site_symmetry_multiplicity
 _atom_site_fract_x
 _atom_site_fract_y
 _atom_site_fract_z
 _atom_site_occupancy
  Tb  Tb0  1  0.000000  0.000000  0.115092  1
  Tb  Tb1  1  0.000000  0.000000  0.884908  1
  Dy  Dy2  1  0.000000  0.000000  0.614642  1
  Dy  Dy3  1  0.000000  0.000000  0.385358  1
  Mn  Mn4  1  0.333333  0.666667  0.510421  1
  Mn  Mn5  1  0.666667  0.333333  0.489579  1
  Mn  Mn6  1  0.666667  0.333333  0.010564  1
  Mn  Mn7  1  0.333333  0.666667  0.989436  1
  Br  Br8  1  0.333333  0.666667  0.250215  1
  Br  Br9  1  0.666667  0.333333  0.749785  1
