# generated using pymatgen
data_Hf3Tc3BAs2
_symmetry_space_group_name_H-M   'P 1'
_cell_length_a   7.65744178
_cell_length_b   7.65744259
_cell_length_c   7.65744321
_cell_angle_alpha   126.72549708
_cell_angle_beta   127.43127523
_cell_angle_gamma   78.12417617
_symmetry_Int_Tables_number   1
_chemical_formula_structural   Hf3Tc3BAs2
_chemical_formula_sum   'Hf6 Tc6 B2 As4'
_cell_volume   276.86860669
_cell_formula_units_Z   2
loop_
 _symmetry_equiv_pos_site_id
 _symmetry_equiv_pos_as_xyz
  1  'x, y, z'
loop_
 _atom_site_type_symbol
 _atom_site_label
 _atom_site_symmetry_multiplicity
 _atom_site_fract_x
 _atom_site_fract_y
 _atom_site_fract_z
 _atom_site_occupancy
  Hf  Hf0  1  0.442630  0.638594  0.695964  1
  Hf  Hf1  1  0.557370  0.253334  0.195964  1
  Hf  Hf2  1  0.749907  0.868207  0.618300  1
  Hf  Hf3  1  0.250093  0.868394  0.118300  1
  Hf  Hf4  1  0.057619  0.253404  0.695786  1
  Hf  Hf5  1  0.942381  0.638166  0.195786  1
  Tc  Tc6  1  0.500000  0.491379  0.991379  1
  Tc  Tc7  1  0.000000  0.491379  0.491379  1
  Tc  Tc8  1  0.118795  0.253268  0.133988  1
  Tc  Tc9  1  0.881205  0.015193  0.134473  1
  Tc  Tc10  1  0.380720  0.015193  0.633988  1
  Tc  Tc11  1  0.619280  0.253268  0.634473  1
  B  B12  1  0.250287  0.253719  0.503434  1
  B  B13  1  0.749713  0.253147  0.003434  1
  As  As14  1  0.333197  0.586556  0.253120  1
  As  As15  1  0.666803  0.919923  0.253358  1
  As  As16  1  0.166565  0.919923  0.753120  1
  As  As17  1  0.833435  0.586556  0.753358  1
