# generated using pymatgen
data_Pr2PaAlIn2Pt3
_symmetry_space_group_name_H-M   'P 1'
_cell_length_a   7.56110700
_cell_length_b   7.70729890
_cell_length_c   4.01350400
_cell_angle_alpha   90.00000000
_cell_angle_beta   90.00000000
_cell_angle_gamma   119.37450729
_symmetry_Int_Tables_number   1
_chemical_formula_structural   Pr2PaAlIn2Pt3
_chemical_formula_sum   'Pr2 Pa1 Al1 In2 Pt3'
_cell_volume   203.81909135
_cell_formula_units_Z   1
loop_
 _symmetry_equiv_pos_site_id
 _symmetry_equiv_pos_as_xyz
  1  'x, y, z'
loop_
 _atom_site_type_symbol
 _atom_site_label
 _atom_site_symmetry_multiplicity
 _atom_site_fract_x
 _atom_site_fract_y
 _atom_site_fract_z
 _atom_site_occupancy
  Pr  Pr0  1  0.007448  0.595076  0.000000  1
  Pr  Pr1  1  0.412373  0.404924  0.000000  1
  Pa  Pa2  1  0.579500  0.000000  0.000000  1
  Al  Al3  1  0.235103  0.000000  0.500000  1
  In  In4  1  0.005917  0.255643  0.500000  1
  In  In5  1  0.750275  0.744357  0.500000  1
  Pt  Pt6  1  0.355059  0.711597  0.500000  1
  Pt  Pt7  1  0.643464  0.288403  0.500000  1
  Pt  Pt8  1  0.010860  0.000000  0.000000  1
