# generated using pymatgen
data_Zr12Zn8PtAu3N4
_symmetry_space_group_name_H-M   'P 1'
_cell_length_a   8.63220677
_cell_length_b   8.66917399
_cell_length_c   8.63220600
_cell_angle_alpha   60.14095445
_cell_angle_beta   59.99999529
_cell_angle_gamma   60.14095161
_symmetry_Int_Tables_number   1
_chemical_formula_structural   Zr12Zn8PtAu3N4
_chemical_formula_sum   'Zr12 Zn8 Pt1 Au3 N4'
_cell_volume   457.74997036
_cell_formula_units_Z   1
loop_
 _symmetry_equiv_pos_site_id
 _symmetry_equiv_pos_as_xyz
  1  'x, y, z'
loop_
 _atom_site_type_symbol
 _atom_site_label
 _atom_site_symmetry_multiplicity
 _atom_site_fract_x
 _atom_site_fract_y
 _atom_site_fract_z
 _atom_site_occupancy
  Zr  Zr0  1  0.812068  0.185365  0.190499  1
  Zr  Zr1  1  0.186482  0.813458  0.186482  1
  Zr  Zr2  1  0.813578  0.813458  0.186482  1
  Zr  Zr3  1  0.186482  0.813458  0.813578  1
  Zr  Zr4  1  0.812068  0.185365  0.812068  1
  Zr  Zr5  1  0.190499  0.185365  0.812068  1
  Zr  Zr6  1  0.437932  0.064635  0.059501  1
  Zr  Zr7  1  0.063518  0.436542  0.063518  1
  Zr  Zr8  1  0.436422  0.436542  0.063518  1
  Zr  Zr9  1  0.063518  0.436542  0.436422  1
  Zr  Zr10  1  0.437932  0.064635  0.437932  1
  Zr  Zr11  1  0.059501  0.064635  0.437932  1
  Zn  Zn12  1  0.419023  0.413861  0.748092  1
  Zn  Zn13  1  0.419023  0.413861  0.419023  1
  Zn  Zn14  1  0.748092  0.413861  0.419023  1
  Zn  Zn15  1  0.415588  0.753237  0.415588  1
  Zn  Zn16  1  0.830977  0.836139  0.501908  1
  Zn  Zn17  1  0.830977  0.836139  0.830977  1
  Zn  Zn18  1  0.501908  0.836139  0.830977  1
  Zn  Zn19  1  0.834412  0.496763  0.834412  1
  Pt  Pt20  1  0.625000  0.125000  0.625000  1
  Au  Au21  1  0.625000  0.625000  0.125000  1
  Au  Au22  1  0.625000  0.625000  0.625000  1
  Au  Au23  1  0.125000  0.625000  0.625000  1
  N  N24  1  0.125000  0.125000  0.625000  1
  N  N25  1  0.125000  0.125000  0.125000  1
  N  N26  1  0.625000  0.125000  0.125000  1
  N  N27  1  0.125000  0.625000  0.125000  1
