# generated using pymatgen
data_V12Ga5Ni3N4
_symmetry_space_group_name_H-M   'P 1'
_cell_length_a   6.52793907
_cell_length_b   6.52793907
_cell_length_c   6.52793907
_cell_angle_alpha   90.11041415
_cell_angle_beta   90.11041415
_cell_angle_gamma   90.11041415
_symmetry_Int_Tables_number   1
_chemical_formula_structural   V12Ga5Ni3N4
_chemical_formula_sum   'V12 Ga5 Ni3 N4'
_cell_volume   278.17996842
_cell_formula_units_Z   1
loop_
 _symmetry_equiv_pos_site_id
 _symmetry_equiv_pos_as_xyz
  1  'x, y, z'
loop_
 _atom_site_type_symbol
 _atom_site_label
 _atom_site_symmetry_multiplicity
 _atom_site_fract_x
 _atom_site_fract_y
 _atom_site_fract_z
 _atom_site_occupancy
  V  V0  1  0.791194  0.962655  0.374344  1
  V  V1  1  0.709655  0.041928  0.875144  1
  V  V2  1  0.209555  0.459556  0.124571  1
  V  V3  1  0.288957  0.539178  0.624706  1
  V  V4  1  0.962655  0.374344  0.791194  1
  V  V5  1  0.041928  0.875144  0.709655  1
  V  V6  1  0.459556  0.124571  0.209555  1
  V  V7  1  0.539178  0.624706  0.288957  1
  V  V8  1  0.374344  0.791194  0.962655  1
  V  V9  1  0.875144  0.709655  0.041928  1
  V  V10  1  0.124571  0.209555  0.459556  1
  V  V11  1  0.624706  0.288957  0.539178  1
  Ga  Ga12  1  0.678780  0.678780  0.678780  1
  Ga  Ga13  1  0.569455  0.417888  0.935203  1
  Ga  Ga14  1  0.417888  0.935203  0.569455  1
  Ga  Ga15  1  0.935203  0.569455  0.417888  1
  Ga  Ga16  1  0.073331  0.073331  0.073331  1
  Ni  Ni17  1  0.177546  0.822918  0.319330  1
  Ni  Ni18  1  0.319330  0.177546  0.822918  1
  Ni  Ni19  1  0.822918  0.319330  0.177546  1
  N  N20  1  0.877711  0.125852  0.625372  1
  N  N21  1  0.625372  0.877711  0.125852  1
  N  N22  1  0.125852  0.625372  0.877711  1
  N  N23  1  0.375171  0.375171  0.375171  1
