# generated using pymatgen
data_Tb5Y5(SnBi)3
_symmetry_space_group_name_H-M   'P 1'
_cell_length_a   9.07356936
_cell_length_b   9.12505877
_cell_length_c   6.50070900
_cell_angle_alpha   90.00000000
_cell_angle_beta   90.00000000
_cell_angle_gamma   119.81333210
_symmetry_Int_Tables_number   1
_chemical_formula_structural   Tb5Y5(SnBi)3
_chemical_formula_sum   'Tb5 Y5 Sn3 Bi3'
_cell_volume   467.00230554
_cell_formula_units_Z   1
loop_
 _symmetry_equiv_pos_site_id
 _symmetry_equiv_pos_as_xyz
  1  'x, y, z'
loop_
 _atom_site_type_symbol
 _atom_site_label
 _atom_site_symmetry_multiplicity
 _atom_site_fract_x
 _atom_site_fract_y
 _atom_site_fract_z
 _atom_site_occupancy
  Tb  Tb0  1  0.765149  0.006115  0.750000  1
  Tb  Tb1  1  0.325777  0.658952  0.498660  1
  Tb  Tb2  1  0.671642  0.338111  0.498970  1
  Tb  Tb3  1  0.325777  0.658952  0.001340  1
  Tb  Tb4  1  0.671642  0.338111  0.001030  1
  Y  Y5  1  0.758720  0.753174  0.250000  1
  Y  Y6  1  0.005373  0.246015  0.250000  1
  Y  Y7  1  0.236129  0.999859  0.250000  1
  Y  Y8  1  0.000107  0.755899  0.750000  1
  Y  Y9  1  0.238534  0.243952  0.750000  1
  Sn  Sn10  1  0.997603  0.391636  0.750000  1
  Sn  Sn11  1  0.391655  0.388823  0.250000  1
  Sn  Sn12  1  0.001397  0.609721  0.250000  1
  Bi  Bi13  1  0.609699  0.611998  0.750000  1
  Bi  Bi14  1  0.390875  0.000087  0.750000  1
  Bi  Bi15  1  0.609921  0.998595  0.250000  1
