# generated using pymatgen
data_NdZn2CdCu3
_symmetry_space_group_name_H-M   'P 1'
_cell_length_a   5.10509800
_cell_length_b   8.53301200
_cell_length_c   10.79723500
_cell_angle_alpha   90.00000000
_cell_angle_beta   90.00000000
_cell_angle_gamma   90.00000000
_symmetry_Int_Tables_number   1
_chemical_formula_structural   NdZn2CdCu3
_chemical_formula_sum   'Nd4 Zn8 Cd4 Cu12'
_cell_volume   470.34766640
_cell_formula_units_Z   4
loop_
 _symmetry_equiv_pos_site_id
 _symmetry_equiv_pos_as_xyz
  1  'x, y, z'
loop_
 _atom_site_type_symbol
 _atom_site_label
 _atom_site_symmetry_multiplicity
 _atom_site_fract_x
 _atom_site_fract_y
 _atom_site_fract_z
 _atom_site_occupancy
  Nd  Nd0  1  0.248728  0.254876  0.557593  1
  Nd  Nd1  1  0.251272  0.754876  0.942407  1
  Nd  Nd2  1  0.748728  0.745124  0.442407  1
  Nd  Nd3  1  0.751272  0.245124  0.057593  1
  Zn  Zn4  1  0.250325  0.813475  0.256792  1
  Zn  Zn5  1  0.249675  0.313475  0.243208  1
  Zn  Zn6  1  0.750325  0.186525  0.743208  1
  Zn  Zn7  1  0.749675  0.686525  0.756792  1
  Zn  Zn8  1  0.005997  0.434319  0.815653  1
  Zn  Zn9  1  0.494003  0.934319  0.684347  1
  Zn  Zn10  1  0.505997  0.565681  0.184347  1
  Zn  Zn11  1  0.994003  0.065681  0.315653  1
  Cd  Cd12  1  0.250841  0.134508  0.866796  1
  Cd  Cd13  1  0.249159  0.634508  0.633204  1
  Cd  Cd14  1  0.750841  0.865492  0.133204  1
  Cd  Cd15  1  0.749159  0.365492  0.366796  1
  Cu  Cu16  1  0.247605  0.557505  0.391385  1
  Cu  Cu17  1  0.252395  0.057505  0.108615  1
  Cu  Cu18  1  0.747605  0.442495  0.608615  1
  Cu  Cu19  1  0.752395  0.942495  0.891385  1
  Cu  Cu20  1  0.247127  0.916774  0.483470  1
  Cu  Cu21  1  0.252873  0.416774  0.016530  1
  Cu  Cu22  1  0.747127  0.083226  0.516530  1
  Cu  Cu23  1  0.752873  0.583226  0.983470  1
  Cu  Cu24  1  0.998134  0.565950  0.185805  1
  Cu  Cu25  1  0.501866  0.065950  0.314195  1
  Cu  Cu26  1  0.498134  0.434050  0.814195  1
  Cu  Cu27  1  0.001866  0.934050  0.685805  1
