# generated using pymatgen
data_HfZr(VRe)2
_symmetry_space_group_name_H-M   'P 1'
_cell_length_a   5.16988437
_cell_length_b   5.15743745
_cell_length_c   5.15743800
_cell_angle_alpha   61.62389331
_cell_angle_beta   59.92014199
_cell_angle_gamma   59.92014556
_symmetry_Int_Tables_number   1
_chemical_formula_structural   HfZr(VRe)2
_chemical_formula_sum   'Hf1 Zr1 V2 Re2'
_cell_volume   98.25236479
_cell_formula_units_Z   1
loop_
 _symmetry_equiv_pos_site_id
 _symmetry_equiv_pos_as_xyz
  1  'x, y, z'
loop_
 _atom_site_type_symbol
 _atom_site_label
 _atom_site_symmetry_multiplicity
 _atom_site_fract_x
 _atom_site_fract_y
 _atom_site_fract_z
 _atom_site_occupancy
  Hf  Hf0  1  0.250868  0.249132  0.249132  1
  Zr  Zr1  1  0.999258  0.000742  0.000742  1
  V  V2  1  0.125289  0.624816  0.624816  1
  V  V3  1  0.625080  0.624816  0.624816  1
  Re  Re4  1  0.624753  0.625034  0.125461  1
  Re  Re5  1  0.624753  0.125461  0.625034  1
