# generated using pymatgen
data_Ho3Fe3Co5P6W
_symmetry_space_group_name_H-M   'P 1'
_cell_length_a   3.73507100
_cell_length_b   10.54443700
_cell_length_c   12.19878000
_cell_angle_alpha   90.00000000
_cell_angle_beta   90.00000000
_cell_angle_gamma   90.00000000
_symmetry_Int_Tables_number   1
_chemical_formula_structural   Ho3Fe3Co5P6W
_chemical_formula_sum   'Ho6 Fe6 Co10 P12 W2'
_cell_volume   480.43944562
_cell_formula_units_Z   2
loop_
 _symmetry_equiv_pos_site_id
 _symmetry_equiv_pos_as_xyz
  1  'x, y, z'
loop_
 _atom_site_type_symbol
 _atom_site_label
 _atom_site_symmetry_multiplicity
 _atom_site_fract_x
 _atom_site_fract_y
 _atom_site_fract_z
 _atom_site_occupancy
  Ho  Ho0  1  0.000000  0.500000  0.525118  1
  Ho  Ho1  1  0.500000  0.000000  0.474882  1
  Ho  Ho2  1  0.500000  0.820739  0.205508  1
  Ho  Ho3  1  0.500000  0.179261  0.205508  1
  Ho  Ho4  1  0.000000  0.679261  0.794492  1
  Ho  Ho5  1  0.000000  0.320739  0.794492  1
  Fe  Fe6  1  0.000000  0.500000  0.986835  1
  Fe  Fe7  1  0.500000  0.000000  0.013165  1
  Fe  Fe8  1  0.500000  0.296999  0.429781  1
  Fe  Fe9  1  0.500000  0.703001  0.429781  1
  Fe  Fe10  1  0.000000  0.203001  0.570219  1
  Fe  Fe11  1  0.000000  0.796999  0.570219  1
  Co  Co12  1  0.500000  0.878855  0.708578  1
  Co  Co13  1  0.500000  0.121145  0.708578  1
  Co  Co14  1  0.000000  0.621145  0.291422  1
  Co  Co15  1  0.000000  0.378855  0.291422  1
  Co  Co16  1  0.500000  0.331219  0.991343  1
  Co  Co17  1  0.500000  0.668781  0.991343  1
  Co  Co18  1  0.000000  0.168781  0.008657  1
  Co  Co19  1  0.000000  0.831219  0.008657  1
  Co  Co20  1  0.500000  0.500000  0.699130  1
  Co  Co21  1  0.000000  0.000000  0.300870  1
  P  P22  1  0.500000  0.307345  0.613307  1
  P  P23  1  0.500000  0.692655  0.613307  1
  P  P24  1  0.000000  0.192655  0.386693  1
  P  P25  1  0.000000  0.807345  0.386693  1
  P  P26  1  0.500000  0.500000  0.882165  1
  P  P27  1  0.000000  0.000000  0.117835  1
  P  P28  1  0.500000  0.844580  0.893279  1
  P  P29  1  0.500000  0.155420  0.893279  1
  P  P30  1  0.000000  0.655420  0.106721  1
  P  P31  1  0.000000  0.344580  0.106721  1
  P  P32  1  0.500000  0.500000  0.350543  1
  P  P33  1  0.000000  0.000000  0.649457  1
  W  W34  1  0.500000  0.500000  0.153637  1
  W  W35  1  0.000000  0.000000  0.846363  1
