# generated using pymatgen
data_Dy3Ho5Cd2IrRu
_symmetry_space_group_name_H-M   'P 1'
_cell_length_a   9.61564205
_cell_length_b   9.61564196
_cell_length_c   9.65177800
_cell_angle_alpha   59.87561363
_cell_angle_beta   59.87561392
_cell_angle_gamma   59.76340690
_symmetry_Int_Tables_number   1
_chemical_formula_structural   Dy3Ho5Cd2IrRu
_chemical_formula_sum   'Dy6 Ho10 Cd4 Ir2 Ru2'
_cell_volume   628.70972375
_cell_formula_units_Z   2
loop_
 _symmetry_equiv_pos_site_id
 _symmetry_equiv_pos_as_xyz
  1  'x, y, z'
loop_
 _atom_site_type_symbol
 _atom_site_label
 _atom_site_symmetry_multiplicity
 _atom_site_fract_x
 _atom_site_fract_y
 _atom_site_fract_z
 _atom_site_occupancy
  Dy  Dy0  1  0.188394  0.810090  0.812718  1
  Dy  Dy1  1  0.810090  0.188394  0.188798  1
  Dy  Dy2  1  0.810090  0.188394  0.812718  1
  Dy  Dy3  1  0.188394  0.810090  0.188798  1
  Dy  Dy4  1  0.811705  0.811705  0.188295  1
  Dy  Dy5  1  0.189149  0.189149  0.810851  1
  Ho  Ho6  1  0.597899  0.597899  0.597898  1
  Ho  Ho7  1  0.597899  0.597899  0.206304  1
  Ho  Ho8  1  0.597093  0.208591  0.597158  1
  Ho  Ho9  1  0.208591  0.597093  0.597158  1
  Ho  Ho10  1  0.062054  0.438150  0.439640  1
  Ho  Ho11  1  0.438150  0.062054  0.060157  1
  Ho  Ho12  1  0.438150  0.062054  0.439640  1
  Ho  Ho13  1  0.062054  0.438150  0.060157  1
  Ho  Ho14  1  0.438099  0.438099  0.061901  1
  Ho  Ho15  1  0.059894  0.059894  0.440106  1
  Cd  Cd16  1  0.830391  0.830391  0.830797  1
  Cd  Cd17  1  0.830391  0.830391  0.508422  1
  Cd  Cd18  1  0.830430  0.507571  0.831000  1
  Cd  Cd19  1  0.507571  0.830430  0.831000  1
  Ir  Ir20  1  0.393349  0.827246  0.389703  1
  Ir  Ir21  1  0.827246  0.393349  0.389703  1
  Ru  Ru22  1  0.391460  0.391460  0.388015  1
  Ru  Ru23  1  0.391460  0.391460  0.829065  1
