# generated using pymatgen
data_SmDy5Zr4(Sn3O)2
_symmetry_space_group_name_H-M   'P 1'
_cell_length_a   8.80130000
_cell_length_b   8.79826356
_cell_length_c   6.05656800
_cell_angle_alpha   90.00000000
_cell_angle_beta   90.00000000
_cell_angle_gamma   120.01141709
_symmetry_Int_Tables_number   1
_chemical_formula_structural   SmDy5Zr4(Sn3O)2
_chemical_formula_sum   'Sm1 Dy5 Zr4 Sn6 O2'
_cell_volume   406.11688437
_cell_formula_units_Z   1
loop_
 _symmetry_equiv_pos_site_id
 _symmetry_equiv_pos_as_xyz
  1  'x, y, z'
loop_
 _atom_site_type_symbol
 _atom_site_label
 _atom_site_symmetry_multiplicity
 _atom_site_fract_x
 _atom_site_fract_y
 _atom_site_fract_z
 _atom_site_occupancy
  Sm  Sm0  1  0.770220  0.000000  0.750000  1
  Dy  Dy1  1  0.999761  0.773465  0.750000  1
  Dy  Dy2  1  0.000472  0.226835  0.250000  1
  Dy  Dy3  1  0.226296  0.226535  0.750000  1
  Dy  Dy4  1  0.226187  0.000000  0.250000  1
  Dy  Dy5  1  0.773638  0.773165  0.250000  1
  Zr  Zr6  1  0.333143  0.666642  0.999724  1
  Zr  Zr7  1  0.333143  0.666642  0.500276  1
  Zr  Zr8  1  0.666502  0.333358  0.999724  1
  Zr  Zr9  1  0.666502  0.333358  0.500276  1
  Sn  Sn10  1  0.999950  0.593796  0.250000  1
  Sn  Sn11  1  0.001220  0.408169  0.750000  1
  Sn  Sn12  1  0.406155  0.406204  0.250000  1
  Sn  Sn13  1  0.593052  0.591831  0.750000  1
  Sn  Sn14  1  0.404369  0.000000  0.750000  1
  Sn  Sn15  1  0.593534  0.000000  0.250000  1
  O  O16  1  0.002928  0.000000  0.003138  1
  O  O17  1  0.002928  0.000000  0.496862  1
