# generated using pymatgen
data_Yb2NpFe2Si7
_symmetry_space_group_name_H-M   'P 1'
_cell_length_a   12.36893506
_cell_length_b   12.36893569
_cell_length_c   4.06211100
_cell_angle_alpha   90.00000000
_cell_angle_beta   90.00000000
_cell_angle_gamma   161.55644667
_symmetry_Int_Tables_number   1
_chemical_formula_structural   Yb2NpFe2Si7
_chemical_formula_sum   'Yb2 Np1 Fe2 Si7'
_cell_volume   196.61291480
_cell_formula_units_Z   1
loop_
 _symmetry_equiv_pos_site_id
 _symmetry_equiv_pos_as_xyz
  1  'x, y, z'
loop_
 _atom_site_type_symbol
 _atom_site_label
 _atom_site_symmetry_multiplicity
 _atom_site_fract_x
 _atom_site_fract_y
 _atom_site_fract_z
 _atom_site_occupancy
  Yb  Yb0  1  0.101548  0.898452  0.500000  1
  Yb  Yb1  1  0.464537  0.535463  0.500000  1
  Np  Np2  1  0.783087  0.216913  0.000000  1
  Fe  Fe3  1  0.657416  0.342584  0.000000  1
  Fe  Fe4  1  0.908700  0.091300  0.000000  1
  Si  Si5  1  0.367219  0.632781  0.000000  1
  Si  Si6  1  0.562683  0.437317  0.000000  1
  Si  Si7  1  0.866622  0.133378  0.500000  1
  Si  Si8  1  0.003371  0.996629  0.000000  1
  Si  Si9  1  0.198938  0.801062  0.000000  1
  Si  Si10  1  0.283043  0.716957  0.500000  1
  Si  Si11  1  0.699540  0.300460  0.500000  1
