# generated using pymatgen
data_Y2MgInRh2
_symmetry_space_group_name_H-M   'P 1'
_cell_length_a   4.14730000
_cell_length_b   7.12000300
_cell_length_c   8.63948300
_cell_angle_alpha   90.00000000
_cell_angle_beta   90.00000000
_cell_angle_gamma   90.00000000
_symmetry_Int_Tables_number   1
_chemical_formula_structural   Y2MgInRh2
_chemical_formula_sum   'Y4 Mg2 In2 Rh4'
_cell_volume   255.11346575
_cell_formula_units_Z   2
loop_
 _symmetry_equiv_pos_site_id
 _symmetry_equiv_pos_as_xyz
  1  'x, y, z'
loop_
 _atom_site_type_symbol
 _atom_site_label
 _atom_site_symmetry_multiplicity
 _atom_site_fract_x
 _atom_site_fract_y
 _atom_site_fract_z
 _atom_site_occupancy
  Y  Y0  1  0.250000  0.039256  0.324241  1
  Y  Y1  1  0.250000  0.539256  0.175759  1
  Y  Y2  1  0.750000  0.963492  0.676976  1
  Y  Y3  1  0.750000  0.463492  0.823024  1
  Mg  Mg4  1  0.250000  0.138558  0.940116  1
  Mg  Mg5  1  0.250000  0.638558  0.559884  1
  In  In6  1  0.750000  0.862026  0.059285  1
  In  In7  1  0.750000  0.362026  0.440715  1
  Rh  Rh8  1  0.250000  0.247942  0.632247  1
  Rh  Rh9  1  0.250000  0.747942  0.867753  1
  Rh  Rh10  1  0.750000  0.748725  0.370861  1
  Rh  Rh11  1  0.750000  0.248725  0.129139  1
