# generated using pymatgen
data_Tb12Co2TcNi2Sn
_symmetry_space_group_name_H-M   'P 1'
_cell_length_a   8.35781784
_cell_length_b   8.35829717
_cell_length_c   8.35781683
_cell_angle_alpha   111.17809376
_cell_angle_beta   109.85249539
_cell_angle_gamma   107.40321311
_symmetry_Int_Tables_number   1
_chemical_formula_structural   Tb12Co2TcNi2Sn
_chemical_formula_sum   'Tb12 Co2 Tc1 Ni2 Sn1'
_cell_volume   448.96371972
_cell_formula_units_Z   1
loop_
 _symmetry_equiv_pos_site_id
 _symmetry_equiv_pos_as_xyz
  1  'x, y, z'
loop_
 _atom_site_type_symbol
 _atom_site_label
 _atom_site_symmetry_multiplicity
 _atom_site_fract_x
 _atom_site_fract_y
 _atom_site_fract_z
 _atom_site_occupancy
  Tb  Tb0  1  0.408121  0.217908  0.190215  1
  Tb  Tb1  1  0.591879  0.782092  0.809785  1
  Tb  Tb2  1  0.027693  0.217908  0.809788  1
  Tb  Tb3  1  0.972307  0.782092  0.190212  1
  Tb  Tb4  1  0.180743  0.288916  0.469685  1
  Tb  Tb5  1  0.819257  0.711084  0.530315  1
  Tb  Tb6  1  0.180769  0.711084  0.891826  1
  Tb  Tb7  1  0.819231  0.288916  0.108174  1
  Tb  Tb8  1  0.315972  0.623274  0.307303  1
  Tb  Tb9  1  0.684028  0.376726  0.692697  1
  Tb  Tb10  1  0.315957  0.008639  0.692681  1
  Tb  Tb11  1  0.684043  0.991361  0.307319  1
  Co  Co12  1  0.114166  0.614186  0.500020  1
  Co  Co13  1  0.885834  0.385814  0.499980  1
  Tc  Tc14  1  0.000000  0.000000  0.000000  1
  Ni  Ni15  1  0.363337  0.000000  0.363337  1
  Ni  Ni16  1  0.636663  0.000000  0.636663  1
  Sn  Sn17  1  0.500000  0.500000  0.000000  1
