# generated using pymatgen
data_Ho4Lu7PaGa20
_symmetry_space_group_name_H-M   'P 1'
_cell_length_a   6.07831012
_cell_length_b   9.55329903
_cell_length_c   11.35230806
_cell_angle_alpha   89.99864827
_cell_angle_beta   89.81082862
_cell_angle_gamma   89.97343537
_symmetry_Int_Tables_number   1
_chemical_formula_structural   Ho4Lu7PaGa20
_chemical_formula_sum   'Ho4 Lu7 Pa1 Ga20'
_cell_volume   659.20118617
_cell_formula_units_Z   1
loop_
 _symmetry_equiv_pos_site_id
 _symmetry_equiv_pos_as_xyz
  1  'x, y, z'
loop_
 _atom_site_type_symbol
 _atom_site_label
 _atom_site_symmetry_multiplicity
 _atom_site_fract_x
 _atom_site_fract_y
 _atom_site_fract_z
 _atom_site_occupancy
  Ho  Ho0  1  0.110756  0.489521  0.648582  1
  Ho  Ho1  1  0.388745  0.011325  0.148068  1
  Ho  Ho2  1  0.889343  0.989718  0.352390  1
  Ho  Ho3  1  0.609401  0.510404  0.851477  1
  Lu  Lu4  1  0.850377  0.748930  0.074176  1
  Lu  Lu5  1  0.651148  0.749455  0.574558  1
  Lu  Lu6  1  0.150643  0.250016  0.924606  1
  Lu  Lu7  1  0.352347  0.252311  0.426076  1
  Lu  Lu8  1  0.609247  0.988259  0.851787  1
  Lu  Lu9  1  0.112049  0.010315  0.648703  1
  Lu  Lu10  1  0.389471  0.489581  0.148903  1
  Pa  Pa11  1  0.887944  0.510685  0.352622  1
  Ga  Ga12  1  0.873701  0.052329  0.090940  1
  Ga  Ga13  1  0.627632  0.446647  0.589142  1
  Ga  Ga14  1  0.126566  0.552997  0.909383  1
  Ga  Ga15  1  0.373882  0.949304  0.409445  1
  Ga  Ga16  1  0.126949  0.947567  0.909429  1
  Ga  Ga17  1  0.377720  0.552845  0.408509  1
  Ga  Ga18  1  0.873418  0.446688  0.090064  1
  Ga  Ga19  1  0.627905  0.051490  0.592230  1
  Ga  Ga20  1  0.171619  0.748867  0.252879  1
  Ga  Ga21  1  0.325531  0.751159  0.751637  1
  Ga  Ga22  1  0.824555  0.247709  0.749376  1
  Ga  Ga23  1  0.672704  0.250434  0.246651  1
  Ga  Ga24  1  0.376549  0.749826  0.006324  1
  Ga  Ga25  1  0.121867  0.749954  0.503091  1
  Ga  Ga26  1  0.622833  0.248749  0.993254  1
  Ga  Ga27  1  0.877273  0.249623  0.495010  1
  Ga  Ga28  1  0.603276  0.750493  0.297539  1
  Ga  Ga29  1  0.896747  0.751169  0.798071  1
  Ga  Ga30  1  0.396318  0.248641  0.701170  1
  Ga  Ga31  1  0.101492  0.252990  0.203910  1
