# generated using pymatgen
data_La19Yb(Ir5Os)2
_symmetry_space_group_name_H-M   'P 1'
_cell_length_a   11.41137230
_cell_length_b   11.43881330
_cell_length_c   6.63014500
_cell_angle_alpha   90.00000000
_cell_angle_beta   90.00000000
_cell_angle_gamma   89.97372185
_symmetry_Int_Tables_number   1
_chemical_formula_structural   La19Yb(Ir5Os)2
_chemical_formula_sum   'La19 Yb1 Ir10 Os2'
_cell_volume   865.44969074
_cell_formula_units_Z   1
loop_
 _symmetry_equiv_pos_site_id
 _symmetry_equiv_pos_as_xyz
  1  'x, y, z'
loop_
 _atom_site_type_symbol
 _atom_site_label
 _atom_site_symmetry_multiplicity
 _atom_site_fract_x
 _atom_site_fract_y
 _atom_site_fract_z
 _atom_site_occupancy
  La  La0  1  0.290815  0.087769  0.391025  1
  La  La1  1  0.294252  0.911080  0.890034  1
  La  La2  1  0.705748  0.088920  0.890034  1
  La  La3  1  0.709185  0.912231  0.391025  1
  La  La4  1  0.589346  0.795432  0.888786  1
  La  La5  1  0.588249  0.204019  0.387840  1
  La  La6  1  0.411751  0.795981  0.387840  1
  La  La7  1  0.410654  0.204568  0.888786  1
  La  La8  1  0.207531  0.408662  0.613906  1
  La  La9  1  0.208131  0.592259  0.112650  1
  La  La10  1  0.791869  0.407741  0.112650  1
  La  La11  1  0.792469  0.591338  0.613906  1
  La  La12  1  0.908122  0.709704  0.111936  1
  La  La13  1  0.909108  0.286759  0.610462  1
  La  La14  1  0.090892  0.713241  0.610462  1
  La  La15  1  0.091878  0.290296  0.111936  1
  La  La16  1  0.000000  0.000000  0.994917  1
  La  La17  1  0.500000  0.500000  0.995252  1
  La  La18  1  0.500000  0.500000  0.495478  1
  Yb  Yb19  1  0.000000  0.000000  0.495286  1
  Ir  Ir20  1  0.848112  0.156120  0.245969  1
  Ir  Ir21  1  0.848088  0.843959  0.752083  1
  Ir  Ir22  1  0.151912  0.156041  0.752083  1
  Ir  Ir23  1  0.151888  0.843880  0.245969  1
  Ir  Ir24  1  0.654709  0.349357  0.748866  1
  Ir  Ir25  1  0.654957  0.650876  0.250221  1
  Ir  Ir26  1  0.345043  0.349124  0.250221  1
  Ir  Ir27  1  0.345291  0.650643  0.748866  1
  Ir  Ir28  1  0.000000  0.500000  0.881443  1
  Ir  Ir29  1  0.000000  0.500000  0.382688  1
  Os  Os30  1  0.500000  0.000000  0.124194  1
  Os  Os31  1  0.500000  0.000000  0.623172  1
