# generated using pymatgen
data_Ho10Al2GaBi3
_symmetry_space_group_name_H-M   'P 1'
_cell_length_a   8.87056800
_cell_length_b   8.87344142
_cell_length_c   6.51779000
_cell_angle_alpha   90.00000000
_cell_angle_beta   90.00000000
_cell_angle_gamma   119.98928860
_symmetry_Int_Tables_number   1
_chemical_formula_structural   Ho10Al2GaBi3
_chemical_formula_sum   'Ho10 Al2 Ga1 Bi3'
_cell_volume   444.34610443
_cell_formula_units_Z   1
loop_
 _symmetry_equiv_pos_site_id
 _symmetry_equiv_pos_as_xyz
  1  'x, y, z'
loop_
 _atom_site_type_symbol
 _atom_site_label
 _atom_site_symmetry_multiplicity
 _atom_site_fract_x
 _atom_site_fract_y
 _atom_site_fract_z
 _atom_site_occupancy
  Ho  Ho0  1  0.768127  0.753238  0.250000  1
  Ho  Ho1  1  0.014889  0.246762  0.250000  1
  Ho  Ho2  1  0.324745  0.669233  0.003880  1
  Ho  Ho3  1  0.242584  0.225828  0.750000  1
  Ho  Ho4  1  0.755733  0.000000  0.750000  1
  Ho  Ho5  1  0.233665  0.000000  0.250000  1
  Ho  Ho6  1  0.655513  0.330767  0.003880  1
  Ho  Ho7  1  0.016756  0.774172  0.750000  1
  Ho  Ho8  1  0.324745  0.669233  0.496120  1
  Ho  Ho9  1  0.655513  0.330767  0.496120  1
  Al  Al10  1  0.997558  0.599354  0.250000  1
  Al  Al11  1  0.398205  0.400646  0.250000  1
  Ga  Ga12  1  0.400096  0.000000  0.750000  1
  Bi  Bi13  1  0.995844  0.391628  0.750000  1
  Bi  Bi14  1  0.611811  0.000000  0.250000  1
  Bi  Bi15  1  0.604215  0.608372  0.750000  1
