# generated using pymatgen
data_CaZnSi2Ag
_symmetry_space_group_name_H-M   'P 1'
_cell_length_a   6.04861313
_cell_length_b   6.04861296
_cell_length_c   6.04861302
_cell_angle_alpha   139.04486477
_cell_angle_beta   139.04485833
_cell_angle_gamma   59.30645444
_symmetry_Int_Tables_number   1
_chemical_formula_structural   CaZnSi2Ag
_chemical_formula_sum   'Ca1 Zn1 Si2 Ag1'
_cell_volume   94.14679989
_cell_formula_units_Z   1
loop_
 _symmetry_equiv_pos_site_id
 _symmetry_equiv_pos_as_xyz
  1  'x, y, z'
loop_
 _atom_site_type_symbol
 _atom_site_label
 _atom_site_symmetry_multiplicity
 _atom_site_fract_x
 _atom_site_fract_y
 _atom_site_fract_z
 _atom_site_occupancy
  Ca  Ca0  1  0.000000  0.000000  0.000000  1
  Zn  Zn1  1  0.750000  0.250000  0.500000  1
  Si  Si2  1  0.610222  0.610222  0.000000  1
  Si  Si3  1  0.389778  0.389778  0.000000  1
  Ag  Ag4  1  0.250000  0.750000  0.500000  1
