# generated using pymatgen
data_NaSb12Ir3Os
_symmetry_space_group_name_H-M   'P 1'
_cell_length_a   8.16833101
_cell_length_b   8.16833219
_cell_length_c   8.16833146
_cell_angle_alpha   109.51014448
_cell_angle_beta   109.51014355
_cell_angle_gamma   109.51014545
_symmetry_Int_Tables_number   1
_chemical_formula_structural   NaSb12Ir3Os
_chemical_formula_sum   'Na1 Sb12 Ir3 Os1'
_cell_volume   418.93894000
_cell_formula_units_Z   1
loop_
 _symmetry_equiv_pos_site_id
 _symmetry_equiv_pos_as_xyz
  1  'x, y, z'
loop_
 _atom_site_type_symbol
 _atom_site_label
 _atom_site_symmetry_multiplicity
 _atom_site_fract_x
 _atom_site_fract_y
 _atom_site_fract_z
 _atom_site_occupancy
  Na  Na0  1  0.000000  0.000000  0.000000  1
  Sb  Sb1  1  0.341156  0.186385  0.845615  1
  Sb  Sb2  1  0.658844  0.813615  0.154385  1
  Sb  Sb3  1  0.658900  0.504830  0.842918  1
  Sb  Sb4  1  0.341100  0.495170  0.157082  1
  Sb  Sb5  1  0.186385  0.845615  0.341156  1
  Sb  Sb6  1  0.813615  0.154385  0.658844  1
  Sb  Sb7  1  0.504830  0.842918  0.658900  1
  Sb  Sb8  1  0.495170  0.157082  0.341100  1
  Sb  Sb9  1  0.845615  0.341156  0.186385  1
  Sb  Sb10  1  0.154385  0.658844  0.813615  1
  Sb  Sb11  1  0.842918  0.658900  0.504830  1
  Sb  Sb12  1  0.157082  0.341100  0.495170  1
  Ir  Ir13  1  0.000000  0.000000  0.500000  1
  Ir  Ir14  1  0.500000  0.000000  0.000000  1
  Ir  Ir15  1  0.000000  0.500000  0.000000  1
  Os  Os16  1  0.500000  0.500000  0.500000  1
