# generated using pymatgen
data_Eu3Hg2Sb3O14
_symmetry_space_group_name_H-M   'P 1'
_cell_length_a   7.41121670
_cell_length_b   7.40702647
_cell_length_c   7.41051940
_cell_angle_alpha   62.72409506
_cell_angle_beta   62.72548532
_cell_angle_gamma   62.72633540
_symmetry_Int_Tables_number   1
_chemical_formula_structural   Eu3Hg2Sb3O14
_chemical_formula_sum   'Eu3 Hg2 Sb3 O14'
_cell_volume   305.09236447
_cell_formula_units_Z   1
loop_
 _symmetry_equiv_pos_site_id
 _symmetry_equiv_pos_as_xyz
  1  'x, y, z'
loop_
 _atom_site_type_symbol
 _atom_site_label
 _atom_site_symmetry_multiplicity
 _atom_site_fract_x
 _atom_site_fract_y
 _atom_site_fract_z
 _atom_site_occupancy
  Eu  Eu0  1  0.000001  0.000006  0.499994  1
  Eu  Eu1  1  0.499995  0.999999  0.000001  1
  Eu  Eu2  1  0.500006  0.499999  0.499998  1
  Hg  Hg3  1  0.000000  0.499998  0.000002  1
  Hg  Hg4  1  0.500002  0.000000  0.499999  1
  Sb  Sb5  1  0.499999  0.500003  0.000001  1
  Sb  Sb6  1  0.999998  0.499996  0.500000  1
  Sb  Sb7  1  0.000001  0.000000  0.000003  1
  O  O8  1  0.620152  0.120668  0.620077  1
  O  O9  1  0.379850  0.879333  0.379921  1
  O  O10  1  0.074848  0.188747  0.688825  1
  O  O11  1  0.689000  0.188838  0.075123  1
  O  O12  1  0.688906  0.575055  0.688810  1
  O  O13  1  0.925152  0.811253  0.311175  1
  O  O14  1  0.310997  0.811161  0.924877  1
  O  O15  1  0.311095  0.424945  0.311192  1
  O  O16  1  0.626355  0.603804  0.103379  1
  O  O17  1  0.103338  0.603518  0.626681  1
  O  O18  1  0.103674  0.126488  0.103343  1
  O  O19  1  0.373642  0.396190  0.896623  1
  O  O20  1  0.896674  0.396489  0.373325  1
  O  O21  1  0.896316  0.873506  0.896651  1
