# generated using pymatgen
data_Ti8Mn3Os4Pt
_symmetry_space_group_name_H-M   'P 1'
_cell_length_a   6.12711800
_cell_length_b   4.33767400
_cell_length_c   8.64889200
_cell_angle_alpha   90.00000000
_cell_angle_beta   90.00052019
_cell_angle_gamma   90.00000000
_symmetry_Int_Tables_number   1
_chemical_formula_structural   Ti8Mn3Os4Pt
_chemical_formula_sum   'Ti8 Mn3 Os4 Pt1'
_cell_volume   229.86541203
_cell_formula_units_Z   1
loop_
 _symmetry_equiv_pos_site_id
 _symmetry_equiv_pos_as_xyz
  1  'x, y, z'
loop_
 _atom_site_type_symbol
 _atom_site_label
 _atom_site_symmetry_multiplicity
 _atom_site_fract_x
 _atom_site_fract_y
 _atom_site_fract_z
 _atom_site_occupancy
  Ti  Ti0  1  0.013098  0.749999  0.124990  1
  Ti  Ti1  1  0.486918  0.749999  0.124993  1
  Ti  Ti2  1  0.004408  0.250000  0.382655  1
  Ti  Ti3  1  0.495611  0.250000  0.382659  1
  Ti  Ti4  1  0.501881  0.749999  0.625008  1
  Ti  Ti5  1  0.998102  0.749999  0.625007  1
  Ti  Ti6  1  0.495574  0.250000  0.867343  1
  Ti  Ti7  1  0.004416  0.250000  0.867342  1
  Mn  Mn8  1  0.250007  0.749999  0.373613  1
  Mn  Mn9  1  0.749971  0.250000  0.624957  1
  Mn  Mn10  1  0.250007  0.749999  0.876434  1
  Os  Os11  1  0.250009  0.250000  0.125006  1
  Os  Os12  1  0.750009  0.749999  0.374856  1
  Os  Os13  1  0.249990  0.250000  0.625000  1
  Os  Os14  1  0.749995  0.749999  0.875143  1
  Pt  Pt15  1  0.750008  0.250000  0.124992  1
