# generated using pymatgen
data_Ca12Sc7Ti12CrO48
_symmetry_space_group_name_H-M   'P 1'
_cell_length_a   11.06381945
_cell_length_b   11.06381848
_cell_length_c   11.06381914
_cell_angle_alpha   109.48027731
_cell_angle_beta   109.48027479
_cell_angle_gamma   109.48027577
_symmetry_Int_Tables_number   1
_chemical_formula_structural   Ca12Sc7Ti12CrO48
_chemical_formula_sum   'Ca12 Sc7 Ti12 Cr1 O48'
_cell_volume   1042.19169959
_cell_formula_units_Z   1
loop_
 _symmetry_equiv_pos_site_id
 _symmetry_equiv_pos_as_xyz
  1  'x, y, z'
loop_
 _atom_site_type_symbol
 _atom_site_label
 _atom_site_symmetry_multiplicity
 _atom_site_fract_x
 _atom_site_fract_y
 _atom_site_fract_z
 _atom_site_occupancy
  Ca  Ca0  1  0.252281  0.375654  0.127543  1
  Ca  Ca1  1  0.747719  0.624346  0.872457  1
  Ca  Ca2  1  0.750528  0.125412  0.375674  1
  Ca  Ca3  1  0.127543  0.252281  0.375654  1
  Ca  Ca4  1  0.375674  0.750528  0.125412  1
  Ca  Ca5  1  0.249472  0.874588  0.624326  1
  Ca  Ca6  1  0.872457  0.747719  0.624346  1
  Ca  Ca7  1  0.624326  0.249472  0.874588  1
  Ca  Ca8  1  0.375654  0.127543  0.252281  1
  Ca  Ca9  1  0.624346  0.872457  0.747719  1
  Ca  Ca10  1  0.125412  0.375674  0.750528  1
  Ca  Ca11  1  0.874588  0.624326  0.249472  1
  Sc  Sc12  1  0.000000  0.000000  0.000000  1
  Sc  Sc13  1  0.500000  0.000000  0.500000  1
  Sc  Sc14  1  0.000000  0.500000  0.500000  1
  Sc  Sc15  1  0.500000  0.000000  0.000000  1
  Sc  Sc16  1  0.500000  0.500000  0.000000  1
  Sc  Sc17  1  0.000000  0.000000  0.500000  1
  Sc  Sc18  1  0.000000  0.500000  0.000000  1
  Ti  Ti19  1  0.253015  0.624561  0.377136  1
  Ti  Ti20  1  0.746985  0.375439  0.622864  1
  Ti  Ti21  1  0.749858  0.874964  0.124967  1
  Ti  Ti22  1  0.377136  0.253015  0.624561  1
  Ti  Ti23  1  0.622864  0.746985  0.375439  1
  Ti  Ti24  1  0.250142  0.125036  0.875033  1
  Ti  Ti25  1  0.124967  0.749858  0.874964  1
  Ti  Ti26  1  0.875033  0.250142  0.125036  1
  Ti  Ti27  1  0.624561  0.377136  0.253015  1
  Ti  Ti28  1  0.375439  0.622864  0.746985  1
  Ti  Ti29  1  0.874964  0.124967  0.749858  1
  Ti  Ti30  1  0.125036  0.875033  0.250142  1
  Cr  Cr31  1  0.500000  0.500000  0.500000  1
  O  O32  1  0.481824  0.383534  0.301182  1
  O  O33  1  0.518176  0.616466  0.698818  1
  O  O34  1  0.584336  0.187533  0.206730  1
  O  O35  1  0.914908  0.121698  0.600713  1
  O  O36  1  0.301182  0.481824  0.383534  1
  O  O37  1  0.313800  0.914540  0.293237  1
  O  O38  1  0.415664  0.812467  0.793270  1
  O  O39  1  0.085092  0.878302  0.399287  1
  O  O40  1  0.698818  0.518176  0.616466  1
  O  O41  1  0.686200  0.085460  0.706763  1
  O  O42  1  0.020014  0.313632  0.899346  1
  O  O43  1  0.206730  0.584336  0.187533  1
  O  O44  1  0.121576  0.021206  0.207476  1
  O  O45  1  0.979986  0.686368  0.100654  1
  O  O46  1  0.793270  0.415664  0.812467  1
  O  O47  1  0.878424  0.978794  0.792524  1
  O  O48  1  0.600713  0.914908  0.121698  1
  O  O49  1  0.185499  0.479058  0.600065  1
  O  O50  1  0.399287  0.085092  0.878302  1
  O  O51  1  0.814501  0.520942  0.399935  1
  O  O52  1  0.899346  0.020014  0.313632  1
  O  O53  1  0.380305  0.585249  0.897763  1
  O  O54  1  0.100654  0.979986  0.686368  1
  O  O55  1  0.619695  0.414751  0.102237  1
  O  O56  1  0.383534  0.301182  0.481824  1
  O  O57  1  0.585249  0.897763  0.380305  1
  O  O58  1  0.616466  0.698818  0.518176  1
  O  O59  1  0.414751  0.102237  0.619695  1
  O  O60  1  0.121698  0.600713  0.914908  1
  O  O61  1  0.021206  0.207476  0.121576  1
  O  O62  1  0.878302  0.399287  0.085092  1
  O  O63  1  0.978794  0.792524  0.878424  1
  O  O64  1  0.313632  0.899346  0.020014  1
  O  O65  1  0.914540  0.293237  0.313800  1
  O  O66  1  0.686368  0.100654  0.979986  1
  O  O67  1  0.085460  0.706763  0.686200  1
  O  O68  1  0.187533  0.206730  0.584336  1
  O  O69  1  0.479058  0.600065  0.185499  1
  O  O70  1  0.812467  0.793270  0.415664  1
  O  O71  1  0.520942  0.399935  0.814501  1
  O  O72  1  0.293237  0.313800  0.914540  1
  O  O73  1  0.706763  0.686200  0.085460  1
  O  O74  1  0.207476  0.121576  0.021206  1
  O  O75  1  0.792524  0.878424  0.978794  1
  O  O76  1  0.897763  0.380305  0.585249  1
  O  O77  1  0.102237  0.619695  0.414751  1
  O  O78  1  0.600065  0.185499  0.479058  1
  O  O79  1  0.399935  0.814501  0.520942  1
