# generated using pymatgen
data_ThPCl9
_symmetry_space_group_name_H-M   'P 1'
_cell_length_a   7.48421688
_cell_length_b   9.87967026
_cell_length_c   10.45907088
_cell_angle_alpha   101.22398082
_cell_angle_beta   95.49930732
_cell_angle_gamma   94.71438422
_symmetry_Int_Tables_number   1
_chemical_formula_structural   ThPCl9
_chemical_formula_sum   'Th2 P2 Cl18'
_cell_volume   751.03927169
_cell_formula_units_Z   2
loop_
 _symmetry_equiv_pos_site_id
 _symmetry_equiv_pos_as_xyz
  1  'x, y, z'
loop_
 _atom_site_type_symbol
 _atom_site_label
 _atom_site_symmetry_multiplicity
 _atom_site_fract_x
 _atom_site_fract_y
 _atom_site_fract_z
 _atom_site_occupancy
  Th  Th0  1  0.383779  0.354904  0.313091  1
  Th  Th1  1  0.616221  0.645096  0.686909  1
  P  P2  1  0.053609  0.195538  0.778422  1
  P  P3  1  0.946391  0.804462  0.221578  1
  Cl  Cl4  1  0.957636  0.730499  0.767955  1
  Cl  Cl5  1  0.840576  0.622693  0.121827  1
  Cl  Cl6  1  0.364131  0.573554  0.200492  1
  Cl  Cl7  1  0.635869  0.426446  0.799508  1
  Cl  Cl8  1  0.411817  0.150381  0.440606  1
  Cl  Cl9  1  0.588183  0.849619  0.559394  1
  Cl  Cl10  1  0.042364  0.269501  0.232045  1
  Cl  Cl11  1  0.479013  0.787422  0.887752  1
  Cl  Cl12  1  0.520987  0.212578  0.112248  1
  Cl  Cl13  1  0.281622  0.518195  0.546614  1
  Cl  Cl14  1  0.137298  0.876688  0.130045  1
  Cl  Cl15  1  0.718378  0.481805  0.453386  1
  Cl  Cl16  1  0.952203  0.213169  0.603659  1
  Cl  Cl17  1  0.047797  0.786831  0.396341  1
  Cl  Cl18  1  0.240904  0.068141  0.762569  1
  Cl  Cl19  1  0.759096  0.931859  0.237431  1
  Cl  Cl20  1  0.862702  0.123312  0.869955  1
  Cl  Cl21  1  0.159424  0.377307  0.878173  1
