# generated using pymatgen
data_Tb2HoBi3(SbO7)2
_symmetry_space_group_name_H-M   'P 1'
_cell_length_a   6.49805656
_cell_length_b   6.69521276
_cell_length_c   7.64746706
_cell_angle_alpha   106.61732343
_cell_angle_beta   89.64528431
_cell_angle_gamma   98.28278936
_symmetry_Int_Tables_number   1
_chemical_formula_structural   Tb2HoBi3(SbO7)2
_chemical_formula_sum   'Tb2 Ho1 Bi3 Sb2 O14'
_cell_volume   315.27389406
_cell_formula_units_Z   1
loop_
 _symmetry_equiv_pos_site_id
 _symmetry_equiv_pos_as_xyz
  1  'x, y, z'
loop_
 _atom_site_type_symbol
 _atom_site_label
 _atom_site_symmetry_multiplicity
 _atom_site_fract_x
 _atom_site_fract_y
 _atom_site_fract_z
 _atom_site_occupancy
  Tb  Tb0  1  0.544405  0.995271  0.752765  1
  Tb  Tb1  1  0.458234  0.002534  0.250994  1
  Ho  Ho2  1  0.255624  0.529520  0.882308  1
  Bi  Bi3  1  0.743032  0.483740  0.116936  1
  Bi  Bi4  1  0.727061  0.463045  0.614165  1
  Bi  Bi5  1  0.261049  0.530327  0.388214  1
  Sb  Sb6  1  0.002782  0.007009  0.502244  1
  Sb  Sb7  1  0.004828  0.001166  0.999349  1
  O  O8  1  0.442448  0.648545  0.163476  1
  O  O9  1  0.542768  0.347193  0.826160  1
  O  O10  1  0.293423  0.930687  0.953411  1
  O  O11  1  0.710353  0.042237  0.046382  1
  O  O12  1  0.289330  0.929550  0.514444  1
  O  O13  1  0.712429  0.076900  0.488893  1
  O  O14  1  0.532319  0.355696  0.347169  1
  O  O15  1  0.451857  0.642560  0.660605  1
  O  O16  1  0.938869  0.681668  0.954661  1
  O  O17  1  0.086078  0.310688  0.033724  1
  O  O18  1  0.093505  0.315417  0.621518  1
  O  O19  1  0.905338  0.699398  0.381567  1
  O  O20  1  0.902456  0.945374  0.736014  1
  O  O21  1  0.101813  0.061475  0.265003  1
