# generated using pymatgen
data_Er4AlRu6W
_symmetry_space_group_name_H-M   'P 1'
_cell_length_a   5.45454412
_cell_length_b   5.27529760
_cell_length_c   8.92035800
_cell_angle_alpha   90.00000000
_cell_angle_beta   90.00000000
_cell_angle_gamma   122.32904778
_symmetry_Int_Tables_number   1
_chemical_formula_structural   Er4AlRu6W
_chemical_formula_sum   'Er4 Al1 Ru6 W1'
_cell_volume   216.89008460
_cell_formula_units_Z   1
loop_
 _symmetry_equiv_pos_site_id
 _symmetry_equiv_pos_as_xyz
  1  'x, y, z'
loop_
 _atom_site_type_symbol
 _atom_site_label
 _atom_site_symmetry_multiplicity
 _atom_site_fract_x
 _atom_site_fract_y
 _atom_site_fract_z
 _atom_site_occupancy
  Er  Er0  1  0.337062  0.665364  0.436504  1
  Er  Er1  1  0.671569  0.345528  0.564296  1
  Er  Er2  1  0.671569  0.345528  0.935704  1
  Er  Er3  1  0.337062  0.665364  0.063496  1
  Al  Al4  1  0.333000  0.163944  0.250000  1
  Ru  Ru5  1  0.171635  0.822185  0.750000  1
  Ru  Ru6  1  0.831509  0.650479  0.250000  1
  Ru  Ru7  1  0.652584  0.823373  0.750000  1
  Ru  Ru8  1  0.000401  0.012116  0.001905  1
  Ru  Ru9  1  0.828082  0.169292  0.250000  1
  Ru  Ru10  1  0.000401  0.012116  0.498095  1
  W  W11  1  0.165126  0.324711  0.750000  1
