# generated using pymatgen
data_Dy20Ir9Ru2Rh
_symmetry_space_group_name_H-M   'P 1'
_cell_length_a   10.83849400
_cell_length_b   10.83849400
_cell_length_c   6.41253900
_cell_angle_alpha   90.00000000
_cell_angle_beta   90.00000000
_cell_angle_gamma   90.00000000
_symmetry_Int_Tables_number   1
_chemical_formula_structural   Dy20Ir9Ru2Rh
_chemical_formula_sum   'Dy20 Ir9 Ru2 Rh1'
_cell_volume   753.29988735
_cell_formula_units_Z   1
loop_
 _symmetry_equiv_pos_site_id
 _symmetry_equiv_pos_as_xyz
  1  'x, y, z'
loop_
 _atom_site_type_symbol
 _atom_site_label
 _atom_site_symmetry_multiplicity
 _atom_site_fract_x
 _atom_site_fract_y
 _atom_site_fract_z
 _atom_site_occupancy
  Dy  Dy0  1  0.292388  0.087485  0.381210  1
  Dy  Dy1  1  0.292140  0.912697  0.877420  1
  Dy  Dy2  1  0.707860  0.087303  0.877420  1
  Dy  Dy3  1  0.707612  0.912515  0.381210  1
  Dy  Dy4  1  0.587303  0.792140  0.877420  1
  Dy  Dy5  1  0.587485  0.207612  0.381210  1
  Dy  Dy6  1  0.412515  0.792388  0.381210  1
  Dy  Dy7  1  0.412697  0.207860  0.877420  1
  Dy  Dy8  1  0.207700  0.412630  0.622595  1
  Dy  Dy9  1  0.207442  0.587576  0.119722  1
  Dy  Dy10  1  0.792558  0.412424  0.119722  1
  Dy  Dy11  1  0.792300  0.587370  0.622595  1
  Dy  Dy12  1  0.912424  0.707442  0.119722  1
  Dy  Dy13  1  0.912630  0.292300  0.622595  1
  Dy  Dy14  1  0.087370  0.707700  0.622595  1
  Dy  Dy15  1  0.087576  0.292558  0.119722  1
  Dy  Dy16  1  0.000000  0.000000  0.499571  1
  Dy  Dy17  1  0.000000  0.000000  0.999674  1
  Dy  Dy18  1  0.500000  0.500000  0.999674  1
  Dy  Dy19  1  0.500000  0.500000  0.499571  1
  Ir  Ir20  1  0.847001  0.152509  0.249521  1
  Ir  Ir21  1  0.846773  0.847312  0.749643  1
  Ir  Ir22  1  0.153227  0.152688  0.749643  1
  Ir  Ir23  1  0.152999  0.847491  0.249521  1
  Ir  Ir24  1  0.652688  0.346773  0.749643  1
  Ir  Ir25  1  0.652509  0.652999  0.249521  1
  Ir  Ir26  1  0.347491  0.347001  0.249521  1
  Ir  Ir27  1  0.347312  0.653227  0.749643  1
  Ir  Ir28  1  0.000000  0.500000  0.377006  1
  Ru  Ru29  1  0.500000  0.000000  0.624071  1
  Ru  Ru30  1  0.000000  0.500000  0.876518  1
  Rh  Rh31  1  0.500000  0.000000  0.123470  1
