# generated using pymatgen
data_Lu2PdRhF14
_symmetry_space_group_name_H-M   'P 1'
_cell_length_a   5.43941820
_cell_length_b   8.66966957
_cell_length_c   11.75462049
_cell_angle_alpha   62.88484927
_cell_angle_beta   89.92784460
_cell_angle_gamma   90.06378811
_symmetry_Int_Tables_number   1
_chemical_formula_structural   Lu2PdRhF14
_chemical_formula_sum   'Lu4 Pd2 Rh2 F28'
_cell_volume   493.39816937
_cell_formula_units_Z   2
loop_
 _symmetry_equiv_pos_site_id
 _symmetry_equiv_pos_as_xyz
  1  'x, y, z'
loop_
 _atom_site_type_symbol
 _atom_site_label
 _atom_site_symmetry_multiplicity
 _atom_site_fract_x
 _atom_site_fract_y
 _atom_site_fract_z
 _atom_site_occupancy
  Lu  Lu0  1  0.261882  0.815352  0.264271  1
  Lu  Lu1  1  0.738118  0.184648  0.735729  1
  Lu  Lu2  1  0.762026  0.186884  0.234774  1
  Lu  Lu3  1  0.237974  0.813116  0.765226  1
  Pd  Pd4  1  0.759584  0.728317  0.042894  1
  Pd  Pd5  1  0.240416  0.271683  0.957106  1
  Rh  Rh6  1  0.259519  0.272703  0.456402  1
  Rh  Rh7  1  0.740481  0.727297  0.543598  1
  F  F8  1  0.938536  0.701779  0.415086  1
  F  F9  1  0.061464  0.298221  0.584914  1
  F  F10  1  0.436210  0.300200  0.084254  1
  F  F11  1  0.563790  0.699800  0.915746  1
  F  F12  1  0.462936  0.723637  0.137301  1
  F  F13  1  0.537064  0.276363  0.862699  1
  F  F14  1  0.964747  0.274979  0.361221  1
  F  F15  1  0.035253  0.725021  0.638779  1
  F  F16  1  0.949569  0.746993  0.177322  1
  F  F17  1  0.050431  0.253007  0.822678  1
  F  F18  1  0.452129  0.250846  0.323332  1
  F  F19  1  0.547871  0.749154  0.676668  1
  F  F20  1  0.778498  0.476595  0.142392  1
  F  F21  1  0.221502  0.523405  0.857608  1
  F  F22  1  0.279220  0.522163  0.357823  1
  F  F23  1  0.720780  0.477837  0.642177  1
  F  F24  1  0.934650  0.277177  0.042551  1
  F  F25  1  0.065350  0.722823  0.957449  1
  F  F26  1  0.435384  0.724873  0.454976  1
  F  F27  1  0.564616  0.275127  0.545024  1
  F  F28  1  0.746979  0.976233  0.449974  1
  F  F29  1  0.253021  0.023767  0.550026  1
  F  F30  1  0.247032  0.020901  0.049747  1
  F  F31  1  0.752968  0.979099  0.950253  1
  F  F32  1  0.582909  0.971810  0.232088  1
  F  F33  1  0.417091  0.028190  0.767912  1
  F  F34  1  0.082261  0.029061  0.267147  1
  F  F35  1  0.917739  0.970939  0.732853  1
