# generated using pymatgen
data_Ho11Th5(AgRu)4
_symmetry_space_group_name_H-M   'P 1'
_cell_length_a   9.51707811
_cell_length_b   9.62907498
_cell_length_c   9.62907550
_cell_angle_alpha   60.30064182
_cell_angle_beta   60.38402140
_cell_angle_gamma   60.38402123
_symmetry_Int_Tables_number   1
_chemical_formula_structural   Ho11Th5(AgRu)4
_chemical_formula_sum   'Ho11 Th5 Ag4 Ru4'
_cell_volume   628.98865908
_cell_formula_units_Z   1
loop_
 _symmetry_equiv_pos_site_id
 _symmetry_equiv_pos_as_xyz
  1  'x, y, z'
loop_
 _atom_site_type_symbol
 _atom_site_label
 _atom_site_symmetry_multiplicity
 _atom_site_fract_x
 _atom_site_fract_y
 _atom_site_fract_z
 _atom_site_occupancy
  Ho  Ho0  1  0.187110  0.812890  0.812890  1
  Ho  Ho1  1  0.192668  0.809115  0.185598  1
  Ho  Ho2  1  0.812619  0.185598  0.809115  1
  Ho  Ho3  1  0.192668  0.185598  0.809115  1
  Ho  Ho4  1  0.812619  0.809115  0.185598  1
  Ho  Ho5  1  0.933931  0.566069  0.566069  1
  Ho  Ho6  1  0.564749  0.935251  0.935251  1
  Ho  Ho7  1  0.563619  0.934085  0.565689  1
  Ho  Ho8  1  0.936607  0.565689  0.934085  1
  Ho  Ho9  1  0.563619  0.565689  0.934085  1
  Ho  Ho10  1  0.936607  0.934085  0.565689  1
  Th  Th11  1  0.347144  0.352901  0.352901  1
  Th  Th12  1  0.350302  0.353090  0.946306  1
  Th  Th13  1  0.350302  0.946306  0.353090  1
  Th  Th14  1  0.947054  0.352901  0.352901  1
  Th  Th15  1  0.816465  0.183535  0.183535  1
  Ag  Ag16  1  0.582293  0.583601  0.583601  1
  Ag  Ag17  1  0.582166  0.585735  0.249934  1
  Ag  Ag18  1  0.582166  0.249934  0.585735  1
  Ag  Ag19  1  0.250507  0.583601  0.583601  1
  Ru  Ru20  1  0.128315  0.147675  0.147675  1
  Ru  Ru21  1  0.145069  0.143264  0.566597  1
  Ru  Ru22  1  0.145069  0.566597  0.143264  1
  Ru  Ru23  1  0.576333  0.147675  0.147675  1
