# generated using pymatgen
data_Zr6Ti5NbSn10
_symmetry_space_group_name_H-M   'P 1'
_cell_length_a   9.60153800
_cell_length_b   9.61197829
_cell_length_c   5.82797023
_cell_angle_alpha   90.23392740
_cell_angle_beta   90.00000000
_cell_angle_gamma   119.96407612
_symmetry_Int_Tables_number   1
_chemical_formula_structural   Zr6Ti5NbSn10
_chemical_formula_sum   'Zr6 Ti5 Nb1 Sn10'
_cell_volume   465.96555853
_cell_formula_units_Z   1
loop_
 _symmetry_equiv_pos_site_id
 _symmetry_equiv_pos_as_xyz
  1  'x, y, z'
loop_
 _atom_site_type_symbol
 _atom_site_label
 _atom_site_symmetry_multiplicity
 _atom_site_fract_x
 _atom_site_fract_y
 _atom_site_fract_z
 _atom_site_occupancy
  Zr  Zr0  1  0.845427  0.690855  0.749756  1
  Zr  Zr1  1  0.155322  0.846762  0.251730  1
  Zr  Zr2  1  0.691440  0.846762  0.251730  1
  Zr  Zr3  1  0.308560  0.153238  0.748270  1
  Zr  Zr4  1  0.844678  0.153238  0.748270  1
  Zr  Zr5  1  0.154573  0.309145  0.250244  1
  Ti  Ti6  1  0.500000  0.500000  0.000000  1
  Ti  Ti7  1  0.000000  0.500000  0.000000  1
  Ti  Ti8  1  0.000000  0.500000  0.500000  1
  Ti  Ti9  1  0.500000  0.000000  0.000000  1
  Ti  Ti10  1  0.500000  0.500000  0.500000  1
  Nb  Nb11  1  0.500000  0.000000  0.500000  1
  Sn  Sn12  1  0.211624  0.423248  0.750219  1
  Sn  Sn13  1  0.790825  0.213001  0.247015  1
  Sn  Sn14  1  0.422176  0.213001  0.247015  1
  Sn  Sn15  1  0.577824  0.786999  0.752985  1
  Sn  Sn16  1  0.209175  0.786999  0.752985  1
  Sn  Sn17  1  0.788376  0.576752  0.249781  1
  Sn  Sn18  1  0.666903  0.333805  0.749763  1
  Sn  Sn19  1  0.333097  0.666195  0.250237  1
  Sn  Sn20  1  0.000000  0.000000  0.500000  1
  Sn  Sn21  1  0.000000  0.000000  0.000000  1
