# generated using pymatgen
data_Li4La4NiPt3
_symmetry_space_group_name_H-M   'P 1'
_cell_length_a   4.12356500
_cell_length_b   7.26071037
_cell_length_c   8.72876719
_cell_angle_alpha   89.60635609
_cell_angle_beta   90.00000000
_cell_angle_gamma   90.00000000
_symmetry_Int_Tables_number   1
_chemical_formula_structural   Li4La4NiPt3
_chemical_formula_sum   'Li4 La4 Ni1 Pt3'
_cell_volume   261.33321934
_cell_formula_units_Z   1
loop_
 _symmetry_equiv_pos_site_id
 _symmetry_equiv_pos_as_xyz
  1  'x, y, z'
loop_
 _atom_site_type_symbol
 _atom_site_label
 _atom_site_symmetry_multiplicity
 _atom_site_fract_x
 _atom_site_fract_y
 _atom_site_fract_z
 _atom_site_occupancy
  Li  Li0  1  0.250000  0.878591  0.949119  1
  Li  Li1  1  0.750000  0.121388  0.052944  1
  Li  Li2  1  0.750000  0.622317  0.446506  1
  Li  Li3  1  0.250000  0.375811  0.552802  1
  La  La4  1  0.250000  0.449554  0.182716  1
  La  La5  1  0.750000  0.552623  0.810405  1
  La  La6  1  0.750000  0.043801  0.686370  1
  La  La7  1  0.250000  0.947811  0.319235  1
  Ni  Ni8  1  0.250000  0.759803  0.627311  1
  Pt  Pt9  1  0.750000  0.246042  0.377016  1
  Pt  Pt10  1  0.750000  0.745947  0.123557  1
  Pt  Pt11  1  0.250000  0.256308  0.872022  1
