# generated using pymatgen
data_Rb3P2Pd7
_symmetry_space_group_name_H-M   'P 1'
_cell_length_a   8.53388502
_cell_length_b   8.53388337
_cell_length_c   8.53388333
_cell_angle_alpha   43.76925218
_cell_angle_beta   43.76926223
_cell_angle_gamma   43.76926974
_symmetry_Int_Tables_number   1
_chemical_formula_structural   Rb3P2Pd7
_chemical_formula_sum   'Rb3 P2 Pd7'
_cell_volume   269.99364461
_cell_formula_units_Z   1
loop_
 _symmetry_equiv_pos_site_id
 _symmetry_equiv_pos_as_xyz
  1  'x, y, z'
loop_
 _atom_site_type_symbol
 _atom_site_label
 _atom_site_symmetry_multiplicity
 _atom_site_fract_x
 _atom_site_fract_y
 _atom_site_fract_z
 _atom_site_occupancy
  Rb  Rb0  1  0.353109  0.353109  0.353109  1
  Rb  Rb1  1  0.500000  0.500000  0.500000  1
  Rb  Rb2  1  0.646891  0.646891  0.646891  1
  P  P3  1  0.180659  0.180659  0.180659  1
  P  P4  1  0.819341  0.819341  0.819341  1
  Pd  Pd5  1  0.000000  0.000000  0.000000  1
  Pd  Pd6  1  0.597934  0.043583  0.043582  1
  Pd  Pd7  1  0.043583  0.597934  0.043582  1
  Pd  Pd8  1  0.956417  0.956417  0.402067  1
  Pd  Pd9  1  0.043583  0.043583  0.597933  1
  Pd  Pd10  1  0.956417  0.402066  0.956418  1
  Pd  Pd11  1  0.402066  0.956417  0.956418  1
