# generated using pymatgen
data_Pr3Ho2P12Ru17Pt2
_symmetry_space_group_name_H-M   'P 1'
_cell_length_a   12.71819400
_cell_length_b   12.60447530
_cell_length_c   4.01926700
_cell_angle_alpha   90.00000000
_cell_angle_beta   90.00000000
_cell_angle_gamma   120.29889980
_symmetry_Int_Tables_number   1
_chemical_formula_structural   Pr3Ho2P12Ru17Pt2
_chemical_formula_sum   'Pr3 Ho2 P12 Ru17 Pt2'
_cell_volume   556.30345014
_cell_formula_units_Z   1
loop_
 _symmetry_equiv_pos_site_id
 _symmetry_equiv_pos_as_xyz
  1  'x, y, z'
loop_
 _atom_site_type_symbol
 _atom_site_label
 _atom_site_symmetry_multiplicity
 _atom_site_fract_x
 _atom_site_fract_y
 _atom_site_fract_z
 _atom_site_occupancy
  Pr  Pr0  1  0.002062  0.183968  0.500000  1
  Pr  Pr1  1  0.818094  0.816032  0.500000  1
  Pr  Pr2  1  0.184678  0.000000  0.500000  1
  Ho  Ho3  1  0.664194  0.326889  0.000000  1
  Ho  Ho4  1  0.337303  0.673111  0.000000  1
  P  P5  1  0.998386  0.808432  0.000000  1
  P  P6  1  0.189953  0.191568  0.000000  1
  P  P7  1  0.813833  0.000000  0.000000  1
  P  P8  1  0.693735  0.171632  0.500000  1
  P  P9  1  0.813884  0.514614  0.500000  1
  P  P10  1  0.478686  0.298114  0.500000  1
  P  P11  1  0.180572  0.701886  0.500000  1
  P  P12  1  0.522103  0.828368  0.500000  1
  P  P13  1  0.299270  0.485386  0.500000  1
  P  P14  1  0.000215  0.367345  0.000000  1
  P  P15  1  0.632870  0.632655  0.000000  1
  P  P16  1  0.375573  0.000000  0.000000  1
  Ru  Ru17  1  0.554848  0.000000  0.000000  1
  Ru  Ru18  1  0.997240  0.705093  0.500000  1
  Ru  Ru19  1  0.292147  0.294907  0.500000  1
  Ru  Ru20  1  0.714685  0.000000  0.500000  1
  Ru  Ru21  1  0.805511  0.185407  0.000000  1
  Ru  Ru22  1  0.811977  0.613453  0.000000  1
  Ru  Ru23  1  0.380852  0.196859  0.000000  1
  Ru  Ru24  1  0.183992  0.803141  0.000000  1
  Ru  Ru25  1  0.620105  0.814593  0.000000  1
  Ru  Ru26  1  0.198524  0.386547  0.000000  1
  Ru  Ru27  1  0.869887  0.366440  0.500000  1
  Ru  Ru28  1  0.627243  0.504434  0.500000  1
  Ru  Ru29  1  0.493262  0.124098  0.500000  1
  Ru  Ru30  1  0.369163  0.875902  0.500000  1
  Ru  Ru31  1  0.503447  0.633560  0.500000  1
  Ru  Ru32  1  0.122811  0.495566  0.500000  1
  Ru  Ru33  1  0.002854  0.000000  0.000000  1
  Pt  Pt34  1  0.997601  0.549163  0.000000  1
  Pt  Pt35  1  0.448438  0.450837  0.000000  1
