# generated using pymatgen
data_DyTm3Al18(OsRh2)2
_symmetry_space_group_name_H-M   'P 1'
_cell_length_a   7.50180439
_cell_length_b   7.50298635
_cell_length_c   9.46066700
_cell_angle_alpha   90.00000000
_cell_angle_beta   90.00000000
_cell_angle_gamma   118.38973317
_symmetry_Int_Tables_number   1
_chemical_formula_structural   DyTm3Al18(OsRh2)2
_chemical_formula_sum   'Dy1 Tm3 Al18 Os2 Rh4'
_cell_volume   468.46043715
_cell_formula_units_Z   1
loop_
 _symmetry_equiv_pos_site_id
 _symmetry_equiv_pos_as_xyz
  1  'x, y, z'
loop_
 _atom_site_type_symbol
 _atom_site_label
 _atom_site_symmetry_multiplicity
 _atom_site_fract_x
 _atom_site_fract_y
 _atom_site_fract_z
 _atom_site_occupancy
  Dy  Dy0  1  0.994155  0.682221  0.250000  1
  Tm  Tm1  1  0.007020  0.316777  0.750000  1
  Tm  Tm2  1  0.683271  0.994297  0.250000  1
  Tm  Tm3  1  0.316898  0.007020  0.750000  1
  Al  Al4  1  0.135767  0.136075  0.250000  1
  Al  Al5  1  0.864667  0.864930  0.750000  1
  Al  Al6  1  0.002462  0.338361  0.075121  1
  Al  Al7  1  0.997134  0.660886  0.923349  1
  Al  Al8  1  0.997134  0.660886  0.576651  1
  Al  Al9  1  0.339401  0.003132  0.424526  1
  Al  Al10  1  0.002462  0.338361  0.424879  1
  Al  Al11  1  0.660961  0.997405  0.575910  1
  Al  Al12  1  0.660961  0.997405  0.924090  1
  Al  Al13  1  0.339401  0.003132  0.075474  1
  Al  Al14  1  0.331468  0.331362  0.546610  1
  Al  Al15  1  0.668246  0.668836  0.454522  1
  Al  Al16  1  0.668246  0.668836  0.045478  1
  Al  Al17  1  0.331468  0.331362  0.953390  1
  Al  Al18  1  0.342298  0.556230  0.250000  1
  Al  Al19  1  0.658190  0.443205  0.750000  1
  Al  Al20  1  0.555725  0.340838  0.250000  1
  Al  Al21  1  0.443599  0.658414  0.750000  1
  Os  Os22  1  0.000230  0.000772  0.999247  1
  Os  Os23  1  0.000230  0.000772  0.500753  1
  Rh  Rh24  1  0.671532  0.327529  0.999691  1
  Rh  Rh25  1  0.327771  0.671712  0.999731  1
  Rh  Rh26  1  0.327771  0.671712  0.500269  1
  Rh  Rh27  1  0.671532  0.327529  0.500309  1
