# generated using pymatgen
data_La2Nd3Cu5Ni14
_symmetry_space_group_name_H-M   'P 1'
_cell_length_a   5.08616935
_cell_length_b   5.08616811
_cell_length_c   16.56183101
_cell_angle_alpha   81.16722838
_cell_angle_beta   81.16723241
_cell_angle_gamma   60.00000983
_symmetry_Int_Tables_number   1
_chemical_formula_structural   La2Nd3Cu5Ni14
_chemical_formula_sum   'La2 Nd3 Cu5 Ni14'
_cell_volume   365.16104177
_cell_formula_units_Z   1
loop_
 _symmetry_equiv_pos_site_id
 _symmetry_equiv_pos_as_xyz
  1  'x, y, z'
loop_
 _atom_site_type_symbol
 _atom_site_label
 _atom_site_symmetry_multiplicity
 _atom_site_fract_x
 _atom_site_fract_y
 _atom_site_fract_z
 _atom_site_occupancy
  La  La0  1  0.999286  0.999286  0.002144  1
  La  La1  1  0.077791  0.077791  0.766627  1
  Nd  Nd2  1  0.921125  0.921125  0.236625  1
  Nd  Nd3  1  0.152019  0.152019  0.543940  1
  Nd  Nd4  1  0.848272  0.848272  0.455183  1
  Cu  Cu5  1  0.250865  0.250865  0.247406  1
  Cu  Cu6  1  0.749335  0.749335  0.751997  1
  Cu  Cu7  1  0.333332  0.333332  0.000002  1
  Cu  Cu8  1  0.666743  0.666743  0.999771  1
  Cu  Cu9  1  0.415898  0.415898  0.752304  1
  Ni  Ni10  1  0.500116  0.500116  0.499652  1
  Ni  Ni11  1  0.584336  0.584336  0.246993  1
  Ni  Ni12  1  0.124637  0.623435  0.628494  1
  Ni  Ni13  1  0.623435  0.623435  0.628494  1
  Ni  Ni14  1  0.623435  0.124637  0.628494  1
  Ni  Ni15  1  0.873978  0.378001  0.370021  1
  Ni  Ni16  1  0.378001  0.378001  0.370021  1
  Ni  Ni17  1  0.378001  0.873978  0.370021  1
  Ni  Ni18  1  0.041409  0.540915  0.876759  1
  Ni  Ni19  1  0.540915  0.540915  0.876759  1
  Ni  Ni20  1  0.540915  0.041409  0.876759  1
  Ni  Ni21  1  0.957028  0.459564  0.123845  1
  Ni  Ni22  1  0.459564  0.459564  0.123845  1
  Ni  Ni23  1  0.459564  0.957028  0.123845  1
