# generated using pymatgen
data_Dy9Tm(IrRu)2
_symmetry_space_group_name_H-M   'P 1'
_cell_length_a   6.40648964
_cell_length_b   7.24295458
_cell_length_c   8.50332720
_cell_angle_alpha   96.73114875
_cell_angle_beta   112.12973590
_cell_angle_gamma   90.00000398
_symmetry_Int_Tables_number   1
_chemical_formula_structural   Dy9Tm(IrRu)2
_chemical_formula_sum   'Dy9 Tm1 Ir2 Ru2'
_cell_volume   362.56619244
_cell_formula_units_Z   1
loop_
 _symmetry_equiv_pos_site_id
 _symmetry_equiv_pos_as_xyz
  1  'x, y, z'
loop_
 _atom_site_type_symbol
 _atom_site_label
 _atom_site_symmetry_multiplicity
 _atom_site_fract_x
 _atom_site_fract_y
 _atom_site_fract_z
 _atom_site_occupancy
  Dy  Dy0  1  0.791757  0.081937  0.814894  1
  Dy  Dy1  1  0.976863  0.418063  0.185106  1
  Dy  Dy2  1  0.209007  0.914851  0.183573  1
  Dy  Dy3  1  0.025435  0.585149  0.816427  1
  Dy  Dy4  1  0.210067  0.182737  0.564432  1
  Dy  Dy5  1  0.645636  0.317263  0.435568  1
  Dy  Dy6  1  0.789051  0.814388  0.436334  1
  Dy  Dy7  1  0.352717  0.685612  0.563666  1
  Dy  Dy8  1  0.425000  0.250000  0.000000  1
  Tm  Tm9  1  0.573831  0.750000  0.000000  1
  Ir  Ir10  1  0.603808  0.425501  0.779921  1
  Ir  Ir11  1  0.823884  0.074499  0.220079  1
  Ru  Ru12  1  0.395935  0.575064  0.218928  1
  Ru  Ru13  1  0.177007  0.924936  0.781072  1
