# generated using pymatgen
data_Er8Sc12Si11Ge5
_symmetry_space_group_name_H-M   'P 1'
_cell_length_a   7.11626679
_cell_length_b   7.37114355
_cell_length_c   13.99477416
_cell_angle_alpha   89.97728810
_cell_angle_beta   89.22432150
_cell_angle_gamma   90.03784840
_symmetry_Int_Tables_number   1
_chemical_formula_structural   Er8Sc12Si11Ge5
_chemical_formula_sum   'Er8 Sc12 Si11 Ge5'
_cell_volume   734.02872237
_cell_formula_units_Z   1
loop_
 _symmetry_equiv_pos_site_id
 _symmetry_equiv_pos_as_xyz
  1  'x, y, z'
loop_
 _atom_site_type_symbol
 _atom_site_label
 _atom_site_symmetry_multiplicity
 _atom_site_fract_x
 _atom_site_fract_y
 _atom_site_fract_z
 _atom_site_occupancy
  Er  Er0  1  0.009832  0.175040  0.096660  1
  Er  Er1  1  0.991873  0.824678  0.903129  1
  Er  Er2  1  0.490473  0.676491  0.902962  1
  Er  Er3  1  0.996603  0.821710  0.598632  1
  Er  Er4  1  0.506473  0.323180  0.096887  1
  Er  Er5  1  0.003151  0.178307  0.401098  1
  Er  Er6  1  0.502664  0.321944  0.401205  1
  Er  Er7  1  0.496800  0.678092  0.598743  1
  Sc  Sc8  1  0.169382  0.501647  0.750794  1
  Sc  Sc9  1  0.830914  0.498691  0.250578  1
  Sc  Sc10  1  0.331176  0.001825  0.249341  1
  Sc  Sc11  1  0.668899  0.998057  0.750763  1
  Sc  Sc12  1  0.341942  0.171747  0.626505  1
  Sc  Sc13  1  0.657964  0.828890  0.373380  1
  Sc  Sc14  1  0.157698  0.671110  0.373552  1
  Sc  Sc15  1  0.663145  0.825848  0.125766  1
  Sc  Sc16  1  0.841998  0.328405  0.626420  1
  Sc  Sc17  1  0.335743  0.176259  0.874928  1
  Sc  Sc18  1  0.836754  0.322235  0.875194  1
  Sc  Sc19  1  0.165873  0.676552  0.124351  1
  Si  Si20  1  0.040932  0.115338  0.750960  1
  Si  Si21  1  0.959361  0.883944  0.248607  1
  Si  Si22  1  0.459001  0.615747  0.248931  1
  Si  Si23  1  0.541751  0.383924  0.751163  1
  Si  Si24  1  0.292058  0.871032  0.750987  1
  Si  Si25  1  0.707932  0.129702  0.248822  1
  Si  Si26  1  0.207253  0.371118  0.248646  1
  Si  Si27  1  0.792538  0.628644  0.751429  1
  Si  Si28  1  0.165353  0.463749  0.959927  1
  Si  Si29  1  0.660092  0.034865  0.960741  1
  Si  Si30  1  0.340043  0.964807  0.039123  1
  Ge  Ge31  1  0.179161  0.459873  0.540748  1
  Ge  Ge32  1  0.820743  0.540011  0.459383  1
  Ge  Ge33  1  0.321279  0.959914  0.459254  1
  Ge  Ge34  1  0.834301  0.536749  0.039810  1
  Ge  Ge35  1  0.678847  0.039875  0.540580  1
