# generated using pymatgen
data_Cs8Ho2S7
_symmetry_space_group_name_H-M   'P 1'
_cell_length_a   8.98573107
_cell_length_b   22.57152000
_cell_length_c   8.75660034
_cell_angle_alpha   89.99982967
_cell_angle_beta   120.96879530
_cell_angle_gamma   89.99966666
_symmetry_Int_Tables_number   1
_chemical_formula_structural   Cs8Ho2S7
_chemical_formula_sum   'Cs16 Ho4 S14'
_cell_volume   1522.85088205
_cell_formula_units_Z   2
loop_
 _symmetry_equiv_pos_site_id
 _symmetry_equiv_pos_as_xyz
  1  'x, y, z'
loop_
 _atom_site_type_symbol
 _atom_site_label
 _atom_site_symmetry_multiplicity
 _atom_site_fract_x
 _atom_site_fract_y
 _atom_site_fract_z
 _atom_site_occupancy
  Cs  Cs0  1  0.637023  0.419459  0.143052  1
  Cs  Cs1  1  0.769313  0.787627  0.215345  1
  Cs  Cs2  1  0.771885  0.995051  0.227552  1
  Cs  Cs3  1  0.784148  0.188123  0.229472  1
  Cs  Cs4  1  0.215867  0.688129  0.270533  1
  Cs  Cs5  1  0.228117  0.495049  0.272451  1
  Cs  Cs6  1  0.230663  0.287629  0.284649  1
  Cs  Cs7  1  0.362975  0.919458  0.356951  1
  Cs  Cs8  1  0.637022  0.080542  0.643054  1
  Cs  Cs9  1  0.769315  0.712374  0.715345  1
  Cs  Cs10  1  0.771884  0.504949  0.727553  1
  Cs  Cs11  1  0.784142  0.311877  0.729475  1
  Cs  Cs12  1  0.215868  0.811872  0.770533  1
  Cs  Cs13  1  0.228120  0.004951  0.772456  1
  Cs  Cs14  1  0.230658  0.212369  0.784646  1
  Cs  Cs15  1  0.362980  0.580543  0.856954  1
  Ho  Ho16  1  0.148773  0.100208  0.146820  1
  Ho  Ho17  1  0.851226  0.600218  0.353177  1
  Ho  Ho18  1  0.148771  0.399789  0.646817  1
  Ho  Ho19  1  0.851224  0.899781  0.853165  1
  S  S20  1  0.999994  0.999995  0.000001  1
  S  S21  1  0.053584  0.817292  0.060302  1
  S  S22  1  0.827361  0.607406  0.046917  1
  S  S23  1  0.445562  0.100121  0.167132  1
  S  S24  1  0.554450  0.600125  0.332864  1
  S  S25  1  0.172639  0.107403  0.453078  1
  S  S26  1  0.946424  0.317297  0.439703  1
  S  S27  1  0.999995  0.500004  0.500002  1
  S  S28  1  0.053583  0.682709  0.560305  1
  S  S29  1  0.827361  0.892593  0.546910  1
  S  S30  1  0.445558  0.399880  0.667134  1
  S  S31  1  0.554449  0.899877  0.832868  1
  S  S32  1  0.172637  0.392598  0.953075  1
  S  S33  1  0.946429  0.182701  0.939710  1
