# generated using pymatgen
data_La2Sm4TaNbO14
_symmetry_space_group_name_H-M   'P 1'
_cell_length_a   6.62615233
_cell_length_b   6.62615129
_cell_length_c   7.74597026
_cell_angle_alpha   89.94658117
_cell_angle_beta   90.05341503
_cell_angle_gamma   109.13584970
_symmetry_Int_Tables_number   1
_chemical_formula_structural   La2Sm4TaNbO14
_chemical_formula_sum   'La2 Sm4 Ta1 Nb1 O14'
_cell_volume   321.30126956
_cell_formula_units_Z   1
loop_
 _symmetry_equiv_pos_site_id
 _symmetry_equiv_pos_as_xyz
  1  'x, y, z'
loop_
 _atom_site_type_symbol
 _atom_site_label
 _atom_site_symmetry_multiplicity
 _atom_site_fract_x
 _atom_site_fract_y
 _atom_site_fract_z
 _atom_site_occupancy
  La  La0  1  0.500000  0.500000  0.500000  1
  La  La1  1  0.500000  0.500000  0.000000  1
  Sm  Sm2  1  0.535568  0.999958  0.750835  1
  Sm  Sm3  1  0.999958  0.535568  0.249165  1
  Sm  Sm4  1  0.464432  0.000042  0.249165  1
  Sm  Sm5  1  0.000042  0.464432  0.750835  1
  Ta  Ta6  1  0.000000  0.000000  0.000000  1
  Nb  Nb7  1  0.000000  0.000000  0.500000  1
  O  O8  1  0.683739  0.933188  0.469626  1
  O  O9  1  0.933188  0.683739  0.530374  1
  O  O10  1  0.685444  0.934011  0.031408  1
  O  O11  1  0.934011  0.685444  0.968592  1
  O  O12  1  0.316261  0.066812  0.530374  1
  O  O13  1  0.066812  0.316261  0.469626  1
  O  O14  1  0.314556  0.065989  0.968592  1
  O  O15  1  0.065989  0.314556  0.031408  1
  O  O16  1  0.938759  0.061241  0.751881  1
  O  O17  1  0.061241  0.938759  0.248119  1
  O  O18  1  0.366918  0.633081  0.750140  1
  O  O19  1  0.633081  0.366918  0.249860  1
  O  O20  1  0.639277  0.360723  0.750125  1
  O  O21  1  0.360723  0.639277  0.249875  1
