# generated using pymatgen
data_LaPr3(Ga3Si)2
_symmetry_space_group_name_H-M   'P 1'
_cell_length_a   4.23566300
_cell_length_b   4.36465000
_cell_length_c   14.67406700
_cell_angle_alpha   90.00000000
_cell_angle_beta   90.00000000
_cell_angle_gamma   90.00000000
_symmetry_Int_Tables_number   1
_chemical_formula_structural   LaPr3(Ga3Si)2
_chemical_formula_sum   'La1 Pr3 Ga6 Si2'
_cell_volume   271.28221353
_cell_formula_units_Z   1
loop_
 _symmetry_equiv_pos_site_id
 _symmetry_equiv_pos_as_xyz
  1  'x, y, z'
loop_
 _atom_site_type_symbol
 _atom_site_label
 _atom_site_symmetry_multiplicity
 _atom_site_fract_x
 _atom_site_fract_y
 _atom_site_fract_z
 _atom_site_occupancy
  La  La0  1  0.250000  0.000000  0.377573  1
  Pr  Pr1  1  0.750000  0.500000  0.877376  1
  Pr  Pr2  1  0.250000  0.500000  0.121362  1
  Pr  Pr3  1  0.750000  0.000000  0.623398  1
  Ga  Ga4  1  0.750000  0.500000  0.291061  1
  Ga  Ga5  1  0.250000  0.000000  0.791966  1
  Ga  Ga6  1  0.750000  0.000000  0.208819  1
  Ga  Ga7  1  0.250000  0.500000  0.710136  1
  Ga  Ga8  1  0.750000  0.000000  0.041580  1
  Ga  Ga9  1  0.250000  0.500000  0.542983  1
  Si  Si10  1  0.750000  0.500000  0.457215  1
  Si  Si11  1  0.250000  0.000000  0.956531  1
