# generated using pymatgen
data_Er3P6Rh8W
_symmetry_space_group_name_H-M   'P 1'
_cell_length_a   3.93158400
_cell_length_b   11.10084700
_cell_length_c   12.77468200
_cell_angle_alpha   90.00000000
_cell_angle_beta   90.00000000
_cell_angle_gamma   90.00000000
_symmetry_Int_Tables_number   1
_chemical_formula_structural   Er3P6Rh8W
_chemical_formula_sum   'Er6 P12 Rh16 W2'
_cell_volume   557.53710281
_cell_formula_units_Z   2
loop_
 _symmetry_equiv_pos_site_id
 _symmetry_equiv_pos_as_xyz
  1  'x, y, z'
loop_
 _atom_site_type_symbol
 _atom_site_label
 _atom_site_symmetry_multiplicity
 _atom_site_fract_x
 _atom_site_fract_y
 _atom_site_fract_z
 _atom_site_occupancy
  Er  Er0  1  0.750000  0.250000  0.477258  1
  Er  Er1  1  0.250000  0.750000  0.522742  1
  Er  Er2  1  0.250000  0.932420  0.796545  1
  Er  Er3  1  0.250000  0.567580  0.796545  1
  Er  Er4  1  0.750000  0.067580  0.203455  1
  Er  Er5  1  0.750000  0.432420  0.203455  1
  P  P6  1  0.250000  0.250000  0.125235  1
  P  P7  1  0.750000  0.750000  0.874765  1
  P  P8  1  0.250000  0.250000  0.652089  1
  P  P9  1  0.750000  0.750000  0.347911  1
  P  P10  1  0.250000  0.434728  0.381877  1
  P  P11  1  0.250000  0.065272  0.381877  1
  P  P12  1  0.750000  0.565272  0.618123  1
  P  P13  1  0.750000  0.934728  0.618123  1
  P  P14  1  0.250000  0.903503  0.112501  1
  P  P15  1  0.250000  0.596497  0.112501  1
  P  P16  1  0.750000  0.096497  0.887499  1
  P  P17  1  0.750000  0.403503  0.887499  1
  Rh  Rh18  1  0.250000  0.250000  0.301320  1
  Rh  Rh19  1  0.750000  0.750000  0.698680  1
  Rh  Rh20  1  0.750000  0.250000  0.011496  1
  Rh  Rh21  1  0.250000  0.750000  0.988504  1
  Rh  Rh22  1  0.250000  0.417828  0.014410  1
  Rh  Rh23  1  0.250000  0.082172  0.014410  1
  Rh  Rh24  1  0.750000  0.582172  0.985590  1
  Rh  Rh25  1  0.750000  0.917828  0.985590  1
  Rh  Rh26  1  0.250000  0.454123  0.567837  1
  Rh  Rh27  1  0.250000  0.045877  0.567837  1
  Rh  Rh28  1  0.750000  0.545877  0.432163  1
  Rh  Rh29  1  0.750000  0.954123  0.432163  1
  Rh  Rh30  1  0.250000  0.875491  0.290860  1
  Rh  Rh31  1  0.250000  0.624509  0.290860  1
  Rh  Rh32  1  0.750000  0.124509  0.709140  1
  Rh  Rh33  1  0.750000  0.375491  0.709140  1
  W  W34  1  0.250000  0.250000  0.841452  1
  W  W35  1  0.750000  0.750000  0.158548  1
