# generated using pymatgen
data_Er16Cd2Hg2PdPt3
_symmetry_space_group_name_H-M   'P 1'
_cell_length_a   9.58174207
_cell_length_b   9.58174061
_cell_length_c   9.58399205
_cell_angle_alpha   60.00151927
_cell_angle_beta   60.00152395
_cell_angle_gamma   60.05261177
_symmetry_Int_Tables_number   1
_chemical_formula_structural   Er16Cd2Hg2PdPt3
_chemical_formula_sum   'Er16 Cd2 Hg2 Pd1 Pt3'
_cell_volume   622.44747882
_cell_formula_units_Z   1
loop_
 _symmetry_equiv_pos_site_id
 _symmetry_equiv_pos_as_xyz
  1  'x, y, z'
loop_
 _atom_site_type_symbol
 _atom_site_label
 _atom_site_symmetry_multiplicity
 _atom_site_fract_x
 _atom_site_fract_y
 _atom_site_fract_z
 _atom_site_occupancy
  Er  Er0  1  0.353489  0.353489  0.350239  1
  Er  Er1  1  0.354873  0.354873  0.941427  1
  Er  Er2  1  0.359698  0.931237  0.355802  1
  Er  Er3  1  0.931237  0.359698  0.355802  1
  Er  Er4  1  0.809826  0.188828  0.189977  1
  Er  Er5  1  0.188978  0.811142  0.810035  1
  Er  Er6  1  0.188828  0.809826  0.189977  1
  Er  Er7  1  0.811142  0.188978  0.810035  1
  Er  Er8  1  0.189819  0.189819  0.808620  1
  Er  Er9  1  0.810512  0.810512  0.189534  1
  Er  Er10  1  0.934771  0.564308  0.564828  1
  Er  Er11  1  0.565251  0.934381  0.935584  1
  Er  Er12  1  0.564308  0.934771  0.564828  1
  Er  Er13  1  0.934381  0.565251  0.935584  1
  Er  Er14  1  0.565261  0.565261  0.934743  1
  Er  Er15  1  0.935811  0.935811  0.564947  1
  Cd  Cd16  1  0.579844  0.253898  0.582983  1
  Cd  Cd17  1  0.253898  0.579844  0.582983  1
  Hg  Hg18  1  0.585158  0.585158  0.589012  1
  Hg  Hg19  1  0.585019  0.585019  0.241099  1
  Pd  Pd20  1  0.143736  0.143736  0.146973  1
  Pt  Pt21  1  0.143288  0.143288  0.566086  1
  Pt  Pt22  1  0.141516  0.569353  0.144452  1
  Pt  Pt23  1  0.569353  0.141516  0.144452  1
