# generated using pymatgen
data_ZrScFeCo3
_symmetry_space_group_name_H-M   'P 1'
_cell_length_a   4.82796862
_cell_length_b   4.82796859
_cell_length_c   4.82796959
_cell_angle_alpha   62.17149116
_cell_angle_beta   62.17149549
_cell_angle_gamma   62.17148807
_symmetry_Int_Tables_number   1
_chemical_formula_structural   ZrScFeCo3
_chemical_formula_sum   'Zr1 Sc1 Fe1 Co3'
_cell_volume   83.43554308
_cell_formula_units_Z   1
loop_
 _symmetry_equiv_pos_site_id
 _symmetry_equiv_pos_as_xyz
  1  'x, y, z'
loop_
 _atom_site_type_symbol
 _atom_site_label
 _atom_site_symmetry_multiplicity
 _atom_site_fract_x
 _atom_site_fract_y
 _atom_site_fract_z
 _atom_site_occupancy
  Zr  Zr0  1  0.998219  0.998219  0.998219  1
  Sc  Sc1  1  0.251752  0.251752  0.251752  1
  Fe  Fe2  1  0.625175  0.625175  0.625175  1
  Co  Co3  1  0.624297  0.126261  0.624297  1
  Co  Co4  1  0.126261  0.624297  0.624297  1
  Co  Co5  1  0.624297  0.624297  0.126261  1
