# generated using pymatgen
data_SrSmNi2(B4Os3)2
_symmetry_space_group_name_H-M   'P 1'
_cell_length_a   7.61393000
_cell_length_b   7.35652592
_cell_length_c   4.00324200
_cell_angle_alpha   90.00000000
_cell_angle_beta   90.00000000
_cell_angle_gamma   87.85094172
_symmetry_Int_Tables_number   1
_chemical_formula_structural   SrSmNi2(B4Os3)2
_chemical_formula_sum   'Sr1 Sm1 Ni2 B8 Os6'
_cell_volume   224.07217322
_cell_formula_units_Z   1
loop_
 _symmetry_equiv_pos_site_id
 _symmetry_equiv_pos_as_xyz
  1  'x, y, z'
loop_
 _atom_site_type_symbol
 _atom_site_label
 _atom_site_symmetry_multiplicity
 _atom_site_fract_x
 _atom_site_fract_y
 _atom_site_fract_z
 _atom_site_occupancy
  Sr  Sr0  1  0.000000  0.000000  0.025358  1
  Sm  Sm1  1  0.500000  0.500000  0.601834  1
  Ni  Ni2  1  0.134992  0.384799  0.880200  1
  Ni  Ni3  1  0.865008  0.615201  0.880200  1
  B  B4  1  0.671981  0.777432  0.105475  1
  B  B5  1  0.328019  0.222568  0.105475  1
  B  B6  1  0.284689  0.835230  0.601239  1
  B  B7  1  0.715311  0.164770  0.601239  1
  B  B8  1  0.841712  0.684674  0.384534  1
  B  B9  1  0.158288  0.315326  0.384534  1
  B  B10  1  0.206116  0.670751  0.880764  1
  B  B11  1  0.793884  0.329249  0.880764  1
  Os  Os12  1  0.876882  0.373373  0.375592  1
  Os  Os13  1  0.123118  0.626627  0.375592  1
  Os  Os14  1  0.349265  0.116174  0.604560  1
  Os  Os15  1  0.650735  0.883826  0.604560  1
  Os  Os16  1  0.603126  0.151924  0.104041  1
  Os  Os17  1  0.396874  0.848076  0.104041  1
