# generated using pymatgen
data_Tm4Ga4IrRuPt2
_symmetry_space_group_name_H-M   'P 1'
_cell_length_a   4.33598700
_cell_length_b   6.78040963
_cell_length_c   7.75660267
_cell_angle_alpha   90.17162970
_cell_angle_beta   90.00000000
_cell_angle_gamma   90.00000000
_symmetry_Int_Tables_number   1
_chemical_formula_structural   Tm4Ga4IrRuPt2
_chemical_formula_sum   'Tm4 Ga4 Ir1 Ru1 Pt2'
_cell_volume   228.04129598
_cell_formula_units_Z   1
loop_
 _symmetry_equiv_pos_site_id
 _symmetry_equiv_pos_as_xyz
  1  'x, y, z'
loop_
 _atom_site_type_symbol
 _atom_site_label
 _atom_site_symmetry_multiplicity
 _atom_site_fract_x
 _atom_site_fract_y
 _atom_site_fract_z
 _atom_site_occupancy
  Tm  Tm0  1  0.250000  0.974686  0.314898  1
  Tm  Tm1  1  0.250000  0.474243  0.186257  1
  Tm  Tm2  1  0.750000  0.018715  0.692958  1
  Tm  Tm3  1  0.750000  0.518988  0.806004  1
  Ga  Ga4  1  0.250000  0.344389  0.571716  1
  Ga  Ga5  1  0.250000  0.844035  0.927555  1
  Ga  Ga6  1  0.750000  0.662697  0.434341  1
  Ga  Ga7  1  0.750000  0.160467  0.067457  1
  Ir  Ir8  1  0.250000  0.233011  0.890150  1
  Ru  Ru9  1  0.250000  0.733573  0.609116  1
  Pt  Pt10  1  0.750000  0.767723  0.109646  1
  Pt  Pt11  1  0.750000  0.267475  0.389902  1
