# generated using pymatgen
data_LaDy2Ho4CoI12
_symmetry_space_group_name_H-M   'P 1'
_cell_length_a   9.75458257
_cell_length_b   9.75417822
_cell_length_c   9.75594336
_cell_angle_alpha   106.29772772
_cell_angle_beta   106.30893421
_cell_angle_gamma   106.29614775
_symmetry_Int_Tables_number   1
_chemical_formula_structural   LaDy2Ho4CoI12
_chemical_formula_sum   'La1 Dy2 Ho4 Co1 I12'
_cell_volume   787.33910823
_cell_formula_units_Z   1
loop_
 _symmetry_equiv_pos_site_id
 _symmetry_equiv_pos_as_xyz
  1  'x, y, z'
loop_
 _atom_site_type_symbol
 _atom_site_label
 _atom_site_symmetry_multiplicity
 _atom_site_fract_x
 _atom_site_fract_y
 _atom_site_fract_z
 _atom_site_occupancy
  La  La0  1  0.995038  0.995109  0.995039  1
  Dy  Dy1  1  0.516814  0.588560  0.783821  1
  Dy  Dy2  1  0.783875  0.516937  0.588366  1
  Ho  Ho3  1  0.587852  0.782610  0.516601  1
  Ho  Ho4  1  0.481546  0.410656  0.216652  1
  Ho  Ho5  1  0.216678  0.481692  0.410370  1
  Ho  Ho6  1  0.410340  0.216494  0.481467  1
  Co  Co7  1  0.499739  0.499801  0.499732  1
  I  I8  1  0.276439  0.823072  0.426561  1
  I  I9  1  0.426394  0.275894  0.822887  1
  I  I10  1  0.822961  0.426400  0.275857  1
  I  I11  1  0.722289  0.175332  0.571800  1
  I  I12  1  0.571937  0.722616  0.175965  1
  I  I13  1  0.175548  0.571877  0.722393  1
  I  I14  1  0.045322  0.123320  0.350863  1
  I  I15  1  0.350870  0.045316  0.123326  1
  I  I16  1  0.123321  0.350854  0.045294  1
  I  I17  1  0.952815  0.874371  0.641115  1
  I  I18  1  0.641245  0.953206  0.874034  1
  I  I19  1  0.874347  0.641252  0.953227  1
