# generated using pymatgen
data_Er3Lu(GeRh2)8
_symmetry_space_group_name_H-M   'P 1'
_cell_length_a   4.21488900
_cell_length_b   9.17046101
_cell_length_c   11.47634926
_cell_angle_alpha   90.05378297
_cell_angle_beta   90.00000000
_cell_angle_gamma   90.00000000
_symmetry_Int_Tables_number   1
_chemical_formula_structural   Er3Lu(GeRh2)8
_chemical_formula_sum   'Er3 Lu1 Ge8 Rh16'
_cell_volume   443.58911030
_cell_formula_units_Z   1
loop_
 _symmetry_equiv_pos_site_id
 _symmetry_equiv_pos_as_xyz
  1  'x, y, z'
loop_
 _atom_site_type_symbol
 _atom_site_label
 _atom_site_symmetry_multiplicity
 _atom_site_fract_x
 _atom_site_fract_y
 _atom_site_fract_z
 _atom_site_occupancy
  Er  Er0  1  0.250000  0.147527  0.825443  1
  Er  Er1  1  0.250000  0.352463  0.325424  1
  Er  Er2  1  0.750000  0.852437  0.174567  1
  Lu  Lu3  1  0.750000  0.647600  0.674696  1
  Ge  Ge4  1  0.250000  0.414641  0.638835  1
  Ge  Ge5  1  0.250000  0.085871  0.138797  1
  Ge  Ge6  1  0.750000  0.585801  0.361241  1
  Ge  Ge7  1  0.750000  0.914000  0.861093  1
  Ge  Ge8  1  0.250000  0.618172  0.059399  1
  Ge  Ge9  1  0.250000  0.881804  0.559450  1
  Ge  Ge10  1  0.750000  0.381887  0.940640  1
  Ge  Ge11  1  0.750000  0.118161  0.440603  1
  Rh  Rh12  1  0.250000  0.615914  0.499848  1
  Rh  Rh13  1  0.250000  0.884418  0.998851  1
  Rh  Rh14  1  0.750000  0.384702  0.501184  1
  Rh  Rh15  1  0.750000  0.115581  0.001042  1
  Rh  Rh16  1  0.250000  0.691692  0.268722  1
  Rh  Rh17  1  0.250000  0.807414  0.767920  1
  Rh  Rh18  1  0.750000  0.308532  0.731295  1
  Rh  Rh19  1  0.750000  0.191584  0.231470  1
  Rh  Rh20  1  0.250000  0.171092  0.560947  1
  Rh  Rh21  1  0.250000  0.328994  0.060733  1
  Rh  Rh22  1  0.750000  0.828846  0.439376  1
  Rh  Rh23  1  0.750000  0.670914  0.938736  1
  Rh  Rh24  1  0.250000  0.003686  0.344282  1
  Rh  Rh25  1  0.250000  0.496378  0.843945  1
  Rh  Rh26  1  0.750000  0.996028  0.655745  1
  Rh  Rh27  1  0.750000  0.503860  0.155719  1
