# generated using pymatgen
data_Ho3Sc2Tl3
_symmetry_space_group_name_H-M   'P 1'
_cell_length_a   8.88260900
_cell_length_b   8.88260958
_cell_length_c   6.27497200
_cell_angle_alpha   90.00000000
_cell_angle_beta   90.00000000
_cell_angle_gamma   119.99999413
_symmetry_Int_Tables_number   1
_chemical_formula_structural   Ho3Sc2Tl3
_chemical_formula_sum   'Ho6 Sc4 Tl6'
_cell_volume   428.76918806
_cell_formula_units_Z   2
loop_
 _symmetry_equiv_pos_site_id
 _symmetry_equiv_pos_as_xyz
  1  'x, y, z'
loop_
 _atom_site_type_symbol
 _atom_site_label
 _atom_site_symmetry_multiplicity
 _atom_site_fract_x
 _atom_site_fract_y
 _atom_site_fract_z
 _atom_site_occupancy
  Ho  Ho0  1  0.000000  0.762109  0.750000  1
  Ho  Ho1  1  0.000000  0.237891  0.250000  1
  Ho  Ho2  1  0.762109  0.762109  0.250000  1
  Ho  Ho3  1  0.762109  0.000000  0.750000  1
  Ho  Ho4  1  0.237891  0.237891  0.750000  1
  Ho  Ho5  1  0.237891  0.000000  0.250000  1
  Sc  Sc6  1  0.333333  0.666667  0.500000  1
  Sc  Sc7  1  0.666667  0.333333  0.000000  1
  Sc  Sc8  1  0.666667  0.333333  0.500000  1
  Sc  Sc9  1  0.333333  0.666667  0.000000  1
  Tl  Tl10  1  0.404892  0.000000  0.750000  1
  Tl  Tl11  1  0.404892  0.404892  0.250000  1
  Tl  Tl12  1  0.000000  0.595108  0.250000  1
  Tl  Tl13  1  0.000000  0.404892  0.750000  1
  Tl  Tl14  1  0.595108  0.595108  0.750000  1
  Tl  Tl15  1  0.595108  0.000000  0.250000  1
