# generated using pymatgen
data_Nd4YRh2
_symmetry_space_group_name_H-M   'P 1'
_cell_length_a   6.59509819
_cell_length_b   7.25649744
_cell_length_c   9.02015958
_cell_angle_alpha   96.47570712
_cell_angle_beta   111.44300829
_cell_angle_gamma   89.99999595
_symmetry_Int_Tables_number   1
_chemical_formula_structural   Nd4YRh2
_chemical_formula_sum   'Nd8 Y2 Rh4'
_cell_volume   398.83987813
_cell_formula_units_Z   2
loop_
 _symmetry_equiv_pos_site_id
 _symmetry_equiv_pos_as_xyz
  1  'x, y, z'
loop_
 _atom_site_type_symbol
 _atom_site_label
 _atom_site_symmetry_multiplicity
 _atom_site_fract_x
 _atom_site_fract_y
 _atom_site_fract_z
 _atom_site_occupancy
  Nd  Nd0  1  0.982722  0.920341  0.184221  1
  Nd  Nd1  1  0.798501  0.579659  0.815779  1
  Nd  Nd2  1  0.017278  0.079659  0.815779  1
  Nd  Nd3  1  0.201499  0.420341  0.184221  1
  Nd  Nd4  1  0.643726  0.811601  0.429566  1
  Nd  Nd5  1  0.214159  0.688399  0.570434  1
  Nd  Nd6  1  0.356274  0.188399  0.570434  1
  Nd  Nd7  1  0.785841  0.311601  0.429566  1
  Y  Y8  1  0.431781  0.750000  0.000000  1
  Y  Y9  1  0.568219  0.250000  0.000000  1
  Rh  Rh10  1  0.809932  0.572411  0.216879  1
  Rh  Rh11  1  0.593053  0.927589  0.783121  1
  Rh  Rh12  1  0.190068  0.427589  0.783121  1
  Rh  Rh13  1  0.406947  0.072411  0.216879  1
