# generated using pymatgen
data_Sm4ZnGa4Ru3
_symmetry_space_group_name_H-M   'P 1'
_cell_length_a   4.58109100
_cell_length_b   7.29654564
_cell_length_c   7.27733754
_cell_angle_alpha   90.88850597
_cell_angle_beta   90.00000000
_cell_angle_gamma   90.00000000
_symmetry_Int_Tables_number   1
_chemical_formula_structural   Sm4ZnGa4Ru3
_chemical_formula_sum   'Sm4 Zn1 Ga4 Ru3'
_cell_volume   243.22405260
_cell_formula_units_Z   1
loop_
 _symmetry_equiv_pos_site_id
 _symmetry_equiv_pos_as_xyz
  1  'x, y, z'
loop_
 _atom_site_type_symbol
 _atom_site_label
 _atom_site_symmetry_multiplicity
 _atom_site_fract_x
 _atom_site_fract_y
 _atom_site_fract_z
 _atom_site_occupancy
  Sm  Sm0  1  0.250000  0.019522  0.308455  1
  Sm  Sm1  1  0.250000  0.530282  0.196830  1
  Sm  Sm2  1  0.750000  0.971700  0.691035  1
  Sm  Sm3  1  0.750000  0.490739  0.799455  1
  Zn  Zn4  1  0.750000  0.170336  0.071517  1
  Ga  Ga5  1  0.250000  0.697164  0.599345  1
  Ga  Ga6  1  0.250000  0.189816  0.880417  1
  Ga  Ga7  1  0.750000  0.298665  0.411944  1
  Ga  Ga8  1  0.750000  0.803419  0.105052  1
  Ru  Ru9  1  0.250000  0.340878  0.563207  1
  Ru  Ru10  1  0.250000  0.834457  0.937932  1
  Ru  Ru11  1  0.750000  0.653020  0.434812  1
