# generated using pymatgen
data_Y5Lu5(SiHg)4
_symmetry_space_group_name_H-M   'P 1'
_cell_length_a   8.52897568
_cell_length_b   8.88051083
_cell_length_c   7.47309344
_cell_angle_alpha   90.15300141
_cell_angle_beta   90.06730428
_cell_angle_gamma   129.17512480
_symmetry_Int_Tables_number   1
_chemical_formula_structural   Y5Lu5(SiHg)4
_chemical_formula_sum   'Y5 Lu5 Si4 Hg4'
_cell_volume   438.78829469
_cell_formula_units_Z   1
loop_
 _symmetry_equiv_pos_site_id
 _symmetry_equiv_pos_as_xyz
  1  'x, y, z'
loop_
 _atom_site_type_symbol
 _atom_site_label
 _atom_site_symmetry_multiplicity
 _atom_site_fract_x
 _atom_site_fract_y
 _atom_site_fract_z
 _atom_site_occupancy
  Y  Y0  1  0.827492  0.562958  0.176400  1
  Y  Y1  1  0.543016  0.792966  0.177056  1
  Y  Y2  1  0.173217  0.436748  0.823646  1
  Y  Y3  1  0.672567  0.938078  0.674727  1
  Y  Y4  1  0.328648  0.061499  0.325206  1
  Lu  Lu5  1  0.041371  0.288087  0.325475  1
  Lu  Lu6  1  0.955937  0.709390  0.674641  1
  Lu  Lu7  1  0.457602  0.210974  0.825006  1
  Lu  Lu8  1  0.001056  0.999677  0.999500  1
  Lu  Lu9  1  0.499638  0.498295  0.500371  1
  Si  Si10  1  0.379177  0.377416  0.124047  1
  Si  Si11  1  0.619788  0.620437  0.875575  1
  Si  Si12  1  0.119772  0.120004  0.623007  1
  Si  Si13  1  0.882915  0.879856  0.378251  1
  Hg  Hg14  1  0.763685  0.198896  0.012586  1
  Hg  Hg15  1  0.238216  0.808520  0.979854  1
  Hg  Hg16  1  0.741714  0.307113  0.517068  1
  Hg  Hg17  1  0.254186  0.689084  0.487585  1
