# generated using pymatgen
data_Dy3Lu9Tc3Pt
_symmetry_space_group_name_H-M   'P 1'
_cell_length_a   6.19040434
_cell_length_b   7.36099470
_cell_length_c   8.95797800
_cell_angle_alpha   90.00000000
_cell_angle_beta   90.00000000
_cell_angle_gamma   90.11212362
_symmetry_Int_Tables_number   1
_chemical_formula_structural   Dy3Lu9Tc3Pt
_chemical_formula_sum   'Dy3 Lu9 Tc3 Pt1'
_cell_volume   408.19218184
_cell_formula_units_Z   1
loop_
 _symmetry_equiv_pos_site_id
 _symmetry_equiv_pos_as_xyz
  1  'x, y, z'
loop_
 _atom_site_type_symbol
 _atom_site_label
 _atom_site_symmetry_multiplicity
 _atom_site_fract_x
 _atom_site_fract_y
 _atom_site_fract_z
 _atom_site_occupancy
  Dy  Dy0  1  0.621754  0.035565  0.250000  1
  Dy  Dy1  1  0.126806  0.457247  0.750000  1
  Dy  Dy2  1  0.373290  0.965453  0.750000  1
  Lu  Lu3  1  0.331757  0.674025  0.067352  1
  Lu  Lu4  1  0.158892  0.177888  0.435891  1
  Lu  Lu5  1  0.662892  0.320992  0.557793  1
  Lu  Lu6  1  0.842255  0.827750  0.940601  1
  Lu  Lu7  1  0.662892  0.320992  0.942207  1
  Lu  Lu8  1  0.842255  0.827750  0.559399  1
  Lu  Lu9  1  0.331757  0.674025  0.432648  1
  Lu  Lu10  1  0.158892  0.177888  0.064109  1
  Lu  Lu11  1  0.874618  0.541513  0.250000  1
  Tc  Tc12  1  0.043077  0.882269  0.250000  1
  Tc  Tc13  1  0.463164  0.383972  0.250000  1
  Tc  Tc14  1  0.951910  0.117847  0.750000  1
  Pt  Pt15  1  0.553785  0.614824  0.750000  1
