# generated using pymatgen
data_Ti6BeAs2
_symmetry_space_group_name_H-M   'P 1'
_cell_length_a   6.83365700
_cell_length_b   6.83365763
_cell_length_c   3.44992200
_cell_angle_alpha   90.00000000
_cell_angle_beta   90.00000000
_cell_angle_gamma   120.00000180
_symmetry_Int_Tables_number   1
_chemical_formula_structural   Ti6BeAs2
_chemical_formula_sum   'Ti6 Be1 As2'
_cell_volume   139.52315654
_cell_formula_units_Z   1
loop_
 _symmetry_equiv_pos_site_id
 _symmetry_equiv_pos_as_xyz
  1  'x, y, z'
loop_
 _atom_site_type_symbol
 _atom_site_label
 _atom_site_symmetry_multiplicity
 _atom_site_fract_x
 _atom_site_fract_y
 _atom_site_fract_z
 _atom_site_occupancy
  Ti  Ti0  1  0.404327  0.000000  0.000000  1
  Ti  Ti1  1  0.000000  0.404326  0.000000  1
  Ti  Ti2  1  0.595673  0.595674  0.000000  1
  Ti  Ti3  1  0.759104  0.000000  0.499999  1
  Ti  Ti4  1  0.240895  0.240895  0.499999  1
  Ti  Ti5  1  0.000000  0.759105  0.499999  1
  Be  Be6  1  0.000000  0.000000  0.000000  1
  As  As7  1  0.666667  0.333333  0.499999  1
  As  As8  1  0.333334  0.666667  0.499999  1
