# generated using pymatgen
data_Ho15Tm5(Ir2Ru)4
_symmetry_space_group_name_H-M   'P 1'
_cell_length_a   10.76118321
_cell_length_b   10.76037023
_cell_length_c   6.39338602
_cell_angle_alpha   90.00689049
_cell_angle_beta   90.00472524
_cell_angle_gamma   89.97759435
_symmetry_Int_Tables_number   1
_chemical_formula_structural   Ho15Tm5(Ir2Ru)4
_chemical_formula_sum   'Ho15 Tm5 Ir8 Ru4'
_cell_volume   740.31769279
_cell_formula_units_Z   1
loop_
 _symmetry_equiv_pos_site_id
 _symmetry_equiv_pos_as_xyz
  1  'x, y, z'
loop_
 _atom_site_type_symbol
 _atom_site_label
 _atom_site_symmetry_multiplicity
 _atom_site_fract_x
 _atom_site_fract_y
 _atom_site_fract_z
 _atom_site_occupancy
  Ho  Ho0  1  0.292966  0.086506  0.376548  1
  Ho  Ho1  1  0.293147  0.913648  0.876565  1
  Ho  Ho2  1  0.706924  0.086395  0.876610  1
  Ho  Ho3  1  0.706911  0.913667  0.376589  1
  Ho  Ho4  1  0.586333  0.793042  0.876640  1
  Ho  Ho5  1  0.586421  0.206897  0.376630  1
  Ho  Ho6  1  0.413653  0.793082  0.376653  1
  Ho  Ho7  1  0.413583  0.206929  0.876681  1
  Ho  Ho8  1  0.206814  0.413525  0.623339  1
  Ho  Ho9  1  0.206759  0.586193  0.123420  1
  Ho  Ho10  1  0.793292  0.413521  0.123387  1
  Ho  Ho11  1  0.793029  0.586337  0.623359  1
  Ho  Ho12  1  0.913627  0.706877  0.123387  1
  Ho  Ho13  1  0.913770  0.293117  0.623386  1
  Ho  Ho14  1  0.086372  0.706942  0.623356  1
  Tm  Tm15  1  0.086286  0.293372  0.123025  1
  Tm  Tm16  1  0.000030  0.000080  0.499755  1
  Tm  Tm17  1  0.000110  0.000185  0.000162  1
  Tm  Tm18  1  0.499977  0.499941  0.999825  1
  Tm  Tm19  1  0.499979  0.499956  0.500139  1
  Ir  Ir20  1  0.848102  0.152260  0.249922  1
  Ir  Ir21  1  0.847964  0.847917  0.750028  1
  Ir  Ir22  1  0.151925  0.152304  0.750626  1
  Ir  Ir23  1  0.152112  0.847849  0.250011  1
  Ir  Ir24  1  0.652142  0.347916  0.749965  1
  Ir  Ir25  1  0.652099  0.652077  0.250050  1
  Ir  Ir26  1  0.347573  0.347892  0.249833  1
  Ir  Ir27  1  0.347878  0.652073  0.750034  1
  Ru  Ru28  1  0.499960  0.999959  0.122357  1
  Ru  Ru29  1  0.500024  0.000003  0.622223  1
  Ru  Ru30  1  0.000125  0.499715  0.878079  1
  Ru  Ru31  1  0.000114  0.499825  0.377413  1
