# generated using pymatgen
data_Zr4Mn2IrOs5
_symmetry_space_group_name_H-M   'P 1'
_cell_length_a   5.10141470
_cell_length_b   5.26960260
_cell_length_c   8.61926030
_cell_angle_alpha   90.00000202
_cell_angle_beta   89.84790665
_cell_angle_gamma   121.09675394
_symmetry_Int_Tables_number   1
_chemical_formula_structural   Zr4Mn2IrOs5
_chemical_formula_sum   'Zr4 Mn2 Ir1 Os5'
_cell_volume   198.40860103
_cell_formula_units_Z   1
loop_
 _symmetry_equiv_pos_site_id
 _symmetry_equiv_pos_as_xyz
  1  'x, y, z'
loop_
 _atom_site_type_symbol
 _atom_site_label
 _atom_site_symmetry_multiplicity
 _atom_site_fract_x
 _atom_site_fract_y
 _atom_site_fract_z
 _atom_site_occupancy
  Zr  Zr0  1  0.335990  0.667996  0.066619  1
  Zr  Zr1  1  0.664540  0.332270  0.567827  1
  Zr  Zr2  1  0.664010  0.332004  0.933381  1
  Zr  Zr3  1  0.335460  0.667730  0.432173  1
  Mn  Mn4  1  0.669544  0.834772  0.751317  1
  Mn  Mn5  1  0.330456  0.165228  0.248683  1
  Ir  Ir6  1  0.000000  0.000000  0.500000  1
  Os  Os7  1  0.000000  0.000000  0.000000  1
  Os  Os8  1  0.175858  0.348588  0.750356  1
  Os  Os9  1  0.824142  0.172731  0.249644  1
  Os  Os10  1  0.824142  0.651412  0.249644  1
  Os  Os11  1  0.175858  0.827269  0.750356  1
