# generated using pymatgen
data_Th8Mn3GaSi12
_symmetry_space_group_name_H-M   'P 1'
_cell_length_a   8.23878800
_cell_length_b   8.23878549
_cell_length_c   8.33725500
_cell_angle_alpha   90.00000000
_cell_angle_beta   90.00000000
_cell_angle_gamma   119.99993781
_symmetry_Int_Tables_number   1
_chemical_formula_structural   Th8Mn3GaSi12
_chemical_formula_sum   'Th8 Mn3 Ga1 Si12'
_cell_volume   490.09527083
_cell_formula_units_Z   1
loop_
 _symmetry_equiv_pos_site_id
 _symmetry_equiv_pos_as_xyz
  1  'x, y, z'
loop_
 _atom_site_type_symbol
 _atom_site_label
 _atom_site_symmetry_multiplicity
 _atom_site_fract_x
 _atom_site_fract_y
 _atom_site_fract_z
 _atom_site_occupancy
  Th  Th0  1  0.495724  0.504269  0.754961  1
  Th  Th1  1  0.495929  0.504084  0.245045  1
  Th  Th2  1  0.008541  0.504267  0.754961  1
  Th  Th3  1  0.008163  0.504086  0.245042  1
  Th  Th4  1  0.495734  0.991471  0.754964  1
  Th  Th5  1  0.495922  0.991851  0.245042  1
  Th  Th6  1  0.999997  0.999996  0.750578  1
  Th  Th7  1  0.999995  0.999998  0.249415  1
  Mn  Mn8  1  0.666691  0.333302  0.999798  1
  Mn  Mn9  1  0.333252  0.666627  0.000135  1
  Mn  Mn10  1  0.333413  0.666714  0.499707  1
  Ga  Ga11  1  0.666656  0.333327  0.500362  1
  Si  Si12  1  0.831563  0.168432  0.999868  1
  Si  Si13  1  0.170417  0.829579  0.000131  1
  Si  Si14  1  0.336822  0.168407  0.999868  1
  Si  Si15  1  0.170615  0.829374  0.499889  1
  Si  Si16  1  0.659205  0.829604  0.000130  1
  Si  Si17  1  0.836265  0.163727  0.500111  1
  Si  Si18  1  0.831599  0.663195  0.999866  1
  Si  Si19  1  0.658771  0.829388  0.499888  1
  Si  Si20  1  0.170407  0.340824  0.000132  1
  Si  Si21  1  0.327453  0.163723  0.500111  1
  Si  Si22  1  0.170601  0.341221  0.499886  1
  Si  Si23  1  0.836267  0.672534  0.500111  1
