# generated using pymatgen
data_Tm7Th(TcB6)4
_symmetry_space_group_name_H-M   'P 1'
_cell_length_a   3.67379900
_cell_length_b   9.12431676
_cell_length_c   11.51050296
_cell_angle_alpha   90.04678378
_cell_angle_beta   90.00000000
_cell_angle_gamma   90.00000000
_symmetry_Int_Tables_number   1
_chemical_formula_structural   Tm7Th(TcB6)4
_chemical_formula_sum   'Tm7 Th1 Tc4 B24'
_cell_volume   385.84235667
_cell_formula_units_Z   1
loop_
 _symmetry_equiv_pos_site_id
 _symmetry_equiv_pos_as_xyz
  1  'x, y, z'
loop_
 _atom_site_type_symbol
 _atom_site_label
 _atom_site_symmetry_multiplicity
 _atom_site_fract_x
 _atom_site_fract_y
 _atom_site_fract_z
 _atom_site_occupancy
  Tm  Tm0  1  0.000000  0.677855  0.587225  1
  Tm  Tm1  1  0.000000  0.823573  0.084735  1
  Tm  Tm2  1  0.000000  0.175843  0.914300  1
  Tm  Tm3  1  0.000000  0.941590  0.368828  1
  Tm  Tm4  1  0.000000  0.055856  0.632063  1
  Tm  Tm5  1  0.000000  0.443539  0.128530  1
  Tm  Tm6  1  0.000000  0.557657  0.870272  1
  Th  Th7  1  0.000000  0.322532  0.414327  1
  Tc  Tc8  1  0.000000  0.640176  0.319797  1
  Tc  Tc9  1  0.000000  0.361486  0.681181  1
  Tc  Tc10  1  0.000000  0.138314  0.178135  1
  Tc  Tc11  1  0.000000  0.861069  0.820690  1
  B  B12  1  0.500000  0.556679  0.432810  1
  B  B13  1  0.500000  0.447491  0.569925  1
  B  B14  1  0.500000  0.052787  0.065867  1
  B  B15  1  0.500000  0.946539  0.933264  1
  B  B16  1  0.500000  0.751137  0.418786  1
  B  B17  1  0.500000  0.249679  0.585354  1
  B  B18  1  0.500000  0.249375  0.079510  1
  B  B19  1  0.500000  0.750168  0.918882  1
  B  B20  1  0.500000  0.792686  0.264373  1
  B  B21  1  0.500000  0.207487  0.736996  1
  B  B22  1  0.500000  0.290728  0.232022  1
  B  B23  1  0.500000  0.707535  0.765074  1
  B  B24  1  0.500000  0.632215  0.183583  1
  B  B25  1  0.500000  0.369702  0.816027  1
  B  B26  1  0.500000  0.128453  0.312582  1
  B  B27  1  0.500000  0.868966  0.685300  1
  B  B28  1  0.500000  0.981064  0.210651  1
  B  B29  1  0.500000  0.017790  0.788803  1
  B  B30  1  0.500000  0.485513  0.285878  1
  B  B31  1  0.500000  0.518876  0.713543  1
  B  B32  1  0.500000  0.601005  0.027306  1
  B  B33  1  0.500000  0.399800  0.971706  1
  B  B34  1  0.500000  0.095607  0.473459  1
  B  B35  1  0.500000  0.899227  0.528215  1
