# generated using pymatgen
data_Ho5Co2Hg
_symmetry_space_group_name_H-M   'P 1'
_cell_length_a   7.58951111
_cell_length_b   7.58951025
_cell_length_c   8.49757877
_cell_angle_alpha   116.52376984
_cell_angle_beta   116.52377035
_cell_angle_gamma   90.00000568
_symmetry_Int_Tables_number   1
_chemical_formula_structural   Ho5Co2Hg
_chemical_formula_sum   'Ho10 Co4 Hg2'
_cell_volume   379.50276491
_cell_formula_units_Z   2
loop_
 _symmetry_equiv_pos_site_id
 _symmetry_equiv_pos_as_xyz
  1  'x, y, z'
loop_
 _atom_site_type_symbol
 _atom_site_label
 _atom_site_symmetry_multiplicity
 _atom_site_fract_x
 _atom_site_fract_y
 _atom_site_fract_z
 _atom_site_occupancy
  Ho  Ho0  1  0.000000  0.000000  0.000000  1
  Ho  Ho1  1  0.500000  0.500000  0.000000  1
  Ho  Ho2  1  0.472859  0.292021  0.264881  1
  Ho  Ho3  1  0.972860  0.472859  0.264881  1
  Ho  Ho4  1  0.292021  0.792020  0.264881  1
  Ho  Ho5  1  0.792020  0.972860  0.264881  1
  Ho  Ho6  1  0.207979  0.027141  0.735118  1
  Ho  Ho7  1  0.707978  0.207979  0.735118  1
  Ho  Ho8  1  0.027141  0.527140  0.735118  1
  Ho  Ho9  1  0.527140  0.707978  0.735118  1
  Co  Co10  1  0.636054  0.136054  0.000000  1
  Co  Co11  1  0.136054  0.363947  0.000000  1
  Co  Co12  1  0.863946  0.636054  0.000000  1
  Co  Co13  1  0.363947  0.863946  0.000000  1
  Hg  Hg14  1  0.250000  0.250000  0.500000  1
  Hg  Hg15  1  0.750000  0.750000  0.500000  1
