# generated using pymatgen
data_Ho3Cd(Rh2O7)2
_symmetry_space_group_name_H-M   'P 1'
_cell_length_a   7.16116010
_cell_length_b   7.16116170
_cell_length_c   7.16116022
_cell_angle_alpha   60.98850214
_cell_angle_beta   60.98849219
_cell_angle_gamma   60.98850556
_symmetry_Int_Tables_number   1
_chemical_formula_structural   Ho3Cd(Rh2O7)2
_chemical_formula_sum   'Ho3 Cd1 Rh4 O14'
_cell_volume   265.46045831
_cell_formula_units_Z   1
loop_
 _symmetry_equiv_pos_site_id
 _symmetry_equiv_pos_as_xyz
  1  'x, y, z'
loop_
 _atom_site_type_symbol
 _atom_site_label
 _atom_site_symmetry_multiplicity
 _atom_site_fract_x
 _atom_site_fract_y
 _atom_site_fract_z
 _atom_site_occupancy
  Ho  Ho0  1  0.125000  0.625000  0.125000  1
  Ho  Ho1  1  0.625000  0.125000  0.125000  1
  Ho  Ho2  1  0.125000  0.125000  0.625000  1
  Cd  Cd3  1  0.125000  0.125000  0.125000  1
  Rh  Rh4  1  0.625000  0.625000  0.625000  1
  Rh  Rh5  1  0.625000  0.625000  0.125000  1
  Rh  Rh6  1  0.125000  0.625000  0.625000  1
  Rh  Rh7  1  0.625000  0.125000  0.625000  1
  O  O8  1  0.250962  0.250962  0.250962  1
  O  O9  1  0.295272  0.697233  0.295272  1
  O  O10  1  0.954728  0.954728  0.552767  1
  O  O11  1  0.537824  0.960042  0.537824  1
  O  O12  1  0.712176  0.712176  0.289958  1
  O  O13  1  0.960042  0.537824  0.537824  1
  O  O14  1  0.712176  0.289958  0.712176  1
  O  O15  1  0.295272  0.295272  0.697233  1
  O  O16  1  0.697233  0.295272  0.295272  1
  O  O17  1  0.289958  0.712176  0.712176  1
  O  O18  1  0.954728  0.552767  0.954728  1
  O  O19  1  0.537824  0.537824  0.960042  1
  O  O20  1  0.999038  0.999038  0.999038  1
  O  O21  1  0.552767  0.954728  0.954728  1
