# generated using pymatgen
data_Nd5Sm3(Er3Sn4)4
_symmetry_space_group_name_H-M   'P 1'
_cell_length_a   8.05354904
_cell_length_b   8.24080999
_cell_length_c   15.51769485
_cell_angle_alpha   89.97294837
_cell_angle_beta   89.86756127
_cell_angle_gamma   90.13584398
_symmetry_Int_Tables_number   1
_chemical_formula_structural   Nd5Sm3(Er3Sn4)4
_chemical_formula_sum   'Nd5 Sm3 Er12 Sn16'
_cell_volume   1029.86899968
_cell_formula_units_Z   1
loop_
 _symmetry_equiv_pos_site_id
 _symmetry_equiv_pos_as_xyz
  1  'x, y, z'
loop_
 _atom_site_type_symbol
 _atom_site_label
 _atom_site_symmetry_multiplicity
 _atom_site_fract_x
 _atom_site_fract_y
 _atom_site_fract_z
 _atom_site_occupancy
  Nd  Nd0  1  0.511495  0.321811  0.904000  1
  Nd  Nd1  1  0.012045  0.177840  0.596030  1
  Nd  Nd2  1  0.487439  0.677986  0.403937  1
  Nd  Nd3  1  0.988284  0.823218  0.095732  1
  Nd  Nd4  1  0.488283  0.678381  0.096344  1
  Sm  Sm5  1  0.986769  0.822014  0.403772  1
  Sm  Sm6  1  0.513237  0.321095  0.596868  1
  Sm  Sm7  1  0.012937  0.177822  0.902951  1
  Er  Er8  1  0.356589  0.835950  0.876209  1
  Er  Er9  1  0.857541  0.663815  0.623905  1
  Er  Er10  1  0.642531  0.164015  0.376812  1
  Er  Er11  1  0.143672  0.335575  0.124297  1
  Er  Er12  1  0.643953  0.164207  0.123470  1
  Er  Er13  1  0.142943  0.335901  0.376509  1
  Er  Er14  1  0.357194  0.835797  0.623408  1
  Er  Er15  1  0.855805  0.664998  0.875644  1
  Er  Er16  1  0.189083  0.502545  0.749693  1
  Er  Er17  1  0.689629  0.997375  0.749693  1
  Er  Er18  1  0.810541  0.497225  0.250451  1
  Er  Er19  1  0.310425  0.002472  0.250451  1
  Sn  Sn20  1  0.306239  0.042887  0.041050  1
  Sn  Sn21  1  0.805814  0.458988  0.458659  1
  Sn  Sn22  1  0.694765  0.958151  0.541470  1
  Sn  Sn23  1  0.190913  0.540423  0.957972  1
  Sn  Sn24  1  0.694188  0.960131  0.957593  1
  Sn  Sn25  1  0.194751  0.539617  0.542354  1
  Sn  Sn26  1  0.304271  0.040166  0.458148  1
  Sn  Sn27  1  0.809140  0.458880  0.041353  1
  Sn  Sn28  1  0.554457  0.622519  0.749765  1
  Sn  Sn29  1  0.055362  0.877796  0.749984  1
  Sn  Sn30  1  0.444943  0.376019  0.249830  1
  Sn  Sn31  1  0.944798  0.123102  0.250341  1
  Sn  Sn32  1  0.320867  0.144629  0.749701  1
  Sn  Sn33  1  0.820825  0.355062  0.750541  1
  Sn  Sn34  1  0.680407  0.856366  0.250280  1
  Sn  Sn35  1  0.177869  0.645222  0.250782  1
