# generated using pymatgen
data_PrNdEr8(In2Pt)4
_symmetry_space_group_name_H-M   'P 1'
_cell_length_a   3.60863200
_cell_length_b   8.17851013
_cell_length_c   18.32623429
_cell_angle_alpha   89.97976207
_cell_angle_beta   90.00000000
_cell_angle_gamma   90.00000000
_symmetry_Int_Tables_number   1
_chemical_formula_structural   PrNdEr8(In2Pt)4
_chemical_formula_sum   'Pr1 Nd1 Er8 In8 Pt4'
_cell_volume   540.86639532
_cell_formula_units_Z   1
loop_
 _symmetry_equiv_pos_site_id
 _symmetry_equiv_pos_as_xyz
  1  'x, y, z'
loop_
 _atom_site_type_symbol
 _atom_site_label
 _atom_site_symmetry_multiplicity
 _atom_site_fract_x
 _atom_site_fract_y
 _atom_site_fract_z
 _atom_site_occupancy
  Pr  Pr0  1  0.000000  0.000000  0.000000  1
  Nd  Nd1  1  0.000000  0.500000  0.500000  1
  Er  Er2  1  0.000000  0.120596  0.413683  1
  Er  Er3  1  0.000000  0.879404  0.586317  1
  Er  Er4  1  0.000000  0.379380  0.913681  1
  Er  Er5  1  0.000000  0.620620  0.086319  1
  Er  Er6  1  0.000000  0.242377  0.219412  1
  Er  Er7  1  0.000000  0.757623  0.780588  1
  Er  Er8  1  0.000000  0.257629  0.719405  1
  Er  Er9  1  0.000000  0.742371  0.280595  1
  In  In10  1  0.500000  0.421744  0.348048  1
  In  In11  1  0.500000  0.578256  0.651952  1
  In  In12  1  0.500000  0.078380  0.847839  1
  In  In13  1  0.500000  0.921620  0.152161  1
  In  In14  1  0.500000  0.301485  0.067656  1
  In  In15  1  0.500000  0.698515  0.932344  1
  In  In16  1  0.500000  0.199088  0.567527  1
  In  In17  1  0.500000  0.800912  0.432473  1
  Pt  Pt18  1  0.500000  0.025876  0.303602  1
  Pt  Pt19  1  0.500000  0.974124  0.696398  1
  Pt  Pt20  1  0.500000  0.474152  0.803558  1
  Pt  Pt21  1  0.500000  0.525848  0.196442  1
