# generated using pymatgen
data_Ho5Ni4(P4Ru5)3
_symmetry_space_group_name_H-M   'P 1'
_cell_length_a   12.48696220
_cell_length_b   12.37482911
_cell_length_c   3.88172500
_cell_angle_alpha   90.00000000
_cell_angle_beta   90.00000000
_cell_angle_gamma   119.38416256
_symmetry_Int_Tables_number   1
_chemical_formula_structural   Ho5Ni4(P4Ru5)3
_chemical_formula_sum   'Ho5 Ni4 P12 Ru15'
_cell_volume   522.65263451
_cell_formula_units_Z   1
loop_
 _symmetry_equiv_pos_site_id
 _symmetry_equiv_pos_as_xyz
  1  'x, y, z'
loop_
 _atom_site_type_symbol
 _atom_site_label
 _atom_site_symmetry_multiplicity
 _atom_site_fract_x
 _atom_site_fract_y
 _atom_site_fract_z
 _atom_site_occupancy
  Ho  Ho0  1  0.998441  0.815893  0.500000  1
  Ho  Ho1  1  0.182866  0.184458  0.500000  1
  Ho  Ho2  1  0.816565  0.001875  0.500000  1
  Ho  Ho3  1  0.666612  0.333370  0.000000  1
  Ho  Ho4  1  0.338773  0.668659  0.000000  1
  Ni  Ni5  1  0.282529  0.999302  0.500000  1
  Ni  Ni6  1  0.001995  0.000805  0.000000  1
  Ni  Ni7  1  0.633200  0.808172  0.000000  1
  Ni  Ni8  1  0.715905  0.722629  0.500000  1
  P  P9  1  0.687702  0.523017  0.500000  1
  P  P10  1  0.477688  0.165316  0.500000  1
  P  P11  1  0.829637  0.309621  0.500000  1
  P  P12  1  0.313857  0.832665  0.500000  1
  P  P13  1  0.167889  0.479086  0.500000  1
  P  P14  1  0.826512  0.829611  0.000000  1
  P  P15  1  0.176325  0.000745  0.000000  1
  P  P16  1  0.998624  0.632152  0.000000  1
  P  P17  1  0.369426  0.368775  0.000000  1
  P  P18  1  0.631922  0.998106  0.000000  1
  P  P19  1  0.522403  0.683528  0.500000  1
  P  P20  1  0.001228  0.177588  0.000000  1
  Ru  Ru21  1  0.999287  0.282213  0.500000  1
  Ru  Ru22  1  0.372291  0.174911  0.000000  1
  Ru  Ru23  1  0.802348  0.631257  0.000000  1
  Ru  Ru24  1  0.816831  0.189735  0.000000  1
  Ru  Ru25  1  0.181594  0.374802  0.000000  1
  Ru  Ru26  1  0.193481  0.823107  0.000000  1
  Ru  Ru27  1  0.871735  0.513796  0.500000  1
  Ru  Ru28  1  0.635081  0.122817  0.500000  1
  Ru  Ru29  1  0.488090  0.361550  0.500000  1
  Ru  Ru30  1  0.361508  0.486247  0.500000  1
  Ru  Ru31  1  0.127241  0.640389  0.500000  1
  Ru  Ru32  1  0.517422  0.868883  0.500000  1
  Ru  Ru33  1  0.997126  0.445314  0.000000  1
  Ru  Ru34  1  0.552705  0.559115  0.000000  1
  Ru  Ru35  1  0.443161  0.990493  0.000000  1
