# generated using pymatgen
data_La3Cd5Ir
_symmetry_space_group_name_H-M   'P 1'
_cell_length_a   8.35188300
_cell_length_b   8.35188511
_cell_length_c   3.96664800
_cell_angle_alpha   90.00000000
_cell_angle_beta   90.00000000
_cell_angle_gamma   119.99999559
_symmetry_Int_Tables_number   1
_chemical_formula_structural   La3Cd5Ir
_chemical_formula_sum   'La3 Cd5 Ir1'
_cell_volume   239.62009023
_cell_formula_units_Z   1
loop_
 _symmetry_equiv_pos_site_id
 _symmetry_equiv_pos_as_xyz
  1  'x, y, z'
loop_
 _atom_site_type_symbol
 _atom_site_label
 _atom_site_symmetry_multiplicity
 _atom_site_fract_x
 _atom_site_fract_y
 _atom_site_fract_z
 _atom_site_occupancy
  La  La0  1  0.431681  0.038380  0.000000  1
  La  La1  1  0.606699  0.568319  0.000000  1
  La  La2  1  0.961620  0.393301  0.000000  1
  Cd  Cd3  1  0.728903  0.992284  0.500000  1
  Cd  Cd4  1  0.263381  0.271097  0.500000  1
  Cd  Cd5  1  0.007716  0.736619  0.500000  1
  Cd  Cd6  1  0.333333  0.666667  0.500000  1
  Cd  Cd7  1  0.000000  0.000000  0.000000  1
  Ir  Ir8  1  0.666667  0.333333  0.500000  1
