# generated using pymatgen
data_Tb3Ti(P3Ir4)2
_symmetry_space_group_name_H-M   'P 1'
_cell_length_a   3.98015200
_cell_length_b   11.23070700
_cell_length_c   12.85310400
_cell_angle_alpha   90.00000000
_cell_angle_beta   90.00000000
_cell_angle_gamma   90.00000000
_symmetry_Int_Tables_number   1
_chemical_formula_structural   Tb3Ti(P3Ir4)2
_chemical_formula_sum   'Tb6 Ti2 P12 Ir16'
_cell_volume   574.53273247
_cell_formula_units_Z   2
loop_
 _symmetry_equiv_pos_site_id
 _symmetry_equiv_pos_as_xyz
  1  'x, y, z'
loop_
 _atom_site_type_symbol
 _atom_site_label
 _atom_site_symmetry_multiplicity
 _atom_site_fract_x
 _atom_site_fract_y
 _atom_site_fract_z
 _atom_site_occupancy
  Tb  Tb0  1  0.000000  0.500000  0.518984  1
  Tb  Tb1  1  0.500000  0.000000  0.481016  1
  Tb  Tb2  1  0.500000  0.817974  0.202482  1
  Tb  Tb3  1  0.500000  0.182026  0.202482  1
  Tb  Tb4  1  0.000000  0.682026  0.797518  1
  Tb  Tb5  1  0.000000  0.317974  0.797518  1
  Ti  Ti6  1  0.500000  0.500000  0.156749  1
  Ti  Ti7  1  0.000000  0.000000  0.843251  1
  P  P8  1  0.500000  0.500000  0.878024  1
  P  P9  1  0.000000  0.000000  0.121976  1
  P  P10  1  0.500000  0.500000  0.349331  1
  P  P11  1  0.000000  0.000000  0.650669  1
  P  P12  1  0.500000  0.312975  0.617357  1
  P  P13  1  0.500000  0.687025  0.617357  1
  P  P14  1  0.000000  0.187025  0.382643  1
  P  P15  1  0.000000  0.812975  0.382643  1
  P  P16  1  0.500000  0.845468  0.888420  1
  P  P17  1  0.500000  0.154532  0.888420  1
  P  P18  1  0.000000  0.654532  0.111580  1
  P  P19  1  0.000000  0.345468  0.111580  1
  Ir  Ir20  1  0.500000  0.500000  0.698837  1
  Ir  Ir21  1  0.000000  0.000000  0.301163  1
  Ir  Ir22  1  0.000000  0.500000  0.989333  1
  Ir  Ir23  1  0.500000  0.000000  0.010667  1
  Ir  Ir24  1  0.500000  0.331281  0.985221  1
  Ir  Ir25  1  0.500000  0.668719  0.985221  1
  Ir  Ir26  1  0.000000  0.168719  0.014779  1
  Ir  Ir27  1  0.000000  0.831281  0.014779  1
  Ir  Ir28  1  0.500000  0.291648  0.430515  1
  Ir  Ir29  1  0.500000  0.708352  0.430515  1
  Ir  Ir30  1  0.000000  0.208352  0.569485  1
  Ir  Ir31  1  0.000000  0.791648  0.569485  1
  Ir  Ir32  1  0.500000  0.873360  0.710557  1
  Ir  Ir33  1  0.500000  0.126640  0.710557  1
  Ir  Ir34  1  0.000000  0.626640  0.289443  1
  Ir  Ir35  1  0.000000  0.373360  0.289443  1
