# generated using pymatgen
data_Dy4MgSc5Sn8
_symmetry_space_group_name_H-M   'P 1'
_cell_length_a   7.61984151
_cell_length_b   7.95557693
_cell_length_c   14.89723600
_cell_angle_alpha   90.00000000
_cell_angle_beta   90.00000000
_cell_angle_gamma   89.78486774
_symmetry_Int_Tables_number   1
_chemical_formula_structural   Dy4MgSc5Sn8
_chemical_formula_sum   'Dy8 Mg2 Sc10 Sn16'
_cell_volume   903.06758673
_cell_formula_units_Z   2
loop_
 _symmetry_equiv_pos_site_id
 _symmetry_equiv_pos_as_xyz
  1  'x, y, z'
loop_
 _atom_site_type_symbol
 _atom_site_label
 _atom_site_symmetry_multiplicity
 _atom_site_fract_x
 _atom_site_fract_y
 _atom_site_fract_z
 _atom_site_occupancy
  Dy  Dy0  1  0.994113  0.179273  0.093563  1
  Dy  Dy1  1  0.005887  0.820727  0.906437  1
  Dy  Dy2  1  0.503112  0.676477  0.906667  1
  Dy  Dy3  1  0.005887  0.820727  0.593563  1
  Dy  Dy4  1  0.496888  0.323523  0.093333  1
  Dy  Dy5  1  0.994113  0.179273  0.406437  1
  Dy  Dy6  1  0.496888  0.323523  0.406667  1
  Dy  Dy7  1  0.503112  0.676477  0.593333  1
  Mg  Mg8  1  0.164064  0.497650  0.750000  1
  Mg  Mg9  1  0.835936  0.502350  0.250000  1
  Sc  Sc10  1  0.334141  0.996010  0.250000  1
  Sc  Sc11  1  0.665859  0.003990  0.750000  1
  Sc  Sc12  1  0.335729  0.164045  0.626165  1
  Sc  Sc13  1  0.664271  0.835955  0.373835  1
  Sc  Sc14  1  0.161297  0.663177  0.373304  1
  Sc  Sc15  1  0.664271  0.835955  0.126165  1
  Sc  Sc16  1  0.838703  0.336823  0.626696  1
  Sc  Sc17  1  0.335729  0.164045  0.873835  1
  Sc  Sc18  1  0.838703  0.336823  0.873304  1
  Sc  Sc19  1  0.161297  0.663177  0.126696  1
  Sn  Sn20  1  0.028731  0.114380  0.750000  1
  Sn  Sn21  1  0.971269  0.885620  0.250000  1
  Sn  Sn22  1  0.469013  0.623923  0.250000  1
  Sn  Sn23  1  0.530987  0.376077  0.750000  1
  Sn  Sn24  1  0.310377  0.857126  0.750000  1
  Sn  Sn25  1  0.689623  0.142874  0.250000  1
  Sn  Sn26  1  0.200062  0.350961  0.250000  1
  Sn  Sn27  1  0.799938  0.649039  0.750000  1
  Sn  Sn28  1  0.180799  0.455306  0.538862  1
  Sn  Sn29  1  0.819201  0.544694  0.461138  1
  Sn  Sn30  1  0.319190  0.959004  0.456839  1
  Sn  Sn31  1  0.819201  0.544694  0.038862  1
  Sn  Sn32  1  0.680810  0.040996  0.543161  1
  Sn  Sn33  1  0.180799  0.455306  0.961138  1
  Sn  Sn34  1  0.680810  0.040996  0.956839  1
  Sn  Sn35  1  0.319190  0.959004  0.043161  1
