# generated using pymatgen
data_Nd4Ga24Pd2Pt7
_symmetry_space_group_name_H-M   'P 1'
_cell_length_a   7.57327029
_cell_length_b   7.62659314
_cell_length_c   13.50926719
_cell_angle_alpha   84.89179660
_cell_angle_beta   100.50599385
_cell_angle_gamma   119.63896035
_symmetry_Int_Tables_number   1
_chemical_formula_structural   Nd4Ga24Pd2Pt7
_chemical_formula_sum   'Nd4 Ga24 Pd2 Pt7'
_cell_volume   666.81030457
_cell_formula_units_Z   1
loop_
 _symmetry_equiv_pos_site_id
 _symmetry_equiv_pos_as_xyz
  1  'x, y, z'
loop_
 _atom_site_type_symbol
 _atom_site_label
 _atom_site_symmetry_multiplicity
 _atom_site_fract_x
 _atom_site_fract_y
 _atom_site_fract_z
 _atom_site_occupancy
  Nd  Nd0  1  0.729698  0.997276  0.188678  1
  Nd  Nd1  1  0.270246  0.002475  0.811340  1
  Nd  Nd2  1  0.061735  0.668529  0.189126  1
  Nd  Nd3  1  0.938585  0.331572  0.810963  1
  Ga  Ga4  1  0.806843  0.867809  0.817035  1
  Ga  Ga5  1  0.193094  0.132172  0.182969  1
  Ga  Ga6  1  0.979851  0.667336  0.940937  1
  Ga  Ga7  1  0.022143  0.333757  0.058830  1
  Ga  Ga8  1  0.398943  0.663474  0.817527  1
  Ga  Ga9  1  0.599474  0.336661  0.182602  1
  Ga  Ga10  1  0.882648  0.665025  0.672209  1
  Ga  Ga11  1  0.117777  0.334930  0.327818  1
  Ga  Ga12  1  0.602860  0.461739  0.816777  1
  Ga  Ga13  1  0.396567  0.539389  0.183035  1
  Ga  Ga14  1  0.229654  0.337891  0.670503  1
  Ga  Ga15  1  0.770424  0.662110  0.329444  1
  Ga  Ga16  1  0.853648  0.332949  0.555612  1
  Ga  Ga17  1  0.184669  0.998530  0.556534  1
  Ga  Ga18  1  0.815406  0.001256  0.443475  1
  Ga  Ga19  1  0.353247  0.999199  0.058968  1
  Ga  Ga20  1  0.645694  0.998603  0.941275  1
  Ga  Ga21  1  0.557443  0.994351  0.671451  1
  Ga  Ga22  1  0.442705  0.005242  0.328552  1
  Ga  Ga23  1  0.520734  0.667906  0.558449  1
  Ga  Ga24  1  0.479416  0.332076  0.441680  1
  Ga  Ga25  1  0.685169  0.668140  0.051769  1
  Ga  Ga26  1  0.314009  0.332608  0.948205  1
  Ga  Ga27  1  0.146561  0.667095  0.444287  1
  Pd  Pd28  1  0.329758  0.669937  0.000293  1
  Pd  Pd29  1  0.999720  0.000146  0.999984  1
  Pt  Pt30  1  0.547234  0.328917  0.635121  1
  Pt  Pt31  1  0.453189  0.670950  0.365261  1
  Pt  Pt32  1  0.883776  0.002230  0.636647  1
  Pt  Pt33  1  0.116623  0.997637  0.363400  1
  Pt  Pt34  1  0.670387  0.330085  0.999713  1
  Pt  Pt35  1  0.207065  0.666602  0.637448  1
  Pt  Pt36  1  0.793003  0.333392  0.362080  1
