# generated using pymatgen
data_Sm3Mn(Ni4P3)2
_symmetry_space_group_name_H-M   'P 1'
_cell_length_a   3.84489500
_cell_length_b   10.65812400
_cell_length_c   12.43541700
_cell_angle_alpha   90.00000000
_cell_angle_beta   90.00000000
_cell_angle_gamma   90.00000000
_symmetry_Int_Tables_number   1
_chemical_formula_structural   Sm3Mn(Ni4P3)2
_chemical_formula_sum   'Sm6 Mn2 Ni16 P12'
_cell_volume   509.59552546
_cell_formula_units_Z   2
loop_
 _symmetry_equiv_pos_site_id
 _symmetry_equiv_pos_as_xyz
  1  'x, y, z'
loop_
 _atom_site_type_symbol
 _atom_site_label
 _atom_site_symmetry_multiplicity
 _atom_site_fract_x
 _atom_site_fract_y
 _atom_site_fract_z
 _atom_site_occupancy
  Sm  Sm0  1  0.000000  0.500000  0.519871  1
  Sm  Sm1  1  0.500000  0.000000  0.480129  1
  Sm  Sm2  1  0.500000  0.815913  0.204946  1
  Sm  Sm3  1  0.500000  0.184087  0.204946  1
  Sm  Sm4  1  0.000000  0.684087  0.795054  1
  Sm  Sm5  1  0.000000  0.315913  0.795054  1
  Mn  Mn6  1  0.500000  0.500000  0.152699  1
  Mn  Mn7  1  0.000000  0.000000  0.847301  1
  Ni  Ni8  1  0.500000  0.500000  0.700050  1
  Ni  Ni9  1  0.000000  0.000000  0.299950  1
  Ni  Ni10  1  0.000000  0.500000  0.983297  1
  Ni  Ni11  1  0.500000  0.000000  0.016703  1
  Ni  Ni12  1  0.500000  0.332995  0.993141  1
  Ni  Ni13  1  0.500000  0.667005  0.993141  1
  Ni  Ni14  1  0.000000  0.167005  0.006859  1
  Ni  Ni15  1  0.000000  0.832995  0.006859  1
  Ni  Ni16  1  0.500000  0.300501  0.427102  1
  Ni  Ni17  1  0.500000  0.699499  0.427102  1
  Ni  Ni18  1  0.000000  0.199499  0.572898  1
  Ni  Ni19  1  0.000000  0.800501  0.572898  1
  Ni  Ni20  1  0.500000  0.881180  0.712188  1
  Ni  Ni21  1  0.500000  0.118820  0.712188  1
  Ni  Ni22  1  0.000000  0.618820  0.287812  1
  Ni  Ni23  1  0.000000  0.381180  0.287812  1
  P  P24  1  0.500000  0.500000  0.878781  1
  P  P25  1  0.000000  0.000000  0.121219  1
  P  P26  1  0.500000  0.500000  0.342079  1
  P  P27  1  0.000000  0.000000  0.657921  1
  P  P28  1  0.500000  0.310738  0.613106  1
  P  P29  1  0.500000  0.689262  0.613106  1
  P  P30  1  0.000000  0.189262  0.386894  1
  P  P31  1  0.000000  0.810738  0.386894  1
  P  P32  1  0.500000  0.847813  0.895425  1
  P  P33  1  0.500000  0.152187  0.895425  1
  P  P34  1  0.000000  0.652187  0.104575  1
  P  P35  1  0.000000  0.347813  0.104575  1
