# generated using pymatgen
data_Y4HoLu3(ReC2)4
_symmetry_space_group_name_H-M   'P 1'
_cell_length_a   5.06941500
_cell_length_b   6.57141175
_cell_length_c   9.78128216
_cell_angle_alpha   90.10524888
_cell_angle_beta   90.00000000
_cell_angle_gamma   90.00000000
_symmetry_Int_Tables_number   1
_chemical_formula_structural   Y4HoLu3(ReC2)4
_chemical_formula_sum   'Y4 Ho1 Lu3 Re4 C8'
_cell_volume   325.84538909
_cell_formula_units_Z   1
loop_
 _symmetry_equiv_pos_site_id
 _symmetry_equiv_pos_as_xyz
  1  'x, y, z'
loop_
 _atom_site_type_symbol
 _atom_site_label
 _atom_site_symmetry_multiplicity
 _atom_site_fract_x
 _atom_site_fract_y
 _atom_site_fract_z
 _atom_site_occupancy
  Y  Y0  1  0.250000  0.465820  0.784113  1
  Y  Y1  1  0.750000  0.034285  0.286103  1
  Y  Y2  1  0.250000  0.964959  0.714540  1
  Y  Y3  1  0.750000  0.534883  0.216012  1
  Ho  Ho4  1  0.750000  0.177269  0.942455  1
  Lu  Lu5  1  0.250000  0.825220  0.059068  1
  Lu  Lu6  1  0.750000  0.674381  0.558096  1
  Lu  Lu7  1  0.250000  0.326194  0.441558  1
  Re  Re8  1  0.250000  0.279184  0.133722  1
  Re  Re9  1  0.750000  0.220358  0.631308  1
  Re  Re10  1  0.250000  0.779381  0.367926  1
  Re  Re11  1  0.750000  0.720339  0.866832  1
  C  C12  1  0.250000  0.171070  0.950643  1
  C  C13  1  0.750000  0.826288  0.050638  1
  C  C14  1  0.250000  0.669962  0.550614  1
  C  C15  1  0.750000  0.330151  0.448831  1
  C  C16  1  0.250000  0.047918  0.260780  1
  C  C17  1  0.750000  0.453078  0.757953  1
  C  C18  1  0.250000  0.548179  0.240199  1
  C  C19  1  0.750000  0.951080  0.738609  1
