# generated using pymatgen
data_La3Nd3Cd23As
_symmetry_space_group_name_H-M   'P 1'
_cell_length_a   10.10289909
_cell_length_b   10.10289864
_cell_length_c   10.10299200
_cell_angle_alpha   60.00030080
_cell_angle_beta   60.00030326
_cell_angle_gamma   60.00000032
_symmetry_Int_Tables_number   1
_chemical_formula_structural   La3Nd3Cd23As
_chemical_formula_sum   'La3 Nd3 Cd23 As1'
_cell_volume   729.17035856
_cell_formula_units_Z   1
loop_
 _symmetry_equiv_pos_site_id
 _symmetry_equiv_pos_as_xyz
  1  'x, y, z'
loop_
 _atom_site_type_symbol
 _atom_site_label
 _atom_site_symmetry_multiplicity
 _atom_site_fract_x
 _atom_site_fract_y
 _atom_site_fract_z
 _atom_site_occupancy
  La  La0  1  0.791342  0.791342  0.208009  1
  La  La1  1  0.209307  0.791342  0.208009  1
  La  La2  1  0.791342  0.209307  0.208009  1
  Nd  Nd3  1  0.208044  0.208044  0.791451  1
  Nd  Nd4  1  0.792460  0.208044  0.791451  1
  Nd  Nd5  1  0.208044  0.792460  0.791451  1
  Cd  Cd6  1  0.832766  0.832766  0.501702  1
  Cd  Cd7  1  0.833839  0.499561  0.832762  1
  Cd  Cd8  1  0.499561  0.833839  0.832762  1
  Cd  Cd9  1  0.833839  0.833839  0.832762  1
  Cd  Cd10  1  0.166118  0.166118  0.501644  1
  Cd  Cd11  1  0.167256  0.499336  0.166151  1
  Cd  Cd12  1  0.499336  0.167256  0.166151  1
  Cd  Cd13  1  0.167256  0.167256  0.166151  1
  Cd  Cd14  1  0.621703  0.621703  0.134890  1
  Cd  Cd15  1  0.620952  0.135368  0.622728  1
  Cd  Cd16  1  0.135368  0.620952  0.622728  1
  Cd  Cd17  1  0.620952  0.620952  0.622728  1
  Cd  Cd18  1  0.378551  0.378551  0.864346  1
  Cd  Cd19  1  0.377827  0.864891  0.379455  1
  Cd  Cd20  1  0.864891  0.377827  0.379455  1
  Cd  Cd21  1  0.377827  0.377827  0.379455  1
  Cd  Cd22  1  0.000108  0.000108  0.500397  1
  Cd  Cd23  1  0.499387  0.000108  0.500397  1
  Cd  Cd24  1  0.000108  0.499387  0.500397  1
  Cd  Cd25  1  0.500107  0.500107  0.999286  1
  Cd  Cd26  1  0.000500  0.500107  0.999286  1
  Cd  Cd27  1  0.500107  0.000500  0.999286  1
  Cd  Cd28  1  0.500037  0.500037  0.499888  1
  As  As29  1  0.001063  0.001063  0.996810  1
