# generated using pymatgen
data_Tb3Ho(TcRu)4
_symmetry_space_group_name_H-M   'P 1'
_cell_length_a   5.19469702
_cell_length_b   5.19469688
_cell_length_c   9.13132100
_cell_angle_alpha   89.99722259
_cell_angle_beta   90.00277735
_cell_angle_gamma   116.91244057
_symmetry_Int_Tables_number   1
_chemical_formula_structural   Tb3Ho(TcRu)4
_chemical_formula_sum   'Tb3 Ho1 Tc4 Ru4'
_cell_volume   219.72144915
_cell_formula_units_Z   1
loop_
 _symmetry_equiv_pos_site_id
 _symmetry_equiv_pos_as_xyz
  1  'x, y, z'
loop_
 _atom_site_type_symbol
 _atom_site_label
 _atom_site_symmetry_multiplicity
 _atom_site_fract_x
 _atom_site_fract_y
 _atom_site_fract_z
 _atom_site_occupancy
  Tb  Tb0  1  0.670756  0.329244  0.566850  1
  Tb  Tb1  1  0.670741  0.329259  0.933063  1
  Tb  Tb2  1  0.332291  0.667709  0.063162  1
  Ho  Ho3  1  0.332164  0.667836  0.436781  1
  Tc  Tc4  1  0.827310  0.172690  0.250199  1
  Tc  Tc5  1  0.829982  0.659956  0.250227  1
  Tc  Tc6  1  0.340044  0.170018  0.250227  1
  Tc  Tc7  1  0.162482  0.837518  0.749821  1
  Ru  Ru8  1  0.007254  0.992746  0.502405  1
  Ru  Ru9  1  0.007177  0.992823  0.997548  1
  Ru  Ru10  1  0.170100  0.350302  0.749859  1
  Ru  Ru11  1  0.649698  0.829900  0.749859  1
