# generated using pymatgen
data_Y2HfZrIr2
_symmetry_space_group_name_H-M   'P 1'
_cell_length_a   4.55295600
_cell_length_b   7.11475900
_cell_length_c   8.33456600
_cell_angle_alpha   90.00000000
_cell_angle_beta   90.00000000
_cell_angle_gamma   90.00000000
_symmetry_Int_Tables_number   1
_chemical_formula_structural   Y2HfZrIr2
_chemical_formula_sum   'Y4 Hf2 Zr2 Ir4'
_cell_volume   269.98313565
_cell_formula_units_Z   2
loop_
 _symmetry_equiv_pos_site_id
 _symmetry_equiv_pos_as_xyz
  1  'x, y, z'
loop_
 _atom_site_type_symbol
 _atom_site_label
 _atom_site_symmetry_multiplicity
 _atom_site_fract_x
 _atom_site_fract_y
 _atom_site_fract_z
 _atom_site_occupancy
  Y  Y0  1  0.250000  0.015979  0.323409  1
  Y  Y1  1  0.250000  0.515979  0.176591  1
  Y  Y2  1  0.750000  0.982172  0.677375  1
  Y  Y3  1  0.750000  0.482172  0.822625  1
  Hf  Hf4  1  0.250000  0.142571  0.926791  1
  Hf  Hf5  1  0.250000  0.642571  0.573209  1
  Zr  Zr6  1  0.750000  0.857301  0.071397  1
  Zr  Zr7  1  0.750000  0.357301  0.428603  1
  Ir  Ir8  1  0.250000  0.271485  0.598361  1
  Ir  Ir9  1  0.250000  0.771485  0.901639  1
  Ir  Ir10  1  0.750000  0.730491  0.408225  1
  Ir  Ir11  1  0.750000  0.230491  0.091775  1
