# generated using pymatgen
data_Dy9LuSn8
_symmetry_space_group_name_H-M   'P 1'
_cell_length_a   8.03054500
_cell_length_b   8.15357500
_cell_length_c   15.44318100
_cell_angle_alpha   90.00000000
_cell_angle_beta   90.00000000
_cell_angle_gamma   90.00000000
_symmetry_Int_Tables_number   1
_chemical_formula_structural   Dy9LuSn8
_chemical_formula_sum   'Dy18 Lu2 Sn16'
_cell_volume   1011.18321505
_cell_formula_units_Z   2
loop_
 _symmetry_equiv_pos_site_id
 _symmetry_equiv_pos_as_xyz
  1  'x, y, z'
loop_
 _atom_site_type_symbol
 _atom_site_label
 _atom_site_symmetry_multiplicity
 _atom_site_fract_x
 _atom_site_fract_y
 _atom_site_fract_z
 _atom_site_occupancy
  Dy  Dy0  1  0.367636  0.837209  0.877563  1
  Dy  Dy1  1  0.867636  0.662791  0.622437  1
  Dy  Dy2  1  0.632416  0.162911  0.378071  1
  Dy  Dy3  1  0.132416  0.337089  0.121929  1
  Dy  Dy4  1  0.632416  0.162911  0.121929  1
  Dy  Dy5  1  0.132416  0.337089  0.378071  1
  Dy  Dy6  1  0.367636  0.837209  0.622437  1
  Dy  Dy7  1  0.867636  0.662791  0.877563  1
  Dy  Dy8  1  0.520746  0.320718  0.902391  1
  Dy  Dy9  1  0.020746  0.179282  0.597609  1
  Dy  Dy10  1  0.479360  0.679287  0.402747  1
  Dy  Dy11  1  0.979360  0.820713  0.097253  1
  Dy  Dy12  1  0.479360  0.679287  0.097253  1
  Dy  Dy13  1  0.979360  0.820713  0.402747  1
  Dy  Dy14  1  0.520746  0.320718  0.597609  1
  Dy  Dy15  1  0.020746  0.179282  0.902391  1
  Dy  Dy16  1  0.801100  0.497137  0.250000  1
  Dy  Dy17  1  0.301100  0.002863  0.250000  1
  Lu  Lu18  1  0.198862  0.502910  0.750000  1
  Lu  Lu19  1  0.698862  0.997090  0.750000  1
  Sn  Sn20  1  0.292878  0.036773  0.041526  1
  Sn  Sn21  1  0.792878  0.463227  0.458474  1
  Sn  Sn22  1  0.707365  0.963699  0.542538  1
  Sn  Sn23  1  0.207365  0.536301  0.957462  1
  Sn  Sn24  1  0.707365  0.963699  0.957462  1
  Sn  Sn25  1  0.207365  0.536301  0.542538  1
  Sn  Sn26  1  0.292878  0.036773  0.458474  1
  Sn  Sn27  1  0.792878  0.463227  0.041526  1
  Sn  Sn28  1  0.564400  0.618377  0.750000  1
  Sn  Sn29  1  0.064400  0.881623  0.750000  1
  Sn  Sn30  1  0.434695  0.381059  0.250000  1
  Sn  Sn31  1  0.934695  0.118941  0.250000  1
  Sn  Sn32  1  0.330092  0.149042  0.750000  1
  Sn  Sn33  1  0.830092  0.350958  0.750000  1
  Sn  Sn34  1  0.670046  0.852360  0.250000  1
  Sn  Sn35  1  0.170046  0.647640  0.250000  1
