# generated using pymatgen
data_Pr4Al18IrRuPt4
_symmetry_space_group_name_H-M   'P 1'
_cell_length_a   7.67471540
_cell_length_b   7.67471450
_cell_length_c   9.61626193
_cell_angle_alpha   89.96345411
_cell_angle_beta   89.96345051
_cell_angle_gamma   119.55965119
_symmetry_Int_Tables_number   1
_chemical_formula_structural   Pr4Al18IrRuPt4
_chemical_formula_sum   'Pr4 Al18 Ir1 Ru1 Pt4'
_cell_volume   492.68699137
_cell_formula_units_Z   1
loop_
 _symmetry_equiv_pos_site_id
 _symmetry_equiv_pos_as_xyz
  1  'x, y, z'
loop_
 _atom_site_type_symbol
 _atom_site_label
 _atom_site_symmetry_multiplicity
 _atom_site_fract_x
 _atom_site_fract_y
 _atom_site_fract_z
 _atom_site_occupancy
  Pr  Pr0  1  0.994896  0.668429  0.249904  1
  Pr  Pr1  1  0.005104  0.331571  0.750096  1
  Pr  Pr2  1  0.668429  0.994896  0.249904  1
  Pr  Pr3  1  0.331571  0.005104  0.750096  1
  Al  Al4  1  0.127841  0.127841  0.248243  1
  Al  Al5  1  0.872159  0.872159  0.751757  1
  Al  Al6  1  0.001706  0.328641  0.072873  1
  Al  Al7  1  0.998294  0.671359  0.927127  1
  Al  Al8  1  0.998212  0.669025  0.574026  1
  Al  Al9  1  0.330975  0.001788  0.425974  1
  Al  Al10  1  0.001788  0.330975  0.425974  1
  Al  Al11  1  0.669025  0.998212  0.574026  1
  Al  Al12  1  0.671359  0.998294  0.927127  1
  Al  Al13  1  0.328641  0.001706  0.072873  1
  Al  Al14  1  0.331293  0.331293  0.550758  1
  Al  Al15  1  0.668707  0.668707  0.449242  1
  Al  Al16  1  0.670741  0.670741  0.049902  1
  Al  Al17  1  0.329259  0.329259  0.950098  1
  Al  Al18  1  0.340805  0.543623  0.249865  1
  Al  Al19  1  0.659195  0.456377  0.750135  1
  Al  Al20  1  0.543623  0.340805  0.249865  1
  Al  Al21  1  0.456377  0.659195  0.750135  1
  Ir  Ir22  1  0.000000  0.000000  0.500000  1
  Ru  Ru23  1  0.000000  0.000000  0.000000  1
  Pt  Pt24  1  0.671110  0.328890  0.000000  1
  Pt  Pt25  1  0.328890  0.671110  0.000000  1
  Pt  Pt26  1  0.328962  0.671038  0.500000  1
  Pt  Pt27  1  0.671038  0.328962  0.500000  1
