# generated using pymatgen
data_Pr2Zr3Sn4
_symmetry_space_group_name_H-M   'P 1'
_cell_length_a   7.90879200
_cell_length_b   7.96079300
_cell_length_c   14.94844900
_cell_angle_alpha   90.00000000
_cell_angle_beta   90.00000000
_cell_angle_gamma   90.00000000
_symmetry_Int_Tables_number   1
_chemical_formula_structural   Pr2Zr3Sn4
_chemical_formula_sum   'Pr8 Zr12 Sn16'
_cell_volume   941.15817572
_cell_formula_units_Z   4
loop_
 _symmetry_equiv_pos_site_id
 _symmetry_equiv_pos_as_xyz
  1  'x, y, z'
loop_
 _atom_site_type_symbol
 _atom_site_label
 _atom_site_symmetry_multiplicity
 _atom_site_fract_x
 _atom_site_fract_y
 _atom_site_fract_z
 _atom_site_occupancy
  Pr  Pr0  1  0.508884  0.325972  0.906687  1
  Pr  Pr1  1  0.008884  0.174028  0.593313  1
  Pr  Pr2  1  0.491116  0.674028  0.406687  1
  Pr  Pr3  1  0.991116  0.825972  0.093313  1
  Pr  Pr4  1  0.491116  0.674028  0.093313  1
  Pr  Pr5  1  0.991116  0.825972  0.406687  1
  Pr  Pr6  1  0.508884  0.325972  0.593313  1
  Pr  Pr7  1  0.008884  0.174028  0.906687  1
  Zr  Zr8  1  0.344410  0.836897  0.870929  1
  Zr  Zr9  1  0.844410  0.663103  0.629071  1
  Zr  Zr10  1  0.655590  0.163103  0.370929  1
  Zr  Zr11  1  0.155590  0.336897  0.129071  1
  Zr  Zr12  1  0.655590  0.163103  0.129071  1
  Zr  Zr13  1  0.155590  0.336897  0.370929  1
  Zr  Zr14  1  0.344410  0.836897  0.629071  1
  Zr  Zr15  1  0.844410  0.663103  0.870929  1
  Zr  Zr16  1  0.168394  0.509172  0.750000  1
  Zr  Zr17  1  0.668394  0.990828  0.750000  1
  Zr  Zr18  1  0.831606  0.490828  0.250000  1
  Zr  Zr19  1  0.331606  0.009172  0.250000  1
  Sn  Sn20  1  0.320108  0.042918  0.044136  1
  Sn  Sn21  1  0.820108  0.457082  0.455864  1
  Sn  Sn22  1  0.679892  0.957082  0.544136  1
  Sn  Sn23  1  0.179892  0.542918  0.955864  1
  Sn  Sn24  1  0.679892  0.957082  0.955864  1
  Sn  Sn25  1  0.179892  0.542918  0.544136  1
  Sn  Sn26  1  0.320108  0.042918  0.455864  1
  Sn  Sn27  1  0.820108  0.457082  0.044136  1
  Sn  Sn28  1  0.540801  0.623557  0.750000  1
  Sn  Sn29  1  0.040801  0.876443  0.750000  1
  Sn  Sn30  1  0.459199  0.376443  0.250000  1
  Sn  Sn31  1  0.959199  0.123557  0.250000  1
  Sn  Sn32  1  0.313081  0.147242  0.750000  1
  Sn  Sn33  1  0.813081  0.352758  0.750000  1
  Sn  Sn34  1  0.686919  0.852758  0.250000  1
  Sn  Sn35  1  0.186919  0.647242  0.250000  1
