# generated using pymatgen
data_Dy2Co6Si3Ge
_symmetry_space_group_name_H-M   'P 1'
_cell_length_a   6.30197362
_cell_length_b   6.29417131
_cell_length_c   6.30197369
_cell_angle_alpha   130.71232438
_cell_angle_beta   112.72521103
_cell_angle_gamma   87.83297668
_symmetry_Int_Tables_number   1
_chemical_formula_structural   Dy2Co6Si3Ge
_chemical_formula_sum   'Dy2 Co6 Si3 Ge1'
_cell_volume   166.36661269
_cell_formula_units_Z   1
loop_
 _symmetry_equiv_pos_site_id
 _symmetry_equiv_pos_as_xyz
  1  'x, y, z'
loop_
 _atom_site_type_symbol
 _atom_site_label
 _atom_site_symmetry_multiplicity
 _atom_site_fract_x
 _atom_site_fract_y
 _atom_site_fract_z
 _atom_site_occupancy
  Dy  Dy0  1  0.251537  0.534010  0.282472  1
  Dy  Dy1  1  0.748420  0.470328  0.721906  1
  Co  Co2  1  0.992079  0.999566  0.488244  1
  Co  Co3  1  0.511323  0.999566  0.007487  1
  Co  Co4  1  0.719334  0.001474  0.722502  1
  Co  Co5  1  0.229756  0.496200  0.727578  1
  Co  Co6  1  0.278972  0.001474  0.282140  1
  Co  Co7  1  0.768621  0.496200  0.266444  1
  Si  Si8  1  0.922545  0.134559  0.212014  1
  Si  Si9  1  0.578515  0.786367  0.207851  1
  Si  Si10  1  0.414780  0.205926  0.791147  1
  Ge  Ge11  1  0.084117  0.874330  0.790213  1
