# generated using pymatgen
data_Ba6Na16Ir
_symmetry_space_group_name_H-M   'P 1'
_cell_length_a   10.89633274
_cell_length_b   10.89633347
_cell_length_c   10.89633300
_cell_angle_alpha   109.47121977
_cell_angle_beta   109.47122111
_cell_angle_gamma   109.47122144
_symmetry_Int_Tables_number   1
_chemical_formula_structural   Ba6Na16Ir
_chemical_formula_sum   'Ba6 Na16 Ir1'
_cell_volume   995.90799020
_cell_formula_units_Z   1
loop_
 _symmetry_equiv_pos_site_id
 _symmetry_equiv_pos_as_xyz
  1  'x, y, z'
loop_
 _atom_site_type_symbol
 _atom_site_label
 _atom_site_symmetry_multiplicity
 _atom_site_fract_x
 _atom_site_fract_y
 _atom_site_fract_z
 _atom_site_occupancy
  Ba  Ba0  1  0.246284  0.246284  0.000000  1
  Ba  Ba1  1  0.000000  0.246284  0.246284  1
  Ba  Ba2  1  0.000000  0.753716  0.753716  1
  Ba  Ba3  1  0.753716  0.000000  0.753716  1
  Ba  Ba4  1  0.246284  0.000000  0.246284  1
  Ba  Ba5  1  0.753716  0.753716  0.000000  1
  Na  Na6  1  0.500000  0.500000  0.500000  1
  Na  Na7  1  0.000000  0.000000  0.500000  1
  Na  Na8  1  0.500000  0.000000  0.000000  1
  Na  Na9  1  0.000000  0.500000  0.000000  1
  Na  Na10  1  0.346600  0.693199  0.346600  1
  Na  Na11  1  0.653400  0.000000  0.346600  1
  Na  Na12  1  0.346600  0.000000  0.653400  1
  Na  Na13  1  0.653400  0.346600  0.000000  1
  Na  Na14  1  0.346600  0.346600  0.693199  1
  Na  Na15  1  0.693199  0.346600  0.346600  1
  Na  Na16  1  0.000000  0.346600  0.653400  1
  Na  Na17  1  0.306801  0.653400  0.653400  1
  Na  Na18  1  0.346600  0.653400  0.000000  1
  Na  Na19  1  0.000000  0.653400  0.346600  1
  Na  Na20  1  0.653400  0.653400  0.306801  1
  Na  Na21  1  0.653400  0.306801  0.653400  1
  Ir  Ir22  1  0.000000  0.000000  0.000000  1
