# generated using pymatgen
data_LiTb6Mg(MnC6)2
_symmetry_space_group_name_H-M   'P 1'
_cell_length_a   8.28978900
_cell_length_b   8.28978846
_cell_length_c   5.04029400
_cell_angle_alpha   90.00000000
_cell_angle_beta   90.00000000
_cell_angle_gamma   119.99999864
_symmetry_Int_Tables_number   1
_chemical_formula_structural   LiTb6Mg(MnC6)2
_chemical_formula_sum   'Li1 Tb6 Mg1 Mn2 C12'
_cell_volume   299.96696726
_cell_formula_units_Z   1
loop_
 _symmetry_equiv_pos_site_id
 _symmetry_equiv_pos_as_xyz
  1  'x, y, z'
loop_
 _atom_site_type_symbol
 _atom_site_label
 _atom_site_symmetry_multiplicity
 _atom_site_fract_x
 _atom_site_fract_y
 _atom_site_fract_z
 _atom_site_occupancy
  Li  Li0  1  0.000000  0.000000  0.500000  1
  Tb  Tb1  1  0.619266  0.679716  0.746218  1
  Tb  Tb2  1  0.939550  0.619266  0.253782  1
  Tb  Tb3  1  0.679716  0.060450  0.253782  1
  Tb  Tb4  1  0.320284  0.939550  0.746218  1
  Tb  Tb5  1  0.060450  0.380734  0.746218  1
  Tb  Tb6  1  0.380734  0.320284  0.253782  1
  Mg  Mg7  1  0.000000  0.000000  0.000000  1
  Mn  Mn8  1  0.666667  0.333333  0.749472  1
  Mn  Mn9  1  0.333333  0.666667  0.250528  1
  C  C10  1  0.980108  0.751984  0.752516  1
  C  C11  1  0.228124  0.980108  0.247484  1
  C  C12  1  0.751984  0.771876  0.247484  1
  C  C13  1  0.248016  0.228124  0.752516  1
  C  C14  1  0.771876  0.019892  0.752516  1
  C  C15  1  0.019892  0.248016  0.247484  1
  C  C16  1  0.859423  0.569021  0.752410  1
  C  C17  1  0.290403  0.859423  0.247590  1
  C  C18  1  0.569021  0.709597  0.247590  1
  C  C19  1  0.430979  0.290403  0.752410  1
  C  C20  1  0.140577  0.430979  0.247590  1
  C  C21  1  0.709597  0.140577  0.752410  1
