# generated using pymatgen
data_Tb3Y(AuCl6)4
_symmetry_space_group_name_H-M   'P 1'
_cell_length_a   8.01398576
_cell_length_b   9.94283647
_cell_length_c   14.10850404
_cell_angle_alpha   102.86550624
_cell_angle_beta   97.38745684
_cell_angle_gamma   113.06286532
_symmetry_Int_Tables_number   1
_chemical_formula_structural   Tb3Y(AuCl6)4
_chemical_formula_sum   'Tb3 Y1 Au4 Cl24'
_cell_volume   978.75397768
_cell_formula_units_Z   1
loop_
 _symmetry_equiv_pos_site_id
 _symmetry_equiv_pos_as_xyz
  1  'x, y, z'
loop_
 _atom_site_type_symbol
 _atom_site_label
 _atom_site_symmetry_multiplicity
 _atom_site_fract_x
 _atom_site_fract_y
 _atom_site_fract_z
 _atom_site_occupancy
  Tb  Tb0  1  0.579328  0.928763  0.623110  1
  Tb  Tb1  1  0.420695  0.071250  0.376898  1
  Tb  Tb2  1  0.969933  0.314824  0.871976  1
  Y  Y3  1  0.030231  0.685140  0.128022  1
  Au  Au4  1  0.289004  0.633578  0.763351  1
  Au  Au5  1  0.711012  0.366436  0.236653  1
  Au  Au6  1  0.500002  0.500002  0.499998  1
  Au  Au7  1  0.000003  0.999987  0.999997  1
  Cl  Cl8  1  0.597154  0.734574  0.749945  1
  Cl  Cl9  1  0.402837  0.265423  0.250056  1
  Cl  Cl10  1  0.278168  0.849127  0.731336  1
  Cl  Cl11  1  0.721827  0.150870  0.268664  1
  Cl  Cl12  1  0.978512  0.534128  0.772909  1
  Cl  Cl13  1  0.021451  0.465924  0.227061  1
  Cl  Cl14  1  0.298225  0.414111  0.791308  1
  Cl  Cl15  1  0.701826  0.585899  0.208681  1
  Cl  Cl16  1  0.686079  0.369701  0.500853  1
  Cl  Cl17  1  0.313918  0.630300  0.499146  1
  Cl  Cl18  1  0.756074  0.735269  0.533224  1
  Cl  Cl19  1  0.243914  0.264721  0.466774  1
  Cl  Cl20  1  0.790656  0.105358  0.975232  1
  Cl  Cl21  1  0.209270  0.894602  0.024797  1
  Cl  Cl22  1  0.777754  0.789845  0.030646  1
  Cl  Cl23  1  0.222285  0.210155  0.969366  1
  Cl  Cl24  1  0.623209  0.194373  0.745414  1
  Cl  Cl25  1  0.376652  0.805597  0.254545  1
  Cl  Cl26  1  0.936613  0.060427  0.731464  1
  Cl  Cl27  1  0.063331  0.939411  0.268446  1
  Cl  Cl28  1  0.715209  0.047004  0.483094  1
  Cl  Cl29  1  0.284781  0.952992  0.516900  1
  Cl  Cl30  1  0.773174  0.436310  0.977595  1
  Cl  Cl31  1  0.226871  0.563898  0.022540  1
