# generated using pymatgen
data_YHo11Tc3Pd
_symmetry_space_group_name_H-M   'P 1'
_cell_length_a   6.28536220
_cell_length_b   7.39664508
_cell_length_c   9.14994900
_cell_angle_alpha   90.00000000
_cell_angle_beta   90.00000000
_cell_angle_gamma   90.03668964
_symmetry_Int_Tables_number   1
_chemical_formula_structural   YHo11Tc3Pd
_chemical_formula_sum   'Y1 Ho11 Tc3 Pd1'
_cell_volume   425.38647129
_cell_formula_units_Z   1
loop_
 _symmetry_equiv_pos_site_id
 _symmetry_equiv_pos_as_xyz
  1  'x, y, z'
loop_
 _atom_site_type_symbol
 _atom_site_label
 _atom_site_symmetry_multiplicity
 _atom_site_fract_x
 _atom_site_fract_y
 _atom_site_fract_z
 _atom_site_occupancy
  Y  Y0  1  0.869314  0.533982  0.250000  1
  Ho  Ho1  1  0.627551  0.045588  0.250000  1
  Ho  Ho2  1  0.371304  0.957038  0.750000  1
  Ho  Ho3  1  0.123989  0.461505  0.750000  1
  Ho  Ho4  1  0.165417  0.183889  0.057846  1
  Ho  Ho5  1  0.829999  0.823958  0.931540  1
  Ho  Ho6  1  0.664286  0.321681  0.935401  1
  Ho  Ho7  1  0.829999  0.823958  0.568460  1
  Ho  Ho8  1  0.341152  0.670943  0.058472  1
  Ho  Ho9  1  0.165417  0.183889  0.442154  1
  Ho  Ho10  1  0.341152  0.670943  0.441528  1
  Ho  Ho11  1  0.664286  0.321681  0.564599  1
  Tc  Tc12  1  0.453653  0.383831  0.250000  1
  Tc  Tc13  1  0.538191  0.615138  0.750000  1
  Tc  Tc14  1  0.963936  0.113540  0.750000  1
  Pd  Pd15  1  0.050353  0.888436  0.250000  1
