# generated using pymatgen
data_Ho7Sc3(Si3H)2
_symmetry_space_group_name_H-M   'P 1'
_cell_length_a   8.31146300
_cell_length_b   8.31146366
_cell_length_c   5.97351100
_cell_angle_alpha   90.00000000
_cell_angle_beta   90.00000000
_cell_angle_gamma   120.00000930
_symmetry_Int_Tables_number   1
_chemical_formula_structural   Ho7Sc3(Si3H)2
_chemical_formula_sum   'Ho7 Sc3 Si6 H2'
_cell_volume   357.36765728
_cell_formula_units_Z   1
loop_
 _symmetry_equiv_pos_site_id
 _symmetry_equiv_pos_as_xyz
  1  'x, y, z'
loop_
 _atom_site_type_symbol
 _atom_site_label
 _atom_site_symmetry_multiplicity
 _atom_site_fract_x
 _atom_site_fract_y
 _atom_site_fract_z
 _atom_site_occupancy
  Ho  Ho0  1  0.666667  0.333333  0.500000  1
  Ho  Ho1  1  0.747368  0.747832  0.751883  1
  Ho  Ho2  1  0.252168  0.999536  0.751883  1
  Ho  Ho3  1  0.000464  0.252632  0.751883  1
  Ho  Ho4  1  0.252168  0.252632  0.248117  1
  Ho  Ho5  1  0.747368  0.999536  0.248117  1
  Ho  Ho6  1  0.000464  0.747832  0.248117  1
  Sc  Sc7  1  0.666667  0.333333  0.000000  1
  Sc  Sc8  1  0.333333  0.666667  0.000000  1
  Sc  Sc9  1  0.333333  0.666667  0.500000  1
  Si  Si10  1  0.390889  0.395211  0.755504  1
  Si  Si11  1  0.604789  0.995677  0.755504  1
  Si  Si12  1  0.004323  0.609111  0.755504  1
  Si  Si13  1  0.604789  0.609111  0.244496  1
  Si  Si14  1  0.390889  0.995677  0.244496  1
  Si  Si15  1  0.004323  0.395211  0.244496  1
  H  H16  1  0.000000  0.000000  0.500000  1
  H  H17  1  0.000000  0.000000  0.000000  1
