# generated using pymatgen
data_La8Y2Ir5Rh
_symmetry_space_group_name_H-M   'P 1'
_cell_length_a   11.40932000
_cell_length_b   11.40932000
_cell_length_c   6.56847100
_cell_angle_alpha   90.00000000
_cell_angle_beta   90.00000000
_cell_angle_gamma   90.00000000
_symmetry_Int_Tables_number   1
_chemical_formula_structural   La8Y2Ir5Rh
_chemical_formula_sum   'La16 Y4 Ir10 Rh2'
_cell_volume   855.03483553
_cell_formula_units_Z   2
loop_
 _symmetry_equiv_pos_site_id
 _symmetry_equiv_pos_as_xyz
  1  'x, y, z'
loop_
 _atom_site_type_symbol
 _atom_site_label
 _atom_site_symmetry_multiplicity
 _atom_site_fract_x
 _atom_site_fract_y
 _atom_site_fract_z
 _atom_site_occupancy
  La  La0  1  0.287125  0.088902  0.391496  1
  La  La1  1  0.287125  0.911098  0.891496  1
  La  La2  1  0.712875  0.088902  0.891496  1
  La  La3  1  0.712875  0.911098  0.391496  1
  La  La4  1  0.588902  0.787125  0.891496  1
  La  La5  1  0.588902  0.212875  0.391496  1
  La  La6  1  0.411098  0.787125  0.391496  1
  La  La7  1  0.411098  0.212875  0.891496  1
  La  La8  1  0.212084  0.411567  0.609804  1
  La  La9  1  0.212084  0.588433  0.109804  1
  La  La10  1  0.787916  0.411567  0.109804  1
  La  La11  1  0.787916  0.588433  0.609804  1
  La  La12  1  0.911567  0.712084  0.109804  1
  La  La13  1  0.911567  0.287916  0.609804  1
  La  La14  1  0.088433  0.712084  0.609804  1
  La  La15  1  0.088433  0.287916  0.109804  1
  Y  Y16  1  0.000000  0.000000  0.499959  1
  Y  Y17  1  0.000000  0.000000  0.999959  1
  Y  Y18  1  0.500000  0.500000  0.999959  1
  Y  Y19  1  0.500000  0.500000  0.499959  1
  Ir  Ir20  1  0.849143  0.148967  0.249547  1
  Ir  Ir21  1  0.849143  0.851033  0.749547  1
  Ir  Ir22  1  0.150857  0.148967  0.749547  1
  Ir  Ir23  1  0.150857  0.851033  0.249547  1
  Ir  Ir24  1  0.648967  0.349143  0.749547  1
  Ir  Ir25  1  0.648967  0.650857  0.249547  1
  Ir  Ir26  1  0.351033  0.349143  0.249547  1
  Ir  Ir27  1  0.351033  0.650857  0.749547  1
  Ir  Ir28  1  0.000000  0.500000  0.879344  1
  Ir  Ir29  1  0.000000  0.500000  0.379344  1
  Rh  Rh30  1  0.500000  0.000000  0.117349  1
  Rh  Rh31  1  0.500000  0.000000  0.617349  1
