# generated using pymatgen
data_Zr6Zn17Ni6As
_symmetry_space_group_name_H-M   'P 1'
_cell_length_a   8.60055242
_cell_length_b   8.60055190
_cell_length_c   8.60055200
_cell_angle_alpha   59.99999960
_cell_angle_beta   60.00000160
_cell_angle_gamma   59.99999684
_symmetry_Int_Tables_number   1
_chemical_formula_structural   Zr6Zn17Ni6As
_chemical_formula_sum   'Zr6 Zn17 Ni6 As1'
_cell_volume   449.84613095
_cell_formula_units_Z   1
loop_
 _symmetry_equiv_pos_site_id
 _symmetry_equiv_pos_as_xyz
  1  'x, y, z'
loop_
 _atom_site_type_symbol
 _atom_site_label
 _atom_site_symmetry_multiplicity
 _atom_site_fract_x
 _atom_site_fract_y
 _atom_site_fract_z
 _atom_site_occupancy
  Zr  Zr0  1  0.717452  0.282548  0.282548  1
  Zr  Zr1  1  0.282548  0.717452  0.717452  1
  Zr  Zr2  1  0.282548  0.717452  0.282548  1
  Zr  Zr3  1  0.717452  0.282548  0.717452  1
  Zr  Zr4  1  0.282548  0.282548  0.717452  1
  Zr  Zr5  1  0.717452  0.717452  0.282548  1
  Zn  Zn6  1  0.126473  0.126473  0.126473  1
  Zn  Zn7  1  0.873527  0.873527  0.873527  1
  Zn  Zn8  1  0.126473  0.126473  0.620582  1
  Zn  Zn9  1  0.126473  0.620582  0.126473  1
  Zn  Zn10  1  0.873527  0.873527  0.379418  1
  Zn  Zn11  1  0.873527  0.379418  0.873527  1
  Zn  Zn12  1  0.620582  0.126473  0.126473  1
  Zn  Zn13  1  0.379418  0.873527  0.873527  1
  Zn  Zn14  1  0.337577  0.337577  0.337577  1
  Zn  Zn15  1  0.662423  0.662423  0.662423  1
  Zn  Zn16  1  0.337577  0.337577  0.987269  1
  Zn  Zn17  1  0.337577  0.987269  0.337577  1
  Zn  Zn18  1  0.662423  0.662423  0.012731  1
  Zn  Zn19  1  0.662423  0.012731  0.662423  1
  Zn  Zn20  1  0.987269  0.337577  0.337577  1
  Zn  Zn21  1  0.012731  0.662423  0.662423  1
  Zn  Zn22  1  0.000000  0.000000  0.000000  1
  Ni  Ni23  1  0.500000  0.000000  0.000000  1
  Ni  Ni24  1  0.000000  0.500000  0.500000  1
  Ni  Ni25  1  0.000000  0.500000  0.000000  1
  Ni  Ni26  1  0.500000  0.000000  0.500000  1
  Ni  Ni27  1  0.000000  0.000000  0.500000  1
  Ni  Ni28  1  0.500000  0.500000  0.000000  1
  As  As29  1  0.500000  0.500000  0.500000  1
