# generated using pymatgen
data_DyTm4Pa3(ReB6)4
_symmetry_space_group_name_H-M   'P 1'
_cell_length_a   3.69057200
_cell_length_b   9.13097942
_cell_length_c   11.49062801
_cell_angle_alpha   90.13537882
_cell_angle_beta   90.00000000
_cell_angle_gamma   90.00000000
_symmetry_Int_Tables_number   1
_chemical_formula_structural   DyTm4Pa3(ReB6)4
_chemical_formula_sum   'Dy1 Tm4 Pa3 Re4 B24'
_cell_volume   387.21627211
_cell_formula_units_Z   1
loop_
 _symmetry_equiv_pos_site_id
 _symmetry_equiv_pos_as_xyz
  1  'x, y, z'
loop_
 _atom_site_type_symbol
 _atom_site_label
 _atom_site_symmetry_multiplicity
 _atom_site_fract_x
 _atom_site_fract_y
 _atom_site_fract_z
 _atom_site_occupancy
  Dy  Dy0  1  0.000000  0.179435  0.913052  1
  Tm  Tm1  1  0.000000  0.945505  0.374562  1
  Tm  Tm2  1  0.000000  0.055435  0.627289  1
  Tm  Tm3  1  0.000000  0.443581  0.124964  1
  Tm  Tm4  1  0.000000  0.553736  0.874059  1
  Pa  Pa5  1  0.000000  0.321091  0.413342  1
  Pa  Pa6  1  0.000000  0.678281  0.587303  1
  Pa  Pa7  1  0.000000  0.823107  0.085968  1
  Re  Re8  1  0.000000  0.638709  0.321507  1
  Re  Re9  1  0.000000  0.363581  0.675897  1
  Re  Re10  1  0.000000  0.138157  0.181067  1
  Re  Re11  1  0.000000  0.859308  0.820913  1
  B  B12  1  0.500000  0.553795  0.432476  1
  B  B13  1  0.500000  0.446671  0.566571  1
  B  B14  1  0.500000  0.053245  0.067908  1
  B  B15  1  0.500000  0.945509  0.933045  1
  B  B16  1  0.500000  0.749608  0.420203  1
  B  B17  1  0.500000  0.250860  0.580510  1
  B  B18  1  0.500000  0.248795  0.079665  1
  B  B19  1  0.500000  0.751200  0.920254  1
  B  B20  1  0.500000  0.792953  0.265506  1
  B  B21  1  0.500000  0.207578  0.734168  1
  B  B22  1  0.500000  0.292809  0.233451  1
  B  B23  1  0.500000  0.706894  0.765926  1
  B  B24  1  0.500000  0.632121  0.184348  1
  B  B25  1  0.500000  0.368102  0.814767  1
  B  B26  1  0.500000  0.132305  0.315425  1
  B  B27  1  0.500000  0.868018  0.685729  1
  B  B28  1  0.500000  0.982536  0.213302  1
  B  B29  1  0.500000  0.017876  0.786708  1
  B  B30  1  0.500000  0.482642  0.285529  1
  B  B31  1  0.500000  0.516948  0.714112  1
  B  B32  1  0.500000  0.607467  0.029794  1
  B  B33  1  0.500000  0.391985  0.969850  1
  B  B34  1  0.500000  0.108269  0.470510  1
  B  B35  1  0.500000  0.891886  0.530324  1
