# generated using pymatgen
data_AcYbReH6
_symmetry_space_group_name_H-M   'P 1'
_cell_length_a   5.35386020
_cell_length_b   5.35385990
_cell_length_c   5.35385900
_cell_angle_alpha   59.99999939
_cell_angle_beta   60.00000124
_cell_angle_gamma   59.99999184
_symmetry_Int_Tables_number   1
_chemical_formula_structural   AcYbReH6
_chemical_formula_sum   'Ac1 Yb1 Re1 H6'
_cell_volume   108.51404083
_cell_formula_units_Z   1
loop_
 _symmetry_equiv_pos_site_id
 _symmetry_equiv_pos_as_xyz
  1  'x, y, z'
loop_
 _atom_site_type_symbol
 _atom_site_label
 _atom_site_symmetry_multiplicity
 _atom_site_fract_x
 _atom_site_fract_y
 _atom_site_fract_z
 _atom_site_occupancy
  Ac  Ac0  1  0.250000  0.250000  0.250000  1
  Yb  Yb1  1  0.749999  0.749999  0.749999  1
  Re  Re2  1  0.000000  0.000000  0.000000  1
  H  H3  1  0.763444  0.236557  0.236557  1
  H  H4  1  0.236557  0.763444  0.236557  1
  H  H5  1  0.763443  0.763443  0.236558  1
  H  H6  1  0.236557  0.236557  0.763444  1
  H  H7  1  0.763443  0.236558  0.763443  1
  H  H8  1  0.236558  0.763443  0.763443  1
