# generated using pymatgen
data_TbYbTm2(B6Ru)2
_symmetry_space_group_name_H-M   'P 1'
_cell_length_a   3.63483700
_cell_length_b   9.11000385
_cell_length_c   11.50706200
_cell_angle_alpha   89.84339376
_cell_angle_beta   90.00000000
_cell_angle_gamma   90.00000000
_symmetry_Int_Tables_number   1
_chemical_formula_structural   TbYbTm2(B6Ru)2
_chemical_formula_sum   'Tb2 Yb2 Tm4 B24 Ru4'
_cell_volume   381.03628243
_cell_formula_units_Z   2
loop_
 _symmetry_equiv_pos_site_id
 _symmetry_equiv_pos_as_xyz
  1  'x, y, z'
loop_
 _atom_site_type_symbol
 _atom_site_label
 _atom_site_symmetry_multiplicity
 _atom_site_fract_x
 _atom_site_fract_y
 _atom_site_fract_z
 _atom_site_occupancy
  Tb  Tb0  1  0.000000  0.822096  0.086067  1
  Tb  Tb1  1  0.000000  0.177904  0.913933  1
  Yb  Yb2  1  0.000000  0.324725  0.415043  1
  Yb  Yb3  1  0.000000  0.675275  0.584957  1
  Tm  Tm4  1  0.000000  0.941844  0.370132  1
  Tm  Tm5  1  0.000000  0.058156  0.629868  1
  Tm  Tm6  1  0.000000  0.442709  0.131122  1
  Tm  Tm7  1  0.000000  0.557291  0.868878  1
  B  B8  1  0.500000  0.554310  0.432386  1
  B  B9  1  0.500000  0.445690  0.567614  1
  B  B10  1  0.500000  0.054253  0.067418  1
  B  B11  1  0.500000  0.945747  0.932582  1
  B  B12  1  0.500000  0.748494  0.417857  1
  B  B13  1  0.500000  0.251506  0.582143  1
  B  B14  1  0.500000  0.249205  0.082048  1
  B  B15  1  0.500000  0.750795  0.917952  1
  B  B16  1  0.500000  0.791079  0.264970  1
  B  B17  1  0.500000  0.208921  0.735030  1
  B  B18  1  0.500000  0.290525  0.235034  1
  B  B19  1  0.500000  0.709475  0.764966  1
  B  B20  1  0.500000  0.630539  0.185154  1
  B  B21  1  0.500000  0.369461  0.814846  1
  B  B22  1  0.500000  0.130479  0.314722  1
  B  B23  1  0.500000  0.869521  0.685278  1
  B  B24  1  0.500000  0.983287  0.212319  1
  B  B25  1  0.500000  0.016713  0.787681  1
  B  B26  1  0.500000  0.483446  0.288165  1
  B  B27  1  0.500000  0.516554  0.711835  1
  B  B28  1  0.500000  0.601390  0.027781  1
  B  B29  1  0.500000  0.398610  0.972219  1
  B  B30  1  0.500000  0.098716  0.472821  1
  B  B31  1  0.500000  0.901284  0.527179  1
  Ru  Ru32  1  0.000000  0.639937  0.318657  1
  Ru  Ru33  1  0.000000  0.360063  0.681343  1
  Ru  Ru34  1  0.000000  0.137701  0.179098  1
  Ru  Ru35  1  0.000000  0.862299  0.820902  1
