# generated using pymatgen
data_DyTh3(B4Rh)4
_symmetry_space_group_name_H-M   'P 1'
_cell_length_a   7.08012914
_cell_length_b   7.08013005
_cell_length_c   7.08013041
_cell_angle_alpha   111.67553228
_cell_angle_beta   111.67553594
_cell_angle_gamma   105.14721136
_symmetry_Int_Tables_number   1
_chemical_formula_structural   DyTh3(B4Rh)4
_chemical_formula_sum   'Dy1 Th3 B16 Rh4'
_cell_volume   272.05777831
_cell_formula_units_Z   1
loop_
 _symmetry_equiv_pos_site_id
 _symmetry_equiv_pos_as_xyz
  1  'x, y, z'
loop_
 _atom_site_type_symbol
 _atom_site_label
 _atom_site_symmetry_multiplicity
 _atom_site_fract_x
 _atom_site_fract_y
 _atom_site_fract_z
 _atom_site_occupancy
  Dy  Dy0  1  0.250000  0.750000  0.500000  1
  Th  Th1  1  0.787019  0.787019  0.000000  1
  Th  Th2  1  0.212981  0.212981  0.000000  1
  Th  Th3  1  0.750000  0.250000  0.500000  1
  B  B4  1  0.265670  0.108170  0.373099  1
  B  B5  1  0.735071  0.892570  0.626901  1
  B  B6  1  0.265670  0.892570  0.157499  1
  B  B7  1  0.735071  0.108170  0.842501  1
  B  B8  1  0.107430  0.734330  0.842501  1
  B  B9  1  0.891830  0.264929  0.157499  1
  B  B10  1  0.107430  0.264929  0.373099  1
  B  B11  1  0.891830  0.734330  0.626901  1
  B  B12  1  0.110947  0.108855  0.522760  1
  B  B13  1  0.586095  0.588186  0.477240  1
  B  B14  1  0.110947  0.588186  0.002092  1
  B  B15  1  0.586095  0.108855  0.997908  1
  B  B16  1  0.891145  0.889053  0.477240  1
  B  B17  1  0.411814  0.413905  0.522760  1
  B  B18  1  0.891145  0.413905  0.002092  1
  B  B19  1  0.411814  0.889053  0.997908  1
  Rh  Rh20  1  0.262822  0.501577  0.761244  1
  Rh  Rh21  1  0.740333  0.501577  0.238756  1
  Rh  Rh22  1  0.498423  0.737178  0.238756  1
  Rh  Rh23  1  0.498423  0.259667  0.761244  1
