# generated using pymatgen
data_TbHo7Al8
_symmetry_space_group_name_H-M   'P 1'
_cell_length_a   5.58642100
_cell_length_b   5.83364800
_cell_length_c   11.39024000
_cell_angle_alpha   90.00112777
_cell_angle_beta   90.00000000
_cell_angle_gamma   90.00000000
_symmetry_Int_Tables_number   1
_chemical_formula_structural   TbHo7Al8
_chemical_formula_sum   'Tb1 Ho7 Al8'
_cell_volume   371.19896535
_cell_formula_units_Z   1
loop_
 _symmetry_equiv_pos_site_id
 _symmetry_equiv_pos_as_xyz
  1  'x, y, z'
loop_
 _atom_site_type_symbol
 _atom_site_label
 _atom_site_symmetry_multiplicity
 _atom_site_fract_x
 _atom_site_fract_y
 _atom_site_fract_z
 _atom_site_occupancy
  Tb  Tb0  1  0.750000  0.161625  0.484879  1
  Ho  Ho1  1  0.250000  0.838337  0.515924  1
  Ho  Ho2  1  0.250000  0.160698  0.015669  1
  Ho  Ho3  1  0.750000  0.839080  0.984116  1
  Ho  Ho4  1  0.750000  0.397518  0.167929  1
  Ho  Ho5  1  0.250000  0.602594  0.831916  1
  Ho  Ho6  1  0.250000  0.397719  0.331305  1
  Ho  Ho7  1  0.750000  0.602535  0.668528  1
  Al  Al8  1  0.500054  0.928637  0.249750  1
  Al  Al9  1  0.000278  0.071153  0.750256  1
  Al  Al10  1  0.499722  0.071153  0.750256  1
  Al  Al11  1  0.999946  0.928637  0.249750  1
  Al  Al12  1  0.750000  0.659215  0.401429  1
  Al  Al13  1  0.250000  0.341111  0.598339  1
  Al  Al14  1  0.250000  0.659123  0.097879  1
  Al  Al15  1  0.750000  0.340865  0.902075  1
