# generated using pymatgen
data_HoEr2In3HgPd2
_symmetry_space_group_name_H-M   'P 1'
_cell_length_a   7.90853900
_cell_length_b   7.91279319
_cell_length_c   3.76643400
_cell_angle_alpha   90.00000000
_cell_angle_beta   90.00000000
_cell_angle_gamma   119.98347098
_symmetry_Int_Tables_number   1
_chemical_formula_structural   HoEr2In3HgPd2
_chemical_formula_sum   'Ho1 Er2 In3 Hg1 Pd2'
_cell_volume   204.15469880
_cell_formula_units_Z   1
loop_
 _symmetry_equiv_pos_site_id
 _symmetry_equiv_pos_as_xyz
  1  'x, y, z'
loop_
 _atom_site_type_symbol
 _atom_site_label
 _atom_site_symmetry_multiplicity
 _atom_site_fract_x
 _atom_site_fract_y
 _atom_site_fract_z
 _atom_site_occupancy
  Ho  Ho0  1  0.391436  0.978960  0.500000  1
  Er  Er1  1  0.587555  0.608637  0.500000  1
  Er  Er2  1  0.021135  0.412443  0.500000  1
  In  In3  1  0.258252  0.261250  0.000000  1
  In  In4  1  0.738983  0.997160  0.000000  1
  In  In5  1  0.002651  0.741595  0.000000  1
  Hg  Hg6  1  0.666869  0.333629  0.000000  1
  Pd  Pd7  1  0.999873  0.000016  0.500000  1
  Pd  Pd8  1  0.333246  0.666311  0.000000  1
