# generated using pymatgen
data_Ti6Be6Ir11Ru
_symmetry_space_group_name_H-M   'P 1'
_cell_length_a   4.21603700
_cell_length_b   5.94816100
_cell_length_c   12.61998600
_cell_angle_alpha   90.00000000
_cell_angle_beta   90.00050791
_cell_angle_gamma   90.00000000
_symmetry_Int_Tables_number   1
_chemical_formula_structural   Ti6Be6Ir11Ru
_chemical_formula_sum   'Ti6 Be6 Ir11 Ru1'
_cell_volume   316.47980465
_cell_formula_units_Z   1
loop_
 _symmetry_equiv_pos_site_id
 _symmetry_equiv_pos_as_xyz
  1  'x, y, z'
loop_
 _atom_site_type_symbol
 _atom_site_label
 _atom_site_symmetry_multiplicity
 _atom_site_fract_x
 _atom_site_fract_y
 _atom_site_fract_z
 _atom_site_occupancy
  Ti  Ti0  1  0.000000  0.494464  0.000000  1
  Ti  Ti1  1  0.499589  0.002818  0.164051  1
  Ti  Ti2  1  0.999587  0.500094  0.332884  1
  Ti  Ti3  1  0.500000  0.999870  0.500000  1
  Ti  Ti4  1  0.000415  0.500094  0.667116  1
  Ti  Ti5  1  0.500410  0.002818  0.835949  1
  Be  Be6  1  0.000000  0.001219  0.000000  1
  Be  Be7  1  0.499503  0.499206  0.165821  1
  Be  Be8  1  0.999544  0.000099  0.333073  1
  Be  Be9  1  0.500000  0.500075  0.500000  1
  Be  Be10  1  0.000455  0.000099  0.666927  1
  Be  Be11  1  0.500499  0.499206  0.834179  1
  Ir  Ir12  1  0.500000  0.748942  0.000000  1
  Ir  Ir13  1  0.999630  0.249729  0.167416  1
  Ir  Ir14  1  0.999622  0.750098  0.166921  1
  Ir  Ir15  1  0.499631  0.250284  0.333895  1
  Ir  Ir16  1  0.499623  0.750296  0.333268  1
  Ir  Ir17  1  0.000000  0.249717  0.500000  1
  Ir  Ir18  1  0.000000  0.750363  0.500000  1
  Ir  Ir19  1  0.500369  0.250284  0.666105  1
  Ir  Ir20  1  0.500377  0.750296  0.666732  1
  Ir  Ir21  1  0.000371  0.249729  0.832584  1
  Ir  Ir22  1  0.000379  0.750098  0.833079  1
  Ru  Ru23  1  0.500000  0.250111  0.000000  1
