# generated using pymatgen
data_Ca20(InAg3)3
_symmetry_space_group_name_H-M   'P 1'
_cell_length_a   8.16642000
_cell_length_b   8.16642000
_cell_length_c   14.67343400
_cell_angle_alpha   90.00000000
_cell_angle_beta   90.00000000
_cell_angle_gamma   90.00000000
_symmetry_Int_Tables_number   1
_chemical_formula_structural   Ca20(InAg3)3
_chemical_formula_sum   'Ca20 In3 Ag9'
_cell_volume   978.57741198
_cell_formula_units_Z   1
loop_
 _symmetry_equiv_pos_site_id
 _symmetry_equiv_pos_as_xyz
  1  'x, y, z'
loop_
 _atom_site_type_symbol
 _atom_site_label
 _atom_site_symmetry_multiplicity
 _atom_site_fract_x
 _atom_site_fract_y
 _atom_site_fract_z
 _atom_site_occupancy
  Ca  Ca0  1  0.670849  0.164598  0.104377  1
  Ca  Ca1  1  0.169516  0.668083  0.607393  1
  Ca  Ca2  1  0.329151  0.835402  0.104377  1
  Ca  Ca3  1  0.830484  0.331917  0.607393  1
  Ca  Ca4  1  0.835402  0.670849  0.104377  1
  Ca  Ca5  1  0.331917  0.169516  0.607393  1
  Ca  Ca6  1  0.164598  0.329151  0.104377  1
  Ca  Ca7  1  0.668083  0.830484  0.607393  1
  Ca  Ca8  1  0.835402  0.329151  0.895623  1
  Ca  Ca9  1  0.331917  0.830484  0.392607  1
  Ca  Ca10  1  0.164598  0.670849  0.895623  1
  Ca  Ca11  1  0.668083  0.169516  0.392607  1
  Ca  Ca12  1  0.670849  0.835402  0.895623  1
  Ca  Ca13  1  0.169516  0.331917  0.392607  1
  Ca  Ca14  1  0.329151  0.164598  0.895623  1
  Ca  Ca15  1  0.830484  0.668083  0.392607  1
  Ca  Ca16  1  0.500000  0.500000  0.754451  1
  Ca  Ca17  1  0.000000  0.000000  0.251818  1
  Ca  Ca18  1  0.000000  0.000000  0.748182  1
  Ca  Ca19  1  0.500000  0.500000  0.245549  1
  In  In20  1  0.500000  0.500000  0.500000  1
  In  In21  1  0.500000  0.500000  0.000000  1
  In  In22  1  0.000000  0.000000  0.500000  1
  Ag  Ag23  1  0.625580  0.125430  0.751621  1
  Ag  Ag24  1  0.125430  0.625580  0.248379  1
  Ag  Ag25  1  0.874570  0.374420  0.248379  1
  Ag  Ag26  1  0.374420  0.874570  0.751621  1
  Ag  Ag27  1  0.874570  0.625580  0.751621  1
  Ag  Ag28  1  0.374420  0.125430  0.248379  1
  Ag  Ag29  1  0.125430  0.374420  0.751621  1
  Ag  Ag30  1  0.625580  0.874570  0.248379  1
  Ag  Ag31  1  0.000000  0.000000  0.000000  1
