# generated using pymatgen
data_Y4C2Br3
_symmetry_space_group_name_H-M   'P 1'
_cell_length_a   3.70851900
_cell_length_b   10.76777200
_cell_length_c   20.57106800
_cell_angle_alpha   90.00000000
_cell_angle_beta   90.00000000
_cell_angle_gamma   90.00000000
_symmetry_Int_Tables_number   1
_chemical_formula_structural   Y4C2Br3
_chemical_formula_sum   'Y16 C8 Br12'
_cell_volume   821.45390651
_cell_formula_units_Z   4
loop_
 _symmetry_equiv_pos_site_id
 _symmetry_equiv_pos_as_xyz
  1  'x, y, z'
loop_
 _atom_site_type_symbol
 _atom_site_label
 _atom_site_symmetry_multiplicity
 _atom_site_fract_x
 _atom_site_fract_y
 _atom_site_fract_z
 _atom_site_occupancy
  Y  Y0  1  0.250000  0.865917  0.581165  1
  Y  Y1  1  0.750000  0.134083  0.418835  1
  Y  Y2  1  0.750000  0.634083  0.081165  1
  Y  Y3  1  0.250000  0.365917  0.918835  1
  Y  Y4  1  0.250000  0.866469  0.744461  1
  Y  Y5  1  0.750000  0.133531  0.255539  1
  Y  Y6  1  0.750000  0.633531  0.244461  1
  Y  Y7  1  0.250000  0.366469  0.755539  1
  Y  Y8  1  0.250000  0.867658  0.169391  1
  Y  Y9  1  0.750000  0.132342  0.830609  1
  Y  Y10  1  0.750000  0.632342  0.669391  1
  Y  Y11  1  0.250000  0.367658  0.330609  1
  Y  Y12  1  0.250000  0.899837  0.328355  1
  Y  Y13  1  0.750000  0.100163  0.671645  1
  Y  Y14  1  0.750000  0.600163  0.828355  1
  Y  Y15  1  0.250000  0.399837  0.171645  1
  C  C16  1  0.250000  0.614863  0.750603  1
  C  C17  1  0.750000  0.385137  0.249397  1
  C  C18  1  0.750000  0.885137  0.250603  1
  C  C19  1  0.250000  0.114863  0.749397  1
  C  C20  1  0.250000  0.632814  0.156571  1
  C  C21  1  0.750000  0.367186  0.843429  1
  C  C22  1  0.750000  0.867186  0.656571  1
  C  C23  1  0.250000  0.132814  0.343429  1
  Br  Br24  1  0.250000  0.611657  0.557033  1
  Br  Br25  1  0.750000  0.388343  0.442967  1
  Br  Br26  1  0.750000  0.888343  0.057033  1
  Br  Br27  1  0.250000  0.111657  0.942967  1
  Br  Br28  1  0.250000  0.627812  0.953803  1
  Br  Br29  1  0.750000  0.372188  0.046197  1
  Br  Br30  1  0.750000  0.872188  0.453803  1
  Br  Br31  1  0.250000  0.127812  0.546197  1
  Br  Br32  1  0.250000  0.636131  0.357108  1
  Br  Br33  1  0.750000  0.363869  0.642892  1
  Br  Br34  1  0.750000  0.863869  0.857108  1
  Br  Br35  1  0.250000  0.136131  0.142892  1
