# generated using pymatgen
data_LaGe(AsRh2)3
_symmetry_space_group_name_H-M   'P 1'
_cell_length_a   7.25918900
_cell_length_b   7.25918831
_cell_length_c   3.93560000
_cell_angle_alpha   90.00000000
_cell_angle_beta   90.00000000
_cell_angle_gamma   120.00000770
_symmetry_Int_Tables_number   1
_chemical_formula_structural   LaGe(AsRh2)3
_chemical_formula_sum   'La1 Ge1 As3 Rh6'
_cell_volume   179.60470784
_cell_formula_units_Z   1
loop_
 _symmetry_equiv_pos_site_id
 _symmetry_equiv_pos_as_xyz
  1  'x, y, z'
loop_
 _atom_site_type_symbol
 _atom_site_label
 _atom_site_symmetry_multiplicity
 _atom_site_fract_x
 _atom_site_fract_y
 _atom_site_fract_z
 _atom_site_occupancy
  La  La0  1  0.000000  0.000000  0.000000  1
  Ge  Ge1  1  0.666667  0.333333  0.000000  1
  As  As2  1  0.193483  0.386967  0.500000  1
  As  As3  1  0.613033  0.806517  0.500000  1
  As  As4  1  0.193483  0.806517  0.500000  1
  Rh  Rh5  1  0.465663  0.931327  0.000000  1
  Rh  Rh6  1  0.068673  0.534337  0.000000  1
  Rh  Rh7  1  0.465663  0.534337  0.000000  1
  Rh  Rh8  1  0.799699  0.599399  0.500000  1
  Rh  Rh9  1  0.400601  0.200301  0.500000  1
  Rh  Rh10  1  0.799699  0.200301  0.500000  1
