# generated using pymatgen
data_Li3Pr4ZrPt4
_symmetry_space_group_name_H-M   'P 1'
_cell_length_a   4.25600700
_cell_length_b   7.25816450
_cell_length_c   8.79134246
_cell_angle_alpha   88.21235441
_cell_angle_beta   90.00000000
_cell_angle_gamma   90.00000000
_symmetry_Int_Tables_number   1
_chemical_formula_structural   Li3Pr4ZrPt4
_chemical_formula_sum   'Li3 Pr4 Zr1 Pt4'
_cell_volume   271.43942097
_cell_formula_units_Z   1
loop_
 _symmetry_equiv_pos_site_id
 _symmetry_equiv_pos_as_xyz
  1  'x, y, z'
loop_
 _atom_site_type_symbol
 _atom_site_label
 _atom_site_symmetry_multiplicity
 _atom_site_fract_x
 _atom_site_fract_y
 _atom_site_fract_z
 _atom_site_occupancy
  Li  Li0  1  0.250000  0.139326  0.067409  1
  Li  Li1  1  0.750000  0.374619  0.554819  1
  Li  Li2  1  0.250000  0.632451  0.439734  1
  Pr  Pr3  1  0.250000  0.521555  0.805237  1
  Pr  Pr4  1  0.250000  0.044156  0.671874  1
  Pr  Pr5  1  0.750000  0.962926  0.325069  1
  Pr  Pr6  1  0.750000  0.461341  0.190074  1
  Zr  Zr7  1  0.750000  0.872026  0.943520  1
  Pt  Pt8  1  0.250000  0.748103  0.100225  1
  Pt  Pt9  1  0.250000  0.256267  0.381544  1
  Pt  Pt10  1  0.750000  0.751042  0.634206  1
  Pt  Pt11  1  0.750000  0.236188  0.886290  1
