# generated using pymatgen
data_Pr2B8OsRu6
_symmetry_space_group_name_H-M   'P 1'
_cell_length_a   6.47353400
_cell_length_b   6.47353400
_cell_length_c   10.16201600
_cell_angle_alpha   90.00000000
_cell_angle_beta   90.00000000
_cell_angle_gamma   90.00000000
_symmetry_Int_Tables_number   1
_chemical_formula_structural   Pr2B8OsRu6
_chemical_formula_sum   'Pr4 B16 Os2 Ru12'
_cell_volume   425.85597107
_cell_formula_units_Z   2
loop_
 _symmetry_equiv_pos_site_id
 _symmetry_equiv_pos_as_xyz
  1  'x, y, z'
loop_
 _atom_site_type_symbol
 _atom_site_label
 _atom_site_symmetry_multiplicity
 _atom_site_fract_x
 _atom_site_fract_y
 _atom_site_fract_z
 _atom_site_occupancy
  Pr  Pr0  1  0.735017  0.878556  0.000000  1
  Pr  Pr1  1  0.121444  0.735017  0.500000  1
  Pr  Pr2  1  0.878556  0.264983  0.500000  1
  Pr  Pr3  1  0.264983  0.121444  0.000000  1
  B  B4  1  0.500000  0.000000  0.588987  1
  B  B5  1  0.500000  0.000000  0.411013  1
  B  B6  1  0.897462  0.273626  0.167378  1
  B  B7  1  0.102538  0.726374  0.832622  1
  B  B8  1  0.500000  0.500000  0.340614  1
  B  B9  1  0.500000  0.500000  0.840614  1
  B  B10  1  0.273626  0.102538  0.667378  1
  B  B11  1  0.102538  0.726374  0.167378  1
  B  B12  1  0.273626  0.102538  0.332622  1
  B  B13  1  0.897462  0.273626  0.832622  1
  B  B14  1  0.500000  0.500000  0.659386  1
  B  B15  1  0.500000  0.500000  0.159386  1
  B  B16  1  0.000000  0.500000  0.911013  1
  B  B17  1  0.726374  0.897462  0.667378  1
  B  B18  1  0.726374  0.897462  0.332622  1
  B  B19  1  0.000000  0.500000  0.088987  1
  Os  Os20  1  0.000000  0.000000  0.250000  1
  Os  Os21  1  0.000000  0.000000  0.750000  1
  Ru  Ru22  1  0.204458  0.399724  0.752470  1
  Ru  Ru23  1  0.399802  0.287438  0.500000  1
  Ru  Ru24  1  0.399724  0.795542  0.252470  1
  Ru  Ru25  1  0.204458  0.399724  0.247530  1
  Ru  Ru26  1  0.600198  0.712562  0.500000  1
  Ru  Ru27  1  0.600276  0.204458  0.747530  1
  Ru  Ru28  1  0.287438  0.600198  0.000000  1
  Ru  Ru29  1  0.712562  0.399802  0.000000  1
  Ru  Ru30  1  0.795542  0.600276  0.247530  1
  Ru  Ru31  1  0.795542  0.600276  0.752470  1
  Ru  Ru32  1  0.399724  0.795542  0.747530  1
  Ru  Ru33  1  0.600276  0.204458  0.252470  1
