# generated using pymatgen
data_La4TbB4Pd7Rh8
_symmetry_space_group_name_H-M   'P 1'
_cell_length_a   4.27781200
_cell_length_b   4.27781200
_cell_length_c   21.36200800
_cell_angle_alpha   90.00000000
_cell_angle_beta   90.00000000
_cell_angle_gamma   90.00000000
_symmetry_Int_Tables_number   1
_chemical_formula_structural   La4TbB4Pd7Rh8
_chemical_formula_sum   'La4 Tb1 B4 Pd7 Rh8'
_cell_volume   390.91781459
_cell_formula_units_Z   1
loop_
 _symmetry_equiv_pos_site_id
 _symmetry_equiv_pos_as_xyz
  1  'x, y, z'
loop_
 _atom_site_type_symbol
 _atom_site_label
 _atom_site_symmetry_multiplicity
 _atom_site_fract_x
 _atom_site_fract_y
 _atom_site_fract_z
 _atom_site_occupancy
  La  La0  1  0.000000  0.000000  0.899732  1
  La  La1  1  0.000000  0.000000  0.100268  1
  La  La2  1  0.000000  0.000000  0.301834  1
  La  La3  1  0.000000  0.000000  0.698166  1
  Tb  Tb4  1  0.000000  0.000000  0.500000  1
  B  B5  1  0.500000  0.500000  0.189017  1
  B  B6  1  0.500000  0.500000  0.397779  1
  B  B7  1  0.500000  0.500000  0.602221  1
  B  B8  1  0.500000  0.500000  0.810983  1
  Pd  Pd9  1  0.500000  0.500000  0.909849  1
  Pd  Pd10  1  0.500000  0.500000  0.090151  1
  Pd  Pd11  1  0.500000  0.500000  0.296706  1
  Pd  Pd12  1  0.500000  0.500000  0.500000  1
  Pd  Pd13  1  0.500000  0.500000  0.703294  1
  Pd  Pd14  1  0.500000  0.000000  0.000000  1
  Pd  Pd15  1  0.000000  0.500000  0.000000  1
  Rh  Rh16  1  0.500000  0.000000  0.201015  1
  Rh  Rh17  1  0.500000  0.000000  0.403430  1
  Rh  Rh18  1  0.500000  0.000000  0.596570  1
  Rh  Rh19  1  0.500000  0.000000  0.798985  1
  Rh  Rh20  1  0.000000  0.500000  0.201015  1
  Rh  Rh21  1  0.000000  0.500000  0.403430  1
  Rh  Rh22  1  0.000000  0.500000  0.596570  1
  Rh  Rh23  1  0.000000  0.500000  0.798985  1
