# generated using pymatgen
data_Nb6Al8FeCu3
_symmetry_space_group_name_H-M   'P 1'
_cell_length_a   8.71642900
_cell_length_b   8.77884856
_cell_length_c   8.21657400
_cell_angle_alpha   90.00000000
_cell_angle_beta   90.00000000
_cell_angle_gamma   120.97278143
_symmetry_Int_Tables_number   1
_chemical_formula_structural   Nb6Al8FeCu3
_chemical_formula_sum   'Nb12 Al16 Fe2 Cu6'
_cell_volume   539.08397128
_cell_formula_units_Z   2
loop_
 _symmetry_equiv_pos_site_id
 _symmetry_equiv_pos_as_xyz
  1  'x, y, z'
loop_
 _atom_site_type_symbol
 _atom_site_label
 _atom_site_symmetry_multiplicity
 _atom_site_fract_x
 _atom_site_fract_y
 _atom_site_fract_z
 _atom_site_occupancy
  Nb  Nb0  1  0.324347  0.992518  0.063895  1
  Nb  Nb1  1  0.675653  0.007482  0.936105  1
  Nb  Nb2  1  0.998097  0.325400  0.066360  1
  Nb  Nb3  1  0.675653  0.007482  0.563895  1
  Nb  Nb4  1  0.998097  0.325400  0.433640  1
  Nb  Nb5  1  0.001903  0.674600  0.933640  1
  Nb  Nb6  1  0.324347  0.992518  0.436105  1
  Nb  Nb7  1  0.001903  0.674600  0.566360  1
  Nb  Nb8  1  0.671623  0.668369  0.063742  1
  Nb  Nb9  1  0.328377  0.331631  0.936258  1
  Nb  Nb10  1  0.328377  0.331631  0.563742  1
  Nb  Nb11  1  0.671623  0.668369  0.436258  1
  Al  Al12  1  0.344760  0.847683  0.750000  1
  Al  Al13  1  0.653132  0.504434  0.750000  1
  Al  Al14  1  0.655240  0.152317  0.250000  1
  Al  Al15  1  0.346868  0.495566  0.250000  1
  Al  Al16  1  0.844873  0.342885  0.750000  1
  Al  Al17  1  0.155127  0.657115  0.250000  1
  Al  Al18  1  0.339950  0.665167  0.505219  1
  Al  Al19  1  0.660050  0.334833  0.494781  1
  Al  Al20  1  0.660050  0.334833  0.005219  1
  Al  Al21  1  0.339950  0.665167  0.994781  1
  Al  Al22  1  0.177540  0.009536  0.750000  1
  Al  Al23  1  0.822460  0.990464  0.250000  1
  Al  Al24  1  0.009196  0.179125  0.750000  1
  Al  Al25  1  0.990804  0.820875  0.250000  1
  Al  Al26  1  0.827105  0.836436  0.750000  1
  Al  Al27  1  0.172895  0.163564  0.250000  1
  Fe  Fe28  1  0.000000  0.000000  0.500000  1
  Fe  Fe29  1  0.000000  0.000000  0.000000  1
  Cu  Cu30  1  0.166657  0.501984  0.750000  1
  Cu  Cu31  1  0.833343  0.498016  0.250000  1
  Cu  Cu32  1  0.504976  0.672030  0.750000  1
  Cu  Cu33  1  0.504004  0.170638  0.750000  1
  Cu  Cu34  1  0.495024  0.327970  0.250000  1
  Cu  Cu35  1  0.495996  0.829362  0.250000  1
