# generated using pymatgen
data_CaTbAlS4
_symmetry_space_group_name_H-M   'P 1'
_cell_length_a   13.80283600
_cell_length_b   8.04334900
_cell_length_c   6.28352000
_cell_angle_alpha   90.00000000
_cell_angle_beta   90.00000000
_cell_angle_gamma   90.00000000
_symmetry_Int_Tables_number   1
_chemical_formula_structural   CaTbAlS4
_chemical_formula_sum   'Ca4 Tb4 Al4 S16'
_cell_volume   697.60284444
_cell_formula_units_Z   4
loop_
 _symmetry_equiv_pos_site_id
 _symmetry_equiv_pos_as_xyz
  1  'x, y, z'
loop_
 _atom_site_type_symbol
 _atom_site_label
 _atom_site_symmetry_multiplicity
 _atom_site_fract_x
 _atom_site_fract_y
 _atom_site_fract_z
 _atom_site_occupancy
  Ca  Ca0  1  0.734256  0.750001  0.011030  1
  Ca  Ca1  1  0.234256  0.750001  0.488970  1
  Ca  Ca2  1  0.765744  0.250000  0.511030  1
  Ca  Ca3  1  0.265744  0.250000  0.988969  1
  Tb  Tb4  1  0.000000  0.000000  0.000000  1
  Tb  Tb5  1  0.000000  0.499999  0.000000  1
  Tb  Tb6  1  0.500000  0.000000  0.500000  1
  Tb  Tb7  1  0.500000  0.499999  0.500000  1
  Al  Al8  1  0.587243  0.250000  0.096171  1
  Al  Al9  1  0.087243  0.250000  0.403829  1
  Al  Al10  1  0.912757  0.750001  0.596172  1
  Al  Al11  1  0.412757  0.750001  0.903829  1
  S  S12  1  0.914213  0.750001  0.238563  1
  S  S13  1  0.160309  0.026246  0.256726  1
  S  S14  1  0.160309  0.473754  0.256726  1
  S  S15  1  0.934622  0.250000  0.257123  1
  S  S16  1  0.434622  0.250000  0.242877  1
  S  S17  1  0.660309  0.026246  0.243274  1
  S  S18  1  0.660309  0.473754  0.243274  1
  S  S19  1  0.414212  0.750001  0.261436  1
  S  S20  1  0.585787  0.250000  0.738563  1
  S  S21  1  0.339691  0.526247  0.756726  1
  S  S22  1  0.339691  0.973753  0.756726  1
  S  S23  1  0.565378  0.750001  0.757122  1
  S  S24  1  0.065378  0.750001  0.742877  1
  S  S25  1  0.839691  0.526247  0.743273  1
  S  S26  1  0.839691  0.973753  0.743273  1
  S  S27  1  0.085788  0.250000  0.761436  1
