# generated using pymatgen
data_Sc4FeCo(Si2Rh)2
_symmetry_space_group_name_H-M   'P 1'
_cell_length_a   4.06979000
_cell_length_b   6.52154236
_cell_length_c   6.99628243
_cell_angle_alpha   90.07365227
_cell_angle_beta   90.00000000
_cell_angle_gamma   90.00000000
_symmetry_Int_Tables_number   1
_chemical_formula_structural   Sc4FeCo(Si2Rh)2
_chemical_formula_sum   'Sc4 Fe1 Co1 Si4 Rh2'
_cell_volume   185.69033261
_cell_formula_units_Z   1
loop_
 _symmetry_equiv_pos_site_id
 _symmetry_equiv_pos_as_xyz
  1  'x, y, z'
loop_
 _atom_site_type_symbol
 _atom_site_label
 _atom_site_symmetry_multiplicity
 _atom_site_fract_x
 _atom_site_fract_y
 _atom_site_fract_z
 _atom_site_occupancy
  Sc  Sc0  1  0.750000  0.507794  0.806070  1
  Sc  Sc1  1  0.250000  0.001561  0.311434  1
  Sc  Sc2  1  0.750000  0.008674  0.695077  1
  Sc  Sc3  1  0.250000  0.498207  0.187253  1
  Fe  Fe4  1  0.250000  0.148797  0.937502  1
  Co  Co5  1  0.250000  0.648882  0.561882  1
  Si  Si6  1  0.250000  0.795851  0.875176  1
  Si  Si7  1  0.250000  0.295433  0.628875  1
  Si  Si8  1  0.750000  0.208820  0.096498  1
  Si  Si9  1  0.750000  0.710007  0.399496  1
  Rh  Rh10  1  0.750000  0.836603  0.061172  1
  Rh  Rh11  1  0.750000  0.339369  0.439564  1
