# generated using pymatgen
data_Cr8Cu3GeS16
_symmetry_space_group_name_H-M   'P 1'
_cell_length_a   7.01946900
_cell_length_b   7.01946900
_cell_length_c   9.92405800
_cell_angle_alpha   90.00000000
_cell_angle_beta   90.00000000
_cell_angle_gamma   90.00000000
_symmetry_Int_Tables_number   1
_chemical_formula_structural   Cr8Cu3GeS16
_chemical_formula_sum   'Cr8 Cu3 Ge1 S16'
_cell_volume   488.98756443
_cell_formula_units_Z   1
loop_
 _symmetry_equiv_pos_site_id
 _symmetry_equiv_pos_as_xyz
  1  'x, y, z'
loop_
 _atom_site_type_symbol
 _atom_site_label
 _atom_site_symmetry_multiplicity
 _atom_site_fract_x
 _atom_site_fract_y
 _atom_site_fract_z
 _atom_site_occupancy
  Cr  Cr0  1  0.250451  0.500000  0.119158  1
  Cr  Cr1  1  0.759650  0.000000  0.624145  1
  Cr  Cr2  1  0.749549  0.500000  0.119158  1
  Cr  Cr3  1  0.240350  0.000000  0.624145  1
  Cr  Cr4  1  0.000000  0.240350  0.375855  1
  Cr  Cr5  1  0.500000  0.749549  0.880842  1
  Cr  Cr6  1  0.500000  0.250451  0.880842  1
  Cr  Cr7  1  0.000000  0.759650  0.375855  1
  Cu  Cu8  1  0.000000  0.000000  0.000000  1
  Cu  Cu9  1  0.500000  0.000000  0.248523  1
  Cu  Cu10  1  0.000000  0.500000  0.751477  1
  Ge  Ge11  1  0.500000  0.500000  0.500000  1
  S  S12  1  0.773672  0.500000  0.364260  1
  S  S13  1  0.266421  0.000000  0.865772  1
  S  S14  1  0.226328  0.500000  0.364260  1
  S  S15  1  0.733579  0.000000  0.865772  1
  S  S16  1  0.500000  0.226328  0.635740  1
  S  S17  1  0.000000  0.733579  0.134228  1
  S  S18  1  0.500000  0.773672  0.635740  1
  S  S19  1  0.000000  0.266421  0.134228  1
  S  S20  1  0.233367  0.000000  0.382637  1
  S  S21  1  0.733989  0.500000  0.883409  1
  S  S22  1  0.766633  0.000000  0.382637  1
  S  S23  1  0.266011  0.500000  0.883409  1
  S  S24  1  0.500000  0.266011  0.116591  1
  S  S25  1  0.000000  0.766633  0.617363  1
  S  S26  1  0.500000  0.733989  0.116591  1
  S  S27  1  0.000000  0.233367  0.617363  1
