# generated using pymatgen
data_Ho5Co16(ReP4)3
_symmetry_space_group_name_H-M   'P 1'
_cell_length_a   12.00869400
_cell_length_b   12.00869531
_cell_length_c   3.71115900
_cell_angle_alpha   90.00000000
_cell_angle_beta   90.00000000
_cell_angle_gamma   120.00000191
_symmetry_Int_Tables_number   1
_chemical_formula_structural   Ho5Co16(ReP4)3
_chemical_formula_sum   'Ho5 Co16 Re3 P12'
_cell_volume   463.48084387
_cell_formula_units_Z   1
loop_
 _symmetry_equiv_pos_site_id
 _symmetry_equiv_pos_as_xyz
  1  'x, y, z'
loop_
 _atom_site_type_symbol
 _atom_site_label
 _atom_site_symmetry_multiplicity
 _atom_site_fract_x
 _atom_site_fract_y
 _atom_site_fract_z
 _atom_site_occupancy
  Ho  Ho0  1  0.666667  0.333333  0.000000  1
  Ho  Ho1  1  0.333333  0.666667  0.000000  1
  Ho  Ho2  1  0.815174  0.815174  0.500000  1
  Ho  Ho3  1  0.184826  0.000000  0.500000  1
  Ho  Ho4  1  0.000000  0.184826  0.500000  1
  Co  Co5  1  0.873903  0.357527  0.500000  1
  Co  Co6  1  0.642473  0.516376  0.500000  1
  Co  Co7  1  0.483624  0.126097  0.500000  1
  Co  Co8  1  0.357527  0.873903  0.500000  1
  Co  Co9  1  0.516376  0.642473  0.500000  1
  Co  Co10  1  0.126097  0.483624  0.500000  1
  Co  Co11  1  0.802785  0.178749  0.000000  1
  Co  Co12  1  0.821251  0.624034  0.000000  1
  Co  Co13  1  0.375966  0.197215  0.000000  1
  Co  Co14  1  0.178749  0.802785  0.000000  1
  Co  Co15  1  0.624034  0.821251  0.000000  1
  Co  Co16  1  0.197215  0.375966  0.000000  1
  Co  Co17  1  0.282379  0.282379  0.500000  1
  Co  Co18  1  0.717621  0.000000  0.500000  1
  Co  Co19  1  0.000000  0.717621  0.500000  1
  Co  Co20  1  0.000000  0.000000  0.000000  1
  Re  Re21  1  0.445944  0.445944  0.000000  1
  Re  Re22  1  0.554056  0.000000  0.000000  1
  Re  Re23  1  0.000000  0.554056  0.000000  1
  P  P24  1  0.686237  0.165470  0.500000  1
  P  P25  1  0.834530  0.520767  0.500000  1
  P  P26  1  0.479233  0.313763  0.500000  1
  P  P27  1  0.165470  0.686237  0.500000  1
  P  P28  1  0.520767  0.834530  0.500000  1
  P  P29  1  0.313763  0.479233  0.500000  1
  P  P30  1  0.178067  0.178067  0.000000  1
  P  P31  1  0.821933  0.000000  0.000000  1
  P  P32  1  0.000000  0.821933  0.000000  1
  P  P33  1  0.638245  0.638245  0.000000  1
  P  P34  1  0.361755  0.000000  0.000000  1
  P  P35  1  0.000000  0.361755  0.000000  1
