# generated using pymatgen
data_TbY3(Sc3Si4)2
_symmetry_space_group_name_H-M   'P 1'
_cell_length_a   7.10460956
_cell_length_b   7.38820635
_cell_length_c   14.00211275
_cell_angle_alpha   90.03493798
_cell_angle_beta   89.95457912
_cell_angle_gamma   90.00325645
_symmetry_Int_Tables_number   1
_chemical_formula_structural   TbY3(Sc3Si4)2
_chemical_formula_sum   'Tb2 Y6 Sc12 Si16'
_cell_volume   734.97503046
_cell_formula_units_Z   2
loop_
 _symmetry_equiv_pos_site_id
 _symmetry_equiv_pos_as_xyz
  1  'x, y, z'
loop_
 _atom_site_type_symbol
 _atom_site_label
 _atom_site_symmetry_multiplicity
 _atom_site_fract_x
 _atom_site_fract_y
 _atom_site_fract_z
 _atom_site_occupancy
  Tb  Tb0  1  0.512240  0.325291  0.402935  1
  Tb  Tb1  1  0.487760  0.674709  0.597065  1
  Y  Y2  1  0.011986  0.175136  0.096907  1
  Y  Y3  1  0.988014  0.824864  0.903093  1
  Y  Y4  1  0.488048  0.675025  0.902845  1
  Y  Y5  1  0.988176  0.824926  0.597012  1
  Y  Y6  1  0.511952  0.324975  0.097155  1
  Y  Y7  1  0.011824  0.175074  0.402988  1
  Sc  Sc8  1  0.160638  0.501900  0.749884  1
  Sc  Sc9  1  0.839362  0.498100  0.250116  1
  Sc  Sc10  1  0.339498  0.002093  0.250040  1
  Sc  Sc11  1  0.660502  0.997907  0.749960  1
  Sc  Sc12  1  0.330563  0.176725  0.625174  1
  Sc  Sc13  1  0.669437  0.823275  0.374826  1
  Sc  Sc14  1  0.168908  0.676877  0.374682  1
  Sc  Sc15  1  0.669172  0.823093  0.125235  1
  Sc  Sc16  1  0.831092  0.323123  0.625318  1
  Sc  Sc17  1  0.330828  0.176907  0.874765  1
  Sc  Sc18  1  0.830832  0.323311  0.874757  1
  Sc  Sc19  1  0.169168  0.676689  0.125243  1
  Si  Si20  1  0.033602  0.117991  0.750018  1
  Si  Si21  1  0.966398  0.882009  0.249982  1
  Si  Si22  1  0.466384  0.618203  0.250008  1
  Si  Si23  1  0.533616  0.381797  0.749992  1
  Si  Si24  1  0.285228  0.874436  0.749959  1
  Si  Si25  1  0.714772  0.125564  0.250041  1
  Si  Si26  1  0.214308  0.374781  0.249875  1
  Si  Si27  1  0.785692  0.625219  0.750125  1
  Si  Si28  1  0.157084  0.464353  0.539546  1
  Si  Si29  1  0.842916  0.535647  0.460454  1
  Si  Si30  1  0.342505  0.964373  0.460619  1
  Si  Si31  1  0.842632  0.535589  0.039581  1
  Si  Si32  1  0.657495  0.035627  0.539381  1
  Si  Si33  1  0.157368  0.464411  0.960419  1
  Si  Si34  1  0.657103  0.035693  0.960542  1
  Si  Si35  1  0.342897  0.964307  0.039458  1
