# generated using pymatgen
data_Rb3LiSi4
_symmetry_space_group_name_H-M   'P 1'
_cell_length_a   7.89880500
_cell_length_b   9.97398300
_cell_length_c   12.81671800
_cell_angle_alpha   90.00000000
_cell_angle_beta   90.00000000
_cell_angle_gamma   90.00000000
_symmetry_Int_Tables_number   1
_chemical_formula_structural   Rb3LiSi4
_chemical_formula_sum   'Rb12 Li4 Si16'
_cell_volume   1009.73368553
_cell_formula_units_Z   4
loop_
 _symmetry_equiv_pos_site_id
 _symmetry_equiv_pos_as_xyz
  1  'x, y, z'
loop_
 _atom_site_type_symbol
 _atom_site_label
 _atom_site_symmetry_multiplicity
 _atom_site_fract_x
 _atom_site_fract_y
 _atom_site_fract_z
 _atom_site_occupancy
  Rb  Rb0  1  0.654820  0.250000  0.398758  1
  Rb  Rb1  1  0.154820  0.250000  0.101242  1
  Rb  Rb2  1  0.345180  0.750000  0.601242  1
  Rb  Rb3  1  0.845180  0.750000  0.898758  1
  Rb  Rb4  1  0.654062  0.445282  0.693691  1
  Rb  Rb5  1  0.154062  0.054718  0.806309  1
  Rb  Rb6  1  0.345938  0.945282  0.306309  1
  Rb  Rb7  1  0.845938  0.554718  0.193691  1
  Rb  Rb8  1  0.345938  0.554718  0.306309  1
  Rb  Rb9  1  0.845938  0.945282  0.193691  1
  Rb  Rb10  1  0.654062  0.054718  0.693691  1
  Rb  Rb11  1  0.154062  0.445282  0.806309  1
  Li  Li12  1  0.500000  0.500000  0.000000  1
  Li  Li13  1  0.000000  0.000000  0.500000  1
  Li  Li14  1  0.500000  0.000000  0.000000  1
  Li  Li15  1  0.000000  0.500000  0.500000  1
  Si  Si16  1  0.361776  0.750000  0.903655  1
  Si  Si17  1  0.861776  0.750000  0.596345  1
  Si  Si18  1  0.638224  0.250000  0.096345  1
  Si  Si19  1  0.138224  0.250000  0.403655  1
  Si  Si20  1  0.720754  0.630587  0.453590  1
  Si  Si21  1  0.220754  0.869413  0.046410  1
  Si  Si22  1  0.279246  0.130587  0.546410  1
  Si  Si23  1  0.779246  0.369413  0.953590  1
  Si  Si24  1  0.014580  0.250000  0.579748  1
  Si  Si25  1  0.514580  0.250000  0.920252  1
  Si  Si26  1  0.985420  0.750000  0.420252  1
  Si  Si27  1  0.485420  0.750000  0.079748  1
  Si  Si28  1  0.220754  0.630587  0.046410  1
  Si  Si29  1  0.720754  0.869413  0.453590  1
  Si  Si30  1  0.779246  0.130587  0.953590  1
  Si  Si31  1  0.279246  0.369413  0.546410  1
