# generated using pymatgen
data_BaLi2AcSn4
_symmetry_space_group_name_H-M   'P 1'
_cell_length_a   10.34291672
_cell_length_b   10.34291680
_cell_length_c   4.70459100
_cell_angle_alpha   90.00000000
_cell_angle_beta   90.00000000
_cell_angle_gamma   153.21532970
_symmetry_Int_Tables_number   1
_chemical_formula_structural   BaLi2AcSn4
_chemical_formula_sum   'Ba1 Li2 Ac1 Sn4'
_cell_volume   226.79654136
_cell_formula_units_Z   1
loop_
 _symmetry_equiv_pos_site_id
 _symmetry_equiv_pos_as_xyz
  1  'x, y, z'
loop_
 _atom_site_type_symbol
 _atom_site_label
 _atom_site_symmetry_multiplicity
 _atom_site_fract_x
 _atom_site_fract_y
 _atom_site_fract_z
 _atom_site_occupancy
  Ba  Ba0  1  0.107545  0.892455  0.250000  1
  Li  Li1  1  0.677183  0.322817  0.750000  1
  Li  Li2  1  0.324471  0.675529  0.250000  1
  Ac  Ac3  1  0.890854  0.109146  0.750000  1
  Sn  Sn4  1  0.254093  0.745907  0.750000  1
  Sn  Sn5  1  0.752205  0.247795  0.250000  1
  Sn  Sn6  1  0.538535  0.461465  0.750000  1
  Sn  Sn7  1  0.455116  0.544884  0.250000  1
