# generated using pymatgen
data_TmLu7Re2(RuC4)2
_symmetry_space_group_name_H-M   'P 1'
_cell_length_a   4.98121400
_cell_length_b   6.43390800
_cell_length_c   9.64383794
_cell_angle_alpha   89.92037152
_cell_angle_beta   90.00000000
_cell_angle_gamma   90.00000000
_symmetry_Int_Tables_number   1
_chemical_formula_structural   TmLu7Re2(RuC4)2
_chemical_formula_sum   'Tm1 Lu7 Re2 Ru2 C8'
_cell_volume   309.07190637
_cell_formula_units_Z   1
loop_
 _symmetry_equiv_pos_site_id
 _symmetry_equiv_pos_as_xyz
  1  'x, y, z'
loop_
 _atom_site_type_symbol
 _atom_site_label
 _atom_site_symmetry_multiplicity
 _atom_site_fract_x
 _atom_site_fract_y
 _atom_site_fract_z
 _atom_site_occupancy
  Tm  Tm0  1  0.750000  0.035448  0.718057  1
  Lu  Lu1  1  0.250000  0.828055  0.943342  1
  Lu  Lu2  1  0.250000  0.323840  0.558539  1
  Lu  Lu3  1  0.750000  0.171408  0.056913  1
  Lu  Lu4  1  0.750000  0.676730  0.441259  1
  Lu  Lu5  1  0.250000  0.464856  0.217036  1
  Lu  Lu6  1  0.250000  0.964597  0.281525  1
  Lu  Lu7  1  0.750000  0.534957  0.783140  1
  Re  Re8  1  0.250000  0.785700  0.630063  1
  Re  Re9  1  0.750000  0.214185  0.369822  1
  Ru  Ru10  1  0.250000  0.285430  0.870088  1
  Ru  Ru11  1  0.750000  0.714412  0.130347  1
  C  C12  1  0.250000  0.050903  0.739621  1
  C  C13  1  0.250000  0.552443  0.757454  1
  C  C14  1  0.750000  0.948900  0.260511  1
  C  C15  1  0.750000  0.447275  0.242427  1
  C  C16  1  0.250000  0.671508  0.442458  1
  C  C17  1  0.250000  0.169791  0.057270  1
  C  C18  1  0.750000  0.330391  0.556780  1
  C  C19  1  0.750000  0.829173  0.943350  1
