# generated using pymatgen
data_Ho10Er2Co4RhPb
_symmetry_space_group_name_H-M   'P 1'
_cell_length_a   8.28168381
_cell_length_b   8.28045381
_cell_length_c   8.28168359
_cell_angle_alpha   110.92577591
_cell_angle_beta   110.60620598
_cell_angle_gamma   106.91752680
_symmetry_Int_Tables_number   1
_chemical_formula_structural   Ho10Er2Co4RhPb
_chemical_formula_sum   'Ho10 Er2 Co4 Rh1 Pb1'
_cell_volume   436.50551368
_cell_formula_units_Z   1
loop_
 _symmetry_equiv_pos_site_id
 _symmetry_equiv_pos_as_xyz
  1  'x, y, z'
loop_
 _atom_site_type_symbol
 _atom_site_label
 _atom_site_symmetry_multiplicity
 _atom_site_fract_x
 _atom_site_fract_y
 _atom_site_fract_z
 _atom_site_occupancy
  Ho  Ho0  1  0.312499  0.005720  0.693222  1
  Ho  Ho1  1  0.687501  0.994280  0.306778  1
  Ho  Ho2  1  0.185763  0.291300  0.476184  1
  Ho  Ho3  1  0.814237  0.708700  0.523816  1
  Ho  Ho4  1  0.184884  0.708700  0.894464  1
  Ho  Ho5  1  0.815116  0.291300  0.105536  1
  Ho  Ho6  1  0.407335  0.211248  0.196683  1
  Ho  Ho7  1  0.592665  0.788752  0.803317  1
  Ho  Ho8  1  0.014565  0.211248  0.803914  1
  Ho  Ho9  1  0.985435  0.788752  0.196086  1
  Er  Er10  1  0.313027  0.620003  0.306975  1
  Er  Er11  1  0.686973  0.379997  0.693025  1
  Co  Co12  1  0.111869  0.611539  0.499670  1
  Co  Co13  1  0.888131  0.388461  0.500330  1
  Co  Co14  1  0.378796  0.000000  0.378796  1
  Co  Co15  1  0.621204  0.000000  0.621204  1
  Rh  Rh16  1  0.000000  0.000000  0.000000  1
  Pb  Pb17  1  0.500000  0.500000  0.000000  1
