# generated using pymatgen
data_Tb8HfSc11Si15As
_symmetry_space_group_name_H-M   'P 1'
_cell_length_a   7.37459391
_cell_length_b   7.40005731
_cell_length_c   13.47136518
_cell_angle_alpha   89.54137475
_cell_angle_beta   89.79483592
_cell_angle_gamma   89.90935379
_symmetry_Int_Tables_number   1
_chemical_formula_structural   Tb8HfSc11Si15As
_chemical_formula_sum   'Tb8 Hf1 Sc11 Si15 As1'
_cell_volume   735.13581440
_cell_formula_units_Z   1
loop_
 _symmetry_equiv_pos_site_id
 _symmetry_equiv_pos_as_xyz
  1  'x, y, z'
loop_
 _atom_site_type_symbol
 _atom_site_label
 _atom_site_symmetry_multiplicity
 _atom_site_fract_x
 _atom_site_fract_y
 _atom_site_fract_z
 _atom_site_occupancy
  Tb  Tb0  1  0.000262  0.345999  0.213611  1
  Tb  Tb1  1  0.001114  0.654292  0.713934  1
  Tb  Tb2  1  0.149543  0.504653  0.465576  1
  Tb  Tb3  1  0.503716  0.843400  0.034260  1
  Tb  Tb4  1  0.846697  0.500948  0.964115  1
  Tb  Tb5  1  0.500211  0.152446  0.537350  1
  Tb  Tb6  1  0.346553  0.999156  0.786523  1
  Tb  Tb7  1  0.651647  0.000771  0.285105  1
  Hf  Hf8  1  0.998349  0.848336  0.122533  1
  Sc  Sc9  1  0.175756  0.175356  0.999765  1
  Sc  Sc10  1  0.825254  0.825765  0.499780  1
  Sc  Sc11  1  0.324702  0.678316  0.249621  1
  Sc  Sc12  1  0.675765  0.325258  0.750318  1
  Sc  Sc13  1  0.150052  0.001912  0.372769  1
  Sc  Sc14  1  0.852644  0.999116  0.876267  1
  Sc  Sc15  1  0.497710  0.649724  0.626413  1
  Sc  Sc16  1  0.351624  0.500570  0.874174  1
  Sc  Sc17  1  0.495892  0.347237  0.126963  1
  Sc  Sc18  1  0.651572  0.504127  0.375439  1
  Sc  Sc19  1  0.000070  0.148558  0.623941  1
  Si  Si20  1  0.639593  0.707753  0.817179  1
  Si  Si21  1  0.207741  0.863032  0.567284  1
  Si  Si22  1  0.138680  0.792895  0.932274  1
  Si  Si23  1  0.793136  0.136371  0.070654  1
  Si  Si24  1  0.861187  0.207829  0.431245  1
  Si  Si25  1  0.291590  0.360942  0.682310  1
  Si  Si26  1  0.707785  0.636434  0.181015  1
  Si  Si27  1  0.289174  0.035872  0.178328  1
  Si  Si28  1  0.707928  0.948039  0.687020  1
  Si  Si29  1  0.449269  0.795457  0.436698  1
  Si  Si30  1  0.206584  0.550345  0.064439  1
  Si  Si31  1  0.552165  0.206938  0.936833  1
  Si  Si32  1  0.791053  0.448743  0.564155  1
  Si  Si33  1  0.051392  0.292861  0.813080  1
  Si  Si34  1  0.950080  0.708786  0.312231  1
  As  As35  1  0.363513  0.301765  0.326796  1
