# generated using pymatgen
data_Er3Zn3CoCu2
_symmetry_space_group_name_H-M   'P 1'
_cell_length_a   7.13239300
_cell_length_b   7.13239366
_cell_length_c   3.71370100
_cell_angle_alpha   90.00000000
_cell_angle_beta   90.00000000
_cell_angle_gamma   120.00000158
_symmetry_Int_Tables_number   1
_chemical_formula_structural   Er3Zn3CoCu2
_chemical_formula_sum   'Er3 Zn3 Co1 Cu2'
_cell_volume   163.60935394
_cell_formula_units_Z   1
loop_
 _symmetry_equiv_pos_site_id
 _symmetry_equiv_pos_as_xyz
  1  'x, y, z'
loop_
 _atom_site_type_symbol
 _atom_site_label
 _atom_site_symmetry_multiplicity
 _atom_site_fract_x
 _atom_site_fract_y
 _atom_site_fract_z
 _atom_site_occupancy
  Er  Er0  1  0.421703  0.017327  0.000000  1
  Er  Er1  1  0.982673  0.404376  0.000000  1
  Er  Er2  1  0.595624  0.578298  0.000000  1
  Zn  Zn3  1  0.750915  0.005452  0.500000  1
  Zn  Zn4  1  0.254536  0.249085  0.500000  1
  Zn  Zn5  1  0.994548  0.745464  0.500000  1
  Co  Co6  1  0.666666  0.333334  0.500000  1
  Cu  Cu7  1  0.000000  0.000000  0.000000  1
  Cu  Cu8  1  0.333334  0.666667  0.500000  1
