# generated using pymatgen
data_Re2TcOs3Ru2
_symmetry_space_group_name_H-M   'P 1'
_cell_length_a   5.54239526
_cell_length_b   5.53569778
_cell_length_c   4.35062400
_cell_angle_alpha   90.00000000
_cell_angle_beta   90.00000000
_cell_angle_gamma   120.00521757
_symmetry_Int_Tables_number   1
_chemical_formula_structural   Re2TcOs3Ru2
_chemical_formula_sum   'Re2 Tc1 Os3 Ru2'
_cell_volume   115.59238208
_cell_formula_units_Z   1
loop_
 _symmetry_equiv_pos_site_id
 _symmetry_equiv_pos_as_xyz
  1  'x, y, z'
loop_
 _atom_site_type_symbol
 _atom_site_label
 _atom_site_symmetry_multiplicity
 _atom_site_fract_x
 _atom_site_fract_y
 _atom_site_fract_z
 _atom_site_occupancy
  Re  Re0  1  0.335168  0.666368  0.750000  1
  Re  Re1  1  0.665121  0.335281  0.250000  1
  Tc  Tc2  1  0.170261  0.334908  0.250000  1
  Os  Os3  1  0.664413  0.828689  0.250000  1
  Os  Os4  1  0.830592  0.665311  0.750000  1
  Os  Os5  1  0.335702  0.170185  0.750000  1
  Ru  Ru6  1  0.165712  0.831728  0.250000  1
  Ru  Ru7  1  0.833033  0.167531  0.750000  1
