# generated using pymatgen
data_PrHo2RuO7
_symmetry_space_group_name_H-M   'P 1'
_cell_length_a   6.44987834
_cell_length_b   6.44987822
_cell_length_c   7.50686300
_cell_angle_alpha   90.00000000
_cell_angle_beta   90.00000000
_cell_angle_gamma   110.21001025
_symmetry_Int_Tables_number   1
_chemical_formula_structural   PrHo2RuO7
_chemical_formula_sum   'Pr2 Ho4 Ru2 O14'
_cell_volume   293.06547007
_cell_formula_units_Z   2
loop_
 _symmetry_equiv_pos_site_id
 _symmetry_equiv_pos_as_xyz
  1  'x, y, z'
loop_
 _atom_site_type_symbol
 _atom_site_label
 _atom_site_symmetry_multiplicity
 _atom_site_fract_x
 _atom_site_fract_y
 _atom_site_fract_z
 _atom_site_occupancy
  Pr  Pr0  1  0.000000  0.000000  0.500000  1
  Pr  Pr1  1  0.000000  0.000000  0.000000  1
  Ho  Ho2  1  0.481139  0.929249  0.750000  1
  Ho  Ho3  1  0.518861  0.070751  0.250000  1
  Ho  Ho4  1  0.929249  0.481139  0.750000  1
  Ho  Ho5  1  0.070751  0.518861  0.250000  1
  Ru  Ru6  1  0.500000  0.500000  0.500000  1
  Ru  Ru7  1  0.500000  0.500000  0.000000  1
  O  O8  1  0.590314  0.590314  0.750000  1
  O  O9  1  0.409686  0.409686  0.250000  1
  O  O10  1  0.835301  0.117996  0.750000  1
  O  O11  1  0.164699  0.882004  0.250000  1
  O  O12  1  0.117996  0.835301  0.750000  1
  O  O13  1  0.882004  0.164699  0.250000  1
  O  O14  1  0.440887  0.181260  0.962691  1
  O  O15  1  0.559113  0.818740  0.462691  1
  O  O16  1  0.181260  0.440887  0.962691  1
  O  O17  1  0.818740  0.559113  0.462691  1
  O  O18  1  0.440887  0.181260  0.537309  1
  O  O19  1  0.559113  0.818740  0.037309  1
  O  O20  1  0.818740  0.559113  0.037309  1
  O  O21  1  0.181260  0.440887  0.537309  1
