# generated using pymatgen
data_Y8ZnIn3
_symmetry_space_group_name_H-M   'P 1'
_cell_length_a   10.69711800
_cell_length_b   10.69711682
_cell_length_c   6.82443700
_cell_angle_alpha   90.00000000
_cell_angle_beta   90.00000000
_cell_angle_gamma   120.00000982
_symmetry_Int_Tables_number   1
_chemical_formula_structural   Y8ZnIn3
_chemical_formula_sum   'Y16 Zn2 In6'
_cell_volume   676.28685008
_cell_formula_units_Z   2
loop_
 _symmetry_equiv_pos_site_id
 _symmetry_equiv_pos_as_xyz
  1  'x, y, z'
loop_
 _atom_site_type_symbol
 _atom_site_label
 _atom_site_symmetry_multiplicity
 _atom_site_fract_x
 _atom_site_fract_y
 _atom_site_fract_z
 _atom_site_occupancy
  Y  Y0  1  0.522404  0.044806  0.518105  1
  Y  Y1  1  0.955194  0.477596  0.518105  1
  Y  Y2  1  0.522404  0.477596  0.518105  1
  Y  Y3  1  0.477596  0.955194  0.018105  1
  Y  Y4  1  0.044806  0.522404  0.018105  1
  Y  Y5  1  0.477596  0.522404  0.018105  1
  Y  Y6  1  0.172392  0.344785  0.732443  1
  Y  Y7  1  0.655215  0.827608  0.732443  1
  Y  Y8  1  0.172392  0.827608  0.732443  1
  Y  Y9  1  0.827608  0.655215  0.232443  1
  Y  Y10  1  0.344785  0.172392  0.232443  1
  Y  Y11  1  0.827608  0.172392  0.232443  1
  Y  Y12  1  0.666667  0.333333  0.869551  1
  Y  Y13  1  0.333333  0.666667  0.369551  1
  Y  Y14  1  0.000000  0.000000  0.497330  1
  Y  Y15  1  0.000000  0.000000  0.997330  1
  Zn  Zn16  1  0.666667  0.333333  0.299467  1
  Zn  Zn17  1  0.333333  0.666667  0.799467  1
  In  In18  1  0.835588  0.671175  0.751369  1
  In  In19  1  0.328825  0.164412  0.751369  1
  In  In20  1  0.835588  0.164412  0.751369  1
  In  In21  1  0.164412  0.328825  0.251369  1
  In  In22  1  0.671175  0.835588  0.251369  1
  In  In23  1  0.164412  0.835588  0.251369  1
