# generated using pymatgen
data_Y6Ni17P12W
_symmetry_space_group_name_H-M   'P 1'
_cell_length_a   3.76727000
_cell_length_b   10.57150300
_cell_length_c   12.33558900
_cell_angle_alpha   90.00042968
_cell_angle_beta   90.00233819
_cell_angle_gamma   89.99999458
_symmetry_Int_Tables_number   1
_chemical_formula_structural   Y6Ni17P12W
_chemical_formula_sum   'Y6 Ni17 P12 W1'
_cell_volume   491.27354196
_cell_formula_units_Z   1
loop_
 _symmetry_equiv_pos_site_id
 _symmetry_equiv_pos_as_xyz
  1  'x, y, z'
loop_
 _atom_site_type_symbol
 _atom_site_label
 _atom_site_symmetry_multiplicity
 _atom_site_fract_x
 _atom_site_fract_y
 _atom_site_fract_z
 _atom_site_occupancy
  Y  Y0  1  0.751806  0.999999  0.475768  1
  Y  Y1  1  0.251842  0.500004  0.519730  1
  Y  Y2  1  0.251808  0.682002  0.793688  1
  Y  Y3  1  0.251798  0.318003  0.793694  1
  Y  Y4  1  0.751783  0.815934  0.206309  1
  Y  Y5  1  0.751781  0.184066  0.206310  1
  Ni  Ni6  1  0.751813  0.000002  0.014990  1
  Ni  Ni7  1  0.251990  0.500001  0.983907  1
  Ni  Ni8  1  0.251801  0.198921  0.571135  1
  Ni  Ni9  1  0.251778  0.801019  0.571075  1
  Ni  Ni10  1  0.751863  0.301593  0.428119  1
  Ni  Ni11  1  0.751851  0.698407  0.428111  1
  Ni  Ni12  1  0.251928  0.620670  0.288549  1
  Ni  Ni13  1  0.251931  0.379337  0.288548  1
  Ni  Ni14  1  0.751854  0.880075  0.710260  1
  Ni  Ni15  1  0.751849  0.119932  0.710279  1
  Ni  Ni16  1  0.251870  0.170208  0.010334  1
  Ni  Ni17  1  0.251873  0.829799  0.010325  1
  Ni  Ni18  1  0.751941  0.336923  0.994713  1
  Ni  Ni19  1  0.751944  0.663085  0.994718  1
  Ni  Ni20  1  0.751434  0.500002  0.159628  1
  Ni  Ni21  1  0.251735  0.999999  0.299087  1
  Ni  Ni22  1  0.751892  0.500003  0.699779  1
  P  P23  1  0.251864  0.187020  0.385034  1
  P  P24  1  0.251862  0.812987  0.385022  1
  P  P25  1  0.751783  0.314453  0.613368  1
  P  P26  1  0.751804  0.685548  0.613367  1
  P  P27  1  0.251781  0.000001  0.121480  1
  P  P28  1  0.751820  0.500004  0.876155  1
  P  P29  1  0.251724  0.650136  0.107906  1
  P  P30  1  0.251720  0.349868  0.107906  1
  P  P31  1  0.751808  0.843003  0.894257  1
  P  P32  1  0.751804  0.156997  0.894264  1
  P  P33  1  0.251829  0.999997  0.651117  1
  P  P34  1  0.751868  0.500000  0.344430  1
  W  W35  1  0.251771  0.000001  0.846635  1
