# generated using pymatgen
data_Dy4Y7In9Co4
_symmetry_space_group_name_H-M   'P 1'
_cell_length_a   13.02863145
_cell_length_b   13.02863140
_cell_length_c   3.62210600
_cell_angle_alpha   90.00000000
_cell_angle_beta   90.00000000
_cell_angle_gamma   112.49300707
_symmetry_Int_Tables_number   1
_chemical_formula_structural   Dy4Y7In9Co4
_chemical_formula_sum   'Dy4 Y7 In9 Co4'
_cell_volume   568.06240704
_cell_formula_units_Z   1
loop_
 _symmetry_equiv_pos_site_id
 _symmetry_equiv_pos_as_xyz
  1  'x, y, z'
loop_
 _atom_site_type_symbol
 _atom_site_label
 _atom_site_symmetry_multiplicity
 _atom_site_fract_x
 _atom_site_fract_y
 _atom_site_fract_z
 _atom_site_occupancy
  Dy  Dy0  1  0.081601  0.417200  0.000000  1
  Dy  Dy1  1  0.918399  0.582800  0.000000  1
  Dy  Dy2  1  0.417200  0.081601  0.000000  1
  Dy  Dy3  1  0.582800  0.918399  0.000000  1
  Y  Y4  1  0.624938  0.375062  0.000000  1
  Y  Y5  1  0.375062  0.624938  0.000000  1
  Y  Y6  1  0.838225  0.161775  0.000000  1
  Y  Y7  1  0.161775  0.838225  0.000000  1
  Y  Y8  1  0.000000  0.000000  0.000000  1
  Y  Y9  1  0.312895  0.312895  0.000000  1
  Y  Y10  1  0.687105  0.687105  0.000000  1
  In  In11  1  0.840743  0.369535  0.500000  1
  In  In12  1  0.159257  0.630465  0.500000  1
  In  In13  1  0.369535  0.840743  0.500000  1
  In  In14  1  0.630465  0.159257  0.500000  1
  In  In15  1  0.078067  0.220219  0.500000  1
  In  In16  1  0.921933  0.779781  0.500000  1
  In  In17  1  0.220219  0.078067  0.500000  1
  In  In18  1  0.779781  0.921933  0.500000  1
  In  In19  1  0.500000  0.500000  0.500000  1
  Co  Co20  1  0.244941  0.447978  0.500000  1
  Co  Co21  1  0.755059  0.552022  0.500000  1
  Co  Co22  1  0.447978  0.244941  0.500000  1
  Co  Co23  1  0.552022  0.755059  0.500000  1
