# generated using pymatgen
data_YbLu4(In2Pt)2
_symmetry_space_group_name_H-M   'P 1'
_cell_length_a   3.59196600
_cell_length_b   8.04679100
_cell_length_c   18.06893900
_cell_angle_alpha   90.00000000
_cell_angle_beta   90.00000000
_cell_angle_gamma   90.00000000
_symmetry_Int_Tables_number   1
_chemical_formula_structural   YbLu4(In2Pt)2
_chemical_formula_sum   'Yb2 Lu8 In8 Pt4'
_cell_volume   522.26099331
_cell_formula_units_Z   2
loop_
 _symmetry_equiv_pos_site_id
 _symmetry_equiv_pos_as_xyz
  1  'x, y, z'
loop_
 _atom_site_type_symbol
 _atom_site_label
 _atom_site_symmetry_multiplicity
 _atom_site_fract_x
 _atom_site_fract_y
 _atom_site_fract_z
 _atom_site_occupancy
  Yb  Yb0  1  0.000000  0.000000  0.000000  1
  Yb  Yb1  1  0.000000  0.500000  0.500000  1
  Lu  Lu2  1  0.000000  0.117817  0.413680  1
  Lu  Lu3  1  0.000000  0.882183  0.586320  1
  Lu  Lu4  1  0.000000  0.382183  0.913680  1
  Lu  Lu5  1  0.000000  0.617817  0.086320  1
  Lu  Lu6  1  0.000000  0.244175  0.221049  1
  Lu  Lu7  1  0.000000  0.755825  0.778951  1
  Lu  Lu8  1  0.000000  0.255825  0.721049  1
  Lu  Lu9  1  0.000000  0.744175  0.278951  1
  In  In10  1  0.500000  0.425534  0.351664  1
  In  In11  1  0.500000  0.574466  0.648336  1
  In  In12  1  0.500000  0.074466  0.851664  1
  In  In13  1  0.500000  0.925534  0.148336  1
  In  In14  1  0.500000  0.294465  0.066593  1
  In  In15  1  0.500000  0.705535  0.933407  1
  In  In16  1  0.500000  0.205535  0.566593  1
  In  In17  1  0.500000  0.794465  0.433407  1
  Pt  Pt18  1  0.500000  0.024032  0.303283  1
  Pt  Pt19  1  0.500000  0.975968  0.696717  1
  Pt  Pt20  1  0.500000  0.475968  0.803283  1
  Pt  Pt21  1  0.500000  0.524032  0.196717  1
