# generated using pymatgen
data_La3Ce4PrTe8
_symmetry_space_group_name_H-M   'P 1'
_cell_length_a   9.06587364
_cell_length_b   9.09593511
_cell_length_c   9.09593500
_cell_angle_alpha   60.00000405
_cell_angle_beta   59.89025444
_cell_angle_gamma   59.89025772
_symmetry_Int_Tables_number   1
_chemical_formula_structural   La3Ce4PrTe8
_chemical_formula_sum   'La3 Ce4 Pr1 Te8'
_cell_volume   529.50124458
_cell_formula_units_Z   1
loop_
 _symmetry_equiv_pos_site_id
 _symmetry_equiv_pos_as_xyz
  1  'x, y, z'
loop_
 _atom_site_type_symbol
 _atom_site_label
 _atom_site_symmetry_multiplicity
 _atom_site_fract_x
 _atom_site_fract_y
 _atom_site_fract_z
 _atom_site_occupancy
  La  La0  1  0.625000  0.125000  0.625000  1
  La  La1  1  0.625000  0.625000  0.625000  1
  La  La2  1  0.625000  0.625000  0.125000  1
  Ce  Ce3  1  0.125000  0.625000  0.125000  1
  Ce  Ce4  1  0.125000  0.125000  0.625000  1
  Ce  Ce5  1  0.625000  0.125000  0.125000  1
  Ce  Ce6  1  0.125000  0.125000  0.125000  1
  Pr  Pr7  1  0.125000  0.625000  0.625000  1
  Te  Te8  1  0.373118  0.879303  0.373789  1
  Te  Te9  1  0.876882  0.370697  0.876211  1
  Te  Te10  1  0.876882  0.876211  0.370697  1
  Te  Te11  1  0.876882  0.876211  0.876211  1
  Te  Te12  1  0.880605  0.373131  0.373131  1
  Te  Te13  1  0.373118  0.373789  0.879303  1
  Te  Te14  1  0.373118  0.373789  0.373789  1
  Te  Te15  1  0.369395  0.876869  0.876869  1
