# generated using pymatgen
data_Nd2Np5PaH24
_symmetry_space_group_name_H-M   'P 1'
_cell_length_a   6.71540300
_cell_length_b   6.70857400
_cell_length_c   6.67360200
_cell_angle_alpha   90.00000000
_cell_angle_beta   90.00000000
_cell_angle_gamma   90.00000000
_symmetry_Int_Tables_number   1
_chemical_formula_structural   Nd2Np5PaH24
_chemical_formula_sum   'Nd2 Np5 Pa1 H24'
_cell_volume   300.65096193
_cell_formula_units_Z   1
loop_
 _symmetry_equiv_pos_site_id
 _symmetry_equiv_pos_as_xyz
  1  'x, y, z'
loop_
 _atom_site_type_symbol
 _atom_site_label
 _atom_site_symmetry_multiplicity
 _atom_site_fract_x
 _atom_site_fract_y
 _atom_site_fract_z
 _atom_site_occupancy
  Nd  Nd0  1  0.247584  0.000000  0.500000  1
  Nd  Nd1  1  0.752416  0.000000  0.500000  1
  Np  Np2  1  0.000000  0.000000  0.000000  1
  Np  Np3  1  0.000000  0.500000  0.248144  1
  Np  Np4  1  0.000000  0.500000  0.751856  1
  Np  Np5  1  0.500000  0.751432  0.000000  1
  Np  Np6  1  0.500000  0.248568  0.000000  1
  Pa  Pa7  1  0.500000  0.500000  0.500000  1
  H  H8  1  0.000000  0.159708  0.296834  1
  H  H9  1  0.500000  0.206757  0.659182  1
  H  H10  1  0.500000  0.793243  0.340818  1
  H  H11  1  0.802843  0.647817  0.500000  1
  H  H12  1  0.197157  0.647817  0.500000  1
  H  H13  1  0.344655  0.500000  0.800992  1
  H  H14  1  0.655345  0.500000  0.800992  1
  H  H15  1  0.306877  0.000000  0.149083  1
  H  H16  1  0.155746  0.303831  0.000000  1
  H  H17  1  0.844254  0.696169  0.000000  1
  H  H18  1  0.306877  0.000000  0.850917  1
  H  H19  1  0.844254  0.303831  0.000000  1
  H  H20  1  0.693123  0.000000  0.149083  1
  H  H21  1  0.693123  0.000000  0.850917  1
  H  H22  1  0.155746  0.696169  0.000000  1
  H  H23  1  0.000000  0.840292  0.703166  1
  H  H24  1  0.000000  0.159708  0.703166  1
  H  H25  1  0.000000  0.840292  0.296834  1
  H  H26  1  0.655345  0.500000  0.199008  1
  H  H27  1  0.344655  0.500000  0.199008  1
  H  H28  1  0.802843  0.352183  0.500000  1
  H  H29  1  0.197157  0.352183  0.500000  1
  H  H30  1  0.500000  0.793243  0.659182  1
  H  H31  1  0.500000  0.206757  0.340818  1
