# generated using pymatgen
data_HoLu10ScPb10
_symmetry_space_group_name_H-M   'P 1'
_cell_length_a   11.53653896
_cell_length_b   11.53523186
_cell_length_c   11.54182302
_cell_angle_alpha   147.39788151
_cell_angle_beta   132.44890695
_cell_angle_gamma   58.78307720
_symmetry_Int_Tables_number   1
_chemical_formula_structural   HoLu10ScPb10
_chemical_formula_sum   'Ho1 Lu10 Sc1 Pb10'
_cell_volume   605.73983354
_cell_formula_units_Z   1
loop_
 _symmetry_equiv_pos_site_id
 _symmetry_equiv_pos_as_xyz
  1  'x, y, z'
loop_
 _atom_site_type_symbol
 _atom_site_label
 _atom_site_symmetry_multiplicity
 _atom_site_fract_x
 _atom_site_fract_y
 _atom_site_fract_z
 _atom_site_occupancy
  Ho  Ho0  1  0.747236  0.359196  0.389095  1
  Lu  Lu1  1  0.696056  0.945802  0.250051  1
  Lu  Lu2  1  0.251859  0.640103  0.610459  1
  Lu  Lu3  1  0.674442  0.940483  0.733278  1
  Lu  Lu4  1  0.029853  0.141443  0.889743  1
  Lu  Lu5  1  0.970207  0.857957  0.110992  1
  Lu  Lu6  1  0.793646  0.560180  0.234352  1
  Lu  Lu7  1  0.206678  0.441066  0.766246  1
  Lu  Lu8  1  0.303703  0.053646  0.749841  1
  Lu  Lu9  1  0.326198  0.059279  0.265962  1
  Lu  Lu10  1  0.304212  0.554377  0.250076  1
  Sc  Sc11  1  0.694768  0.444678  0.750142  1
  Pb  Pb12  1  0.478130  0.570385  0.895863  1
  Pb  Pb13  1  0.598209  0.787718  0.799962  1
  Pb  Pb14  1  0.674730  0.082391  0.604212  1
  Pb  Pb15  1  0.000503  0.750899  0.750690  1
  Pb  Pb16  1  0.988699  0.298158  0.701439  1
  Pb  Pb17  1  0.522534  0.424764  0.096707  1
  Pb  Pb18  1  0.007667  0.703625  0.298757  1
  Pb  Pb19  1  0.404739  0.208841  0.201149  1
  Pb  Pb20  1  0.325582  0.925372  0.401327  1
  Pb  Pb21  1  0.000348  0.249634  0.249656  1
