# generated using pymatgen
data_Tb6YCoI12
_symmetry_space_group_name_H-M   'P 1'
_cell_length_a   9.77991350
_cell_length_b   9.77991368
_cell_length_c   9.77991416
_cell_angle_alpha   106.86184804
_cell_angle_beta   106.86184301
_cell_angle_gamma   106.86185140
_symmetry_Int_Tables_number   1
_chemical_formula_structural   Tb6YCoI12
_chemical_formula_sum   'Tb6 Y1 Co1 I12'
_cell_volume   781.94119531
_cell_formula_units_Z   1
loop_
 _symmetry_equiv_pos_site_id
 _symmetry_equiv_pos_as_xyz
  1  'x, y, z'
loop_
 _atom_site_type_symbol
 _atom_site_label
 _atom_site_symmetry_multiplicity
 _atom_site_fract_x
 _atom_site_fract_y
 _atom_site_fract_z
 _atom_site_occupancy
  Tb  Tb0  1  0.022131  0.092277  0.288550  1
  Tb  Tb1  1  0.092277  0.288550  0.022131  1
  Tb  Tb2  1  0.288550  0.022131  0.092277  1
  Tb  Tb3  1  0.977869  0.907723  0.711450  1
  Tb  Tb4  1  0.907723  0.711450  0.977869  1
  Tb  Tb5  1  0.711450  0.977869  0.907723  1
  Y  Y6  1  0.500000  0.500000  0.500000  1
  Co  Co7  1  0.000000  0.000000  0.000000  1
  I  I8  1  0.161334  0.463629  0.386639  1
  I  I9  1  0.463629  0.386639  0.161334  1
  I  I10  1  0.386639  0.161334  0.463629  1
  I  I11  1  0.838666  0.536371  0.613361  1
  I  I12  1  0.536371  0.613361  0.838666  1
  I  I13  1  0.613361  0.838666  0.536371  1
  I  I14  1  0.678199  0.071835  0.225061  1
  I  I15  1  0.071835  0.225061  0.678199  1
  I  I16  1  0.225061  0.678199  0.071835  1
  I  I17  1  0.321801  0.928165  0.774939  1
  I  I18  1  0.928165  0.774939  0.321801  1
  I  I19  1  0.774939  0.321801  0.928165  1
