# generated using pymatgen
data_Tb2Y2IrRh3O14
_symmetry_space_group_name_H-M   'P 1'
_cell_length_a   7.25783892
_cell_length_b   7.26572914
_cell_length_c   7.25783925
_cell_angle_alpha   59.89981112
_cell_angle_beta   59.86530498
_cell_angle_gamma   59.89981920
_symmetry_Int_Tables_number   1
_chemical_formula_structural   Tb2Y2IrRh3O14
_chemical_formula_sum   'Tb2 Y2 Ir1 Rh3 O14'
_cell_volume   269.94597765
_cell_formula_units_Z   1
loop_
 _symmetry_equiv_pos_site_id
 _symmetry_equiv_pos_as_xyz
  1  'x, y, z'
loop_
 _atom_site_type_symbol
 _atom_site_label
 _atom_site_symmetry_multiplicity
 _atom_site_fract_x
 _atom_site_fract_y
 _atom_site_fract_z
 _atom_site_occupancy
  Tb  Tb0  1  0.125000  0.625000  0.125000  1
  Tb  Tb1  1  0.125000  0.125000  0.125000  1
  Y  Y2  1  0.625000  0.125000  0.125000  1
  Y  Y3  1  0.125000  0.125000  0.625000  1
  Ir  Ir4  1  0.625000  0.625000  0.625000  1
  Rh  Rh5  1  0.125000  0.625000  0.625000  1
  Rh  Rh6  1  0.625000  0.125000  0.625000  1
  Rh  Rh7  1  0.625000  0.625000  0.125000  1
  O  O8  1  0.709973  0.710192  0.292112  1
  O  O9  1  0.286656  0.286854  0.710572  1
  O  O10  1  0.709921  0.292464  0.709921  1
  O  O11  1  0.286801  0.710741  0.286801  1
  O  O12  1  0.292112  0.710192  0.709973  1
  O  O13  1  0.710572  0.286854  0.286656  1
  O  O14  1  0.540027  0.539808  0.957888  1
  O  O15  1  0.963344  0.963146  0.539428  1
  O  O16  1  0.540079  0.957536  0.540079  1
  O  O17  1  0.963199  0.539259  0.963199  1
  O  O18  1  0.957888  0.539808  0.540027  1
  O  O19  1  0.539428  0.963146  0.963344  1
  O  O20  1  0.251213  0.249887  0.251213  1
  O  O21  1  0.998787  0.000113  0.998787  1
