# generated using pymatgen
data_Re2IrOs2Ru3
_symmetry_space_group_name_H-M   'P 1'
_cell_length_a   5.50606900
_cell_length_b   5.50604482
_cell_length_c   4.35936100
_cell_angle_alpha   90.00000000
_cell_angle_beta   90.00000000
_cell_angle_gamma   120.00013925
_symmetry_Int_Tables_number   1
_chemical_formula_structural   Re2IrOs2Ru3
_chemical_formula_sum   'Re2 Ir1 Os2 Ru3'
_cell_volume   114.45486274
_cell_formula_units_Z   1
loop_
 _symmetry_equiv_pos_site_id
 _symmetry_equiv_pos_as_xyz
  1  'x, y, z'
loop_
 _atom_site_type_symbol
 _atom_site_label
 _atom_site_symmetry_multiplicity
 _atom_site_fract_x
 _atom_site_fract_y
 _atom_site_fract_z
 _atom_site_occupancy
  Re  Re0  1  0.335101  0.670202  0.750000  1
  Re  Re1  1  0.664880  0.329759  0.250000  1
  Ir  Ir2  1  0.166535  0.333068  0.250000  1
  Os  Os3  1  0.665905  0.836517  0.250000  1
  Os  Os4  1  0.170612  0.836517  0.250000  1
  Ru  Ru5  1  0.832118  0.664234  0.750000  1
  Ru  Ru6  1  0.334869  0.164852  0.750000  1
  Ru  Ru7  1  0.829983  0.164852  0.750000  1
