# generated using pymatgen
data_DyPa3(GeRu)4
_symmetry_space_group_name_H-M   'P 1'
_cell_length_a   4.40285100
_cell_length_b   7.13928882
_cell_length_c   7.23456990
_cell_angle_alpha   89.52082155
_cell_angle_beta   90.00000000
_cell_angle_gamma   90.00000000
_symmetry_Int_Tables_number   1
_chemical_formula_structural   DyPa3(GeRu)4
_chemical_formula_sum   'Dy1 Pa3 Ge4 Ru4'
_cell_volume   227.39790987
_cell_formula_units_Z   1
loop_
 _symmetry_equiv_pos_site_id
 _symmetry_equiv_pos_as_xyz
  1  'x, y, z'
loop_
 _atom_site_type_symbol
 _atom_site_label
 _atom_site_symmetry_multiplicity
 _atom_site_fract_x
 _atom_site_fract_y
 _atom_site_fract_z
 _atom_site_occupancy
  Dy  Dy0  1  0.750000  0.509185  0.311686  1
  Pa  Pa1  1  0.250000  0.990790  0.815634  1
  Pa  Pa2  1  0.750000  0.011256  0.186512  1
  Pa  Pa3  1  0.250000  0.486438  0.696318  1
  Ge  Ge4  1  0.250000  0.295912  0.116291  1
  Ge  Ge5  1  0.750000  0.711765  0.890522  1
  Ge  Ge6  1  0.250000  0.782517  0.392280  1
  Ge  Ge7  1  0.750000  0.212831  0.604970  1
  Ru  Ru8  1  0.750000  0.859415  0.561936  1
  Ru  Ru9  1  0.250000  0.140178  0.441013  1
  Ru  Ru10  1  0.750000  0.346145  0.932131  1
  Ru  Ru11  1  0.250000  0.653567  0.050707  1
