# generated using pymatgen
data_Ta16CoCu6NiN4
_symmetry_space_group_name_H-M   'P 1'
_cell_length_a   8.25198642
_cell_length_b   8.25198684
_cell_length_c   8.24511504
_cell_angle_alpha   60.01819135
_cell_angle_beta   60.01818557
_cell_angle_gamma   60.04414202
_symmetry_Int_Tables_number   1
_chemical_formula_structural   Ta16CoCu6NiN4
_chemical_formula_sum   'Ta16 Co1 Cu6 Ni1 N4'
_cell_volume   397.24903079
_cell_formula_units_Z   1
loop_
 _symmetry_equiv_pos_site_id
 _symmetry_equiv_pos_as_xyz
  1  'x, y, z'
loop_
 _atom_site_type_symbol
 _atom_site_label
 _atom_site_symmetry_multiplicity
 _atom_site_fract_x
 _atom_site_fract_y
 _atom_site_fract_z
 _atom_site_occupancy
  Ta  Ta0  1  0.118160  0.632978  0.626785  1
  Ta  Ta1  1  0.632978  0.118160  0.626785  1
  Ta  Ta2  1  0.630378  0.630378  0.121723  1
  Ta  Ta3  1  0.628394  0.628394  0.619806  1
  Ta  Ta4  1  0.816398  0.816398  0.182981  1
  Ta  Ta5  1  0.185851  0.185851  0.814274  1
  Ta  Ta6  1  0.816041  0.181592  0.815003  1
  Ta  Ta7  1  0.182859  0.815517  0.187431  1
  Ta  Ta8  1  0.181592  0.816041  0.815003  1
  Ta  Ta9  1  0.815517  0.182859  0.187431  1
  Ta  Ta10  1  0.436875  0.436875  0.063365  1
  Ta  Ta11  1  0.066026  0.066026  0.433852  1
  Ta  Ta12  1  0.435192  0.066015  0.435670  1
  Ta  Ta13  1  0.065381  0.435313  0.063227  1
  Ta  Ta14  1  0.066015  0.435192  0.435670  1
  Ta  Ta15  1  0.435313  0.065381  0.063227  1
  Co  Co16  1  0.826142  0.826142  0.829254  1
  Cu  Cu17  1  0.753109  0.415288  0.416128  1
  Cu  Cu18  1  0.415288  0.753109  0.416128  1
  Cu  Cu19  1  0.416884  0.416884  0.750486  1
  Cu  Cu20  1  0.416670  0.416670  0.416169  1
  Cu  Cu21  1  0.496915  0.832523  0.834943  1
  Cu  Cu22  1  0.832523  0.496915  0.834943  1
  Ni  Ni23  1  0.828581  0.828581  0.510192  1
  N  N24  1  0.623451  0.126162  0.125428  1
  N  N25  1  0.126162  0.623451  0.125428  1
  N  N26  1  0.125766  0.125766  0.623721  1
  N  N27  1  0.125539  0.125539  0.124944  1
