# generated using pymatgen
data_SmEr5(Co3P2)6
_symmetry_space_group_name_H-M   'P 1'
_cell_length_a   3.68506900
_cell_length_b   10.49515000
_cell_length_c   12.14802900
_cell_angle_alpha   90.00000000
_cell_angle_beta   90.00000000
_cell_angle_gamma   90.00000000
_symmetry_Int_Tables_number   1
_chemical_formula_structural   SmEr5(Co3P2)6
_chemical_formula_sum   'Sm1 Er5 Co18 P12'
_cell_volume   469.82929665
_cell_formula_units_Z   1
loop_
 _symmetry_equiv_pos_site_id
 _symmetry_equiv_pos_as_xyz
  1  'x, y, z'
loop_
 _atom_site_type_symbol
 _atom_site_label
 _atom_site_symmetry_multiplicity
 _atom_site_fract_x
 _atom_site_fract_y
 _atom_site_fract_z
 _atom_site_occupancy
  Sm  Sm0  1  0.750000  0.250000  0.477533  1
  Er  Er1  1  0.250000  0.750000  0.522011  1
  Er  Er2  1  0.250000  0.932464  0.794027  1
  Er  Er3  1  0.250000  0.567536  0.794027  1
  Er  Er4  1  0.750000  0.067074  0.205586  1
  Er  Er5  1  0.750000  0.432926  0.205586  1
  Co  Co6  1  0.250000  0.250000  0.841949  1
  Co  Co7  1  0.750000  0.750000  0.158787  1
  Co  Co8  1  0.250000  0.250000  0.295134  1
  Co  Co9  1  0.750000  0.750000  0.702995  1
  Co  Co10  1  0.750000  0.250000  0.014325  1
  Co  Co11  1  0.250000  0.750000  0.985609  1
  Co  Co12  1  0.250000  0.416804  0.005658  1
  Co  Co13  1  0.250000  0.083196  0.005658  1
  Co  Co14  1  0.750000  0.583280  0.994359  1
  Co  Co15  1  0.750000  0.916720  0.994359  1
  Co  Co16  1  0.250000  0.454571  0.570022  1
  Co  Co17  1  0.250000  0.045429  0.570022  1
  Co  Co18  1  0.750000  0.548264  0.430379  1
  Co  Co19  1  0.750000  0.951736  0.430379  1
  Co  Co20  1  0.250000  0.870723  0.290102  1
  Co  Co21  1  0.250000  0.629277  0.290102  1
  Co  Co22  1  0.750000  0.128470  0.710524  1
  Co  Co23  1  0.750000  0.371530  0.710524  1
  P  P24  1  0.250000  0.250000  0.117502  1
  P  P25  1  0.750000  0.750000  0.881726  1
  P  P26  1  0.250000  0.250000  0.658126  1
  P  P27  1  0.750000  0.750000  0.344319  1
  P  P28  1  0.250000  0.440852  0.382895  1
  P  P29  1  0.250000  0.059148  0.382895  1
  P  P30  1  0.750000  0.561557  0.616283  1
  P  P31  1  0.750000  0.938443  0.616283  1
  P  P32  1  0.250000  0.902596  0.107066  1
  P  P33  1  0.250000  0.597404  0.107066  1
  P  P34  1  0.750000  0.097179  0.893094  1
  P  P35  1  0.750000  0.402821  0.893094  1
