# generated using pymatgen
data_TbEr15(Ga3Os)2
_symmetry_space_group_name_H-M   'P 1'
_cell_length_a   9.93637200
_cell_length_b   9.93637424
_cell_length_c   7.01057400
_cell_angle_alpha   90.00000000
_cell_angle_beta   90.00000000
_cell_angle_gamma   120.00000587
_symmetry_Int_Tables_number   1
_chemical_formula_structural   TbEr15(Ga3Os)2
_chemical_formula_sum   'Tb1 Er15 Ga6 Os2'
_cell_volume   599.43205892
_cell_formula_units_Z   1
loop_
 _symmetry_equiv_pos_site_id
 _symmetry_equiv_pos_as_xyz
  1  'x, y, z'
loop_
 _atom_site_type_symbol
 _atom_site_label
 _atom_site_symmetry_multiplicity
 _atom_site_fract_x
 _atom_site_fract_y
 _atom_site_fract_z
 _atom_site_occupancy
  Tb  Tb0  1  0.000000  0.000000  0.267228  1
  Er  Er1  1  0.000000  0.000000  0.766686  1
  Er  Er2  1  0.171964  0.828036  0.989723  1
  Er  Er3  1  0.827951  0.172049  0.491195  1
  Er  Er4  1  0.171964  0.343928  0.989723  1
  Er  Er5  1  0.656072  0.828036  0.989723  1
  Er  Er6  1  0.344099  0.172049  0.491195  1
  Er  Er7  1  0.827951  0.655901  0.491195  1
  Er  Er8  1  0.333333  0.666667  0.661984  1
  Er  Er9  1  0.666667  0.333333  0.161059  1
  Er  Er10  1  0.465493  0.534507  0.295738  1
  Er  Er11  1  0.534575  0.465425  0.795699  1
  Er  Er12  1  0.465493  0.930987  0.295738  1
  Er  Er13  1  0.069013  0.534507  0.295738  1
  Er  Er14  1  0.930852  0.465425  0.795699  1
  Er  Er15  1  0.534575  0.069148  0.795699  1
  Ga  Ga16  1  0.164015  0.835985  0.544105  1
  Ga  Ga17  1  0.835922  0.164078  0.042236  1
  Ga  Ga18  1  0.164015  0.328030  0.544105  1
  Ga  Ga19  1  0.671970  0.835985  0.544105  1
  Ga  Ga20  1  0.328157  0.164078  0.042236  1
  Ga  Ga21  1  0.835922  0.671843  0.042236  1
  Os  Os22  1  0.333333  0.666667  0.056800  1
  Os  Os23  1  0.666667  0.333333  0.556275  1
