# generated using pymatgen
data_Yb2AsN3
_symmetry_space_group_name_H-M   'P 1'
_cell_length_a   5.95318845
_cell_length_b   5.95318893
_cell_length_c   11.38372200
_cell_angle_alpha   90.00000000
_cell_angle_beta   90.00000000
_cell_angle_gamma   126.01067513
_symmetry_Int_Tables_number   1
_chemical_formula_structural   Yb2AsN3
_chemical_formula_sum   'Yb8 As4 N12'
_cell_volume   326.34910145
_cell_formula_units_Z   4
loop_
 _symmetry_equiv_pos_site_id
 _symmetry_equiv_pos_as_xyz
  1  'x, y, z'
loop_
 _atom_site_type_symbol
 _atom_site_label
 _atom_site_symmetry_multiplicity
 _atom_site_fract_x
 _atom_site_fract_y
 _atom_site_fract_z
 _atom_site_occupancy
  Yb  Yb0  1  0.539140  0.460860  0.644941  1
  Yb  Yb1  1  0.460860  0.539140  0.355059  1
  Yb  Yb2  1  0.960860  0.039140  0.144941  1
  Yb  Yb3  1  0.039140  0.960860  0.855059  1
  Yb  Yb4  1  0.864952  0.135048  0.574485  1
  Yb  Yb5  1  0.135048  0.864952  0.425515  1
  Yb  Yb6  1  0.635048  0.364952  0.074485  1
  Yb  Yb7  1  0.364952  0.635048  0.925515  1
  As  As8  1  0.746411  0.253589  0.840135  1
  As  As9  1  0.253589  0.746411  0.159865  1
  As  As10  1  0.753589  0.246411  0.340135  1
  As  As11  1  0.246411  0.753589  0.659865  1
  N  N12  1  0.845554  0.154446  0.968342  1
  N  N13  1  0.154446  0.845554  0.031658  1
  N  N14  1  0.654446  0.345554  0.468342  1
  N  N15  1  0.345554  0.654446  0.531658  1
  N  N16  1  0.578848  0.421152  0.859000  1
  N  N17  1  0.421152  0.578848  0.141000  1
  N  N18  1  0.921152  0.078848  0.359000  1
  N  N19  1  0.078848  0.921152  0.641000  1
  N  N20  1  0.564179  0.935821  0.750000  1
  N  N21  1  0.935821  0.564179  0.250000  1
  N  N22  1  0.435821  0.064179  0.250000  1
  N  N23  1  0.064179  0.435821  0.750000  1
