# generated using pymatgen
data_Hf7Fe8Si14Mo
_symmetry_space_group_name_H-M   'P 1'
_cell_length_a   9.39600936
_cell_length_b   9.39498701
_cell_length_c   9.37060427
_cell_angle_alpha   94.17794979
_cell_angle_beta   94.20968270
_cell_angle_gamma   148.62985276
_symmetry_Int_Tables_number   1
_chemical_formula_structural   Hf7Fe8Si14Mo
_chemical_formula_sum   'Hf7 Fe8 Si14 Mo1'
_cell_volume   414.55442532
_cell_formula_units_Z   1
loop_
 _symmetry_equiv_pos_site_id
 _symmetry_equiv_pos_as_xyz
  1  'x, y, z'
loop_
 _atom_site_type_symbol
 _atom_site_label
 _atom_site_symmetry_multiplicity
 _atom_site_fract_x
 _atom_site_fract_y
 _atom_site_fract_z
 _atom_site_occupancy
  Hf  Hf0  1  0.862864  0.862872  0.725714  1
  Hf  Hf1  1  0.137869  0.861011  0.999033  1
  Hf  Hf2  1  0.861131  0.138022  0.999021  1
  Hf  Hf3  1  0.303699  0.499634  0.803637  1
  Hf  Hf4  1  0.696307  0.502099  0.198837  1
  Hf  Hf5  1  0.502384  0.696608  0.198795  1
  Hf  Hf6  1  0.499785  0.303860  0.803594  1
  Fe  Fe7  1  0.102256  0.601985  0.204049  1
  Fe  Fe8  1  0.399331  0.899216  0.798418  1
  Fe  Fe9  1  0.899233  0.102540  0.498689  1
  Fe  Fe10  1  0.599475  0.396174  0.498638  1
  Fe  Fe11  1  0.602241  0.102489  0.204688  1
  Fe  Fe12  1  0.898831  0.398906  0.797962  1
  Fe  Fe13  1  0.102264  0.899551  0.498725  1
  Fe  Fe14  1  0.396600  0.599302  0.498735  1
  Si  Si15  1  0.284971  0.284951  0.570259  1
  Si  Si16  1  0.711529  0.711499  0.422752  1
  Si  Si17  1  0.291095  0.710232  0.001169  1
  Si  Si18  1  0.710144  0.290998  0.001087  1
  Si  Si19  1  0.093110  0.500334  0.591977  1
  Si  Si20  1  0.909727  0.501895  0.409160  1
  Si  Si21  1  0.499787  0.907621  0.409171  1
  Si  Si22  1  0.498780  0.091511  0.591996  1
  Si  Si23  1  0.248546  0.248572  0.005470  1
  Si  Si24  1  0.756778  0.756787  0.005403  1
  Si  Si25  1  0.297545  0.001684  0.300588  1
  Si  Si26  1  0.696957  0.999652  0.696741  1
  Si  Si27  1  0.000011  0.697394  0.696754  1
  Si  Si28  1  0.002617  0.298448  0.300571  1
  Mo  Mo29  1  0.134129  0.134148  0.268367  1
