# generated using pymatgen
data_Hf23ZrP8
_symmetry_space_group_name_H-M   'P 1'
_cell_length_a   10.70460343
_cell_length_b   10.70463123
_cell_length_c   5.30772629
_cell_angle_alpha   89.97820638
_cell_angle_beta   89.96903649
_cell_angle_gamma   90.00965285
_symmetry_Int_Tables_number   1
_chemical_formula_structural   Hf23ZrP8
_chemical_formula_sum   'Hf23 Zr1 P8'
_cell_volume   608.20601565
_cell_formula_units_Z   1
loop_
 _symmetry_equiv_pos_site_id
 _symmetry_equiv_pos_as_xyz
  1  'x, y, z'
loop_
 _atom_site_type_symbol
 _atom_site_label
 _atom_site_symmetry_multiplicity
 _atom_site_fract_x
 _atom_site_fract_y
 _atom_site_fract_z
 _atom_site_occupancy
  Hf  Hf0  1  0.777247  0.888156  0.029189  1
  Hf  Hf1  1  0.357582  0.665252  0.218143  1
  Hf  Hf2  1  0.142811  0.834812  0.218439  1
  Hf  Hf3  1  0.069258  0.534391  0.237902  1
  Hf  Hf4  1  0.430555  0.965930  0.238233  1
  Hf  Hf5  1  0.965709  0.069279  0.261889  1
  Hf  Hf6  1  0.534355  0.430166  0.261958  1
  Hf  Hf7  1  0.665268  0.142566  0.281515  1
  Hf  Hf8  1  0.834967  0.356399  0.282320  1
  Hf  Hf9  1  0.888157  0.722970  0.471293  1
  Hf  Hf10  1  0.612029  0.777532  0.471283  1
  Hf  Hf11  1  0.387610  0.222872  0.529278  1
  Hf  Hf12  1  0.112240  0.277250  0.529108  1
  Hf  Hf13  1  0.165504  0.642414  0.718009  1
  Hf  Hf14  1  0.334414  0.857620  0.718372  1
  Hf  Hf15  1  0.465364  0.569234  0.737286  1
  Hf  Hf16  1  0.034413  0.930996  0.738274  1
  Hf  Hf17  1  0.569205  0.034475  0.761741  1
  Hf  Hf18  1  0.930689  0.465302  0.761820  1
  Hf  Hf19  1  0.857374  0.165183  0.781827  1
  Hf  Hf20  1  0.642314  0.333598  0.780962  1
  Hf  Hf21  1  0.222767  0.112361  0.970640  1
  Hf  Hf22  1  0.277204  0.387723  0.970770  1
  Zr  Zr23  1  0.722723  0.613073  0.029925  1
  P  P24  1  0.455584  0.209720  0.035912  1
  P  P25  1  0.044434  0.290112  0.035799  1
  P  P26  1  0.209762  0.044430  0.464082  1
  P  P27  1  0.290092  0.455608  0.463918  1
  P  P28  1  0.709763  0.543468  0.536306  1
  P  P29  1  0.790209  0.955614  0.535557  1
  P  P30  1  0.956831  0.710367  0.964296  1
  P  P31  1  0.543565  0.791130  0.963953  1
