# generated using pymatgen
data_Na4CrMo3H20
_symmetry_space_group_name_H-M   'P 1'
_cell_length_a   4.63123449
_cell_length_b   5.16066696
_cell_length_c   11.53784021
_cell_angle_alpha   89.88020845
_cell_angle_beta   88.37366662
_cell_angle_gamma   91.24199712
_symmetry_Int_Tables_number   1
_chemical_formula_structural   Na4CrMo3H20
_chemical_formula_sum   'Na4 Cr1 Mo3 H20'
_cell_volume   275.58051653
_cell_formula_units_Z   1
loop_
 _symmetry_equiv_pos_site_id
 _symmetry_equiv_pos_as_xyz
  1  'x, y, z'
loop_
 _atom_site_type_symbol
 _atom_site_label
 _atom_site_symmetry_multiplicity
 _atom_site_fract_x
 _atom_site_fract_y
 _atom_site_fract_z
 _atom_site_occupancy
  Na  Na0  1  0.765008  0.752332  0.836862  1
  Na  Na1  1  0.283063  0.747777  0.163783  1
  Na  Na2  1  0.761598  0.256496  0.345722  1
  Na  Na3  1  0.293455  0.245251  0.655185  1
  Cr  Cr4  1  0.813906  0.750512  0.543459  1
  Mo  Mo5  1  0.272023  0.247047  0.950058  1
  Mo  Mo6  1  0.784932  0.252243  0.047632  1
  Mo  Mo7  1  0.291144  0.749787  0.456127  1
  H  H8  1  0.521972  0.998474  0.002087  1
  H  H9  1  0.035581  0.524768  0.995510  1
  H  H10  1  0.041071  0.014466  0.501761  1
  H  H11  1  0.556152  0.517354  0.506299  1
  H  H12  1  0.310829  0.034088  0.832513  1
  H  H13  1  0.749502  0.463835  0.165395  1
  H  H14  1  0.332976  0.962639  0.338631  1
  H  H15  1  0.759768  0.567761  0.656209  1
  H  H16  1  0.737810  0.051448  0.169157  1
  H  H17  1  0.897914  0.245481  0.886660  1
  H  H18  1  0.767334  0.933841  0.655663  1
  H  H19  1  0.325652  0.535945  0.339287  1
  H  H20  1  0.323701  0.449666  0.828884  1
  H  H21  1  0.158761  0.253805  0.110534  1
  H  H22  1  0.921470  0.750085  0.391865  1
  H  H23  1  0.146891  0.750450  0.611060  1
  H  H24  1  0.020704  0.974527  0.002442  1
  H  H25  1  0.531916  0.500739  0.997763  1
  H  H26  1  0.566841  0.983440  0.505390  1
  H  H27  1  0.028024  0.485746  0.504065  1
