# generated using pymatgen
data_Tb10SiSn6Hg
_symmetry_space_group_name_H-M   'P 1'
_cell_length_a   9.21313800
_cell_length_b   9.21313975
_cell_length_c   6.73535700
_cell_angle_alpha   90.00000000
_cell_angle_beta   90.00000000
_cell_angle_gamma   120.00000090
_symmetry_Int_Tables_number   1
_chemical_formula_structural   Tb10SiSn6Hg
_chemical_formula_sum   'Tb10 Si1 Sn6 Hg1'
_cell_volume   495.11545486
_cell_formula_units_Z   1
loop_
 _symmetry_equiv_pos_site_id
 _symmetry_equiv_pos_as_xyz
  1  'x, y, z'
loop_
 _atom_site_type_symbol
 _atom_site_label
 _atom_site_symmetry_multiplicity
 _atom_site_fract_x
 _atom_site_fract_y
 _atom_site_fract_z
 _atom_site_occupancy
  Tb  Tb0  1  0.666667  0.333333  0.000000  1
  Tb  Tb1  1  0.333333  0.666667  0.000000  1
  Tb  Tb2  1  0.333333  0.666667  0.500000  1
  Tb  Tb3  1  0.666667  0.333333  0.500000  1
  Tb  Tb4  1  0.738924  0.738924  0.725217  1
  Tb  Tb5  1  0.261076  0.000000  0.725217  1
  Tb  Tb6  1  0.000000  0.261076  0.725217  1
  Tb  Tb7  1  0.261076  0.261076  0.274783  1
  Tb  Tb8  1  0.738924  0.000000  0.274783  1
  Tb  Tb9  1  0.000000  0.738924  0.274783  1
  Si  Si10  1  0.000000  0.000000  0.500000  1
  Sn  Sn11  1  0.388804  0.388804  0.752235  1
  Sn  Sn12  1  0.611196  0.000000  0.752235  1
  Sn  Sn13  1  0.000000  0.611196  0.752235  1
  Sn  Sn14  1  0.611196  0.611196  0.247765  1
  Sn  Sn15  1  0.388804  0.000000  0.247765  1
  Sn  Sn16  1  0.000000  0.388804  0.247765  1
  Hg  Hg17  1  0.000000  0.000000  0.000000  1
