# generated using pymatgen
data_NdSi2Ni8Ir
_symmetry_space_group_name_H-M   'P 1'
_cell_length_a   7.68577762
_cell_length_b   7.68577941
_cell_length_c   7.68576399
_cell_angle_alpha   99.56180217
_cell_angle_beta   99.55625455
_cell_angle_gamma   131.90285721
_symmetry_Int_Tables_number   1
_chemical_formula_structural   NdSi2Ni8Ir
_chemical_formula_sum   'Nd2 Si4 Ni16 Ir2'
_cell_volume   308.57799642
_cell_formula_units_Z   2
loop_
 _symmetry_equiv_pos_site_id
 _symmetry_equiv_pos_as_xyz
  1  'x, y, z'
loop_
 _atom_site_type_symbol
 _atom_site_label
 _atom_site_symmetry_multiplicity
 _atom_site_fract_x
 _atom_site_fract_y
 _atom_site_fract_z
 _atom_site_occupancy
  Nd  Nd0  1  0.499991  0.500002  0.000008  1
  Nd  Nd1  1  0.750009  0.249998  0.499992  1
  Si  Si2  1  0.625000  0.875000  0.750000  1
  Si  Si3  1  0.125000  0.375000  0.250000  1
  Si  Si4  1  0.125000  0.875000  0.750000  1
  Si  Si5  1  0.125000  0.875000  0.250000  1
  Ni  Ni6  1  0.687369  0.019238  0.081859  1
  Ni  Ni7  1  0.687364  0.605507  0.668131  1
  Ni  Ni8  1  0.269225  0.437367  0.581861  1
  Ni  Ni9  1  0.269229  0.687367  0.831858  1
  Ni  Ni10  1  0.937377  0.019238  0.331869  1
  Ni  Ni11  1  0.937378  0.605508  0.918144  1
  Ni  Ni12  1  0.855505  0.437365  0.168141  1
  Ni  Ni13  1  0.855506  0.687364  0.418139  1
  Ni  Ni14  1  0.562631  0.730762  0.418141  1
  Ni  Ni15  1  0.562636  0.144493  0.831869  1
  Ni  Ni16  1  0.980775  0.312633  0.918139  1
  Ni  Ni17  1  0.980771  0.062633  0.668142  1
  Ni  Ni18  1  0.312623  0.730762  0.168131  1
  Ni  Ni19  1  0.312622  0.144492  0.581856  1
  Ni  Ni20  1  0.394495  0.312635  0.331859  1
  Ni  Ni21  1  0.394494  0.062636  0.081861  1
  Ir  Ir22  1  0.249997  0.749993  0.499997  1
  Ir  Ir23  1  0.000003  0.000007  0.000003  1
