# generated using pymatgen
data_Li2TmLu2Si3Ag
_symmetry_space_group_name_H-M   'P 1'
_cell_length_a   6.90870723
_cell_length_b   6.88477740
_cell_length_c   4.17036700
_cell_angle_alpha   90.00000000
_cell_angle_beta   90.00000000
_cell_angle_gamma   120.07385104
_symmetry_Int_Tables_number   1
_chemical_formula_structural   Li2TmLu2Si3Ag
_chemical_formula_sum   'Li2 Tm1 Lu2 Si3 Ag1'
_cell_volume   171.65953354
_cell_formula_units_Z   1
loop_
 _symmetry_equiv_pos_site_id
 _symmetry_equiv_pos_as_xyz
  1  'x, y, z'
loop_
 _atom_site_type_symbol
 _atom_site_label
 _atom_site_symmetry_multiplicity
 _atom_site_fract_x
 _atom_site_fract_y
 _atom_site_fract_z
 _atom_site_occupancy
  Li  Li0  1  0.763284  0.766503  0.000000  1
  Li  Li1  1  0.236750  0.002925  0.000000  1
  Tm  Tm2  1  0.424886  0.424806  0.500000  1
  Lu  Lu3  1  0.575914  0.000046  0.500000  1
  Lu  Lu4  1  0.000159  0.572517  0.500000  1
  Si  Si5  1  0.665293  0.331663  0.000000  1
  Si  Si6  1  0.335131  0.668522  0.000000  1
  Si  Si7  1  0.998820  0.994545  0.500000  1
  Ag  Ag8  1  0.999763  0.238473  0.000000  1
