# generated using pymatgen
data_Tb2Th(P2Rh3)3
_symmetry_space_group_name_H-M   'P 1'
_cell_length_a   3.95297000
_cell_length_b   11.23502600
_cell_length_c   12.82723900
_cell_angle_alpha   90.00000000
_cell_angle_beta   90.00000000
_cell_angle_gamma   90.00000000
_symmetry_Int_Tables_number   1
_chemical_formula_structural   Tb2Th(P2Rh3)3
_chemical_formula_sum   'Tb4 Th2 P12 Rh18'
_cell_volume   569.67975617
_cell_formula_units_Z   2
loop_
 _symmetry_equiv_pos_site_id
 _symmetry_equiv_pos_as_xyz
  1  'x, y, z'
loop_
 _atom_site_type_symbol
 _atom_site_label
 _atom_site_symmetry_multiplicity
 _atom_site_fract_x
 _atom_site_fract_y
 _atom_site_fract_z
 _atom_site_occupancy
  Tb  Tb0  1  0.500000  0.813416  0.204840  1
  Tb  Tb1  1  0.500000  0.186584  0.204840  1
  Tb  Tb2  1  0.000000  0.686584  0.795160  1
  Tb  Tb3  1  0.000000  0.313416  0.795160  1
  Th  Th4  1  0.000000  0.500000  0.524569  1
  Th  Th5  1  0.500000  0.000000  0.475431  1
  P  P6  1  0.500000  0.500000  0.879340  1
  P  P7  1  0.000000  0.000000  0.120660  1
  P  P8  1  0.500000  0.500000  0.348690  1
  P  P9  1  0.000000  0.000000  0.651310  1
  P  P10  1  0.500000  0.312758  0.620246  1
  P  P11  1  0.500000  0.687242  0.620246  1
  P  P12  1  0.000000  0.187242  0.379754  1
  P  P13  1  0.000000  0.812758  0.379754  1
  P  P14  1  0.500000  0.846441  0.894081  1
  P  P15  1  0.500000  0.153559  0.894081  1
  P  P16  1  0.000000  0.653559  0.105919  1
  P  P17  1  0.000000  0.346441  0.105919  1
  Rh  Rh18  1  0.500000  0.500000  0.169584  1
  Rh  Rh19  1  0.000000  0.000000  0.830416  1
  Rh  Rh20  1  0.500000  0.500000  0.702572  1
  Rh  Rh21  1  0.000000  0.000000  0.297428  1
  Rh  Rh22  1  0.000000  0.500000  0.979202  1
  Rh  Rh23  1  0.500000  0.000000  0.020798  1
  Rh  Rh24  1  0.500000  0.334241  0.994077  1
  Rh  Rh25  1  0.500000  0.665759  0.994077  1
  Rh  Rh26  1  0.000000  0.165759  0.005923  1
  Rh  Rh27  1  0.000000  0.834241  0.005923  1
  Rh  Rh28  1  0.500000  0.297566  0.431385  1
  Rh  Rh29  1  0.500000  0.702434  0.431385  1
  Rh  Rh30  1  0.000000  0.202434  0.568615  1
  Rh  Rh31  1  0.000000  0.797566  0.568615  1
  Rh  Rh32  1  0.500000  0.873258  0.712125  1
  Rh  Rh33  1  0.500000  0.126742  0.712125  1
  Rh  Rh34  1  0.000000  0.626742  0.287875  1
  Rh  Rh35  1  0.000000  0.373258  0.287875  1
