# generated using pymatgen
data_Ce2Al20TcRu3
_symmetry_space_group_name_H-M   'P 1'
_cell_length_a   6.89219977
_cell_length_b   6.88830410
_cell_length_c   9.18318347
_cell_angle_alpha   90.19078355
_cell_angle_beta   90.09195098
_cell_angle_gamma   97.15071945
_symmetry_Int_Tables_number   1
_chemical_formula_structural   Ce2Al20TcRu3
_chemical_formula_sum   'Ce2 Al20 Tc1 Ru3'
_cell_volume   432.58258707
_cell_formula_units_Z   1
loop_
 _symmetry_equiv_pos_site_id
 _symmetry_equiv_pos_as_xyz
  1  'x, y, z'
loop_
 _atom_site_type_symbol
 _atom_site_label
 _atom_site_symmetry_multiplicity
 _atom_site_fract_x
 _atom_site_fract_y
 _atom_site_fract_z
 _atom_site_occupancy
  Ce  Ce0  1  0.877552  0.127172  0.751008  1
  Ce  Ce1  1  0.122448  0.872828  0.248992  1
  Al  Al2  1  0.589003  0.861274  0.250180  1
  Al  Al3  1  0.779462  0.519863  0.249620  1
  Al  Al4  1  0.159996  0.840644  0.898967  1
  Al  Al5  1  0.410997  0.138726  0.749820  1
  Al  Al6  1  0.623116  0.377529  0.949250  1
  Al  Al7  1  0.840074  0.159020  0.399094  1
  Al  Al8  1  0.772750  0.773370  0.000214  1
  Al  Al9  1  0.860908  0.589494  0.749600  1
  Al  Al10  1  0.840004  0.159356  0.101033  1
  Al  Al11  1  0.220538  0.480137  0.750380  1
  Al  Al12  1  0.159926  0.840980  0.600906  1
  Al  Al13  1  0.773532  0.773551  0.499839  1
  Al  Al14  1  0.479701  0.220160  0.250872  1
  Al  Al15  1  0.622410  0.377104  0.551152  1
  Al  Al16  1  0.226468  0.226449  0.500161  1
  Al  Al17  1  0.377590  0.622896  0.448848  1
  Al  Al18  1  0.139092  0.410506  0.250400  1
  Al  Al19  1  0.520299  0.779840  0.749128  1
  Al  Al20  1  0.376884  0.622471  0.050750  1
  Al  Al21  1  0.227250  0.226630  0.999786  1
  Tc  Tc22  1  0.000000  0.500000  0.000000  1
  Ru  Ru23  1  0.500000  0.000000  0.000000  1
  Ru  Ru24  1  0.500000  0.000000  0.500000  1
  Ru  Ru25  1  0.000000  0.500000  0.500000  1
