# generated using pymatgen
data_Ce4Be4AlIr9
_symmetry_space_group_name_H-M   'P 1'
_cell_length_a   11.26170911
_cell_length_b   11.26170884
_cell_length_c   11.26170971
_cell_angle_alpha   28.42234765
_cell_angle_beta   28.42235100
_cell_angle_gamma   28.42235278
_symmetry_Int_Tables_number   1
_chemical_formula_structural   Ce4Be4AlIr9
_chemical_formula_sum   'Ce4 Be4 Al1 Ir9'
_cell_volume   285.95878048
_cell_formula_units_Z   1
loop_
 _symmetry_equiv_pos_site_id
 _symmetry_equiv_pos_as_xyz
  1  'x, y, z'
loop_
 _atom_site_type_symbol
 _atom_site_label
 _atom_site_symmetry_multiplicity
 _atom_site_fract_x
 _atom_site_fract_y
 _atom_site_fract_z
 _atom_site_occupancy
  Ce  Ce0  1  0.148377  0.148377  0.148377  1
  Ce  Ce1  1  0.949252  0.949252  0.949252  1
  Ce  Ce2  1  0.851623  0.851623  0.851623  1
  Ce  Ce3  1  0.050748  0.050748  0.050748  1
  Be  Be4  1  0.614234  0.614234  0.614234  1
  Be  Be5  1  0.718937  0.718937  0.718937  1
  Be  Be6  1  0.385766  0.385766  0.385766  1
  Be  Be7  1  0.281063  0.281063  0.281063  1
  Al  Al8  1  0.500000  0.500000  0.500000  1
  Ir  Ir9  1  0.394712  0.897536  0.394712  1
  Ir  Ir10  1  0.897536  0.394712  0.394712  1
  Ir  Ir11  1  0.500000  0.500000  0.000000  1
  Ir  Ir12  1  0.500000  0.000000  0.500000  1
  Ir  Ir13  1  0.000000  0.500000  0.500000  1
  Ir  Ir14  1  0.605288  0.102464  0.605288  1
  Ir  Ir15  1  0.605288  0.605288  0.102464  1
  Ir  Ir16  1  0.102464  0.605288  0.605288  1
  Ir  Ir17  1  0.394712  0.394712  0.897536  1
