# generated using pymatgen
data_Nd2HoTmIn4
_symmetry_space_group_name_H-M   'P 1'
_cell_length_a   6.67080140
_cell_length_b   6.67080300
_cell_length_c   9.96948200
_cell_angle_alpha   90.00000000
_cell_angle_beta   90.00000000
_cell_angle_gamma   96.80065631
_symmetry_Int_Tables_number   1
_chemical_formula_structural   Nd2HoTmIn4
_chemical_formula_sum   'Nd4 Ho2 Tm2 In8'
_cell_volume   440.51661109
_cell_formula_units_Z   2
loop_
 _symmetry_equiv_pos_site_id
 _symmetry_equiv_pos_as_xyz
  1  'x, y, z'
loop_
 _atom_site_type_symbol
 _atom_site_label
 _atom_site_symmetry_multiplicity
 _atom_site_fract_x
 _atom_site_fract_y
 _atom_site_fract_z
 _atom_site_occupancy
  Nd  Nd0  1  0.250386  0.749614  0.500000  1
  Nd  Nd1  1  0.250386  0.749614  0.000000  1
  Nd  Nd2  1  0.749614  0.250386  0.500000  1
  Nd  Nd3  1  0.749614  0.250386  0.000000  1
  Ho  Ho4  1  0.971706  0.971705  0.250000  1
  Ho  Ho5  1  0.028295  0.028294  0.750000  1
  Tm  Tm6  1  0.529904  0.529904  0.250000  1
  Tm  Tm7  1  0.470096  0.470096  0.750000  1
  In  In8  1  0.250752  0.250752  0.022319  1
  In  In9  1  0.749248  0.749248  0.977681  1
  In  In10  1  0.250752  0.250752  0.477681  1
  In  In11  1  0.749248  0.749248  0.522319  1
  In  In12  1  0.478166  0.024475  0.250000  1
  In  In13  1  0.975525  0.521834  0.750000  1
  In  In14  1  0.521834  0.975525  0.750000  1
  In  In15  1  0.024475  0.478166  0.250000  1
