# generated using pymatgen
data_Pr3Th5(ReC2)4
_symmetry_space_group_name_H-M   'P 1'
_cell_length_a   5.37521300
_cell_length_b   6.68116679
_cell_length_c   10.23936264
_cell_angle_alpha   90.18646621
_cell_angle_beta   90.00000000
_cell_angle_gamma   90.00000000
_symmetry_Int_Tables_number   1
_chemical_formula_structural   Pr3Th5(ReC2)4
_chemical_formula_sum   'Pr3 Th5 Re4 C8'
_cell_volume   367.72115593
_cell_formula_units_Z   1
loop_
 _symmetry_equiv_pos_site_id
 _symmetry_equiv_pos_as_xyz
  1  'x, y, z'
loop_
 _atom_site_type_symbol
 _atom_site_label
 _atom_site_symmetry_multiplicity
 _atom_site_fract_x
 _atom_site_fract_y
 _atom_site_fract_z
 _atom_site_occupancy
  Pr  Pr0  1  0.250000  0.303385  0.549841  1
  Pr  Pr1  1  0.250000  0.472627  0.218694  1
  Pr  Pr2  1  0.750000  0.029074  0.716414  1
  Th  Th3  1  0.750000  0.524232  0.773724  1
  Th  Th4  1  0.250000  0.976080  0.275861  1
  Th  Th5  1  0.750000  0.690152  0.449949  1
  Th  Th6  1  0.250000  0.807698  0.950496  1
  Th  Th7  1  0.750000  0.193050  0.049949  1
  Re  Re8  1  0.250000  0.269860  0.862197  1
  Re  Re9  1  0.250000  0.767310  0.641326  1
  Re  Re10  1  0.750000  0.230083  0.361995  1
  Re  Re11  1  0.750000  0.729674  0.139040  1
  C  C12  1  0.250000  0.692463  0.454858  1
  C  C13  1  0.250000  0.530040  0.759346  1
  C  C14  1  0.750000  0.469262  0.244749  1
  C  C15  1  0.750000  0.821019  0.954314  1
  C  C16  1  0.250000  0.028847  0.746899  1
  C  C17  1  0.250000  0.161590  0.048694  1
  C  C18  1  0.750000  0.335745  0.544343  1
  C  C19  1  0.750000  0.967809  0.257313  1
