# generated using pymatgen
data_Ac2TcNiI
_symmetry_space_group_name_H-M   'P 1'
_cell_length_a   4.24618300
_cell_length_b   4.24618332
_cell_length_c   19.10340100
_cell_angle_alpha   90.00000000
_cell_angle_beta   90.00000000
_cell_angle_gamma   119.99998975
_symmetry_Int_Tables_number   1
_chemical_formula_structural   Ac2TcNiI
_chemical_formula_sum   'Ac4 Tc2 Ni2 I2'
_cell_volume   298.29008327
_cell_formula_units_Z   2
loop_
 _symmetry_equiv_pos_site_id
 _symmetry_equiv_pos_as_xyz
  1  'x, y, z'
loop_
 _atom_site_type_symbol
 _atom_site_label
 _atom_site_symmetry_multiplicity
 _atom_site_fract_x
 _atom_site_fract_y
 _atom_site_fract_z
 _atom_site_occupancy
  Ac  Ac0  1  0.000000  0.000000  0.100446  1
  Ac  Ac1  1  0.000000  0.000000  0.899554  1
  Ac  Ac2  1  0.000000  0.000000  0.615707  1
  Ac  Ac3  1  0.000000  0.000000  0.384293  1
  Tc  Tc4  1  0.333333  0.666667  0.514244  1
  Tc  Tc5  1  0.666667  0.333333  0.485756  1
  Ni  Ni6  1  0.666667  0.333333  0.999619  1
  Ni  Ni7  1  0.333333  0.666667  0.000381  1
  I  I8  1  0.333333  0.666667  0.243344  1
  I  I9  1  0.666667  0.333333  0.756656  1
