# generated using pymatgen
data_Zr5As6PPd9
_symmetry_space_group_name_H-M   'P 1'
_cell_length_a   3.94945300
_cell_length_b   6.71335641
_cell_length_c   13.95503922
_cell_angle_alpha   76.19350030
_cell_angle_beta   90.00000000
_cell_angle_gamma   90.00000000
_symmetry_Int_Tables_number   1
_chemical_formula_structural   Zr5As6PPd9
_chemical_formula_sum   'Zr5 As6 P1 Pd9'
_cell_volume   359.31462633
_cell_formula_units_Z   1
loop_
 _symmetry_equiv_pos_site_id
 _symmetry_equiv_pos_as_xyz
  1  'x, y, z'
loop_
 _atom_site_type_symbol
 _atom_site_label
 _atom_site_symmetry_multiplicity
 _atom_site_fract_x
 _atom_site_fract_y
 _atom_site_fract_z
 _atom_site_occupancy
  Zr  Zr0  1  0.000000  0.524566  0.998981  1
  Zr  Zr1  1  0.000000  0.816571  0.178842  1
  Zr  Zr2  1  0.500000  0.088933  0.460562  1
  Zr  Zr3  1  0.500000  0.558498  0.542659  1
  Zr  Zr4  1  0.000000  0.992866  0.821131  1
  As  As5  1  0.000000  0.118875  0.000149  1
  As  As6  1  0.500000  0.546177  0.139835  1
  As  As7  1  0.500000  0.968000  0.289085  1
  As  As8  1  0.000000  0.393560  0.429023  1
  As  As9  1  0.500000  0.261197  0.710839  1
  As  As10  1  0.500000  0.687028  0.859260  1
  P  P11  1  0.000000  0.820697  0.573108  1
  Pd  Pd12  1  0.500000  0.871973  0.999926  1
  Pd  Pd13  1  0.500000  0.192436  0.114753  1
  Pd  Pd14  1  0.000000  0.229324  0.276192  1
  Pd  Pd15  1  0.500000  0.555432  0.320389  1
  Pd  Pd16  1  0.000000  0.799304  0.399007  1
  Pd  Pd17  1  0.000000  0.178370  0.605773  1
  Pd  Pd18  1  0.500000  0.867880  0.675367  1
  Pd  Pd19  1  0.000000  0.517372  0.719647  1
  Pd  Pd20  1  0.500000  0.305738  0.885472  1
