# generated using pymatgen
data_SrY2(Si3Pd10)2
_symmetry_space_group_name_H-M   'P 1'
_cell_length_a   8.75691178
_cell_length_b   8.75691231
_cell_length_c   8.75691200
_cell_angle_alpha   60.00000117
_cell_angle_beta   59.99999918
_cell_angle_gamma   59.99999927
_symmetry_Int_Tables_number   1
_chemical_formula_structural   SrY2(Si3Pd10)2
_chemical_formula_sum   'Sr1 Y2 Si6 Pd20'
_cell_volume   474.82979416
_cell_formula_units_Z   1
loop_
 _symmetry_equiv_pos_site_id
 _symmetry_equiv_pos_as_xyz
  1  'x, y, z'
loop_
 _atom_site_type_symbol
 _atom_site_label
 _atom_site_symmetry_multiplicity
 _atom_site_fract_x
 _atom_site_fract_y
 _atom_site_fract_z
 _atom_site_occupancy
  Sr  Sr0  1  0.250000  0.250000  0.250000  1
  Y  Y1  1  0.750000  0.750000  0.750000  1
  Y  Y2  1  0.000000  0.000000  0.000000  1
  Si  Si3  1  0.732772  0.267228  0.267228  1
  Si  Si4  1  0.267228  0.732772  0.732772  1
  Si  Si5  1  0.267228  0.732772  0.267228  1
  Si  Si6  1  0.732772  0.267228  0.732772  1
  Si  Si7  1  0.267228  0.267228  0.732772  1
  Si  Si8  1  0.732772  0.732772  0.267228  1
  Pd  Pd9  1  0.387830  0.387830  0.387830  1
  Pd  Pd10  1  0.617028  0.617028  0.617028  1
  Pd  Pd11  1  0.387830  0.387830  0.836510  1
  Pd  Pd12  1  0.387830  0.836510  0.387830  1
  Pd  Pd13  1  0.617028  0.617028  0.148914  1
  Pd  Pd14  1  0.617028  0.148914  0.617028  1
  Pd  Pd15  1  0.836510  0.387830  0.387830  1
  Pd  Pd16  1  0.148914  0.617028  0.617028  1
  Pd  Pd17  1  0.347734  0.997035  0.997035  1
  Pd  Pd18  1  0.658195  0.997035  0.997035  1
  Pd  Pd19  1  0.997035  0.347734  0.658195  1
  Pd  Pd20  1  0.997035  0.658195  0.347734  1
  Pd  Pd21  1  0.997035  0.347734  0.997035  1
  Pd  Pd22  1  0.658195  0.997035  0.347734  1
  Pd  Pd23  1  0.997035  0.658195  0.997035  1
  Pd  Pd24  1  0.347734  0.997035  0.658195  1
  Pd  Pd25  1  0.997035  0.997035  0.347734  1
  Pd  Pd26  1  0.997035  0.997035  0.658195  1
  Pd  Pd27  1  0.658195  0.347734  0.997035  1
  Pd  Pd28  1  0.347734  0.658195  0.997035  1
