# generated using pymatgen
data_Sc8Mn11Si16Os
_symmetry_space_group_name_H-M   'P 1'
_cell_length_a   6.42812222
_cell_length_b   6.42812222
_cell_length_c   12.08542504
_cell_angle_alpha   90.00652834
_cell_angle_beta   89.99347166
_cell_angle_gamma   89.92963861
_symmetry_Int_Tables_number   1
_chemical_formula_structural   Sc8Mn11Si16Os
_chemical_formula_sum   'Sc8 Mn11 Si16 Os1'
_cell_volume   499.37850775
_cell_formula_units_Z   1
loop_
 _symmetry_equiv_pos_site_id
 _symmetry_equiv_pos_as_xyz
  1  'x, y, z'
loop_
 _atom_site_type_symbol
 _atom_site_label
 _atom_site_symmetry_multiplicity
 _atom_site_fract_x
 _atom_site_fract_y
 _atom_site_fract_z
 _atom_site_occupancy
  Sc  Sc0  1  0.003366  0.666004  0.027972  1
  Sc  Sc1  1  0.996985  0.333247  0.527385  1
  Sc  Sc2  1  0.333247  0.996985  0.472615  1
  Sc  Sc3  1  0.165506  0.497754  0.778992  1
  Sc  Sc4  1  0.835598  0.501784  0.276648  1
  Sc  Sc5  1  0.497754  0.165506  0.221008  1
  Sc  Sc6  1  0.501784  0.835598  0.723352  1
  Sc  Sc7  1  0.666004  0.003366  0.972028  1
  Mn  Mn8  1  0.165022  0.834627  0.249783  1
  Mn  Mn9  1  0.336811  0.336811  0.000000  1
  Mn  Mn10  1  0.015463  0.817764  0.622513  1
  Mn  Mn11  1  0.987658  0.182609  0.122271  1
  Mn  Mn12  1  0.817764  0.015463  0.377487  1
  Mn  Mn13  1  0.315369  0.482177  0.372985  1
  Mn  Mn14  1  0.682927  0.516495  0.873950  1
  Mn  Mn15  1  0.482177  0.315369  0.627015  1
  Mn  Mn16  1  0.516495  0.682927  0.126050  1
  Mn  Mn17  1  0.182609  0.987658  0.877729  1
  Mn  Mn18  1  0.834627  0.165022  0.750217  1
  Si  Si19  1  0.030672  0.718957  0.430312  1
  Si  Si20  1  0.609846  0.302119  0.434858  1
  Si  Si21  1  0.387149  0.691184  0.937273  1
  Si  Si22  1  0.188407  0.112623  0.687973  1
  Si  Si23  1  0.302119  0.609846  0.565142  1
  Si  Si24  1  0.691184  0.387149  0.062727  1
  Si  Si25  1  0.811546  0.887771  0.187188  1
  Si  Si26  1  0.112623  0.188407  0.312027  1
  Si  Si27  1  0.976313  0.283093  0.932826  1
  Si  Si28  1  0.718957  0.030672  0.569688  1
  Si  Si29  1  0.220015  0.476303  0.182255  1
  Si  Si30  1  0.782742  0.520060  0.686066  1
  Si  Si31  1  0.476303  0.220015  0.817745  1
  Si  Si32  1  0.520060  0.782742  0.313934  1
  Si  Si33  1  0.283093  0.976313  0.067174  1
  Si  Si34  1  0.887771  0.811546  0.812812  1
  Os  Os35  1  0.664031  0.664031  0.500000  1
