# generated using pymatgen
data_PaSi3Ru
_symmetry_space_group_name_H-M   'P 1'
_cell_length_a   4.15050422
_cell_length_b   4.15050425
_cell_length_c   5.73749435
_cell_angle_alpha   111.20463345
_cell_angle_beta   111.20463680
_cell_angle_gamma   90.00000745
_symmetry_Int_Tables_number   1
_chemical_formula_structural   PaSi3Ru
_chemical_formula_sum   'Pa1 Si3 Ru1'
_cell_volume   84.92860981
_cell_formula_units_Z   1
loop_
 _symmetry_equiv_pos_site_id
 _symmetry_equiv_pos_as_xyz
  1  'x, y, z'
loop_
 _atom_site_type_symbol
 _atom_site_label
 _atom_site_symmetry_multiplicity
 _atom_site_fract_x
 _atom_site_fract_y
 _atom_site_fract_z
 _atom_site_occupancy
  Pa  Pa0  1  0.574724  0.574724  0.149449  1
  Si  Si1  1  0.844793  0.344793  0.689587  1
  Si  Si2  1  0.344793  0.844793  0.689587  1
  Si  Si3  1  0.997606  0.997606  0.995211  1
  Ru  Ru4  1  0.233143  0.233143  0.466286  1
