# generated using pymatgen
data_LiTbPr4(P2Ru3)6
_symmetry_space_group_name_H-M   'P 1'
_cell_length_a   4.01828500
_cell_length_b   12.73225983
_cell_length_c   12.55884302
_cell_angle_alpha   119.49651497
_cell_angle_beta   90.00000000
_cell_angle_gamma   90.00000000
_symmetry_Int_Tables_number   1
_chemical_formula_structural   LiTbPr4(P2Ru3)6
_chemical_formula_sum   'Li1 Tb1 Pr4 P12 Ru18'
_cell_volume   559.25204537
_cell_formula_units_Z   1
loop_
 _symmetry_equiv_pos_site_id
 _symmetry_equiv_pos_as_xyz
  1  'x, y, z'
loop_
 _atom_site_type_symbol
 _atom_site_label
 _atom_site_symmetry_multiplicity
 _atom_site_fract_x
 _atom_site_fract_y
 _atom_site_fract_z
 _atom_site_occupancy
  Li  Li0  1  0.000000  0.999904  0.562131  1
  Tb  Tb1  1  0.000000  0.658623  0.328540  1
  Pr  Pr2  1  0.500000  0.001327  0.182930  1
  Pr  Pr3  1  0.500000  0.182221  0.997260  1
  Pr  Pr4  1  0.500000  0.817015  0.815019  1
  Pr  Pr5  1  0.000000  0.340414  0.669963  1
  P  P6  1  0.000000  0.997363  0.802245  1
  P  P7  1  0.000000  0.815045  0.002956  1
  P  P8  1  0.000000  0.186296  0.186357  1
  P  P9  1  0.500000  0.308498  0.479026  1
  P  P10  1  0.500000  0.179266  0.700701  1
  P  P11  1  0.500000  0.528670  0.834740  1
  P  P12  1  0.500000  0.815899  0.516877  1
  P  P13  1  0.500000  0.474714  0.304165  1
  P  P14  1  0.500000  0.694122  0.176114  1
  P  P15  1  0.000000  0.000981  0.371294  1
  P  P16  1  0.000000  0.375971  0.999293  1
  P  P17  1  0.000000  0.623153  0.623745  1
  Ru  Ru18  1  0.000000  0.556034  0.001115  1
  Ru  Ru19  1  0.000000  0.443693  0.445124  1
  Ru  Ru20  1  0.500000  0.997518  0.705903  1
  Ru  Ru21  1  0.500000  0.717837  0.005014  1
  Ru  Ru22  1  0.500000  0.284674  0.285267  1
  Ru  Ru23  1  0.000000  0.196220  0.381702  1
  Ru  Ru24  1  0.000000  0.185335  0.803368  1
  Ru  Ru25  1  0.000000  0.626179  0.818508  1
  Ru  Ru26  1  0.000000  0.810430  0.613851  1
  Ru  Ru27  1  0.000000  0.376673  0.191674  1
  Ru  Ru28  1  0.000000  0.804132  0.188870  1
  Ru  Ru29  1  0.500000  0.122370  0.490540  1
  Ru  Ru30  1  0.500000  0.369442  0.879949  1
  Ru  Ru31  1  0.500000  0.510724  0.636116  1
  Ru  Ru32  1  0.500000  0.627999  0.505869  1
  Ru  Ru33  1  0.500000  0.494261  0.127997  1
  Ru  Ru34  1  0.500000  0.876930  0.369940  1
  Ru  Ru35  1  0.000000  0.999969  0.995835  1
