# generated using pymatgen
data_Sc11Ru3Rh
_symmetry_space_group_name_H-M   'P 1'
_cell_length_a   9.48876674
_cell_length_b   9.48876605
_cell_length_c   9.48453000
_cell_angle_alpha   60.01476662
_cell_angle_beta   60.01476903
_cell_angle_gamma   59.97046276
_symmetry_Int_Tables_number   1
_chemical_formula_structural   Sc11Ru3Rh
_chemical_formula_sum   'Sc22 Ru6 Rh2'
_cell_volume   603.83759415
_cell_formula_units_Z   2
loop_
 _symmetry_equiv_pos_site_id
 _symmetry_equiv_pos_as_xyz
  1  'x, y, z'
loop_
 _atom_site_type_symbol
 _atom_site_label
 _atom_site_symmetry_multiplicity
 _atom_site_fract_x
 _atom_site_fract_y
 _atom_site_fract_z
 _atom_site_occupancy
  Sc  Sc0  1  0.802513  0.802513  0.197487  1
  Sc  Sc1  1  0.197283  0.802717  0.197283  1
  Sc  Sc2  1  0.802717  0.197283  0.197283  1
  Sc  Sc3  1  0.197487  0.197487  0.802513  1
  Sc  Sc4  1  0.802717  0.197283  0.802717  1
  Sc  Sc5  1  0.197283  0.802717  0.802717  1
  Sc  Sc6  1  0.617082  0.617082  0.151273  1
  Sc  Sc7  1  0.614564  0.151273  0.617082  1
  Sc  Sc8  1  0.151273  0.614564  0.617082  1
  Sc  Sc9  1  0.617082  0.617082  0.614564  1
  Sc  Sc10  1  0.382918  0.382918  0.848727  1
  Sc  Sc11  1  0.385436  0.848727  0.382918  1
  Sc  Sc12  1  0.848727  0.385436  0.382918  1
  Sc  Sc13  1  0.382918  0.382918  0.385436  1
  Sc  Sc14  1  0.842321  0.842321  0.470914  1
  Sc  Sc15  1  0.844443  0.470914  0.842321  1
  Sc  Sc16  1  0.470914  0.844443  0.842321  1
  Sc  Sc17  1  0.842321  0.842321  0.844443  1
  Sc  Sc18  1  0.157679  0.157679  0.529086  1
  Sc  Sc19  1  0.155557  0.529086  0.157679  1
  Sc  Sc20  1  0.529086  0.155557  0.157679  1
  Sc  Sc21  1  0.157679  0.157679  0.155557  1
  Ru  Ru22  1  0.000000  0.000000  0.000000  1
  Ru  Ru23  1  0.500000  0.500000  0.500000  1
  Ru  Ru24  1  0.500000  0.000000  0.500000  1
  Ru  Ru25  1  0.000000  0.500000  0.500000  1
  Ru  Ru26  1  0.000000  0.500000  0.000000  1
  Ru  Ru27  1  0.500000  0.000000  0.000000  1
  Rh  Rh28  1  0.000000  0.000000  0.500000  1
  Rh  Rh29  1  0.500000  0.500000  0.000000  1
