# generated using pymatgen
data_Mg2Zn4B6Rh11
_symmetry_space_group_name_H-M   'P 1'
_cell_length_a   2.89534600
_cell_length_b   8.58176600
_cell_length_c   11.43103800
_cell_angle_alpha   90.00000000
_cell_angle_beta   90.00000000
_cell_angle_gamma   90.00000000
_symmetry_Int_Tables_number   1
_chemical_formula_structural   Mg2Zn4B6Rh11
_chemical_formula_sum   'Mg2 Zn4 B6 Rh11'
_cell_volume   284.02908005
_cell_formula_units_Z   1
loop_
 _symmetry_equiv_pos_site_id
 _symmetry_equiv_pos_as_xyz
  1  'x, y, z'
loop_
 _atom_site_type_symbol
 _atom_site_label
 _atom_site_symmetry_multiplicity
 _atom_site_fract_x
 _atom_site_fract_y
 _atom_site_fract_z
 _atom_site_occupancy
  Mg  Mg0  1  0.500000  0.000000  0.204341  1
  Mg  Mg1  1  0.500000  0.000000  0.795659  1
  Zn  Zn2  1  0.500000  0.000000  0.500000  1
  Zn  Zn3  1  0.500000  0.500000  0.000000  1
  Zn  Zn4  1  0.500000  0.646013  0.500000  1
  Zn  Zn5  1  0.500000  0.353987  0.500000  1
  B  B6  1  0.500000  0.806823  0.000000  1
  B  B7  1  0.500000  0.193177  0.000000  1
  B  B8  1  0.500000  0.686072  0.271246  1
  B  B9  1  0.500000  0.313928  0.271246  1
  B  B10  1  0.500000  0.313928  0.728754  1
  B  B11  1  0.500000  0.686072  0.728754  1
  Rh  Rh12  1  0.000000  0.000000  0.000000  1
  Rh  Rh13  1  0.000000  0.500000  0.319641  1
  Rh  Rh14  1  0.000000  0.500000  0.680359  1
  Rh  Rh15  1  0.000000  0.710919  0.124840  1
  Rh  Rh16  1  0.000000  0.289081  0.124840  1
  Rh  Rh17  1  0.000000  0.289081  0.875160  1
  Rh  Rh18  1  0.000000  0.710919  0.875160  1
  Rh  Rh19  1  0.000000  0.823373  0.360395  1
  Rh  Rh20  1  0.000000  0.176627  0.360395  1
  Rh  Rh21  1  0.000000  0.176627  0.639605  1
  Rh  Rh22  1  0.000000  0.823373  0.639605  1
