# generated using pymatgen
data_BaSb11POs4
_symmetry_space_group_name_H-M   'P 1'
_cell_length_a   8.15178191
_cell_length_b   8.15051432
_cell_length_c   8.15632087
_cell_angle_alpha   109.26811276
_cell_angle_beta   111.02797195
_cell_angle_gamma   108.13300304
_symmetry_Int_Tables_number   1
_chemical_formula_structural   BaSb11POs4
_chemical_formula_sum   'Ba1 Sb11 P1 Os4'
_cell_volume   416.88434064
_cell_formula_units_Z   1
loop_
 _symmetry_equiv_pos_site_id
 _symmetry_equiv_pos_as_xyz
  1  'x, y, z'
loop_
 _atom_site_type_symbol
 _atom_site_label
 _atom_site_symmetry_multiplicity
 _atom_site_fract_x
 _atom_site_fract_y
 _atom_site_fract_z
 _atom_site_occupancy
  Ba  Ba0  1  0.008755  0.016203  0.007516  1
  Sb  Sb1  1  0.662357  0.822591  0.160361  1
  Sb  Sb2  1  0.685677  0.534985  0.849035  1
  Sb  Sb3  1  0.345976  0.485463  0.139517  1
  Sb  Sb4  1  0.188248  0.843913  0.343018  1
  Sb  Sb5  1  0.817790  0.158351  0.660268  1
  Sb  Sb6  1  0.500728  0.844035  0.655457  1
  Sb  Sb7  1  0.498259  0.158234  0.340796  1
  Sb  Sb8  1  0.835077  0.342571  0.180102  1
  Sb  Sb9  1  0.157359  0.653618  0.813351  1
  Sb  Sb10  1  0.840451  0.653303  0.496172  1
  Sb  Sb11  1  0.162375  0.342834  0.507584  1
  P  P12  1  0.293002  0.126771  0.833784  1
  Os  Os13  1  0.022514  0.007755  0.527887  1
  Os  Os14  1  0.479908  0.007781  0.985349  1
  Os  Os15  1  0.000831  0.500791  0.000001  1
  Os  Os16  1  0.500692  0.500801  0.499802  1
