# generated using pymatgen
data_TmPa3Co20(Ge5P)2
_symmetry_space_group_name_H-M   'P 1'
_cell_length_a   3.77439000
_cell_length_b   10.75731227
_cell_length_c   11.99931885
_cell_angle_alpha   89.70359965
_cell_angle_beta   90.00000000
_cell_angle_gamma   90.00000000
_symmetry_Int_Tables_number   1
_chemical_formula_structural   TmPa3Co20(Ge5P)2
_chemical_formula_sum   'Tm1 Pa3 Co20 Ge10 P2'
_cell_volume   487.19332720
_cell_formula_units_Z   1
loop_
 _symmetry_equiv_pos_site_id
 _symmetry_equiv_pos_as_xyz
  1  'x, y, z'
loop_
 _atom_site_type_symbol
 _atom_site_label
 _atom_site_symmetry_multiplicity
 _atom_site_fract_x
 _atom_site_fract_y
 _atom_site_fract_z
 _atom_site_occupancy
  Tm  Tm0  1  0.750000  0.080047  0.802027  1
  Pa  Pa1  1  0.250000  0.570642  0.695364  1
  Pa  Pa2  1  0.250000  0.926918  0.197474  1
  Pa  Pa3  1  0.750000  0.427148  0.297642  1
  Co  Co4  1  0.250000  0.703258  0.993152  1
  Co  Co5  1  0.250000  0.799788  0.493240  1
  Co  Co6  1  0.750000  0.287937  0.007921  1
  Co  Co7  1  0.750000  0.210760  0.508252  1
  Co  Co8  1  0.250000  0.406207  0.485949  1
  Co  Co9  1  0.250000  0.095255  0.994548  1
  Co  Co10  1  0.750000  0.582732  0.523351  1
  Co  Co11  1  0.750000  0.916706  0.023947  1
  Co  Co12  1  0.250000  0.206352  0.172598  1
  Co  Co13  1  0.250000  0.294954  0.668816  1
  Co  Co14  1  0.750000  0.792585  0.828704  1
  Co  Co15  1  0.750000  0.709657  0.325906  1
  Co  Co16  1  0.250000  0.886642  0.699444  1
  Co  Co17  1  0.250000  0.604233  0.200141  1
  Co  Co18  1  0.750000  0.107835  0.294332  1
  Co  Co19  1  0.750000  0.391577  0.792495  1
  Co  Co20  1  0.250000  0.471278  0.924521  1
  Co  Co21  1  0.250000  0.029091  0.429823  1
  Co  Co22  1  0.750000  0.523533  0.068593  1
  Co  Co23  1  0.750000  0.975211  0.570141  1
  Ge  Ge24  1  0.250000  0.405487  0.107556  1
  Ge  Ge25  1  0.250000  0.089423  0.616234  1
  Ge  Ge26  1  0.750000  0.592091  0.886902  1
  Ge  Ge27  1  0.750000  0.909284  0.389369  1
  Ge  Ge28  1  0.250000  0.268862  0.866295  1
  Ge  Ge29  1  0.250000  0.227745  0.367785  1
  Ge  Ge30  1  0.750000  0.724959  0.129655  1
  Ge  Ge31  1  0.750000  0.774157  0.632535  1
  Ge  Ge32  1  0.250000  0.607972  0.398755  1
  Ge  Ge33  1  0.250000  0.901134  0.896438  1
  P  P34  1  0.750000  0.389422  0.604223  1
  P  P35  1  0.750000  0.109117  0.105868  1
