# generated using pymatgen
data_Pa2Al2Zn15
_symmetry_space_group_name_H-M   'P 1'
_cell_length_a   6.81517718
_cell_length_b   6.81517559
_cell_length_c   6.77997418
_cell_angle_alpha   83.10885956
_cell_angle_beta   83.10885963
_cell_angle_gamma   83.17634835
_symmetry_Int_Tables_number   1
_chemical_formula_structural   Pa2Al2Zn15
_chemical_formula_sum   'Pa2 Al2 Zn15'
_cell_volume   308.62682727
_cell_formula_units_Z   1
loop_
 _symmetry_equiv_pos_site_id
 _symmetry_equiv_pos_as_xyz
  1  'x, y, z'
loop_
 _atom_site_type_symbol
 _atom_site_label
 _atom_site_symmetry_multiplicity
 _atom_site_fract_x
 _atom_site_fract_y
 _atom_site_fract_z
 _atom_site_occupancy
  Pa  Pa0  1  0.661464  0.661464  0.662210  1
  Pa  Pa1  1  0.337550  0.337550  0.336784  1
  Al  Al2  1  0.354005  0.354005  0.837626  1
  Al  Al3  1  0.100085  0.100085  0.101162  1
  Zn  Zn4  1  0.839073  0.354608  0.354137  1
  Zn  Zn5  1  0.898817  0.898817  0.898518  1
  Zn  Zn6  1  0.998892  0.998892  0.501666  1
  Zn  Zn7  1  0.997874  0.502448  0.000399  1
  Zn  Zn8  1  0.502448  0.997874  0.000399  1
  Zn  Zn9  1  0.297528  0.702971  0.000808  1
  Zn  Zn10  1  0.702136  0.999873  0.298146  1
  Zn  Zn11  1  0.999875  0.298152  0.701849  1
  Zn  Zn12  1  0.702971  0.297528  0.000808  1
  Zn  Zn13  1  0.298152  0.999875  0.701849  1
  Zn  Zn14  1  0.999873  0.702136  0.298146  1
  Zn  Zn15  1  0.159628  0.648628  0.644859  1
  Zn  Zn16  1  0.646393  0.646393  0.161637  1
  Zn  Zn17  1  0.648628  0.159628  0.644859  1
  Zn  Zn18  1  0.354608  0.839073  0.354137  1
