# generated using pymatgen
data_Cs2PaTaBr12
_symmetry_space_group_name_H-M   'P 1'
_cell_length_a   11.10809017
_cell_length_b   7.89977202
_cell_length_c   7.87930400
_cell_angle_alpha   90.00284311
_cell_angle_beta   89.44391518
_cell_angle_gamma   89.95918877
_symmetry_Int_Tables_number   1
_chemical_formula_structural   Cs2PaTaBr12
_chemical_formula_sum   'Cs2 Pa1 Ta1 Br12'
_cell_volume   691.38705746
_cell_formula_units_Z   1
loop_
 _symmetry_equiv_pos_site_id
 _symmetry_equiv_pos_as_xyz
  1  'x, y, z'
loop_
 _atom_site_type_symbol
 _atom_site_label
 _atom_site_symmetry_multiplicity
 _atom_site_fract_x
 _atom_site_fract_y
 _atom_site_fract_z
 _atom_site_occupancy
  Cs  Cs0  1  0.734256  0.250479  0.258008  1
  Cs  Cs1  1  0.246730  0.750234  0.742008  1
  Pa  Pa2  1  0.992104  0.249251  0.755657  1
  Ta  Ta3  1  0.492213  0.750731  0.243635  1
  Br  Br4  1  0.486636  0.977412  0.473491  1
  Br  Br5  1  0.747146  0.246052  0.768322  1
  Br  Br6  1  0.996843  0.006844  0.000061  1
  Br  Br7  1  0.994256  0.493587  0.997996  1
  Br  Br8  1  0.497978  0.978043  0.016658  1
  Br  Br9  1  0.719990  0.750798  0.251547  1
  Br  Br10  1  0.264138  0.752536  0.236162  1
  Br  Br11  1  0.486914  0.523679  0.473460  1
  Br  Br12  1  0.988571  0.007353  0.510406  1
  Br  Br13  1  0.987287  0.491187  0.510143  1
  Br  Br14  1  0.237181  0.249900  0.744143  1
  Br  Br15  1  0.496665  0.521914  0.018304  1
