# generated using pymatgen
data_Tb3DyHo4(B6Os)4
_symmetry_space_group_name_H-M   'P 1'
_cell_length_a   3.65802500
_cell_length_b   9.16060559
_cell_length_c   11.54598497
_cell_angle_alpha   89.99797602
_cell_angle_beta   90.00000000
_cell_angle_gamma   90.00000000
_symmetry_Int_Tables_number   1
_chemical_formula_structural   Tb3DyHo4(B6Os)4
_chemical_formula_sum   'Tb3 Dy1 Ho4 B24 Os4'
_cell_volume   386.90277231
_cell_formula_units_Z   1
loop_
 _symmetry_equiv_pos_site_id
 _symmetry_equiv_pos_as_xyz
  1  'x, y, z'
loop_
 _atom_site_type_symbol
 _atom_site_label
 _atom_site_symmetry_multiplicity
 _atom_site_fract_x
 _atom_site_fract_y
 _atom_site_fract_z
 _atom_site_occupancy
  Tb  Tb0  1  0.000000  0.321483  0.414059  1
  Tb  Tb1  1  0.000000  0.678451  0.586060  1
  Tb  Tb2  1  0.000000  0.821601  0.085876  1
  Dy  Dy3  1  0.000000  0.178593  0.914077  1
  Ho  Ho4  1  0.000000  0.943622  0.372578  1
  Ho  Ho5  1  0.000000  0.056390  0.627319  1
  Ho  Ho6  1  0.000000  0.443584  0.127182  1
  Ho  Ho7  1  0.000000  0.556354  0.872822  1
  B  B8  1  0.500000  0.554059  0.432871  1
  B  B9  1  0.500000  0.445806  0.567378  1
  B  B10  1  0.500000  0.054240  0.066863  1
  B  B11  1  0.500000  0.946245  0.932775  1
  B  B12  1  0.500000  0.748154  0.419327  1
  B  B13  1  0.500000  0.251797  0.580824  1
  B  B14  1  0.500000  0.248148  0.080345  1
  B  B15  1  0.500000  0.752032  0.919330  1
  B  B16  1  0.500000  0.790480  0.266236  1
  B  B17  1  0.500000  0.209293  0.733994  1
  B  B18  1  0.500000  0.290486  0.233546  1
  B  B19  1  0.500000  0.709556  0.766370  1
  B  B20  1  0.500000  0.630810  0.185203  1
  B  B21  1  0.500000  0.368877  0.815055  1
  B  B22  1  0.500000  0.130873  0.314637  1
  B  B23  1  0.500000  0.869206  0.685262  1
  B  B24  1  0.500000  0.983026  0.212846  1
  B  B25  1  0.500000  0.017335  0.787038  1
  B  B26  1  0.500000  0.482885  0.286928  1
  B  B27  1  0.500000  0.516897  0.713269  1
  B  B28  1  0.500000  0.606694  0.029504  1
  B  B29  1  0.500000  0.392988  0.970442  1
  B  B30  1  0.500000  0.106543  0.470499  1
  B  B31  1  0.500000  0.893467  0.529432  1
  Os  Os32  1  0.000000  0.637255  0.321044  1
  Os  Os33  1  0.000000  0.362515  0.679198  1
  Os  Os34  1  0.000000  0.137284  0.178717  1
  Os  Os35  1  0.000000  0.862967  0.821096  1
