# generated using pymatgen
data_SmYTm2(WO6)2
_symmetry_space_group_name_H-M   'P 1'
_cell_length_a   5.41468300
_cell_length_b   7.71320530
_cell_length_c   11.43034202
_cell_angle_alpha   75.58661995
_cell_angle_beta   90.00000000
_cell_angle_gamma   90.00000000
_symmetry_Int_Tables_number   1
_chemical_formula_structural   SmYTm2(WO6)2
_chemical_formula_sum   'Sm2 Y2 Tm4 W4 O24'
_cell_volume   462.35761474
_cell_formula_units_Z   2
loop_
 _symmetry_equiv_pos_site_id
 _symmetry_equiv_pos_as_xyz
  1  'x, y, z'
loop_
 _atom_site_type_symbol
 _atom_site_label
 _atom_site_symmetry_multiplicity
 _atom_site_fract_x
 _atom_site_fract_y
 _atom_site_fract_z
 _atom_site_occupancy
  Sm  Sm0  1  0.684386  0.500000  0.750000  1
  Sm  Sm1  1  0.315614  0.500000  0.250000  1
  Y  Y2  1  0.742901  0.000000  0.750000  1
  Y  Y3  1  0.257099  0.000000  0.250000  1
  Tm  Tm4  1  0.183950  0.794890  0.578469  1
  Tm  Tm5  1  0.816050  0.794890  0.078469  1
  Tm  Tm6  1  0.183950  0.205110  0.921531  1
  Tm  Tm7  1  0.816050  0.205110  0.421531  1
  W  W8  1  0.255088  0.725268  0.885747  1
  W  W9  1  0.744912  0.725268  0.385747  1
  W  W10  1  0.255088  0.274732  0.614253  1
  W  W11  1  0.744912  0.274732  0.114253  1
  O  O12  1  0.046459  0.941384  0.897350  1
  O  O13  1  0.537122  0.842935  0.932712  1
  O  O14  1  0.953541  0.941384  0.397350  1
  O  O15  1  0.454931  0.792863  0.726265  1
  O  O16  1  0.462878  0.842935  0.432712  1
  O  O17  1  0.984892  0.715756  0.769861  1
  O  O18  1  0.545069  0.792863  0.226265  1
  O  O19  1  0.855711  0.637802  0.548185  1
  O  O20  1  0.352781  0.490007  0.887679  1
  O  O21  1  0.015108  0.715756  0.269861  1
  O  O22  1  0.352781  0.509993  0.612321  1
  O  O23  1  0.855711  0.362198  0.951815  1
  O  O24  1  0.144289  0.637802  0.048185  1
  O  O25  1  0.647219  0.490007  0.387679  1
  O  O26  1  0.984892  0.284244  0.730139  1
  O  O27  1  0.647219  0.509993  0.112321  1
  O  O28  1  0.144289  0.362198  0.451815  1
  O  O29  1  0.454931  0.207137  0.773735  1
  O  O30  1  0.015108  0.284244  0.230139  1
  O  O31  1  0.537122  0.157065  0.567288  1
  O  O32  1  0.545069  0.207137  0.273735  1
  O  O33  1  0.046459  0.058616  0.602650  1
  O  O34  1  0.462878  0.157065  0.067288  1
  O  O35  1  0.953541  0.058616  0.102650  1
