# generated using pymatgen
data_LiDy19(Cd3Co)2
_symmetry_space_group_name_H-M   'P 1'
_cell_length_a   9.52108600
_cell_length_b   9.52108520
_cell_length_c   9.65174600
_cell_angle_alpha   90.00000000
_cell_angle_beta   90.00000000
_cell_angle_gamma   119.99999583
_symmetry_Int_Tables_number   1
_chemical_formula_structural   LiDy19(Cd3Co)2
_chemical_formula_sum   'Li1 Dy19 Cd6 Co2'
_cell_volume   757.72126148
_cell_formula_units_Z   1
loop_
 _symmetry_equiv_pos_site_id
 _symmetry_equiv_pos_as_xyz
  1  'x, y, z'
loop_
 _atom_site_type_symbol
 _atom_site_label
 _atom_site_symmetry_multiplicity
 _atom_site_fract_x
 _atom_site_fract_y
 _atom_site_fract_z
 _atom_site_occupancy
  Li  Li0  1  0.000000  0.000000  0.500000  1
  Dy  Dy1  1  0.000000  0.000000  0.000000  1
  Dy  Dy2  1  0.543042  0.456958  0.253761  1
  Dy  Dy3  1  0.543042  0.086083  0.253761  1
  Dy  Dy4  1  0.913917  0.456958  0.253761  1
  Dy  Dy5  1  0.456958  0.543042  0.746239  1
  Dy  Dy6  1  0.456958  0.913917  0.746239  1
  Dy  Dy7  1  0.086083  0.543042  0.746239  1
  Dy  Dy8  1  0.209473  0.790527  0.434265  1
  Dy  Dy9  1  0.209473  0.418947  0.434265  1
  Dy  Dy10  1  0.581053  0.790527  0.434265  1
  Dy  Dy11  1  0.790527  0.209473  0.565735  1
  Dy  Dy12  1  0.790527  0.581053  0.565735  1
  Dy  Dy13  1  0.418947  0.209473  0.565735  1
  Dy  Dy14  1  0.787878  0.212122  0.939973  1
  Dy  Dy15  1  0.787878  0.575754  0.939973  1
  Dy  Dy16  1  0.424246  0.212122  0.939973  1
  Dy  Dy17  1  0.212122  0.787878  0.060027  1
  Dy  Dy18  1  0.212122  0.424246  0.060027  1
  Dy  Dy19  1  0.575754  0.787878  0.060027  1
  Cd  Cd20  1  0.888695  0.111305  0.259950  1
  Cd  Cd21  1  0.888695  0.777391  0.259950  1
  Cd  Cd22  1  0.222609  0.111305  0.259950  1
  Cd  Cd23  1  0.111305  0.888695  0.740050  1
  Cd  Cd24  1  0.111305  0.222609  0.740050  1
  Cd  Cd25  1  0.777391  0.888695  0.740050  1
  Co  Co26  1  0.333333  0.666667  0.249215  1
  Co  Co27  1  0.666667  0.333333  0.750785  1
