# generated using pymatgen
data_Er6Fe3Co14P12Os
_symmetry_space_group_name_H-M   'P 1'
_cell_length_a   3.69782000
_cell_length_b   10.52983800
_cell_length_c   12.10277500
_cell_angle_alpha   90.00000000
_cell_angle_beta   90.00000000
_cell_angle_gamma   90.00000000
_symmetry_Int_Tables_number   1
_chemical_formula_structural   Er6Fe3Co14P12Os
_chemical_formula_sum   'Er6 Fe3 Co14 P12 Os1'
_cell_volume   471.25114260
_cell_formula_units_Z   1
loop_
 _symmetry_equiv_pos_site_id
 _symmetry_equiv_pos_as_xyz
  1  'x, y, z'
loop_
 _atom_site_type_symbol
 _atom_site_label
 _atom_site_symmetry_multiplicity
 _atom_site_fract_x
 _atom_site_fract_y
 _atom_site_fract_z
 _atom_site_occupancy
  Er  Er0  1  0.750000  0.250000  0.473784  1
  Er  Er1  1  0.250000  0.750000  0.522064  1
  Er  Er2  1  0.250000  0.930835  0.795626  1
  Er  Er3  1  0.250000  0.569165  0.795626  1
  Er  Er4  1  0.750000  0.068933  0.204017  1
  Er  Er5  1  0.750000  0.431067  0.204017  1
  Fe  Fe6  1  0.750000  0.750000  0.156158  1
  Fe  Fe7  1  0.750000  0.250000  0.011285  1
  Fe  Fe8  1  0.250000  0.750000  0.987627  1
  Co  Co9  1  0.250000  0.250000  0.299662  1
  Co  Co10  1  0.750000  0.750000  0.701362  1
  Co  Co11  1  0.250000  0.417888  0.008927  1
  Co  Co12  1  0.250000  0.082112  0.008927  1
  Co  Co13  1  0.750000  0.581568  0.994092  1
  Co  Co14  1  0.750000  0.918432  0.994092  1
  Co  Co15  1  0.250000  0.453077  0.569993  1
  Co  Co16  1  0.250000  0.046923  0.569993  1
  Co  Co17  1  0.750000  0.546509  0.431331  1
  Co  Co18  1  0.750000  0.953491  0.431331  1
  Co  Co19  1  0.250000  0.871955  0.291203  1
  Co  Co20  1  0.250000  0.628045  0.291203  1
  Co  Co21  1  0.750000  0.128867  0.708794  1
  Co  Co22  1  0.750000  0.371133  0.708794  1
  P  P23  1  0.250000  0.250000  0.118774  1
  P  P24  1  0.750000  0.750000  0.883933  1
  P  P25  1  0.250000  0.250000  0.649408  1
  P  P26  1  0.750000  0.750000  0.342461  1
  P  P27  1  0.250000  0.439428  0.382919  1
  P  P28  1  0.250000  0.060572  0.382919  1
  P  P29  1  0.750000  0.562013  0.616691  1
  P  P30  1  0.750000  0.937987  0.616691  1
  P  P31  1  0.250000  0.901671  0.107486  1
  P  P32  1  0.250000  0.598329  0.107486  1
  P  P33  1  0.750000  0.094806  0.894418  1
  P  P34  1  0.750000  0.405194  0.894418  1
  Os  Os35  1  0.250000  0.250000  0.842483  1
