# generated using pymatgen
data_HgCl13
_symmetry_space_group_name_H-M   'P 1'
_cell_length_a   10.94712543
_cell_length_b   15.84342179
_cell_length_c   10.52726100
_cell_angle_alpha   104.30923863
_cell_angle_beta   110.07280582
_cell_angle_gamma   121.96471170
_symmetry_Int_Tables_number   1
_chemical_formula_structural   HgCl13
_chemical_formula_sum   'Hg2 Cl26'
_cell_volume   1226.23427030
_cell_formula_units_Z   2
loop_
 _symmetry_equiv_pos_site_id
 _symmetry_equiv_pos_as_xyz
  1  'x, y, z'
loop_
 _atom_site_type_symbol
 _atom_site_label
 _atom_site_symmetry_multiplicity
 _atom_site_fract_x
 _atom_site_fract_y
 _atom_site_fract_z
 _atom_site_occupancy
  Hg  Hg0  1  0.871874  0.971225  0.804138  1
  Hg  Hg1  1  0.378126  0.778775  0.695862  1
  Cl  Cl2  1  0.289170  0.396122  0.694549  1
  Cl  Cl3  1  0.631034  0.320507  0.964691  1
  Cl  Cl4  1  0.892204  0.061761  0.457036  1
  Cl  Cl5  1  0.960830  0.353878  0.805451  1
  Cl  Cl6  1  0.530448  0.151144  0.203775  1
  Cl  Cl7  1  0.719552  0.598856  0.296225  1
  Cl  Cl8  1  0.357796  0.688239  0.042964  1
  Cl  Cl9  1  0.618966  0.429493  0.535309  1
  Cl  Cl10  1  0.043609  0.803751  0.751734  1
  Cl  Cl11  1  0.449039  0.718983  0.266476  1
  Cl  Cl12  1  0.047654  0.133753  0.797523  1
  Cl  Cl13  1  0.790592  0.268186  0.567652  1
  Cl  Cl14  1  0.383733  0.190496  0.196112  1
  Cl  Cl15  1  0.761837  0.577149  0.745510  1
  Cl  Cl16  1  0.242160  0.921736  0.267025  1
  Cl  Cl17  1  0.197889  0.415526  0.369717  1
  Cl  Cl18  1  0.206391  0.946249  0.748266  1
  Cl  Cl19  1  0.800961  0.031017  0.233524  1
  Cl  Cl20  1  0.716146  0.811762  0.826400  1
  Cl  Cl21  1  0.533854  0.938238  0.673600  1
  Cl  Cl22  1  0.007840  0.828264  0.232975  1
  Cl  Cl23  1  0.052111  0.334474  0.130283  1
  Cl  Cl24  1  0.202346  0.616247  0.702477  1
  Cl  Cl25  1  0.488163  0.172851  0.754490  1
  Cl  Cl26  1  0.866267  0.559504  0.303888  1
  Cl  Cl27  1  0.459408  0.481814  0.932348  1
