# generated using pymatgen
data_Th2SnSe5
_symmetry_space_group_name_H-M   'P 1'
_cell_length_a   8.04480700
_cell_length_b   8.86268655
_cell_length_c   12.53334200
_cell_angle_alpha   88.99285601
_cell_angle_beta   90.00000000
_cell_angle_gamma   90.00000000
_symmetry_Int_Tables_number   1
_chemical_formula_structural   Th2SnSe5
_chemical_formula_sum   'Th8 Sn4 Se20'
_cell_volume   893.47172106
_cell_formula_units_Z   4
loop_
 _symmetry_equiv_pos_site_id
 _symmetry_equiv_pos_as_xyz
  1  'x, y, z'
loop_
 _atom_site_type_symbol
 _atom_site_label
 _atom_site_symmetry_multiplicity
 _atom_site_fract_x
 _atom_site_fract_y
 _atom_site_fract_z
 _atom_site_occupancy
  Th  Th0  1  0.026922  0.496139  0.319499  1
  Th  Th1  1  0.526922  0.503861  0.180501  1
  Th  Th2  1  0.973078  0.503861  0.680501  1
  Th  Th3  1  0.473078  0.496139  0.819499  1
  Th  Th4  1  0.084127  0.747009  0.004634  1
  Th  Th5  1  0.584127  0.252991  0.495366  1
  Th  Th6  1  0.915873  0.252991  0.995366  1
  Th  Th7  1  0.415873  0.747009  0.504634  1
  Sn  Sn8  1  0.972882  0.952447  0.319294  1
  Sn  Sn9  1  0.472882  0.047553  0.180706  1
  Sn  Sn10  1  0.027118  0.047553  0.680706  1
  Sn  Sn11  1  0.527118  0.952447  0.819294  1
  Se  Se12  1  0.166856  0.451712  0.096562  1
  Se  Se13  1  0.666856  0.548288  0.403438  1
  Se  Se14  1  0.833144  0.548288  0.903438  1
  Se  Se15  1  0.333144  0.451712  0.596562  1
  Se  Se16  1  0.459568  0.722281  0.996790  1
  Se  Se17  1  0.959568  0.277719  0.503210  1
  Se  Se18  1  0.540432  0.277719  0.003210  1
  Se  Se19  1  0.040432  0.722281  0.496790  1
  Se  Se20  1  0.340517  0.275333  0.314366  1
  Se  Se21  1  0.840517  0.724667  0.185634  1
  Se  Se22  1  0.659483  0.724667  0.685634  1
  Se  Se23  1  0.159483  0.275333  0.814366  1
  Se  Se24  1  0.652392  0.963231  0.404303  1
  Se  Se25  1  0.152392  0.036769  0.095697  1
  Se  Se26  1  0.347608  0.036769  0.595697  1
  Se  Se27  1  0.847608  0.963231  0.904303  1
  Se  Se28  1  0.303682  0.727447  0.277976  1
  Se  Se29  1  0.803682  0.272553  0.222024  1
  Se  Se30  1  0.696318  0.272553  0.722024  1
  Se  Se31  1  0.196318  0.727447  0.777976  1
