# generated using pymatgen
data_La2TbY3OsI10
_symmetry_space_group_name_H-M   'P 1'
_cell_length_a   7.89378874
_cell_length_b   9.96153379
_cell_length_c   9.88515121
_cell_angle_alpha   106.55203924
_cell_angle_beta   95.52617000
_cell_angle_gamma   105.46428187
_symmetry_Int_Tables_number   1
_chemical_formula_structural   La2TbY3OsI10
_chemical_formula_sum   'La2 Tb1 Y3 Os1 I10'
_cell_volume   705.53173579
_cell_formula_units_Z   1
loop_
 _symmetry_equiv_pos_site_id
 _symmetry_equiv_pos_as_xyz
  1  'x, y, z'
loop_
 _atom_site_type_symbol
 _atom_site_label
 _atom_site_symmetry_multiplicity
 _atom_site_fract_x
 _atom_site_fract_y
 _atom_site_fract_z
 _atom_site_occupancy
  La  La0  1  0.115245  0.043634  0.770056  1
  La  La1  1  0.884865  0.956534  0.229950  1
  Tb  Tb2  1  0.970356  0.289134  0.087453  1
  Y  Y3  1  0.029380  0.710517  0.912494  1
  Y  Y4  1  0.351833  0.127277  0.166090  1
  Y  Y5  1  0.648348  0.872427  0.833914  1
  Os  Os6  1  0.000086  0.000098  0.999979  1
  I  I7  1  0.345952  0.445271  0.268135  1
  I  I8  1  0.654604  0.554629  0.731940  1
  I  I9  1  0.267314  0.088192  0.453087  1
  I  I10  1  0.732695  0.911687  0.546994  1
  I  I11  1  0.083288  0.379016  0.825452  1
  I  I12  1  0.916899  0.622131  0.173988  1
  I  I13  1  0.447967  0.818588  0.087902  1
  I  I14  1  0.551882  0.181144  0.911956  1
  I  I15  1  0.772806  0.261306  0.340417  1
  I  I16  1  0.226481  0.738416  0.660194  1
