# generated using pymatgen
data_CePr(BPt4)2
_symmetry_space_group_name_H-M   'P 1'
_cell_length_a   5.48542500
_cell_length_b   5.48538300
_cell_length_c   7.68659600
_cell_angle_alpha   90.00000000
_cell_angle_beta   90.00000000
_cell_angle_gamma   120.00044978
_symmetry_Int_Tables_number   1
_chemical_formula_structural   CePr(BPt4)2
_chemical_formula_sum   'Ce1 Pr1 B2 Pt8'
_cell_volume   200.29954232
_cell_formula_units_Z   1
loop_
 _symmetry_equiv_pos_site_id
 _symmetry_equiv_pos_as_xyz
  1  'x, y, z'
loop_
 _atom_site_type_symbol
 _atom_site_label
 _atom_site_symmetry_multiplicity
 _atom_site_fract_x
 _atom_site_fract_y
 _atom_site_fract_z
 _atom_site_occupancy
  Ce  Ce0  1  0.000000  0.000000  0.500000  1
  Pr  Pr1  1  0.000000  0.000000  0.000000  1
  B  B2  1  0.666664  0.333331  0.500000  1
  B  B3  1  0.333336  0.666669  0.500000  1
  Pt  Pt4  1  0.666666  0.333334  0.000000  1
  Pt  Pt5  1  0.500000  0.500000  0.300439  1
  Pt  Pt6  1  0.500000  0.000000  0.300436  1
  Pt  Pt7  1  0.500000  0.000000  0.699564  1
  Pt  Pt8  1  0.500000  0.500000  0.699561  1
  Pt  Pt9  1  0.000000  0.500000  0.699560  1
  Pt  Pt10  1  0.333334  0.666666  0.000000  1
  Pt  Pt11  1  0.000000  0.500000  0.300440  1
