# generated using pymatgen
data_Ba6Gd2(TeO6)3
_symmetry_space_group_name_H-M   'P 1'
_cell_length_a   10.46118540
_cell_length_b   10.46118496
_cell_length_c   10.46118515
_cell_angle_alpha   146.53442994
_cell_angle_beta   131.72725516
_cell_angle_gamma   60.01304274
_symmetry_Int_Tables_number   1
_chemical_formula_structural   Ba6Gd2(TeO6)3
_chemical_formula_sum   'Ba6 Gd2 Te3 O18'
_cell_volume   466.86023969
_cell_formula_units_Z   1
loop_
 _symmetry_equiv_pos_site_id
 _symmetry_equiv_pos_as_xyz
  1  'x, y, z'
loop_
 _atom_site_type_symbol
 _atom_site_label
 _atom_site_symmetry_multiplicity
 _atom_site_fract_x
 _atom_site_fract_y
 _atom_site_fract_z
 _atom_site_occupancy
  Ba  Ba0  1  0.778358  0.500000  0.278358  1
  Ba  Ba1  1  0.386986  0.153744  0.233242  1
  Ba  Ba2  1  0.079499  0.846256  0.233242  1
  Ba  Ba3  1  0.221642  0.500000  0.721642  1
  Ba  Ba4  1  0.920501  0.153744  0.766758  1
  Ba  Ba5  1  0.613014  0.846256  0.766758  1
  Gd  Gd6  1  0.666040  0.666040  0.000000  1
  Gd  Gd7  1  0.333960  0.333960  0.000000  1
  Te  Te8  1  0.500000  0.000000  0.500000  1
  Te  Te9  1  0.169673  0.669673  0.500000  1
  Te  Te10  1  0.830327  0.330327  0.500000  1
  O  O11  1  0.723173  0.000000  0.723173  1
  O  O12  1  0.401952  0.668974  0.732978  1
  O  O13  1  0.064005  0.331026  0.732978  1
  O  O14  1  0.578165  0.845489  0.267323  1
  O  O15  1  0.245778  0.514239  0.268461  1
  O  O16  1  0.905722  0.179584  0.273861  1
  O  O17  1  0.421835  0.689159  0.267323  1
  O  O18  1  0.094278  0.368139  0.273861  1
  O  O19  1  0.754222  0.022683  0.268461  1
  O  O20  1  0.276827  0.000000  0.276827  1
  O  O21  1  0.935995  0.668974  0.267022  1
  O  O22  1  0.598048  0.331026  0.267022  1
  O  O23  1  0.421835  0.154511  0.732677  1
  O  O24  1  0.094278  0.820416  0.726139  1
  O  O25  1  0.754222  0.485761  0.731539  1
  O  O26  1  0.578165  0.310841  0.732677  1
  O  O27  1  0.245778  0.977317  0.731539  1
  O  O28  1  0.905722  0.631862  0.726139  1
