# generated using pymatgen
data_Nd4ThPPb3
_symmetry_space_group_name_H-M   'P 1'
_cell_length_a   9.53243072
_cell_length_b   9.53242956
_cell_length_c   6.92065800
_cell_angle_alpha   90.00000000
_cell_angle_beta   90.00000000
_cell_angle_gamma   119.79858903
_symmetry_Int_Tables_number   1
_chemical_formula_structural   Nd4ThPPb3
_chemical_formula_sum   'Nd8 Th2 P2 Pb6'
_cell_volume   545.71153263
_cell_formula_units_Z   2
loop_
 _symmetry_equiv_pos_site_id
 _symmetry_equiv_pos_as_xyz
  1  'x, y, z'
loop_
 _atom_site_type_symbol
 _atom_site_label
 _atom_site_symmetry_multiplicity
 _atom_site_fract_x
 _atom_site_fract_y
 _atom_site_fract_z
 _atom_site_occupancy
  Nd  Nd0  1  0.759005  0.759005  0.250000  1
  Nd  Nd1  1  0.239034  0.999550  0.250000  1
  Nd  Nd2  1  0.999550  0.239034  0.250000  1
  Nd  Nd3  1  0.241312  0.241312  0.750000  1
  Nd  Nd4  1  0.666703  0.333868  0.499325  1
  Nd  Nd5  1  0.333868  0.666703  0.499325  1
  Nd  Nd6  1  0.333868  0.666703  0.000675  1
  Nd  Nd7  1  0.666703  0.333868  0.000675  1
  Th  Th8  1  0.762872  0.001363  0.750000  1
  Th  Th9  1  0.001363  0.762872  0.750000  1
  P  P10  1  0.998027  0.998027  0.502832  1
  P  P11  1  0.998027  0.998027  0.997168  1
  Pb  Pb12  1  0.395581  0.395581  0.250000  1
  Pb  Pb13  1  0.603590  0.999913  0.250000  1
  Pb  Pb14  1  0.999913  0.603590  0.250000  1
  Pb  Pb15  1  0.603171  0.603171  0.750000  1
  Pb  Pb16  1  0.397549  0.999865  0.750000  1
  Pb  Pb17  1  0.999865  0.397549  0.750000  1
