# generated using pymatgen
data_Ba2MnV3Fe2(PO4)6
_symmetry_space_group_name_H-M   'P 1'
_cell_length_a   9.33222785
_cell_length_b   9.33222738
_cell_length_c   9.33667400
_cell_angle_alpha   137.65160422
_cell_angle_beta   110.12059805
_cell_angle_gamma   85.20587591
_symmetry_Int_Tables_number   1
_chemical_formula_structural   Ba2MnV3Fe2(PO4)6
_chemical_formula_sum   'Ba2 Mn1 V3 Fe2 P6 O24'
_cell_volume   495.25456332
_cell_formula_units_Z   1
loop_
 _symmetry_equiv_pos_site_id
 _symmetry_equiv_pos_as_xyz
  1  'x, y, z'
loop_
 _atom_site_type_symbol
 _atom_site_label
 _atom_site_symmetry_multiplicity
 _atom_site_fract_x
 _atom_site_fract_y
 _atom_site_fract_z
 _atom_site_occupancy
  Ba  Ba0  1  0.748587  0.140689  0.390588  1
  Ba  Ba1  1  0.250100  0.857998  0.609412  1
  Mn  Mn2  1  0.616712  0.616712  0.500000  1
  V  V3  1  0.000187  0.000812  0.000321  1
  V  V4  1  0.500490  0.499866  0.999679  1
  V  V5  1  0.380675  0.380675  0.500000  1
  Fe  Fe6  1  0.882373  0.382373  0.000000  1
  Fe  Fe7  1  0.117831  0.617831  0.000000  1
  P  P8  1  0.823038  0.823038  0.500000  1
  P  P9  1  0.678172  0.178172  0.000000  1
  P  P10  1  0.321679  0.821679  0.000000  1
  P  P11  1  0.177693  0.177693  0.500000  1
  P  P12  1  0.750970  0.648577  0.900159  1
  P  P13  1  0.248418  0.350811  0.099841  1
  O  O14  1  0.632992  0.508247  0.643965  1
  O  O15  1  0.132055  0.490663  0.122307  1
  O  O16  1  0.364283  0.489028  0.356035  1
  O  O17  1  0.868355  0.509748  0.877693  1
  O  O18  1  0.156581  0.128433  0.970467  1
  O  O19  1  0.842545  0.870292  0.027537  1
  O  O20  1  0.657965  0.686114  0.029533  1
  O  O21  1  0.342756  0.315008  0.972463  1
  O  O22  1  0.861941  0.795695  0.657178  1
  O  O23  1  0.862904  0.205104  0.064117  1
  O  O24  1  0.359266  0.701490  0.064337  1
  O  O25  1  0.362834  0.296569  0.656505  1
  O  O26  1  0.140065  0.206328  0.343495  1
  O  O27  1  0.137151  0.794929  0.935663  1
  O  O28  1  0.640987  0.298787  0.935883  1
  O  O29  1  0.638516  0.704763  0.342822  1
  O  O30  1  0.848764  0.066406  0.647078  1
  O  O31  1  0.579590  0.937111  0.783158  1
  O  O32  1  0.347431  0.702586  0.783571  1
  O  O33  1  0.081622  0.299043  0.646869  1
  O  O34  1  0.152174  0.934752  0.353131  1
  O  O35  1  0.419015  0.063860  0.216429  1
  O  O36  1  0.653954  0.296432  0.216842  1
  O  O37  1  0.919327  0.701685  0.352922  1
