# generated using pymatgen
data_Li2TaSi2WO10
_symmetry_space_group_name_H-M   'P 1'
_cell_length_a   7.50935655
_cell_length_b   8.00809200
_cell_length_c   7.51754550
_cell_angle_alpha   90.00000000
_cell_angle_beta   119.45668857
_cell_angle_gamma   90.00000000
_symmetry_Int_Tables_number   1
_chemical_formula_structural   Li2TaSi2WO10
_chemical_formula_sum   'Li4 Ta2 Si4 W2 O20'
_cell_volume   393.63181887
_cell_formula_units_Z   2
loop_
 _symmetry_equiv_pos_site_id
 _symmetry_equiv_pos_as_xyz
  1  'x, y, z'
loop_
 _atom_site_type_symbol
 _atom_site_label
 _atom_site_symmetry_multiplicity
 _atom_site_fract_x
 _atom_site_fract_y
 _atom_site_fract_z
 _atom_site_occupancy
  Li  Li0  1  0.248288  0.932349  0.194767  1
  Li  Li1  1  0.751712  0.432349  0.305233  1
  Li  Li2  1  0.251214  0.568618  0.691643  1
  Li  Li3  1  0.748785  0.068619  0.808356  1
  Ta  Ta4  1  0.748464  0.759254  0.507862  1
  Ta  Ta5  1  0.251537  0.259253  0.992139  1
  Si  Si6  1  0.750047  0.108790  0.243007  1
  Si  Si7  1  0.249953  0.608791  0.256993  1
  Si  Si8  1  0.747795  0.391296  0.739234  1
  Si  Si9  1  0.252205  0.891297  0.760765  1
  W  W10  1  0.747804  0.741860  0.005912  1
  W  W11  1  0.252196  0.241860  0.494088  1
  O  O12  1  0.757601  0.994421  0.067121  1
  O  O13  1  0.266211  0.484900  0.091082  1
  O  O14  1  0.556137  0.240023  0.150341  1
  O  O15  1  0.058611  0.739884  0.146506  1
  O  O16  1  0.245592  0.175492  0.248722  1
  O  O17  1  0.754410  0.675493  0.251279  1
  O  O18  1  0.941389  0.239884  0.353494  1
  O  O19  1  0.443864  0.740024  0.349659  1
  O  O20  1  0.733789  0.984901  0.408918  1
  O  O21  1  0.242400  0.494420  0.432880  1
  O  O22  1  0.758121  0.509788  0.565084  1
  O  O23  1  0.268044  0.010017  0.593697  1
  O  O24  1  0.562138  0.253026  0.647019  1
  O  O25  1  0.053389  0.764699  0.651038  1
  O  O26  1  0.253376  0.325578  0.745693  1
  O  O27  1  0.746626  0.825577  0.754308  1
  O  O28  1  0.946611  0.264700  0.848962  1
  O  O29  1  0.437864  0.753026  0.852981  1
  O  O30  1  0.731955  0.510017  0.906302  1
  O  O31  1  0.241880  0.009788  0.934917  1
