# generated using pymatgen
data_Ac3Pr(SbPd)4
_symmetry_space_group_name_H-M   'P 1'
_cell_length_a   4.66577500
_cell_length_b   8.66300431
_cell_length_c   8.05926800
_cell_angle_alpha   90.08400911
_cell_angle_beta   90.00000000
_cell_angle_gamma   90.00000000
_symmetry_Int_Tables_number   1
_chemical_formula_structural   Ac3Pr(SbPd)4
_chemical_formula_sum   'Ac3 Pr1 Sb4 Pd4'
_cell_volume   325.75227196
_cell_formula_units_Z   1
loop_
 _symmetry_equiv_pos_site_id
 _symmetry_equiv_pos_as_xyz
  1  'x, y, z'
loop_
 _atom_site_type_symbol
 _atom_site_label
 _atom_site_symmetry_multiplicity
 _atom_site_fract_x
 _atom_site_fract_y
 _atom_site_fract_z
 _atom_site_occupancy
  Ac  Ac0  1  0.250000  0.496990  0.249036  1
  Ac  Ac1  1  0.750000  0.498418  0.751059  1
  Ac  Ac2  1  0.750000  0.998344  0.748103  1
  Pr  Pr3  1  0.250000  0.997111  0.250985  1
  Sb  Sb4  1  0.250000  0.747276  0.919387  1
  Sb  Sb5  1  0.750000  0.231434  0.086665  1
  Sb  Sb6  1  0.750000  0.751989  0.413843  1
  Sb  Sb7  1  0.250000  0.243891  0.580325  1
  Pd  Pd8  1  0.250000  0.761977  0.583385  1
  Pd  Pd9  1  0.750000  0.252617  0.417365  1
  Pd  Pd10  1  0.750000  0.765054  0.082184  1
  Pd  Pd11  1  0.250000  0.254899  0.917663  1
