# generated using pymatgen
data_CdBi3Ir3RuO14
_symmetry_space_group_name_H-M   'P 1'
_cell_length_a   7.26009662
_cell_length_b   7.26009651
_cell_length_c   7.29076859
_cell_angle_alpha   61.16129695
_cell_angle_beta   61.16129946
_cell_angle_gamma   61.00497158
_symmetry_Int_Tables_number   1
_chemical_formula_structural   CdBi3Ir3RuO14
_chemical_formula_sum   'Cd1 Bi3 Ir3 Ru1 O14'
_cell_volume   278.51616823
_cell_formula_units_Z   1
loop_
 _symmetry_equiv_pos_site_id
 _symmetry_equiv_pos_as_xyz
  1  'x, y, z'
loop_
 _atom_site_type_symbol
 _atom_site_label
 _atom_site_symmetry_multiplicity
 _atom_site_fract_x
 _atom_site_fract_y
 _atom_site_fract_z
 _atom_site_occupancy
  Cd  Cd0  1  0.125000  0.125000  0.125000  1
  Bi  Bi1  1  0.125000  0.625000  0.125000  1
  Bi  Bi2  1  0.125000  0.125000  0.625000  1
  Bi  Bi3  1  0.625000  0.125000  0.125000  1
  Ir  Ir4  1  0.625000  0.125000  0.625000  1
  Ir  Ir5  1  0.125000  0.625000  0.625000  1
  Ir  Ir6  1  0.625000  0.625000  0.625000  1
  Ru  Ru7  1  0.625000  0.625000  0.125000  1
  O  O8  1  0.705103  0.705103  0.297729  1
  O  O9  1  0.954926  0.543945  0.542878  1
  O  O10  1  0.558108  0.949236  0.949943  1
  O  O11  1  0.955124  0.955124  0.546130  1
  O  O12  1  0.949236  0.558108  0.949943  1
  O  O13  1  0.543945  0.954926  0.542878  1
  O  O14  1  0.300764  0.691892  0.300057  1
  O  O15  1  0.295074  0.706055  0.707122  1
  O  O16  1  0.691892  0.300764  0.300057  1
  O  O17  1  0.706055  0.295074  0.707122  1
  O  O18  1  0.544897  0.544897  0.952271  1
  O  O19  1  0.294876  0.294876  0.703870  1
  O  O20  1  0.246030  0.246030  0.247596  1
  O  O21  1  0.003970  0.003970  0.002404  1
