# generated using pymatgen
data_Hf11Zr(GeAs5)4
_symmetry_space_group_name_H-M   'P 1'
_cell_length_a   3.69931000
_cell_length_b   6.76405569
_cell_length_c   27.31495123
_cell_angle_alpha   89.95689249
_cell_angle_beta   90.00000000
_cell_angle_gamma   90.00000000
_symmetry_Int_Tables_number   1
_chemical_formula_structural   Hf11Zr(GeAs5)4
_chemical_formula_sum   'Hf11 Zr1 Ge4 As20'
_cell_volume   683.48377216
_cell_formula_units_Z   1
loop_
 _symmetry_equiv_pos_site_id
 _symmetry_equiv_pos_as_xyz
  1  'x, y, z'
loop_
 _atom_site_type_symbol
 _atom_site_label
 _atom_site_symmetry_multiplicity
 _atom_site_fract_x
 _atom_site_fract_y
 _atom_site_fract_z
 _atom_site_occupancy
  Hf  Hf0  1  0.500000  0.730544  0.719604  1
  Hf  Hf1  1  0.500000  0.727252  0.386633  1
  Hf  Hf2  1  0.500000  0.726667  0.053055  1
  Hf  Hf3  1  0.500000  0.228461  0.781148  1
  Hf  Hf4  1  0.500000  0.230175  0.446167  1
  Hf  Hf5  1  0.000000  0.269804  0.945171  1
  Hf  Hf6  1  0.000000  0.268000  0.610383  1
  Hf  Hf7  1  0.000000  0.269941  0.278962  1
  Hf  Hf8  1  0.000000  0.769923  0.888630  1
  Hf  Hf9  1  0.000000  0.769961  0.555211  1
  Hf  Hf10  1  0.000000  0.771580  0.221845  1
  Zr  Zr11  1  0.500000  0.230537  0.113364  1
  Ge  Ge12  1  0.500000  0.628657  0.818570  1
  Ge  Ge13  1  0.500000  0.628198  0.485344  1
  Ge  Ge14  1  0.500000  0.628764  0.152312  1
  Ge  Ge15  1  0.500000  0.129570  0.681652  1
  As  As16  1  0.500000  0.579234  0.950962  1
  As  As17  1  0.500000  0.580862  0.617330  1
  As  As18  1  0.500000  0.580072  0.284190  1
  As  As19  1  0.500000  0.078337  0.883539  1
  As  As20  1  0.500000  0.079816  0.549361  1
  As  As21  1  0.500000  0.079659  0.217515  1
  As  As22  1  0.000000  0.406721  0.716136  1
  As  As23  1  0.000000  0.416272  0.382555  1
  As  As24  1  0.000000  0.416824  0.048486  1
  As  As25  1  0.000000  0.908021  0.783947  1
  As  As26  1  0.000000  0.911298  0.450293  1
  As  As27  1  0.000000  0.906551  0.117028  1
  As  As28  1  0.500000  0.122073  0.347797  1
  As  As29  1  0.500000  0.122827  0.014142  1
  As  As30  1  0.000000  0.387028  0.847066  1
  As  As31  1  0.000000  0.385395  0.512828  1
  As  As32  1  0.000000  0.387580  0.180697  1
  As  As33  1  0.000000  0.879059  0.985801  1
  As  As34  1  0.000000  0.886240  0.653099  1
  As  As35  1  0.000000  0.878094  0.319179  1
