# generated using pymatgen
data_AcTh(AgSb2)2
_symmetry_space_group_name_H-M   'P 1'
_cell_length_a   4.41127154
_cell_length_b   4.41127148
_cell_length_c   22.28423900
_cell_angle_alpha   90.37512342
_cell_angle_beta   90.37512341
_cell_angle_gamma   89.75993690
_symmetry_Int_Tables_number   1
_chemical_formula_structural   AcTh(AgSb2)2
_chemical_formula_sum   'Ac2 Th2 Ag4 Sb8'
_cell_volume   433.61373978
_cell_formula_units_Z   2
loop_
 _symmetry_equiv_pos_site_id
 _symmetry_equiv_pos_as_xyz
  1  'x, y, z'
loop_
 _atom_site_type_symbol
 _atom_site_label
 _atom_site_symmetry_multiplicity
 _atom_site_fract_x
 _atom_site_fract_y
 _atom_site_fract_z
 _atom_site_occupancy
  Ac  Ac0  1  0.255134  0.255134  0.379922  1
  Ac  Ac1  1  0.744866  0.744866  0.620078  1
  Th  Th2  1  0.753341  0.753341  0.110344  1
  Th  Th3  1  0.246659  0.246659  0.889656  1
  Ag  Ag4  1  0.243569  0.744226  0.761420  1
  Ag  Ag5  1  0.255774  0.756431  0.238580  1
  Ag  Ag6  1  0.756431  0.255774  0.238580  1
  Ag  Ag7  1  0.744226  0.243569  0.761420  1
  Sb  Sb8  1  0.745772  0.745772  0.849498  1
  Sb  Sb9  1  0.254228  0.254228  0.150502  1
  Sb  Sb10  1  0.243576  0.243576  0.678609  1
  Sb  Sb11  1  0.756424  0.756424  0.321391  1
  Sb  Sb12  1  0.249897  0.750103  0.000000  1
  Sb  Sb13  1  0.247153  0.752847  0.500000  1
  Sb  Sb14  1  0.750103  0.249897  0.000000  1
  Sb  Sb15  1  0.752847  0.247153  0.500000  1
