# generated using pymatgen
data_Er6Sc4In8PtRh3
_symmetry_space_group_name_H-M   'P 1'
_cell_length_a   3.54699900
_cell_length_b   7.87050928
_cell_length_c   17.85929923
_cell_angle_alpha   89.91251721
_cell_angle_beta   90.00000000
_cell_angle_gamma   90.00000000
_symmetry_Int_Tables_number   1
_chemical_formula_structural   Er6Sc4In8PtRh3
_chemical_formula_sum   'Er6 Sc4 In8 Pt1 Rh3'
_cell_volume   498.57191323
_cell_formula_units_Z   1
loop_
 _symmetry_equiv_pos_site_id
 _symmetry_equiv_pos_as_xyz
  1  'x, y, z'
loop_
 _atom_site_type_symbol
 _atom_site_label
 _atom_site_symmetry_multiplicity
 _atom_site_fract_x
 _atom_site_fract_y
 _atom_site_fract_z
 _atom_site_occupancy
  Er  Er0  1  0.000000  0.999872  0.000071  1
  Er  Er1  1  0.000000  0.500129  0.500119  1
  Er  Er2  1  0.000000  0.745895  0.782550  1
  Er  Er3  1  0.000000  0.251410  0.218273  1
  Er  Er4  1  0.000000  0.251562  0.718533  1
  Er  Er5  1  0.000000  0.751288  0.281785  1
  Sc  Sc6  1  0.000000  0.876272  0.587331  1
  Sc  Sc7  1  0.000000  0.122490  0.410964  1
  Sc  Sc8  1  0.000000  0.377812  0.910887  1
  Sc  Sc9  1  0.000000  0.622769  0.088992  1
  In  In10  1  0.500000  0.809273  0.438136  1
  In  In11  1  0.500000  0.192331  0.560954  1
  In  In12  1  0.500000  0.309103  0.061697  1
  In  In13  1  0.500000  0.690834  0.938072  1
  In  In14  1  0.500000  0.925659  0.149664  1
  In  In15  1  0.500000  0.075915  0.851356  1
  In  In16  1  0.500000  0.425047  0.350351  1
  In  In17  1  0.500000  0.572791  0.649370  1
  Pt  Pt18  1  0.500000  0.962790  0.693368  1
  Rh  Rh19  1  0.500000  0.037119  0.307372  1
  Rh  Rh20  1  0.500000  0.462957  0.807514  1
  Rh  Rh21  1  0.500000  0.536682  0.192640  1
