# generated using pymatgen
data_TbSmHoP4Pd7
_symmetry_space_group_name_H-M   'P 1'
_cell_length_a   7.95781649
_cell_length_b   7.95781640
_cell_length_c   9.46287357
_cell_angle_alpha   55.84742182
_cell_angle_beta   55.84742119
_cell_angle_gamma   29.32362142
_symmetry_Int_Tables_number   1
_chemical_formula_structural   TbSmHoP4Pd7
_chemical_formula_sum   'Tb1 Sm1 Ho1 P4 Pd7'
_cell_volume   239.01179451
_cell_formula_units_Z   1
loop_
 _symmetry_equiv_pos_site_id
 _symmetry_equiv_pos_as_xyz
  1  'x, y, z'
loop_
 _atom_site_type_symbol
 _atom_site_label
 _atom_site_symmetry_multiplicity
 _atom_site_fract_x
 _atom_site_fract_y
 _atom_site_fract_z
 _atom_site_occupancy
  Tb  Tb0  1  0.320444  0.320444  0.676150  1
  Sm  Sm1  1  0.999920  0.999920  0.000069  1
  Ho  Ho2  1  0.679488  0.679488  0.324022  1
  P  P3  1  0.338723  0.338723  0.256399  1
  P  P4  1  0.660407  0.660407  0.744441  1
  P  P5  1  0.893756  0.893756  0.818474  1
  P  P6  1  0.106739  0.106739  0.181893  1
  Pd  Pd7  1  0.304584  0.304584  0.031105  1
  Pd  Pd8  1  0.695224  0.695224  0.969987  1
  Pd  Pd9  1  0.509686  0.509686  0.713972  1
  Pd  Pd10  1  0.830662  0.830662  0.422955  1
  Pd  Pd11  1  0.490499  0.490499  0.285668  1
  Pd  Pd12  1  0.169109  0.169109  0.575548  1
  Pd  Pd13  1  0.000759  0.000759  0.499315  1
