# generated using pymatgen
data_Tc12AuBr25
_symmetry_space_group_name_H-M   'P 1'
_cell_length_a   9.98155667
_cell_length_b   11.15286930
_cell_length_c   11.87090427
_cell_angle_alpha   81.78731668
_cell_angle_beta   82.62305215
_cell_angle_gamma   94.26081094
_symmetry_Int_Tables_number   1
_chemical_formula_structural   Tc12AuBr25
_chemical_formula_sum   'Tc12 Au1 Br25'
_cell_volume   1291.33615694
_cell_formula_units_Z   1
loop_
 _symmetry_equiv_pos_site_id
 _symmetry_equiv_pos_as_xyz
  1  'x, y, z'
loop_
 _atom_site_type_symbol
 _atom_site_label
 _atom_site_symmetry_multiplicity
 _atom_site_fract_x
 _atom_site_fract_y
 _atom_site_fract_z
 _atom_site_occupancy
  Tc  Tc0  1  0.808584  0.252083  0.115144  1
  Tc  Tc1  1  0.191416  0.747917  0.884856  1
  Tc  Tc2  1  0.739027  0.114013  0.267510  1
  Tc  Tc3  1  0.260973  0.885987  0.732490  1
  Tc  Tc4  1  0.047416  0.283266  0.195046  1
  Tc  Tc5  1  0.952584  0.716734  0.804954  1
  Tc  Tc6  1  0.846888  0.421697  0.251323  1
  Tc  Tc7  1  0.153112  0.578303  0.748677  1
  Tc  Tc8  1  0.774763  0.284335  0.404295  1
  Tc  Tc9  1  0.225237  0.715665  0.595705  1
  Tc  Tc10  1  0.977074  0.146418  0.349271  1
  Tc  Tc11  1  0.022926  0.853582  0.650729  1
  Au  Au12  1  0.500000  0.000000  0.000000  1
  Br  Br13  1  0.910143  0.962596  0.264021  1
  Br  Br14  1  0.089857  0.037404  0.735979  1
  Br  Br15  1  0.975409  0.270703  0.508235  1
  Br  Br16  1  0.024591  0.729297  0.491765  1
  Br  Br17  1  0.650399  0.412752  0.140018  1
  Br  Br18  1  0.349601  0.587248  0.859982  1
  Br  Br19  1  0.087352  0.472183  0.282014  1
  Br  Br20  1  0.912648  0.527817  0.717986  1
  Br  Br21  1  0.000000  0.500000  0.000000  1
  Br  Br22  1  0.571633  0.958493  0.211326  1
  Br  Br23  1  0.428367  0.041507  0.788674  1
  Br  Br24  1  0.182414  0.049074  0.412350  1
  Br  Br25  1  0.817586  0.950926  0.587650  1
  Br  Br26  1  0.546880  0.200265  0.372265  1
  Br  Br27  1  0.453120  0.799735  0.627735  1
  Br  Br28  1  0.018048  0.169568  0.030903  1
  Br  Br29  1  0.981952  0.830432  0.969097  1
  Br  Br30  1  0.789878  0.627198  0.291158  1
  Br  Br31  1  0.210122  0.372802  0.708842  1
  Br  Br32  1  0.688701  0.193565  0.950748  1
  Br  Br33  1  0.311299  0.806435  0.049252  1
  Br  Br34  1  0.296785  0.285441  0.139290  1
  Br  Br35  1  0.703215  0.714559  0.860710  1
  Br  Br36  1  0.658263  0.379934  0.561423  1
  Br  Br37  1  0.341737  0.620066  0.438577  1
