# generated using pymatgen
data_Nd16Ag4IrPt3
_symmetry_space_group_name_H-M   'P 1'
_cell_length_a   9.93060667
_cell_length_b   9.90147286
_cell_length_c   9.90147200
_cell_angle_alpha   60.00000286
_cell_angle_beta   60.09700280
_cell_angle_gamma   60.09700831
_symmetry_Int_Tables_number   1
_chemical_formula_structural   Nd16Ag4IrPt3
_chemical_formula_sum   'Nd16 Ag4 Ir1 Pt3'
_cell_volume   689.43858068
_cell_formula_units_Z   1
loop_
 _symmetry_equiv_pos_site_id
 _symmetry_equiv_pos_as_xyz
  1  'x, y, z'
loop_
 _atom_site_type_symbol
 _atom_site_label
 _atom_site_symmetry_multiplicity
 _atom_site_fract_x
 _atom_site_fract_y
 _atom_site_fract_z
 _atom_site_occupancy
  Nd  Nd0  1  0.357130  0.353243  0.353243  1
  Nd  Nd1  1  0.357130  0.353243  0.936384  1
  Nd  Nd2  1  0.357130  0.936384  0.353243  1
  Nd  Nd3  1  0.927118  0.357627  0.357627  1
  Nd  Nd4  1  0.808385  0.188591  0.188591  1
  Nd  Nd5  1  0.189271  0.810739  0.810739  1
  Nd  Nd6  1  0.189271  0.810739  0.189252  1
  Nd  Nd7  1  0.808385  0.188591  0.814433  1
  Nd  Nd8  1  0.189271  0.189252  0.810739  1
  Nd  Nd9  1  0.808385  0.814433  0.188591  1
  Nd  Nd10  1  0.937581  0.563595  0.563595  1
  Nd  Nd11  1  0.566328  0.935644  0.935644  1
  Nd  Nd12  1  0.566328  0.935644  0.562383  1
  Nd  Nd13  1  0.937581  0.563595  0.935229  1
  Nd  Nd14  1  0.566328  0.562383  0.935644  1
  Nd  Nd15  1  0.937581  0.935229  0.563595  1
  Ag  Ag16  1  0.582038  0.582916  0.582916  1
  Ag  Ag17  1  0.582038  0.582916  0.252129  1
  Ag  Ag18  1  0.582038  0.252129  0.582916  1
  Ag  Ag19  1  0.255256  0.581581  0.581581  1
  Ir  Ir20  1  0.568624  0.143792  0.143792  1
  Pt  Pt21  1  0.142269  0.145844  0.145844  1
  Pt  Pt22  1  0.142269  0.145844  0.566043  1
  Pt  Pt23  1  0.142269  0.566043  0.145844  1
