# generated using pymatgen
data_Sc2Co3(B2Mo)2
_symmetry_space_group_name_H-M   'P 1'
_cell_length_a   8.33913701
_cell_length_b   3.09639800
_cell_length_c   9.33077601
_cell_angle_alpha   90.00000000
_cell_angle_beta   90.00629717
_cell_angle_gamma   90.00000000
_symmetry_Int_Tables_number   1
_chemical_formula_structural   Sc2Co3(B2Mo)2
_chemical_formula_sum   'Sc4 Co6 B8 Mo4'
_cell_volume   240.93264550
_cell_formula_units_Z   2
loop_
 _symmetry_equiv_pos_site_id
 _symmetry_equiv_pos_as_xyz
  1  'x, y, z'
loop_
 _atom_site_type_symbol
 _atom_site_label
 _atom_site_symmetry_multiplicity
 _atom_site_fract_x
 _atom_site_fract_y
 _atom_site_fract_z
 _atom_site_occupancy
  Sc  Sc0  1  0.162865  0.500000  0.680963  1
  Sc  Sc1  1  0.837135  0.500000  0.319037  1
  Sc  Sc2  1  0.662873  0.500000  0.819041  1
  Sc  Sc3  1  0.337127  0.500000  0.180959  1
  Co  Co4  1  0.411912  0.000000  0.744992  1
  Co  Co5  1  0.588088  0.000000  0.255008  1
  Co  Co6  1  0.911886  0.000000  0.755012  1
  Co  Co7  1  0.088114  0.000000  0.244988  1
  Co  Co8  1  0.500000  0.000000  0.000000  1
  Co  Co9  1  0.000000  0.000000  0.500000  1
  B  B10  1  0.365839  0.500000  0.896955  1
  B  B11  1  0.634161  0.500000  0.103045  1
  B  B12  1  0.466705  0.500000  0.594410  1
  B  B13  1  0.533295  0.500000  0.405590  1
  B  B14  1  0.865893  0.500000  0.603010  1
  B  B15  1  0.134107  0.500000  0.396990  1
  B  B16  1  0.966706  0.500000  0.905543  1
  B  B17  1  0.033294  0.500000  0.094457  1
  Mo  Mo18  1  0.167668  0.000000  0.953516  1
  Mo  Mo19  1  0.832332  0.000000  0.046484  1
  Mo  Mo20  1  0.667640  0.000000  0.546441  1
  Mo  Mo21  1  0.332360  0.000000  0.453559  1
