# generated using pymatgen
data_Y9Tm7(AlRh)4
_symmetry_space_group_name_H-M   'P 1'
_cell_length_a   9.49482295
_cell_length_b   9.50104733
_cell_length_c   9.52075193
_cell_angle_alpha   59.89401026
_cell_angle_beta   60.02498269
_cell_angle_gamma   60.12426694
_symmetry_Int_Tables_number   1
_chemical_formula_structural   Y9Tm7(AlRh)4
_chemical_formula_sum   'Y9 Tm7 Al4 Rh4'
_cell_volume   607.50943673
_cell_formula_units_Z   1
loop_
 _symmetry_equiv_pos_site_id
 _symmetry_equiv_pos_as_xyz
  1  'x, y, z'
loop_
 _atom_site_type_symbol
 _atom_site_label
 _atom_site_symmetry_multiplicity
 _atom_site_fract_x
 _atom_site_fract_y
 _atom_site_fract_z
 _atom_site_occupancy
  Y  Y0  1  0.056537  0.443432  0.056428  1
  Y  Y1  1  0.443432  0.442526  0.055803  1
  Y  Y2  1  0.057368  0.057415  0.442797  1
  Y  Y3  1  0.187791  0.813864  0.811740  1
  Y  Y4  1  0.812160  0.187520  0.188773  1
  Y  Y5  1  0.812081  0.187969  0.812131  1
  Y  Y6  1  0.187800  0.813397  0.187923  1
  Y  Y7  1  0.810949  0.813344  0.188693  1
  Y  Y8  1  0.189406  0.188342  0.811293  1
  Tm  Tm9  1  0.600003  0.601540  0.600589  1
  Tm  Tm10  1  0.602172  0.603399  0.194087  1
  Tm  Tm11  1  0.603889  0.191335  0.603579  1
  Tm  Tm12  1  0.194308  0.603707  0.602162  1
  Tm  Tm13  1  0.054844  0.443681  0.444306  1
  Tm  Tm14  1  0.443501  0.056713  0.056341  1
  Tm  Tm15  1  0.443189  0.055786  0.443069  1
  Al  Al16  1  0.828283  0.827649  0.827707  1
  Al  Al17  1  0.827509  0.827206  0.517528  1
  Al  Al18  1  0.826979  0.517491  0.827723  1
  Al  Al19  1  0.517860  0.826470  0.827506  1
  Rh  Rh20  1  0.390679  0.390724  0.397175  1
  Rh  Rh21  1  0.394974  0.389136  0.817972  1
  Rh  Rh22  1  0.396206  0.821920  0.389677  1
  Rh  Rh23  1  0.818078  0.395438  0.394995  1
