# generated using pymatgen
data_Nd2Tm3LuRh18
_symmetry_space_group_name_H-M   'P 1'
_cell_length_a   5.28173400
_cell_length_b   5.28173416
_cell_length_c   17.43424500
_cell_angle_alpha   90.00000000
_cell_angle_beta   90.00000000
_cell_angle_gamma   119.99999902
_symmetry_Int_Tables_number   1
_chemical_formula_structural   Nd2Tm3LuRh18
_chemical_formula_sum   'Nd2 Tm3 Lu1 Rh18'
_cell_volume   421.19852755
_cell_formula_units_Z   1
loop_
 _symmetry_equiv_pos_site_id
 _symmetry_equiv_pos_as_xyz
  1  'x, y, z'
loop_
 _atom_site_type_symbol
 _atom_site_label
 _atom_site_symmetry_multiplicity
 _atom_site_fract_x
 _atom_site_fract_y
 _atom_site_fract_z
 _atom_site_occupancy
  Nd  Nd0  1  0.333333  0.666667  0.750106  1
  Nd  Nd1  1  0.666667  0.333333  0.249984  1
  Tm  Tm2  1  0.333333  0.666667  0.540869  1
  Tm  Tm3  1  0.666667  0.333333  0.040710  1
  Tm  Tm4  1  0.666667  0.333333  0.459135  1
  Lu  Lu5  1  0.333333  0.666667  0.959051  1
  Rh  Rh6  1  0.167668  0.335334  0.124089  1
  Rh  Rh7  1  0.832375  0.664751  0.624192  1
  Rh  Rh8  1  0.664666  0.832332  0.124089  1
  Rh  Rh9  1  0.167668  0.832332  0.124089  1
  Rh  Rh10  1  0.832375  0.167625  0.624192  1
  Rh  Rh11  1  0.335249  0.167625  0.624192  1
  Rh  Rh12  1  0.832324  0.664649  0.875989  1
  Rh  Rh13  1  0.832324  0.167676  0.875989  1
  Rh  Rh14  1  0.335351  0.167676  0.875989  1
  Rh  Rh15  1  0.664776  0.832388  0.375813  1
  Rh  Rh16  1  0.167612  0.832388  0.375813  1
  Rh  Rh17  1  0.167612  0.335224  0.375813  1
  Rh  Rh18  1  0.000000  0.000000  0.249913  1
  Rh  Rh19  1  0.000000  0.000000  0.750029  1
  Rh  Rh20  1  0.333333  0.666667  0.249992  1
  Rh  Rh21  1  0.666667  0.333333  0.750021  1
  Rh  Rh22  1  0.000000  0.000000  0.999943  1
  Rh  Rh23  1  0.000000  0.000000  0.499996  1
