# generated using pymatgen
data_LiPmInPd
_symmetry_space_group_name_H-M   'P 1'
_cell_length_a   4.89341241
_cell_length_b   4.89341226
_cell_length_c   4.89341200
_cell_angle_alpha   59.99998822
_cell_angle_beta   59.99998926
_cell_angle_gamma   59.99999570
_symmetry_Int_Tables_number   1
_chemical_formula_structural   LiPmInPd
_chemical_formula_sum   'Li1 Pm1 In1 Pd1'
_cell_volume   82.85530520
_cell_formula_units_Z   1
loop_
 _symmetry_equiv_pos_site_id
 _symmetry_equiv_pos_as_xyz
  1  'x, y, z'
loop_
 _atom_site_type_symbol
 _atom_site_label
 _atom_site_symmetry_multiplicity
 _atom_site_fract_x
 _atom_site_fract_y
 _atom_site_fract_z
 _atom_site_occupancy
  Li  Li0  1  0.250000  0.250000  0.250000  1
  Pm  Pm1  1  0.500000  0.500000  0.500000  1
  In  In2  1  0.000000  0.000000  0.000000  1
  Pd  Pd3  1  0.750000  0.750000  0.750000  1
