# generated using pymatgen
data_DyY3Mn4(CuO5)4
_symmetry_space_group_name_H-M   'P 1'
_cell_length_a   5.64938000
_cell_length_b   7.53677109
_cell_length_c   8.46484710
_cell_angle_alpha   89.98232650
_cell_angle_beta   90.00000000
_cell_angle_gamma   90.00000000
_symmetry_Int_Tables_number   1
_chemical_formula_structural   DyY3Mn4(CuO5)4
_chemical_formula_sum   'Dy1 Y3 Mn4 Cu4 O20'
_cell_volume   360.41695255
_cell_formula_units_Z   1
loop_
 _symmetry_equiv_pos_site_id
 _symmetry_equiv_pos_as_xyz
  1  'x, y, z'
loop_
 _atom_site_type_symbol
 _atom_site_label
 _atom_site_symmetry_multiplicity
 _atom_site_fract_x
 _atom_site_fract_y
 _atom_site_fract_z
 _atom_site_occupancy
  Dy  Dy0  1  0.500000  0.351317  0.325711  1
  Y  Y1  1  0.500000  0.648816  0.674089  1
  Y  Y2  1  0.500000  0.148881  0.825788  1
  Y  Y3  1  0.500000  0.851129  0.174265  1
  Mn  Mn4  1  0.240420  0.000311  0.500003  1
  Mn  Mn5  1  0.759580  0.000311  0.500003  1
  Mn  Mn6  1  0.759717  0.499788  0.000018  1
  Mn  Mn7  1  0.240283  0.499788  0.000018  1
  Cu  Cu8  1  0.000000  0.071921  0.150409  1
  Cu  Cu9  1  0.000000  0.928304  0.850232  1
  Cu  Cu10  1  0.000000  0.428617  0.649743  1
  Cu  Cu11  1  0.000000  0.570817  0.349707  1
  O  O12  1  0.227328  0.999936  0.000307  1
  O  O13  1  0.772672  0.999936  0.000307  1
  O  O14  1  0.772262  0.499245  0.499523  1
  O  O15  1  0.227738  0.499245  0.499523  1
  O  O16  1  0.000000  0.347153  0.061336  1
  O  O17  1  0.000000  0.652634  0.938814  1
  O  O18  1  0.000000  0.152747  0.561540  1
  O  O19  1  0.000000  0.847681  0.438302  1
  O  O20  1  0.258138  0.096000  0.286937  1
  O  O21  1  0.742215  0.904998  0.713311  1
  O  O22  1  0.257785  0.904998  0.713311  1
  O  O23  1  0.742233  0.405114  0.786597  1
  O  O24  1  0.741862  0.096000  0.286937  1
  O  O25  1  0.258216  0.594459  0.213314  1
  O  O26  1  0.741784  0.594459  0.213314  1
  O  O27  1  0.257767  0.405114  0.786597  1
  O  O28  1  0.500000  0.335476  0.051848  1
  O  O29  1  0.500000  0.664228  0.948413  1
  O  O30  1  0.500000  0.164774  0.551463  1
  O  O31  1  0.500000  0.835805  0.448323  1
