# generated using pymatgen
data_SrTbDySe4
_symmetry_space_group_name_H-M   'P 1'
_cell_length_a   4.16336600
_cell_length_b   12.66610400
_cell_length_c   15.05913300
_cell_angle_alpha   90.00000000
_cell_angle_beta   90.00000000
_cell_angle_gamma   90.00000000
_symmetry_Int_Tables_number   1
_chemical_formula_structural   SrTbDySe4
_chemical_formula_sum   'Sr4 Tb4 Dy4 Se16'
_cell_volume   794.12269874
_cell_formula_units_Z   4
loop_
 _symmetry_equiv_pos_site_id
 _symmetry_equiv_pos_as_xyz
  1  'x, y, z'
loop_
 _atom_site_type_symbol
 _atom_site_label
 _atom_site_symmetry_multiplicity
 _atom_site_fract_x
 _atom_site_fract_y
 _atom_site_fract_z
 _atom_site_occupancy
  Sr  Sr0  1  0.250000  0.758599  0.664423  1
  Sr  Sr1  1  0.750000  0.741401  0.164423  1
  Sr  Sr2  1  0.250000  0.258599  0.835577  1
  Sr  Sr3  1  0.750000  0.241401  0.335577  1
  Tb  Tb4  1  0.250000  0.433539  0.609811  1
  Tb  Tb5  1  0.750000  0.066461  0.109811  1
  Tb  Tb6  1  0.250000  0.933539  0.890189  1
  Tb  Tb7  1  0.750000  0.566461  0.390189  1
  Dy  Dy8  1  0.250000  0.419840  0.098890  1
  Dy  Dy9  1  0.750000  0.080160  0.598890  1
  Dy  Dy10  1  0.250000  0.919840  0.401110  1
  Dy  Dy11  1  0.750000  0.580160  0.901110  1
  Se  Se12  1  0.250000  0.411790  0.420992  1
  Se  Se13  1  0.750000  0.088210  0.920992  1
  Se  Se14  1  0.250000  0.911790  0.079008  1
  Se  Se15  1  0.750000  0.588210  0.579008  1
  Se  Se16  1  0.250000  0.024389  0.715771  1
  Se  Se17  1  0.750000  0.475611  0.215771  1
  Se  Se18  1  0.250000  0.524389  0.784229  1
  Se  Se19  1  0.750000  0.975611  0.284229  1
  Se  Se20  1  0.250000  0.131140  0.472278  1
  Se  Se21  1  0.750000  0.368860  0.972278  1
  Se  Se22  1  0.250000  0.631140  0.027722  1
  Se  Se23  1  0.750000  0.868860  0.527722  1
  Se  Se24  1  0.250000  0.208029  0.174286  1
  Se  Se25  1  0.750000  0.291971  0.674286  1
  Se  Se26  1  0.250000  0.708029  0.325714  1
  Se  Se27  1  0.750000  0.791971  0.825714  1
