# generated using pymatgen
data_Sr14CaSiSnAs12
_symmetry_space_group_name_H-M   'P 1'
_cell_length_a   9.52042055
_cell_length_b   9.52040673
_cell_length_c   9.52041629
_cell_angle_alpha   88.46452169
_cell_angle_beta   88.46438681
_cell_angle_gamma   88.46454112
_symmetry_Int_Tables_number   1
_chemical_formula_structural   Sr14CaSiSnAs12
_chemical_formula_sum   'Sr14 Ca1 Si1 Sn1 As12'
_cell_volume   862.00080421
_cell_formula_units_Z   1
loop_
 _symmetry_equiv_pos_site_id
 _symmetry_equiv_pos_as_xyz
  1  'x, y, z'
loop_
 _atom_site_type_symbol
 _atom_site_label
 _atom_site_symmetry_multiplicity
 _atom_site_fract_x
 _atom_site_fract_y
 _atom_site_fract_z
 _atom_site_occupancy
  Sr  Sr0  1  0.407261  0.286101  0.774577  1
  Sr  Sr1  1  0.774577  0.407261  0.286100  1
  Sr  Sr2  1  0.286100  0.774577  0.407261  1
  Sr  Sr3  1  0.016527  0.527826  0.660922  1
  Sr  Sr4  1  0.660922  0.016528  0.527827  1
  Sr  Sr5  1  0.527827  0.660921  0.016527  1
  Sr  Sr6  1  0.167226  0.534739  0.028592  1
  Sr  Sr7  1  0.028593  0.167227  0.534739  1
  Sr  Sr8  1  0.534738  0.028591  0.167228  1
  Sr  Sr9  1  0.777046  0.289314  0.920623  1
  Sr  Sr10  1  0.920622  0.777046  0.289314  1
  Sr  Sr11  1  0.289314  0.920622  0.777046  1
  Sr  Sr12  1  0.165209  0.165208  0.165208  1
  Sr  Sr13  1  0.395732  0.395732  0.395732  1
  Ca  Ca14  1  0.949824  0.949824  0.949824  1
  Si  Si15  1  0.770381  0.770381  0.770381  1
  Sn  Sn16  1  0.610260  0.610260  0.610259  1
  As  As17  1  0.706744  0.343740  0.602459  1
  As  As18  1  0.602459  0.706744  0.343739  1
  As  As19  1  0.343740  0.602459  0.706744  1
  As  As20  1  0.626465  0.963606  0.855263  1
  As  As21  1  0.855262  0.626465  0.963606  1
  As  As22  1  0.963606  0.855263  0.626465  1
  As  As23  1  0.474406  0.343357  0.084950  1
  As  As24  1  0.084950  0.474407  0.343358  1
  As  As25  1  0.343358  0.084949  0.474407  1
  As  As26  1  0.092582  0.230745  0.848257  1
  As  As27  1  0.848257  0.092582  0.230745  1
  As  As28  1  0.230745  0.848257  0.092582  1
