# generated using pymatgen
data_Li30Si7Ge
_symmetry_space_group_name_H-M   'P 1'
_cell_length_a   9.17133108
_cell_length_b   9.17133010
_cell_length_c   9.18261800
_cell_angle_alpha   109.49615021
_cell_angle_beta   109.49614805
_cell_angle_gamma   109.44628074
_symmetry_Int_Tables_number   1
_chemical_formula_structural   Li30Si7Ge
_chemical_formula_sum   'Li30 Si7 Ge1'
_cell_volume   594.39564578
_cell_formula_units_Z   1
loop_
 _symmetry_equiv_pos_site_id
 _symmetry_equiv_pos_as_xyz
  1  'x, y, z'
loop_
 _atom_site_type_symbol
 _atom_site_label
 _atom_site_symmetry_multiplicity
 _atom_site_fract_x
 _atom_site_fract_y
 _atom_site_fract_z
 _atom_site_occupancy
  Li  Li0  1  0.339880  0.808057  0.724869  1
  Li  Li1  1  0.123749  0.748827  0.873743  1
  Li  Li2  1  0.724896  0.345001  0.810920  1
  Li  Li3  1  0.620105  0.775104  0.586024  1
  Li  Li4  1  0.032135  0.913940  0.690941  1
  Li  Li5  1  0.085992  0.275756  0.117344  1
  Li  Li6  1  0.915725  0.692531  0.033851  1
  Li  Li7  1  0.275994  0.117386  0.085558  1
  Li  Li8  1  0.189764  0.414008  0.531354  1
  Li  Li9  1  0.776805  0.584275  0.618126  1
  Li  Li10  1  0.691943  0.031823  0.916811  1
  Li  Li11  1  0.532898  0.191916  0.411938  1
  Li  Li12  1  0.625077  0.376251  0.249993  1
  Li  Li13  1  0.468177  0.160120  0.884988  1
  Li  Li14  1  0.877545  0.125393  0.751209  1
  Li  Li15  1  0.967452  0.381357  0.658617  1
  Li  Li16  1  0.413905  0.532548  0.191164  1
  Li  Li17  1  0.118643  0.086095  0.277259  1
  Li  Li18  1  0.308084  0.840982  0.220022  1
  Li  Li19  1  0.751173  0.874923  0.124916  1
  Li  Li20  1  0.881804  0.467865  0.158804  1
  Li  Li21  1  0.586060  0.618196  0.777001  1
  Li  Li22  1  0.382614  0.658608  0.968172  1
  Li  Li23  1  0.807469  0.723195  0.341320  1
  Li  Li24  1  0.659018  0.967102  0.379040  1
  Li  Li25  1  0.154999  0.879895  0.465919  1
  Li  Li26  1  0.224244  0.310236  0.841589  1
  Li  Li27  1  0.374607  0.252152  0.625816  1
  Li  Li28  1  0.841392  0.224006  0.309564  1
  Li  Li29  1  0.247848  0.622455  0.373665  1
  Si  Si30  1  0.584502  0.501047  0.000552  1
  Si  Si31  1  0.500000  0.000000  0.083916  1
  Si  Si32  1  0.000511  0.084481  0.500354  1
  Si  Si33  1  0.998953  0.583455  0.499504  1
  Si  Si34  1  0.083970  0.499489  0.999843  1
  Si  Si35  1  0.415519  0.416030  0.415873  1
  Si  Si36  1  0.916545  0.915498  0.916050  1
  Ge  Ge37  1  0.500000  0.000000  0.583372  1
