# generated using pymatgen
data_NdDyMn3Re14C3
_symmetry_space_group_name_H-M   'P 1'
_cell_length_a   6.95870968
_cell_length_b   6.95871010
_cell_length_c   6.95871012
_cell_angle_alpha   82.51214478
_cell_angle_beta   82.51214084
_cell_angle_gamma   82.51213411
_symmetry_Int_Tables_number   1
_chemical_formula_structural   NdDyMn3Re14C3
_chemical_formula_sum   'Nd1 Dy1 Mn3 Re14 C3'
_cell_volume   329.03479964
_cell_formula_units_Z   1
loop_
 _symmetry_equiv_pos_site_id
 _symmetry_equiv_pos_as_xyz
  1  'x, y, z'
loop_
 _atom_site_type_symbol
 _atom_site_label
 _atom_site_symmetry_multiplicity
 _atom_site_fract_x
 _atom_site_fract_y
 _atom_site_fract_z
 _atom_site_occupancy
  Nd  Nd0  1  0.647559  0.647559  0.647559  1
  Dy  Dy1  1  0.351083  0.351083  0.351083  1
  Mn  Mn2  1  0.998681  0.998681  0.501037  1
  Mn  Mn3  1  0.501037  0.998681  0.998681  1
  Mn  Mn4  1  0.998681  0.501037  0.998681  1
  Re  Re5  1  0.721361  0.277930  0.000682  1
  Re  Re6  1  0.000682  0.721361  0.277930  1
  Re  Re7  1  0.277930  0.000682  0.721361  1
  Re  Re8  1  0.000682  0.277930  0.721361  1
  Re  Re9  1  0.721361  0.000682  0.277930  1
  Re  Re10  1  0.277930  0.721361  0.000682  1
  Re  Re11  1  0.345034  0.345034  0.863227  1
  Re  Re12  1  0.863227  0.345034  0.345034  1
  Re  Re13  1  0.345034  0.863227  0.345034  1
  Re  Re14  1  0.653434  0.653434  0.140862  1
  Re  Re15  1  0.140862  0.653434  0.653434  1
  Re  Re16  1  0.653434  0.140862  0.653434  1
  Re  Re17  1  0.900328  0.900328  0.900328  1
  Re  Re18  1  0.100434  0.100434  0.100434  1
  C  C19  1  0.496623  0.496623  0.007976  1
  C  C20  1  0.007976  0.496623  0.496623  1
  C  C21  1  0.496623  0.007976  0.496623  1
