# generated using pymatgen
data_Tb4Al4Ir2RhAu
_symmetry_space_group_name_H-M   'P 1'
_cell_length_a   4.35685000
_cell_length_b   6.90180240
_cell_length_c   7.93512808
_cell_angle_alpha   89.98861799
_cell_angle_beta   90.00000000
_cell_angle_gamma   90.00000000
_symmetry_Int_Tables_number   1
_chemical_formula_structural   Tb4Al4Ir2RhAu
_chemical_formula_sum   'Tb4 Al4 Ir2 Rh1 Au1'
_cell_volume   238.61023114
_cell_formula_units_Z   1
loop_
 _symmetry_equiv_pos_site_id
 _symmetry_equiv_pos_as_xyz
  1  'x, y, z'
loop_
 _atom_site_type_symbol
 _atom_site_label
 _atom_site_symmetry_multiplicity
 _atom_site_fract_x
 _atom_site_fract_y
 _atom_site_fract_z
 _atom_site_occupancy
  Tb  Tb0  1  0.250000  0.025855  0.326043  1
  Tb  Tb1  1  0.250000  0.542801  0.182515  1
  Tb  Tb2  1  0.750000  0.965849  0.679088  1
  Tb  Tb3  1  0.750000  0.475811  0.814373  1
  Al  Al4  1  0.250000  0.134743  0.931879  1
  Al  Al5  1  0.250000  0.641067  0.562927  1
  Al  Al6  1  0.750000  0.848018  0.060452  1
  Al  Al7  1  0.750000  0.365850  0.444327  1
  Ir  Ir8  1  0.250000  0.767384  0.880016  1
  Ir  Ir9  1  0.750000  0.734118  0.379104  1
  Rh  Rh10  1  0.250000  0.268828  0.617870  1
  Au  Au11  1  0.750000  0.229678  0.121404  1
