# generated using pymatgen
data_Lu6MgAl5(Ga2Au)2
_symmetry_space_group_name_H-M   'P 1'
_cell_length_a   6.91269530
_cell_length_b   6.91265192
_cell_length_c   8.61935600
_cell_angle_alpha   90.00075774
_cell_angle_beta   89.99932331
_cell_angle_gamma   119.49583737
_symmetry_Int_Tables_number   1
_chemical_formula_structural   Lu6MgAl5(Ga2Au)2
_chemical_formula_sum   'Lu6 Mg1 Al5 Ga4 Au2'
_cell_volume   358.49371609
_cell_formula_units_Z   1
loop_
 _symmetry_equiv_pos_site_id
 _symmetry_equiv_pos_as_xyz
  1  'x, y, z'
loop_
 _atom_site_type_symbol
 _atom_site_label
 _atom_site_symmetry_multiplicity
 _atom_site_fract_x
 _atom_site_fract_y
 _atom_site_fract_z
 _atom_site_occupancy
  Lu  Lu0  1  0.575121  0.998687  0.747263  1
  Lu  Lu1  1  0.998819  0.575203  0.747275  1
  Lu  Lu2  1  0.422042  0.422112  0.748832  1
  Lu  Lu3  1  0.998691  0.575125  0.252733  1
  Lu  Lu4  1  0.575199  0.998812  0.252729  1
  Lu  Lu5  1  0.422116  0.422036  0.251168  1
  Mg  Mg6  1  0.759754  0.759749  0.000000  1
  Al  Al7  1  0.244219  0.000814  0.999998  1
  Al  Al8  1  0.000815  0.244213  0.000000  1
  Al  Al9  1  0.756750  0.756757  0.500001  1
  Al  Al10  1  0.245304  0.001779  0.500000  1
  Al  Al11  1  0.001771  0.245289  0.500000  1
  Ga  Ga12  1  0.663589  0.325758  0.000000  1
  Ga  Ga13  1  0.667285  0.333448  0.499951  1
  Ga  Ga14  1  0.333412  0.667243  0.500051  1
  Ga  Ga15  1  0.325761  0.663570  0.000000  1
  Au  Au16  1  0.004680  0.004701  0.746408  1
  Au  Au17  1  0.004670  0.004703  0.253592  1
