# generated using pymatgen
data_Tm3LuGa2(Co2Si)2
_symmetry_space_group_name_H-M   'P 1'
_cell_length_a   4.23827300
_cell_length_b   6.81222479
_cell_length_c   6.93157585
_cell_angle_alpha   89.91662520
_cell_angle_beta   90.00000000
_cell_angle_gamma   90.00000000
_symmetry_Int_Tables_number   1
_chemical_formula_structural   Tm3LuGa2(Co2Si)2
_chemical_formula_sum   'Tm3 Lu1 Ga2 Co4 Si2'
_cell_volume   200.12872010
_cell_formula_units_Z   1
loop_
 _symmetry_equiv_pos_site_id
 _symmetry_equiv_pos_as_xyz
  1  'x, y, z'
loop_
 _atom_site_type_symbol
 _atom_site_label
 _atom_site_symmetry_multiplicity
 _atom_site_fract_x
 _atom_site_fract_y
 _atom_site_fract_z
 _atom_site_occupancy
  Tm  Tm0  1  0.750000  0.517729  0.807155  1
  Tm  Tm1  1  0.250000  0.488064  0.195596  1
  Tm  Tm2  1  0.250000  0.988062  0.305609  1
  Lu  Lu3  1  0.750000  0.018155  0.693590  1
  Ga  Ga4  1  0.750000  0.199974  0.103510  1
  Ga  Ga5  1  0.750000  0.700831  0.396431  1
  Co  Co6  1  0.750000  0.338938  0.445821  1
  Co  Co7  1  0.750000  0.840604  0.053692  1
  Co  Co8  1  0.250000  0.649173  0.575390  1
  Co  Co9  1  0.250000  0.148676  0.923789  1
  Si  Si10  1  0.250000  0.805639  0.893190  1
  Si  Si11  1  0.250000  0.304155  0.606228  1
