# generated using pymatgen
data_CeTh3Os8
_symmetry_space_group_name_H-M   'P 1'
_cell_length_a   5.42053400
_cell_length_b   5.42053387
_cell_length_c   8.99133400
_cell_angle_alpha   90.00000000
_cell_angle_beta   90.00000000
_cell_angle_gamma   120.00000077
_symmetry_Int_Tables_number   1
_chemical_formula_structural   CeTh3Os8
_chemical_formula_sum   'Ce1 Th3 Os8'
_cell_volume   228.79097788
_cell_formula_units_Z   1
loop_
 _symmetry_equiv_pos_site_id
 _symmetry_equiv_pos_as_xyz
  1  'x, y, z'
loop_
 _atom_site_type_symbol
 _atom_site_label
 _atom_site_symmetry_multiplicity
 _atom_site_fract_x
 _atom_site_fract_y
 _atom_site_fract_z
 _atom_site_occupancy
  Ce  Ce0  1  0.333333  0.666667  0.071854  1
  Th  Th1  1  0.333333  0.666667  0.426136  1
  Th  Th2  1  0.666667  0.333333  0.570014  1
  Th  Th3  1  0.666667  0.333333  0.932994  1
  Os  Os4  1  0.000000  0.000000  0.499464  1
  Os  Os5  1  0.000000  0.000000  0.000772  1
  Os  Os6  1  0.829597  0.170403  0.248466  1
  Os  Os7  1  0.829597  0.659194  0.248466  1
  Os  Os8  1  0.340806  0.170403  0.248466  1
  Os  Os9  1  0.170884  0.829116  0.751123  1
  Os  Os10  1  0.170884  0.341769  0.751123  1
  Os  Os11  1  0.658231  0.829116  0.751123  1
