# generated using pymatgen
data_TbDy(Co5P3)2
_symmetry_space_group_name_H-M   'P 1'
_cell_length_a   3.65263100
_cell_length_b   10.28625300
_cell_length_c   11.73659200
_cell_angle_alpha   90.00000000
_cell_angle_beta   90.00000000
_cell_angle_gamma   90.00000000
_symmetry_Int_Tables_number   1
_chemical_formula_structural   TbDy(Co5P3)2
_chemical_formula_sum   'Tb2 Dy2 Co20 P12'
_cell_volume   440.96590348
_cell_formula_units_Z   2
loop_
 _symmetry_equiv_pos_site_id
 _symmetry_equiv_pos_as_xyz
  1  'x, y, z'
loop_
 _atom_site_type_symbol
 _atom_site_label
 _atom_site_symmetry_multiplicity
 _atom_site_fract_x
 _atom_site_fract_y
 _atom_site_fract_z
 _atom_site_occupancy
  Tb  Tb0  1  0.750000  0.417157  0.297473  1
  Tb  Tb1  1  0.750000  0.082843  0.797473  1
  Dy  Dy2  1  0.250000  0.583025  0.702454  1
  Dy  Dy3  1  0.250000  0.916975  0.202454  1
  Co  Co4  1  0.250000  0.716137  0.991507  1
  Co  Co5  1  0.250000  0.783863  0.491507  1
  Co  Co6  1  0.750000  0.283893  0.008690  1
  Co  Co7  1  0.750000  0.216107  0.508690  1
  Co  Co8  1  0.250000  0.406887  0.488654  1
  Co  Co9  1  0.250000  0.093113  0.988654  1
  Co  Co10  1  0.750000  0.593417  0.511953  1
  Co  Co11  1  0.750000  0.906583  0.011953  1
  Co  Co12  1  0.250000  0.221168  0.176575  1
  Co  Co13  1  0.250000  0.278832  0.676575  1
  Co  Co14  1  0.750000  0.778635  0.823470  1
  Co  Co15  1  0.750000  0.721365  0.323470  1
  Co  Co16  1  0.250000  0.882339  0.698377  1
  Co  Co17  1  0.250000  0.617661  0.198377  1
  Co  Co18  1  0.750000  0.117053  0.301355  1
  Co  Co19  1  0.750000  0.382947  0.801355  1
  Co  Co20  1  0.250000  0.468220  0.931553  1
  Co  Co21  1  0.250000  0.031780  0.431553  1
  Co  Co22  1  0.750000  0.532423  0.067945  1
  Co  Co23  1  0.750000  0.967577  0.567945  1
  P  P24  1  0.250000  0.418569  0.111644  1
  P  P25  1  0.250000  0.081431  0.611644  1
  P  P26  1  0.750000  0.581555  0.887819  1
  P  P27  1  0.750000  0.918445  0.387819  1
  P  P28  1  0.250000  0.271317  0.870510  1
  P  P29  1  0.250000  0.228683  0.370510  1
  P  P30  1  0.750000  0.729080  0.129791  1
  P  P31  1  0.750000  0.770920  0.629791  1
  P  P32  1  0.250000  0.602479  0.391617  1
  P  P33  1  0.250000  0.897521  0.891617  1
  P  P34  1  0.750000  0.398028  0.608615  1
  P  P35  1  0.750000  0.101972  0.108615  1
