# generated using pymatgen
data_Tb3P6Ir2Ru7
_symmetry_space_group_name_H-M   'P 1'
_cell_length_a   3.98189100
_cell_length_b   11.22721100
_cell_length_c   12.59700400
_cell_angle_alpha   90.00000000
_cell_angle_beta   90.00000000
_cell_angle_gamma   90.00000000
_symmetry_Int_Tables_number   1
_chemical_formula_structural   Tb3P6Ir2Ru7
_chemical_formula_sum   'Tb6 P12 Ir4 Ru14'
_cell_volume   563.15574572
_cell_formula_units_Z   2
loop_
 _symmetry_equiv_pos_site_id
 _symmetry_equiv_pos_as_xyz
  1  'x, y, z'
loop_
 _atom_site_type_symbol
 _atom_site_label
 _atom_site_symmetry_multiplicity
 _atom_site_fract_x
 _atom_site_fract_y
 _atom_site_fract_z
 _atom_site_occupancy
  Tb  Tb0  1  0.000000  0.500000  0.524020  1
  Tb  Tb1  1  0.500000  0.000000  0.476999  1
  Tb  Tb2  1  0.500000  0.819448  0.204423  1
  Tb  Tb3  1  0.500000  0.180552  0.204423  1
  Tb  Tb4  1  0.000000  0.681287  0.795493  1
  Tb  Tb5  1  0.000000  0.318713  0.795493  1
  P  P6  1  0.500000  0.500000  0.882119  1
  P  P7  1  0.000000  0.000000  0.118264  1
  P  P8  1  0.500000  0.500000  0.343292  1
  P  P9  1  0.000000  0.000000  0.661258  1
  P  P10  1  0.500000  0.302910  0.615589  1
  P  P11  1  0.500000  0.697090  0.615589  1
  P  P12  1  0.000000  0.194684  0.384475  1
  P  P13  1  0.000000  0.805316  0.384475  1
  P  P14  1  0.500000  0.845683  0.894963  1
  P  P15  1  0.500000  0.154317  0.894963  1
  P  P16  1  0.000000  0.656435  0.102709  1
  P  P17  1  0.000000  0.343565  0.102709  1
  Ir  Ir18  1  0.500000  0.500000  0.693253  1
  Ir  Ir19  1  0.000000  0.000000  0.306583  1
  Ir  Ir20  1  0.000000  0.624080  0.284597  1
  Ir  Ir21  1  0.000000  0.375920  0.284597  1
  Ru  Ru22  1  0.500000  0.500000  0.159003  1
  Ru  Ru23  1  0.000000  0.000000  0.844108  1
  Ru  Ru24  1  0.000000  0.500000  0.987559  1
  Ru  Ru25  1  0.500000  0.000000  0.013947  1
  Ru  Ru26  1  0.500000  0.331936  0.991131  1
  Ru  Ru27  1  0.500000  0.668064  0.991131  1
  Ru  Ru28  1  0.000000  0.167457  0.009440  1
  Ru  Ru29  1  0.000000  0.832543  0.009440  1
  Ru  Ru30  1  0.500000  0.298496  0.427664  1
  Ru  Ru31  1  0.500000  0.701504  0.427664  1
  Ru  Ru32  1  0.000000  0.201965  0.570740  1
  Ru  Ru33  1  0.000000  0.798035  0.570740  1
  Ru  Ru34  1  0.500000  0.878064  0.713573  1
  Ru  Ru35  1  0.500000  0.121936  0.713573  1
