# generated using pymatgen
data_Tb3Y5(HoBi)12
_symmetry_space_group_name_H-M   'P 1'
_cell_length_a   8.25746708
_cell_length_b   9.50423100
_cell_length_c   12.07160912
_cell_angle_alpha   90.00000000
_cell_angle_beta   89.98417305
_cell_angle_gamma   90.00000000
_symmetry_Int_Tables_number   1
_chemical_formula_structural   Tb3Y5(HoBi)12
_chemical_formula_sum   'Tb3 Y5 Ho12 Bi12'
_cell_volume   947.39040494
_cell_formula_units_Z   1
loop_
 _symmetry_equiv_pos_site_id
 _symmetry_equiv_pos_as_xyz
  1  'x, y, z'
loop_
 _atom_site_type_symbol
 _atom_site_label
 _atom_site_symmetry_multiplicity
 _atom_site_fract_x
 _atom_site_fract_y
 _atom_site_fract_z
 _atom_site_occupancy
  Tb  Tb0  1  0.186218  0.750000  0.719140  1
  Tb  Tb1  1  0.686238  0.750000  0.780851  1
  Tb  Tb2  1  0.813756  0.250000  0.280886  1
  Y  Y3  1  0.313710  0.250000  0.219037  1
  Y  Y4  1  0.353779  0.750000  0.215395  1
  Y  Y5  1  0.853805  0.750000  0.284598  1
  Y  Y6  1  0.646199  0.250000  0.784559  1
  Y  Y7  1  0.146211  0.250000  0.715419  1
  Ho  Ho8  1  0.025900  0.750000  0.988771  1
  Ho  Ho9  1  0.525824  0.750000  0.511214  1
  Ho  Ho10  1  0.974092  0.250000  0.011218  1
  Ho  Ho11  1  0.474209  0.250000  0.488931  1
  Ho  Ho12  1  0.306363  0.436439  0.940232  1
  Ho  Ho13  1  0.806360  0.063586  0.559705  1
  Ho  Ho14  1  0.693689  0.936378  0.059731  1
  Ho  Ho15  1  0.193630  0.563612  0.440264  1
  Ho  Ho16  1  0.693689  0.563622  0.059731  1
  Ho  Ho17  1  0.193630  0.936388  0.440264  1
  Ho  Ho18  1  0.306363  0.063561  0.940232  1
  Ho  Ho19  1  0.806360  0.436414  0.559705  1
  Bi  Bi20  1  0.433593  0.004010  0.673347  1
  Bi  Bi21  1  0.933551  0.495982  0.826679  1
  Bi  Bi22  1  0.566359  0.503902  0.326684  1
  Bi  Bi23  1  0.066541  0.996117  0.173322  1
  Bi  Bi24  1  0.566359  0.996098  0.326684  1
  Bi  Bi25  1  0.066541  0.503883  0.173322  1
  Bi  Bi26  1  0.433593  0.495990  0.673347  1
  Bi  Bi27  1  0.933551  0.004018  0.826679  1
  Bi  Bi28  1  0.408848  0.750000  0.958233  1
  Bi  Bi29  1  0.908836  0.750000  0.541780  1
  Bi  Bi30  1  0.590917  0.250000  0.041869  1
  Bi  Bi31  1  0.091289  0.250000  0.458172  1
