# generated using pymatgen
data_Ba6Lu3ScS12
_symmetry_space_group_name_H-M   'P 1'
_cell_length_a   8.36368579
_cell_length_b   8.36368428
_cell_length_c   8.36368500
_cell_angle_alpha   93.34413448
_cell_angle_beta   93.34412701
_cell_angle_gamma   93.34414050
_symmetry_Int_Tables_number   1
_chemical_formula_structural   Ba6Lu3ScS12
_chemical_formula_sum   'Ba6 Lu3 Sc1 S12'
_cell_volume   581.93947381
_cell_formula_units_Z   1
loop_
 _symmetry_equiv_pos_site_id
 _symmetry_equiv_pos_as_xyz
  1  'x, y, z'
loop_
 _atom_site_type_symbol
 _atom_site_label
 _atom_site_symmetry_multiplicity
 _atom_site_fract_x
 _atom_site_fract_y
 _atom_site_fract_z
 _atom_site_occupancy
  Ba  Ba0  1  0.369513  0.746808  0.129083  1
  Ba  Ba1  1  0.129083  0.369513  0.746808  1
  Ba  Ba2  1  0.746808  0.129083  0.369513  1
  Ba  Ba3  1  0.630487  0.253192  0.870917  1
  Ba  Ba4  1  0.870917  0.630487  0.253192  1
  Ba  Ba5  1  0.253192  0.870917  0.630487  1
  Lu  Lu6  1  0.000000  0.000000  0.000000  1
  Lu  Lu7  1  0.252832  0.252832  0.252832  1
  Lu  Lu8  1  0.747168  0.747168  0.747168  1
  Sc  Sc9  1  0.500000  0.500000  0.500000  1
  S  S10  1  0.535376  0.411488  0.204010  1
  S  S11  1  0.204010  0.535376  0.411488  1
  S  S12  1  0.411488  0.204010  0.535376  1
  S  S13  1  0.965546  0.302233  0.097306  1
  S  S14  1  0.097306  0.965546  0.302233  1
  S  S15  1  0.302233  0.097306  0.965546  1
  S  S16  1  0.464624  0.588512  0.795990  1
  S  S17  1  0.795990  0.464624  0.588512  1
  S  S18  1  0.588512  0.795990  0.464624  1
  S  S19  1  0.034454  0.697767  0.902694  1
  S  S20  1  0.697767  0.902694  0.034454  1
  S  S21  1  0.902694  0.034454  0.697767  1
