# generated using pymatgen
data_LaTmFe3P7Ru9
_symmetry_space_group_name_H-M   'P 1'
_cell_length_a   9.35590300
_cell_length_b   9.35590353
_cell_length_c   3.87037600
_cell_angle_alpha   90.00000000
_cell_angle_beta   90.00000000
_cell_angle_gamma   120.00000165
_symmetry_Int_Tables_number   1
_chemical_formula_structural   LaTmFe3P7Ru9
_chemical_formula_sum   'La1 Tm1 Fe3 P7 Ru9'
_cell_volume   293.39670229
_cell_formula_units_Z   1
loop_
 _symmetry_equiv_pos_site_id
 _symmetry_equiv_pos_as_xyz
  1  'x, y, z'
loop_
 _atom_site_type_symbol
 _atom_site_label
 _atom_site_symmetry_multiplicity
 _atom_site_fract_x
 _atom_site_fract_y
 _atom_site_fract_z
 _atom_site_occupancy
  La  La0  1  0.333333  0.666667  0.000000  1
  Tm  Tm1  1  0.000000  0.000000  0.500000  1
  Fe  Fe2  1  0.933454  0.443478  0.000000  1
  Fe  Fe3  1  0.510025  0.066546  0.000000  1
  Fe  Fe4  1  0.556522  0.489975  0.000000  1
  P  P5  1  0.973739  0.225691  0.000000  1
  P  P6  1  0.251952  0.026261  0.000000  1
  P  P7  1  0.774309  0.748048  0.000000  1
  P  P8  1  0.056548  0.611508  0.500000  1
  P  P9  1  0.554959  0.943452  0.500000  1
  P  P10  1  0.388492  0.445041  0.500000  1
  P  P11  1  0.666667  0.333333  0.000000  1
  Ru  Ru12  1  0.730891  0.976807  0.000000  1
  Ru  Ru13  1  0.245916  0.269109  0.000000  1
  Ru  Ru14  1  0.023193  0.754084  0.000000  1
  Ru  Ru15  1  0.102028  0.380220  0.500000  1
  Ru  Ru16  1  0.278193  0.897972  0.500000  1
  Ru  Ru17  1  0.619780  0.721807  0.500000  1
  Ru  Ru18  1  0.755081  0.219147  0.500000  1
  Ru  Ru19  1  0.464068  0.244919  0.500000  1
  Ru  Ru20  1  0.780853  0.535932  0.500000  1
