# generated using pymatgen
data_Tb2Ho3TmAl18
_symmetry_space_group_name_H-M   'P 1'
_cell_length_a   14.40187509
_cell_length_b   14.40187516
_cell_length_c   14.40187500
_cell_angle_alpha   24.94371903
_cell_angle_beta   24.94371844
_cell_angle_gamma   24.94371694
_symmetry_Int_Tables_number   1
_chemical_formula_structural   Tb2Ho3TmAl18
_chemical_formula_sum   'Tb2 Ho3 Tm1 Al18'
_cell_volume   467.36187285
_cell_formula_units_Z   1
loop_
 _symmetry_equiv_pos_site_id
 _symmetry_equiv_pos_as_xyz
  1  'x, y, z'
loop_
 _atom_site_type_symbol
 _atom_site_label
 _atom_site_symmetry_multiplicity
 _atom_site_fract_x
 _atom_site_fract_y
 _atom_site_fract_z
 _atom_site_occupancy
  Tb  Tb0  1  0.999929  0.999929  0.999929  1
  Tb  Tb1  1  0.500039  0.500039  0.500039  1
  Ho  Ho2  1  0.108553  0.108553  0.108553  1
  Ho  Ho3  1  0.891527  0.891527  0.891527  1
  Ho  Ho4  1  0.391313  0.391313  0.391313  1
  Tm  Tm5  1  0.608538  0.608538  0.608538  1
  Al  Al6  1  0.926714  0.369353  0.369353  1
  Al  Al7  1  0.427267  0.868709  0.868709  1
  Al  Al8  1  0.369353  0.369353  0.926714  1
  Al  Al9  1  0.868709  0.868709  0.427267  1
  Al  Al10  1  0.369353  0.926714  0.369353  1
  Al  Al11  1  0.868709  0.427267  0.868709  1
  Al  Al12  1  0.572373  0.131372  0.131372  1
  Al  Al13  1  0.072690  0.631242  0.631242  1
  Al  Al14  1  0.131372  0.131372  0.572373  1
  Al  Al15  1  0.631242  0.631242  0.072690  1
  Al  Al16  1  0.131372  0.572373  0.131372  1
  Al  Al17  1  0.631242  0.072690  0.631242  1
  Al  Al18  1  0.500798  0.500798  0.997782  1
  Al  Al19  1  0.000304  0.000304  0.499721  1
  Al  Al20  1  0.500798  0.997782  0.500798  1
  Al  Al21  1  0.000304  0.499721  0.000304  1
  Al  Al22  1  0.997782  0.500798  0.500798  1
  Al  Al23  1  0.499721  0.000304  0.000304  1
