# generated using pymatgen
data_Ac8Dy12Si15Ag
_symmetry_space_group_name_H-M   'P 1'
_cell_length_a   7.73562681
_cell_length_b   8.01044056
_cell_length_c   15.28632400
_cell_angle_alpha   89.87095200
_cell_angle_beta   89.34090408
_cell_angle_gamma   90.19939164
_symmetry_Int_Tables_number   1
_chemical_formula_structural   Ac8Dy12Si15Ag
_chemical_formula_sum   'Ac8 Dy12 Si15 Ag1'
_cell_volume   947.15807487
_cell_formula_units_Z   1
loop_
 _symmetry_equiv_pos_site_id
 _symmetry_equiv_pos_as_xyz
  1  'x, y, z'
loop_
 _atom_site_type_symbol
 _atom_site_label
 _atom_site_symmetry_multiplicity
 _atom_site_fract_x
 _atom_site_fract_y
 _atom_site_fract_z
 _atom_site_occupancy
  Ac  Ac0  1  0.012081  0.173214  0.399355  1
  Ac  Ac1  1  0.516743  0.325123  0.399059  1
  Ac  Ac2  1  0.481401  0.674808  0.902258  1
  Ac  Ac3  1  0.488350  0.676643  0.600815  1
  Ac  Ac4  1  0.986769  0.830336  0.598059  1
  Ac  Ac5  1  0.981363  0.826326  0.901933  1
  Ac  Ac6  1  0.518222  0.325439  0.097852  1
  Ac  Ac7  1  0.018982  0.175591  0.099857  1
  Dy  Dy8  1  0.335353  0.172651  0.626091  1
  Dy  Dy9  1  0.670056  0.824346  0.375225  1
  Dy  Dy10  1  0.660686  0.994946  0.749955  1
  Dy  Dy11  1  0.170298  0.675562  0.372591  1
  Dy  Dy12  1  0.824343  0.321042  0.877753  1
  Dy  Dy13  1  0.822551  0.326345  0.623986  1
  Dy  Dy14  1  0.842016  0.496614  0.251740  1
  Dy  Dy15  1  0.343454  0.000827  0.249676  1
  Dy  Dy16  1  0.322488  0.175213  0.876917  1
  Dy  Dy17  1  0.175093  0.677916  0.123203  1
  Dy  Dy18  1  0.677312  0.823871  0.123387  1
  Dy  Dy19  1  0.157357  0.501203  0.752402  1
  Si  Si20  1  0.281058  0.885603  0.750889  1
  Si  Si21  1  0.467984  0.626458  0.247796  1
  Si  Si22  1  0.032086  0.130596  0.751844  1
  Si  Si23  1  0.533450  0.373643  0.752746  1
  Si  Si24  1  0.968278  0.872749  0.248561  1
  Si  Si25  1  0.716115  0.115450  0.247991  1
  Si  Si26  1  0.857556  0.534278  0.039392  1
  Si  Si27  1  0.357395  0.966264  0.040496  1
  Si  Si28  1  0.141737  0.465243  0.961633  1
  Si  Si29  1  0.648351  0.035557  0.539179  1
  Si  Si30  1  0.349837  0.962310  0.460441  1
  Si  Si31  1  0.844513  0.540792  0.456984  1
  Si  Si32  1  0.784194  0.615300  0.752086  1
  Si  Si33  1  0.219103  0.383984  0.248199  1
  Si  Si34  1  0.642235  0.033022  0.960120  1
  Ag  Ag35  1  0.151187  0.460740  0.539525  1
