# generated using pymatgen
data_HoTiCdSbO7
_symmetry_space_group_name_H-M   'P 1'
_cell_length_a   7.29124200
_cell_length_b   7.29124200
_cell_length_c   10.33476700
_cell_angle_alpha   90.00000000
_cell_angle_beta   90.00000000
_cell_angle_gamma   90.00000000
_symmetry_Int_Tables_number   1
_chemical_formula_structural   HoTiCdSbO7
_chemical_formula_sum   'Ho4 Ti4 Cd4 Sb4 O28'
_cell_volume   549.41905255
_cell_formula_units_Z   4
loop_
 _symmetry_equiv_pos_site_id
 _symmetry_equiv_pos_as_xyz
  1  'x, y, z'
loop_
 _atom_site_type_symbol
 _atom_site_label
 _atom_site_symmetry_multiplicity
 _atom_site_fract_x
 _atom_site_fract_y
 _atom_site_fract_z
 _atom_site_occupancy
  Ho  Ho0  1  0.000000  0.733818  0.000000  1
  Ho  Ho1  1  0.000000  0.266182  0.500000  1
  Ho  Ho2  1  0.266182  0.000000  0.250000  1
  Ho  Ho3  1  0.733818  0.000000  0.750000  1
  Ti  Ti4  1  0.763814  0.000000  0.250000  1
  Ti  Ti5  1  0.000000  0.763814  0.500000  1
  Ti  Ti6  1  0.236186  0.000000  0.750000  1
  Ti  Ti7  1  0.000000  0.236186  0.000000  1
  Cd  Cd8  1  0.500000  0.743485  0.000000  1
  Cd  Cd9  1  0.256515  0.500000  0.250000  1
  Cd  Cd10  1  0.500000  0.256515  0.500000  1
  Cd  Cd11  1  0.743485  0.500000  0.750000  1
  Sb  Sb12  1  0.243281  0.500000  0.750000  1
  Sb  Sb13  1  0.500000  0.756719  0.500000  1
  Sb  Sb14  1  0.500000  0.243281  0.000000  1
  Sb  Sb15  1  0.756719  0.500000  0.250000  1
  O  O16  1  0.249313  0.750687  0.125000  1
  O  O17  1  0.549427  0.947549  0.366961  1
  O  O18  1  0.767572  0.750679  0.174712  1
  O  O19  1  0.750687  0.249313  0.625000  1
  O  O20  1  0.953501  0.953501  0.375000  1
  O  O21  1  0.046499  0.046499  0.875000  1
  O  O22  1  0.052451  0.450573  0.883039  1
  O  O23  1  0.046499  0.953501  0.625000  1
  O  O24  1  0.249321  0.232428  0.075288  1
  O  O25  1  0.232428  0.249321  0.674712  1
  O  O26  1  0.249321  0.767572  0.424712  1
  O  O27  1  0.450573  0.947549  0.633039  1
  O  O28  1  0.450573  0.052451  0.866961  1
  O  O29  1  0.450134  0.450134  0.875000  1
  O  O30  1  0.549866  0.549866  0.375000  1
  O  O31  1  0.549427  0.052451  0.133039  1
  O  O32  1  0.549866  0.450134  0.125000  1
  O  O33  1  0.750679  0.767572  0.575288  1
  O  O34  1  0.767572  0.249321  0.325288  1
  O  O35  1  0.750687  0.750687  0.875000  1
  O  O36  1  0.750679  0.232428  0.924712  1
  O  O37  1  0.947549  0.549427  0.383039  1
  O  O38  1  0.953501  0.046499  0.125000  1
  O  O39  1  0.947549  0.450573  0.116961  1
  O  O40  1  0.052451  0.549427  0.616961  1
  O  O41  1  0.232428  0.750679  0.825288  1
  O  O42  1  0.249313  0.249313  0.375000  1
  O  O43  1  0.450134  0.549866  0.625000  1
