# generated using pymatgen
data_CeEr(Lu2Co)2
_symmetry_space_group_name_H-M   'P 1'
_cell_length_a   6.16096400
_cell_length_b   6.78163800
_cell_length_c   9.20527973
_cell_angle_alpha   90.00000000
_cell_angle_beta   90.11461499
_cell_angle_gamma   90.00000000
_symmetry_Int_Tables_number   1
_chemical_formula_structural   CeEr(Lu2Co)2
_chemical_formula_sum   'Ce2 Er2 Lu8 Co4'
_cell_volume   384.60895878
_cell_formula_units_Z   2
loop_
 _symmetry_equiv_pos_site_id
 _symmetry_equiv_pos_as_xyz
  1  'x, y, z'
loop_
 _atom_site_type_symbol
 _atom_site_label
 _atom_site_symmetry_multiplicity
 _atom_site_fract_x
 _atom_site_fract_y
 _atom_site_fract_z
 _atom_site_occupancy
  Ce  Ce0  1  0.860315  0.559163  0.250652  1
  Ce  Ce1  1  0.639685  0.059163  0.249348  1
  Er  Er2  1  0.329844  0.673304  0.063841  1
  Er  Er3  1  0.170156  0.173304  0.436159  1
  Lu  Lu4  1  0.676957  0.328055  0.569911  1
  Lu  Lu5  1  0.823043  0.828055  0.930089  1
  Lu  Lu6  1  0.677031  0.327953  0.930119  1
  Lu  Lu7  1  0.822969  0.827953  0.569881  1
  Lu  Lu8  1  0.330840  0.673287  0.436508  1
  Lu  Lu9  1  0.169160  0.173287  0.063492  1
  Lu  Lu10  1  0.141646  0.458891  0.750003  1
  Lu  Lu11  1  0.358354  0.958891  0.749997  1
  Co  Co12  1  0.022202  0.865426  0.250274  1
  Co  Co13  1  0.477798  0.365426  0.249726  1
  Co  Co14  1  0.954752  0.113921  0.751239  1
  Co  Co15  1  0.545248  0.613921  0.748761  1
