# generated using pymatgen
data_Sm5MgOsO12
_symmetry_space_group_name_H-M   'P 1'
_cell_length_a   6.93291466
_cell_length_b   6.93291471
_cell_length_c   7.47237600
_cell_angle_alpha   74.48674819
_cell_angle_beta   74.48674807
_cell_angle_gamma   51.02437750
_symmetry_Int_Tables_number   1
_chemical_formula_structural   Sm5MgOsO12
_chemical_formula_sum   'Sm5 Mg1 Os1 O12'
_cell_volume   266.67416172
_cell_formula_units_Z   1
loop_
 _symmetry_equiv_pos_site_id
 _symmetry_equiv_pos_as_xyz
  1  'x, y, z'
loop_
 _atom_site_type_symbol
 _atom_site_label
 _atom_site_symmetry_multiplicity
 _atom_site_fract_x
 _atom_site_fract_y
 _atom_site_fract_z
 _atom_site_occupancy
  Sm  Sm0  1  0.320547  0.286216  0.357964  1
  Sm  Sm1  1  0.713784  0.679453  0.642036  1
  Sm  Sm2  1  0.689725  0.692525  0.169030  1
  Sm  Sm3  1  0.307475  0.310275  0.830970  1
  Sm  Sm4  1  0.010333  0.989667  0.500000  1
  Mg  Mg5  1  0.747071  0.252929  0.000000  1
  Os  Os6  1  0.235188  0.764812  0.000000  1
  O  O7  1  0.105595  0.593805  0.567243  1
  O  O8  1  0.014020  0.987149  0.179120  1
  O  O9  1  0.406195  0.894405  0.432757  1
  O  O10  1  0.475797  0.525742  0.180469  1
  O  O11  1  0.099843  0.588407  0.082612  1
  O  O12  1  0.912360  0.398212  0.420324  1
  O  O13  1  0.012851  0.985980  0.820880  1
  O  O14  1  0.601788  0.087639  0.579676  1
  O  O15  1  0.474258  0.524203  0.819531  1
  O  O16  1  0.559737  0.098159  0.082370  1
  O  O17  1  0.411593  0.900157  0.917388  1
  O  O18  1  0.901841  0.440263  0.917630  1
