# generated using pymatgen
data_Nd12Pd3Ru
_symmetry_space_group_name_H-M   'P 1'
_cell_length_a   6.61491372
_cell_length_b   7.33345497
_cell_length_c   9.99447900
_cell_angle_alpha   90.00000000
_cell_angle_beta   90.00000000
_cell_angle_gamma   89.94375133
_symmetry_Int_Tables_number   1
_chemical_formula_structural   Nd12Pd3Ru
_chemical_formula_sum   'Nd12 Pd3 Ru1'
_cell_volume   484.83366086
_cell_formula_units_Z   1
loop_
 _symmetry_equiv_pos_site_id
 _symmetry_equiv_pos_as_xyz
  1  'x, y, z'
loop_
 _atom_site_type_symbol
 _atom_site_label
 _atom_site_symmetry_multiplicity
 _atom_site_fract_x
 _atom_site_fract_y
 _atom_site_fract_z
 _atom_site_occupancy
  Nd  Nd0  1  0.332102  0.679988  0.057335  1
  Nd  Nd1  1  0.165937  0.178432  0.438697  1
  Nd  Nd2  1  0.666167  0.327519  0.566590  1
  Nd  Nd3  1  0.825066  0.817625  0.935344  1
  Nd  Nd4  1  0.666167  0.327519  0.933410  1
  Nd  Nd5  1  0.825066  0.817625  0.564656  1
  Nd  Nd6  1  0.332102  0.679988  0.442665  1
  Nd  Nd7  1  0.165937  0.178432  0.061303  1
  Nd  Nd8  1  0.863715  0.526996  0.250000  1
  Nd  Nd9  1  0.638391  0.028541  0.250000  1
  Nd  Nd10  1  0.146902  0.473067  0.750000  1
  Nd  Nd11  1  0.368557  0.958871  0.750000  1
  Pd  Pd12  1  0.070870  0.884861  0.250000  1
  Pd  Pd13  1  0.428225  0.388332  0.250000  1
  Pd  Pd14  1  0.938196  0.114908  0.750000  1
  Ru  Ru15  1  0.566598  0.617297  0.750000  1
