# generated using pymatgen
data_Gd7ThS12
_symmetry_space_group_name_H-M   'P 1'
_cell_length_a   3.90113800
_cell_length_b   10.51712988
_cell_length_c   10.72648200
_cell_angle_alpha   89.88583471
_cell_angle_beta   90.00000000
_cell_angle_gamma   90.00000000
_symmetry_Int_Tables_number   1
_chemical_formula_structural   Gd7ThS12
_chemical_formula_sum   'Gd7 Th1 S12'
_cell_volume   440.09354306
_cell_formula_units_Z   1
loop_
 _symmetry_equiv_pos_site_id
 _symmetry_equiv_pos_as_xyz
  1  'x, y, z'
loop_
 _atom_site_type_symbol
 _atom_site_label
 _atom_site_symmetry_multiplicity
 _atom_site_fract_x
 _atom_site_fract_y
 _atom_site_fract_z
 _atom_site_occupancy
  Gd  Gd0  1  0.750000  0.002603  0.195157  1
  Gd  Gd1  1  0.750000  0.494315  0.691485  1
  Gd  Gd2  1  0.250000  0.503982  0.308426  1
  Gd  Gd3  1  0.250000  0.189244  0.485514  1
  Gd  Gd4  1  0.750000  0.810440  0.507017  1
  Gd  Gd5  1  0.750000  0.684375  0.011409  1
  Gd  Gd6  1  0.250000  0.317015  0.991880  1
  Th  Th7  1  0.250000  0.000754  0.807955  1
  S  S8  1  0.250000  0.297654  0.729190  1
  S  S9  1  0.750000  0.698288  0.271749  1
  S  S10  1  0.750000  0.802511  0.773003  1
  S  S11  1  0.250000  0.196729  0.226041  1
  S  S12  1  0.250000  0.945381  0.380624  1
  S  S13  1  0.750000  0.054956  0.616815  1
  S  S14  1  0.750000  0.444715  0.122177  1
  S  S15  1  0.250000  0.555873  0.878745  1
  S  S16  1  0.250000  0.872317  0.046608  1
  S  S17  1  0.750000  0.128765  0.955282  1
  S  S18  1  0.750000  0.373643  0.453296  1
  S  S19  1  0.250000  0.626442  0.547628  1
