# generated using pymatgen
data_Nb3TlSe6
_symmetry_space_group_name_H-M   'P 1'
_cell_length_a   6.09120500
_cell_length_b   6.09120502
_cell_length_c   16.05959300
_cell_angle_alpha   90.00000000
_cell_angle_beta   90.00000000
_cell_angle_gamma   120.00000534
_symmetry_Int_Tables_number   1
_chemical_formula_structural   Nb3TlSe6
_chemical_formula_sum   'Nb6 Tl2 Se12'
_cell_volume   516.02599050
_cell_formula_units_Z   2
loop_
 _symmetry_equiv_pos_site_id
 _symmetry_equiv_pos_as_xyz
  1  'x, y, z'
loop_
 _atom_site_type_symbol
 _atom_site_label
 _atom_site_symmetry_multiplicity
 _atom_site_fract_x
 _atom_site_fract_y
 _atom_site_fract_z
 _atom_site_occupancy
  Nb  Nb0  1  0.333333  0.666667  0.500101  1
  Nb  Nb1  1  0.666667  0.333333  0.000101  1
  Nb  Nb2  1  0.666667  0.333333  0.499899  1
  Nb  Nb3  1  0.333333  0.666667  0.999899  1
  Nb  Nb4  1  0.000000  0.000000  0.500000  1
  Nb  Nb5  1  0.000000  0.000000  0.000000  1
  Tl  Tl6  1  0.666667  0.333333  0.750000  1
  Tl  Tl7  1  0.333333  0.666667  0.250000  1
  Se  Se8  1  0.333102  0.330647  0.102959  1
  Se  Se9  1  0.669353  0.002455  0.102959  1
  Se  Se10  1  0.997545  0.666898  0.102959  1
  Se  Se11  1  0.002455  0.333102  0.602959  1
  Se  Se12  1  0.666898  0.997545  0.897041  1
  Se  Se13  1  0.666898  0.669353  0.602959  1
  Se  Se14  1  0.330647  0.997545  0.602959  1
  Se  Se15  1  0.669353  0.666898  0.397041  1
  Se  Se16  1  0.333102  0.002455  0.397041  1
  Se  Se17  1  0.330647  0.333102  0.897041  1
  Se  Se18  1  0.002455  0.669353  0.897041  1
  Se  Se19  1  0.997545  0.330647  0.397041  1
