# generated using pymatgen
data_Rb3Sc(IO3)6
_symmetry_space_group_name_H-M   'P 1'
_cell_length_a   7.17845384
_cell_length_b   7.18719342
_cell_length_c   10.86299817
_cell_angle_alpha   87.68159830
_cell_angle_beta   107.79585796
_cell_angle_gamma   107.41624464
_symmetry_Int_Tables_number   1
_chemical_formula_structural   Rb3Sc(IO3)6
_chemical_formula_sum   'Rb3 Sc1 I6 O18'
_cell_volume   508.36907021
_cell_formula_units_Z   1
loop_
 _symmetry_equiv_pos_site_id
 _symmetry_equiv_pos_as_xyz
  1  'x, y, z'
loop_
 _atom_site_type_symbol
 _atom_site_label
 _atom_site_symmetry_multiplicity
 _atom_site_fract_x
 _atom_site_fract_y
 _atom_site_fract_z
 _atom_site_occupancy
  Rb  Rb0  1  0.000000  0.000000  0.000000  1
  Rb  Rb1  1  0.832513  0.025906  0.601115  1
  Rb  Rb2  1  0.167487  0.974094  0.398885  1
  Sc  Sc3  1  0.500000  0.500000  0.000000  1
  I  I4  1  0.025565  0.473420  0.189376  1
  I  I5  1  0.974435  0.526580  0.810624  1
  I  I6  1  0.556866  0.955869  0.189866  1
  I  I7  1  0.443134  0.044131  0.810134  1
  I  I8  1  0.412083  0.550974  0.638858  1
  I  I9  1  0.587917  0.449026  0.361142  1
  O  O10  1  0.824381  0.537043  0.052126  1
  O  O11  1  0.175619  0.462957  0.947874  1
  O  O12  1  0.956358  0.549412  0.323061  1
  O  O13  1  0.043642  0.450588  0.676939  1
  O  O14  1  0.920030  0.207021  0.184630  1
  O  O15  1  0.079970  0.792979  0.815370  1
  O  O16  1  0.568213  0.806933  0.055968  1
  O  O17  1  0.431787  0.193067  0.944032  1
  O  O18  1  0.290018  0.846541  0.187095  1
  O  O19  1  0.709982  0.153459  0.812905  1
  O  O20  1  0.692524  0.842421  0.327592  1
  O  O21  1  0.307476  0.157579  0.672408  1
  O  O22  1  0.516987  0.590254  0.818240  1
  O  O23  1  0.483013  0.409746  0.181760  1
  O  O24  1  0.663401  0.569606  0.617541  1
  O  O25  1  0.336599  0.430394  0.382459  1
  O  O26  1  0.409499  0.801501  0.606741  1
  O  O27  1  0.590501  0.198499  0.393259  1
