# generated using pymatgen
data_Li4Tb3LuPt4
_symmetry_space_group_name_H-M   'P 1'
_cell_length_a   4.03191400
_cell_length_b   7.01704256
_cell_length_c   8.36892004
_cell_angle_alpha   89.67107441
_cell_angle_beta   90.00000000
_cell_angle_gamma   90.00000000
_symmetry_Int_Tables_number   1
_chemical_formula_structural   Li4Tb3LuPt4
_chemical_formula_sum   'Li4 Tb3 Lu1 Pt4'
_cell_volume   236.77052247
_cell_formula_units_Z   1
loop_
 _symmetry_equiv_pos_site_id
 _symmetry_equiv_pos_as_xyz
  1  'x, y, z'
loop_
 _atom_site_type_symbol
 _atom_site_label
 _atom_site_symmetry_multiplicity
 _atom_site_fract_x
 _atom_site_fract_y
 _atom_site_fract_z
 _atom_site_occupancy
  Li  Li0  1  0.250000  0.634125  0.559048  1
  Li  Li1  1  0.750000  0.366996  0.439125  1
  Li  Li2  1  0.750000  0.870202  0.061467  1
  Li  Li3  1  0.250000  0.129623  0.941574  1
  Tb  Tb4  1  0.250000  0.540454  0.184904  1
  Tb  Tb5  1  0.750000  0.457552  0.817665  1
  Tb  Tb6  1  0.750000  0.958965  0.679790  1
  Lu  Lu7  1  0.250000  0.041957  0.318824  1
  Pt  Pt8  1  0.250000  0.746909  0.879429  1
  Pt  Pt9  1  0.750000  0.246932  0.125233  1
  Pt  Pt10  1  0.750000  0.758509  0.376157  1
  Pt  Pt11  1  0.250000  0.247778  0.616785  1
