# generated using pymatgen
data_Hf13Ti3(Co2N)4
_symmetry_space_group_name_H-M   'P 1'
_cell_length_a   8.43409138
_cell_length_b   8.43409052
_cell_length_c   8.41377000
_cell_angle_alpha   59.92008355
_cell_angle_beta   59.92007909
_cell_angle_gamma   59.99999815
_symmetry_Int_Tables_number   1
_chemical_formula_structural   Hf13Ti3(Co2N)4
_chemical_formula_sum   'Hf13 Ti3 Co8 N4'
_cell_volume   422.69442427
_cell_formula_units_Z   1
loop_
 _symmetry_equiv_pos_site_id
 _symmetry_equiv_pos_as_xyz
  1  'x, y, z'
loop_
 _atom_site_type_symbol
 _atom_site_label
 _atom_site_symmetry_multiplicity
 _atom_site_fract_x
 _atom_site_fract_y
 _atom_site_fract_z
 _atom_site_occupancy
  Hf  Hf0  1  0.625000  0.625000  0.125000  1
  Hf  Hf1  1  0.812991  0.812991  0.188921  1
  Hf  Hf2  1  0.189161  0.189161  0.810073  1
  Hf  Hf3  1  0.811604  0.189161  0.810073  1
  Hf  Hf4  1  0.185099  0.812991  0.188921  1
  Hf  Hf5  1  0.189161  0.811604  0.810073  1
  Hf  Hf6  1  0.812991  0.185099  0.188921  1
  Hf  Hf7  1  0.437009  0.437009  0.061079  1
  Hf  Hf8  1  0.060839  0.060839  0.439927  1
  Hf  Hf9  1  0.438396  0.060839  0.439927  1
  Hf  Hf10  1  0.064901  0.437009  0.061079  1
  Hf  Hf11  1  0.060839  0.438396  0.439927  1
  Hf  Hf12  1  0.437009  0.064901  0.061079  1
  Ti  Ti13  1  0.125000  0.625000  0.625000  1
  Ti  Ti14  1  0.625000  0.125000  0.625000  1
  Ti  Ti15  1  0.625000  0.625000  0.625000  1
  Co  Co16  1  0.748361  0.413069  0.425502  1
  Co  Co17  1  0.413069  0.748361  0.425502  1
  Co  Co18  1  0.417422  0.417422  0.747735  1
  Co  Co19  1  0.413069  0.413069  0.425502  1
  Co  Co20  1  0.501639  0.836931  0.824498  1
  Co  Co21  1  0.836931  0.501639  0.824498  1
  Co  Co22  1  0.832578  0.832578  0.502265  1
  Co  Co23  1  0.836931  0.836931  0.824498  1
  N  N24  1  0.625000  0.125000  0.125000  1
  N  N25  1  0.125000  0.625000  0.125000  1
  N  N26  1  0.125000  0.125000  0.625000  1
  N  N27  1  0.125000  0.125000  0.125000  1
