# generated using pymatgen
data_Sc6Ti2Al13Os7W
_symmetry_space_group_name_H-M   'P 1'
_cell_length_a   8.83028983
_cell_length_b   8.83029078
_cell_length_c   8.83112833
_cell_angle_alpha   59.78799926
_cell_angle_beta   59.78799387
_cell_angle_gamma   59.62753755
_symmetry_Int_Tables_number   1
_chemical_formula_structural   Sc6Ti2Al13Os7W
_chemical_formula_sum   'Sc6 Ti2 Al13 Os7 W1'
_cell_volume   483.97448000
_cell_formula_units_Z   1
loop_
 _symmetry_equiv_pos_site_id
 _symmetry_equiv_pos_as_xyz
  1  'x, y, z'
loop_
 _atom_site_type_symbol
 _atom_site_label
 _atom_site_symmetry_multiplicity
 _atom_site_fract_x
 _atom_site_fract_y
 _atom_site_fract_z
 _atom_site_occupancy
  Sc  Sc0  1  0.713026  0.713026  0.279317  1
  Sc  Sc1  1  0.291066  0.713682  0.286721  1
  Sc  Sc2  1  0.713682  0.291066  0.286721  1
  Sc  Sc3  1  0.288494  0.288494  0.712182  1
  Sc  Sc4  1  0.713882  0.281606  0.712555  1
  Sc  Sc5  1  0.281606  0.713882  0.712555  1
  Ti  Ti6  1  0.880844  0.359942  0.877401  1
  Ti  Ti7  1  0.359942  0.880844  0.877401  1
  Al  Al8  1  0.882226  0.882226  0.879137  1
  Al  Al9  1  0.121402  0.121402  0.639541  1
  Al  Al10  1  0.122350  0.638500  0.119835  1
  Al  Al11  1  0.638500  0.122350  0.119835  1
  Al  Al12  1  0.121774  0.121774  0.118739  1
  Al  Al13  1  0.665067  0.665067  0.002741  1
  Al  Al14  1  0.663232  0.006391  0.667482  1
  Al  Al15  1  0.006391  0.663232  0.667482  1
  Al  Al16  1  0.660227  0.660227  0.665849  1
  Al  Al17  1  0.336093  0.336093  0.994002  1
  Al  Al18  1  0.335282  0.993868  0.337912  1
  Al  Al19  1  0.993868  0.335282  0.337912  1
  Al  Al20  1  0.335476  0.335476  0.337630  1
  Os  Os21  1  0.999341  0.999341  0.006988  1
  Os  Os22  1  0.997812  0.997812  0.496812  1
  Os  Os23  1  0.506531  0.996517  0.499130  1
  Os  Os24  1  0.996517  0.506531  0.499130  1
  Os  Os25  1  0.500399  0.500399  0.999171  1
  Os  Os26  1  0.998750  0.499834  0.000053  1
  Os  Os27  1  0.499834  0.998750  0.000053  1
  W  W28  1  0.876390  0.876390  0.365712  1
