# generated using pymatgen
data_Ho7LuTi11Si16Rh
_symmetry_space_group_name_H-M   'P 1'
_cell_length_a   7.02095578
_cell_length_b   7.02317934
_cell_length_c   12.84244445
_cell_angle_alpha   90.09116533
_cell_angle_beta   89.92481423
_cell_angle_gamma   89.81082640
_symmetry_Int_Tables_number   1
_chemical_formula_structural   Ho7LuTi11Si16Rh
_chemical_formula_sum   'Ho7 Lu1 Ti11 Si16 Rh1'
_cell_volume   633.24883307
_cell_formula_units_Z   1
loop_
 _symmetry_equiv_pos_site_id
 _symmetry_equiv_pos_as_xyz
  1  'x, y, z'
loop_
 _atom_site_type_symbol
 _atom_site_label
 _atom_site_symmetry_multiplicity
 _atom_site_fract_x
 _atom_site_fract_y
 _atom_site_fract_z
 _atom_site_occupancy
  Ho  Ho0  1  0.496255  0.842069  0.717663  1
  Ho  Ho1  1  0.501008  0.158399  0.214969  1
  Ho  Ho2  1  0.841725  0.496450  0.282225  1
  Ho  Ho3  1  0.158550  0.501073  0.785129  1
  Ho  Ho4  1  0.657086  0.998215  0.968202  1
  Ho  Ho5  1  0.004391  0.340098  0.532492  1
  Ho  Ho6  1  0.998249  0.657139  0.031813  1
  Lu  Lu7  1  0.341155  0.002692  0.467339  1
  Ti  Ti8  1  0.175708  0.826772  0.248777  1
  Ti  Ti9  1  0.826583  0.175478  0.751320  1
  Ti  Ti10  1  0.673078  0.674020  0.499978  1
  Ti  Ti11  1  0.149438  0.002932  0.875776  1
  Ti  Ti12  1  0.494203  0.655788  0.125072  1
  Ti  Ti13  1  0.505862  0.349484  0.627300  1
  Ti  Ti14  1  0.655599  0.494173  0.875070  1
  Ti  Ti15  1  0.349638  0.506349  0.372526  1
  Ti  Ti16  1  0.849709  0.994372  0.374923  1
  Ti  Ti17  1  0.003191  0.149229  0.124205  1
  Ti  Ti18  1  0.994586  0.849707  0.624932  1
  Si  Si19  1  0.202897  0.133221  0.684617  1
  Si  Si20  1  0.371952  0.703456  0.933622  1
  Si  Si21  1  0.630307  0.294347  0.433683  1
  Si  Si22  1  0.703428  0.371913  0.066370  1
  Si  Si23  1  0.295498  0.632636  0.566009  1
  Si  Si24  1  0.796328  0.868057  0.183729  1
  Si  Si25  1  0.134237  0.201671  0.315804  1
  Si  Si26  1  0.868014  0.796377  0.816259  1
  Si  Si27  1  0.286640  0.950320  0.063912  1
  Si  Si28  1  0.546185  0.793122  0.316174  1
  Si  Si29  1  0.449050  0.209941  0.817418  1
  Si  Si30  1  0.792268  0.547085  0.684356  1
  Si  Si31  1  0.209995  0.449017  0.182594  1
  Si  Si32  1  0.706991  0.047608  0.565124  1
  Si  Si33  1  0.950429  0.286601  0.936056  1
  Si  Si34  1  0.048755  0.709111  0.434497  1
  Rh  Rh35  1  0.331009  0.331077  0.000065  1
