# generated using pymatgen
data_Y4Mg3(Ga5Rh2)3
_symmetry_space_group_name_H-M   'P 1'
_cell_length_a   7.67412919
_cell_length_b   7.67416107
_cell_length_c   9.52529735
_cell_angle_alpha   90.04782489
_cell_angle_beta   90.04761358
_cell_angle_gamma   119.80971833
_symmetry_Int_Tables_number   1
_chemical_formula_structural   Y4Mg3(Ga5Rh2)3
_chemical_formula_sum   'Y4 Mg3 Ga15 Rh6'
_cell_volume   486.74121266
_cell_formula_units_Z   1
loop_
 _symmetry_equiv_pos_site_id
 _symmetry_equiv_pos_as_xyz
  1  'x, y, z'
loop_
 _atom_site_type_symbol
 _atom_site_label
 _atom_site_symmetry_multiplicity
 _atom_site_fract_x
 _atom_site_fract_y
 _atom_site_fract_z
 _atom_site_occupancy
  Y  Y0  1  0.012336  0.665621  0.249372  1
  Y  Y1  1  0.993866  0.333904  0.753738  1
  Y  Y2  1  0.665619  0.012334  0.249373  1
  Y  Y3  1  0.333906  0.993868  0.753738  1
  Mg  Mg4  1  0.332445  0.332445  0.553304  1
  Mg  Mg5  1  0.668118  0.668118  0.446626  1
  Mg  Mg6  1  0.664061  0.664062  0.050317  1
  Ga  Ga7  1  0.332163  0.332161  0.934637  1
  Ga  Ga8  1  0.343333  0.550814  0.251367  1
  Ga  Ga9  1  0.659331  0.449719  0.748822  1
  Ga  Ga10  1  0.550814  0.343329  0.251366  1
  Ga  Ga11  1  0.449719  0.659338  0.748823  1
  Ga  Ga12  1  0.006288  0.335154  0.080219  1
  Ga  Ga13  1  0.991405  0.664830  0.922838  1
  Ga  Ga14  1  0.992506  0.664032  0.577508  1
  Ga  Ga15  1  0.336110  0.008524  0.423548  1
  Ga  Ga16  1  0.008522  0.336106  0.423548  1
  Ga  Ga17  1  0.664033  0.992508  0.577504  1
  Ga  Ga18  1  0.664827  0.991403  0.922843  1
  Ga  Ga19  1  0.335159  0.006289  0.080216  1
  Ga  Ga20  1  0.117257  0.117258  0.250945  1
  Ga  Ga21  1  0.879262  0.879263  0.750434  1
  Rh  Rh22  1  0.008337  0.008335  0.997252  1
  Rh  Rh23  1  0.999556  0.999556  0.501174  1
  Rh  Rh24  1  0.671756  0.319400  0.999453  1
  Rh  Rh25  1  0.319382  0.671740  0.999457  1
  Rh  Rh26  1  0.320182  0.679711  0.500788  1
  Rh  Rh27  1  0.679706  0.320178  0.500790  1
