# generated using pymatgen
data_SrLa6FeI12
_symmetry_space_group_name_H-M   'P 1'
_cell_length_a   10.15517408
_cell_length_b   10.15517388
_cell_length_c   10.15517565
_cell_angle_alpha   106.31651003
_cell_angle_beta   106.31650410
_cell_angle_gamma   106.31650755
_symmetry_Int_Tables_number   1
_chemical_formula_structural   SrLa6FeI12
_chemical_formula_sum   'Sr1 La6 Fe1 I12'
_cell_volume   887.94364072
_cell_formula_units_Z   1
loop_
 _symmetry_equiv_pos_site_id
 _symmetry_equiv_pos_as_xyz
  1  'x, y, z'
loop_
 _atom_site_type_symbol
 _atom_site_label
 _atom_site_symmetry_multiplicity
 _atom_site_fract_x
 _atom_site_fract_y
 _atom_site_fract_z
 _atom_site_occupancy
  Sr  Sr0  1  0.500000  0.500000  0.500000  1
  La  La1  1  0.979756  0.904954  0.703428  1
  La  La2  1  0.020244  0.095046  0.296572  1
  La  La3  1  0.095046  0.296572  0.020244  1
  La  La4  1  0.296572  0.020244  0.095046  1
  La  La5  1  0.904954  0.703428  0.979756  1
  La  La6  1  0.703428  0.979756  0.904954  1
  Fe  Fe7  1  0.000000  0.000000  0.000000  1
  I  I8  1  0.546624  0.628029  0.855689  1
  I  I9  1  0.453376  0.371971  0.144311  1
  I  I10  1  0.322358  0.926067  0.773524  1
  I  I11  1  0.371971  0.144311  0.453376  1
  I  I12  1  0.926067  0.773524  0.322358  1
  I  I13  1  0.677642  0.073933  0.226476  1
  I  I14  1  0.073933  0.226476  0.677642  1
  I  I15  1  0.773524  0.322358  0.926067  1
  I  I16  1  0.226476  0.677642  0.073933  1
  I  I17  1  0.855689  0.546624  0.628029  1
  I  I18  1  0.144311  0.453376  0.371971  1
  I  I19  1  0.628029  0.855689  0.546624  1
