# generated using pymatgen
data_Sr5LiLaCo4O15
_symmetry_space_group_name_H-M   'P 1'
_cell_length_a   6.94244263
_cell_length_b   6.90439111
_cell_length_c   6.90439025
_cell_angle_alpha   86.95494022
_cell_angle_beta   86.80994551
_cell_angle_gamma   86.80994057
_symmetry_Int_Tables_number   1
_chemical_formula_structural   Sr5LiLaCo4O15
_chemical_formula_sum   'Sr5 Li1 La1 Co4 O15'
_cell_volume   329.50997375
_cell_formula_units_Z   1
loop_
 _symmetry_equiv_pos_site_id
 _symmetry_equiv_pos_as_xyz
  1  'x, y, z'
loop_
 _atom_site_type_symbol
 _atom_site_label
 _atom_site_symmetry_multiplicity
 _atom_site_fract_x
 _atom_site_fract_y
 _atom_site_fract_z
 _atom_site_occupancy
  Sr  Sr0  1  0.148260  0.500716  0.852226  1
  Sr  Sr1  1  0.851740  0.147774  0.499284  1
  Sr  Sr2  1  0.000000  0.657965  0.342035  1
  Sr  Sr3  1  0.335232  0.005874  0.664218  1
  Sr  Sr4  1  0.664768  0.335782  0.994126  1
  Li  Li5  1  0.500000  0.504514  0.495486  1
  La  La6  1  0.500000  0.845207  0.154793  1
  Co  Co7  1  0.700125  0.705163  0.705778  1
  Co  Co8  1  0.299875  0.294222  0.294837  1
  Co  Co9  1  0.901666  0.904386  0.904901  1
  Co  Co10  1  0.098334  0.095099  0.095614  1
  O  O11  1  0.371960  0.544268  0.220863  1
  O  O12  1  0.219319  0.366773  0.532962  1
  O  O13  1  0.539547  0.217611  0.358398  1
  O  O14  1  0.628040  0.779137  0.455732  1
  O  O15  1  0.460453  0.641602  0.782389  1
  O  O16  1  0.780681  0.467038  0.633227  1
  O  O17  1  0.201662  0.020972  0.337588  1
  O  O18  1  0.342678  0.191333  0.025350  1
  O  O19  1  0.032258  0.334174  0.193920  1
  O  O20  1  0.798338  0.662412  0.979028  1
  O  O21  1  0.967742  0.806080  0.665826  1
  O  O22  1  0.153586  0.849063  0.002771  1
  O  O23  1  0.846414  0.997229  0.150937  1
  O  O24  1  0.000000  0.150953  0.849047  1
  O  O25  1  0.657322  0.974650  0.808667  1
