# generated using pymatgen
data_Ce5HgOs2
_symmetry_space_group_name_H-M   'P 1'
_cell_length_a   7.81037264
_cell_length_b   7.81172620
_cell_length_c   8.68453077
_cell_angle_alpha   116.70940035
_cell_angle_beta   116.72261797
_cell_angle_gamma   90.00001210
_symmetry_Int_Tables_number   1
_chemical_formula_structural   Ce5HgOs2
_chemical_formula_sum   'Ce10 Hg2 Os4'
_cell_volume   408.98430785
_cell_formula_units_Z   2
loop_
 _symmetry_equiv_pos_site_id
 _symmetry_equiv_pos_as_xyz
  1  'x, y, z'
loop_
 _atom_site_type_symbol
 _atom_site_label
 _atom_site_symmetry_multiplicity
 _atom_site_fract_x
 _atom_site_fract_y
 _atom_site_fract_z
 _atom_site_occupancy
  Ce  Ce0  1  0.500000  0.500000  0.000000  1
  Ce  Ce1  1  0.000000  0.000000  0.000000  1
  Ce  Ce2  1  0.976277  0.793930  0.270491  1
  Ce  Ce3  1  0.293668  0.476138  0.270172  1
  Ce  Ce4  1  0.794214  0.293930  0.270491  1
  Ce  Ce5  1  0.476503  0.976138  0.270172  1
  Ce  Ce6  1  0.023723  0.206070  0.729509  1
  Ce  Ce7  1  0.706332  0.523862  0.729828  1
  Ce  Ce8  1  0.205786  0.706070  0.729509  1
  Ce  Ce9  1  0.523497  0.023862  0.729828  1
  Hg  Hg10  1  0.749953  0.750000  0.500000  1
  Hg  Hg11  1  0.250047  0.250000  0.500000  1
  Os  Os12  1  0.640007  0.860081  0.000060  1
  Os  Os13  1  0.359993  0.139919  0.999940  1
  Os  Os14  1  0.860054  0.360081  0.000060  1
  Os  Os15  1  0.139946  0.639919  0.999940  1
