# generated using pymatgen
data_LiLu(CoH3)2
_symmetry_space_group_name_H-M   'P 1'
_cell_length_a   4.71941799
_cell_length_b   4.71941848
_cell_length_c   4.71941873
_cell_angle_alpha   59.94824646
_cell_angle_beta   59.94825067
_cell_angle_gamma   59.94825263
_symmetry_Int_Tables_number   1
_chemical_formula_structural   LiLu(CoH3)2
_chemical_formula_sum   'Li1 Lu1 Co2 H6'
_cell_volume   74.24042027
_cell_formula_units_Z   1
loop_
 _symmetry_equiv_pos_site_id
 _symmetry_equiv_pos_as_xyz
  1  'x, y, z'
loop_
 _atom_site_type_symbol
 _atom_site_label
 _atom_site_symmetry_multiplicity
 _atom_site_fract_x
 _atom_site_fract_y
 _atom_site_fract_z
 _atom_site_occupancy
  Li  Li0  1  0.750000  0.750000  0.750000  1
  Lu  Lu1  1  0.250000  0.250000  0.250000  1
  Co  Co2  1  0.000096  0.000096  0.000096  1
  Co  Co3  1  0.499904  0.499904  0.499904  1
  H  H4  1  0.749999  0.262984  0.237017  1
  H  H5  1  0.746278  0.753720  0.250001  1
  H  H6  1  0.237015  0.750001  0.262984  1
  H  H7  1  0.753722  0.249999  0.746278  1
  H  H8  1  0.262983  0.237018  0.749999  1
  H  H9  1  0.250001  0.746278  0.753721  1
