# generated using pymatgen
data_Tb5Dy7In2(CoTc)2
_symmetry_space_group_name_H-M   'P 1'
_cell_length_a   8.47464937
_cell_length_b   8.47464932
_cell_length_c   8.47282747
_cell_angle_alpha   112.96514378
_cell_angle_beta   110.98015189
_cell_angle_gamma   104.59264763
_symmetry_Int_Tables_number   1
_chemical_formula_structural   Tb5Dy7In2(CoTc)2
_chemical_formula_sum   'Tb5 Dy7 In2 Co2 Tc2'
_cell_volume   465.70404386
_cell_formula_units_Z   1
loop_
 _symmetry_equiv_pos_site_id
 _symmetry_equiv_pos_as_xyz
  1  'x, y, z'
loop_
 _atom_site_type_symbol
 _atom_site_label
 _atom_site_symmetry_multiplicity
 _atom_site_fract_x
 _atom_site_fract_y
 _atom_site_fract_z
 _atom_site_occupancy
  Tb  Tb0  1  0.445001  0.243904  0.200434  1
  Tb  Tb1  1  0.555755  0.756532  0.799823  1
  Tb  Tb2  1  0.043290  0.244069  0.799823  1
  Tb  Tb3  1  0.956530  0.755431  0.200434  1
  Tb  Tb4  1  0.185236  0.287505  0.472740  1
  Dy  Dy5  1  0.814926  0.713082  0.528008  1
  Dy  Dy6  1  0.184877  0.712964  0.897841  1
  Dy  Dy7  1  0.814666  0.286979  0.101646  1
  Dy  Dy8  1  0.327769  0.647159  0.319375  1
  Dy  Dy9  1  0.672703  0.352734  0.680708  1
  Dy  Dy10  1  0.327974  0.008004  0.680708  1
  Dy  Dy11  1  0.672216  0.991607  0.319375  1
  In  In12  1  0.500282  0.499721  0.000004  1
  In  In13  1  0.999832  0.999949  0.999781  1
  Co  Co14  1  0.109285  0.610154  0.499732  1
  Co  Co15  1  0.889579  0.390447  0.499732  1
  Tc  Tc16  1  0.321841  0.999793  0.321634  1
  Tc  Tc17  1  0.678239  0.999965  0.678203  1
