# generated using pymatgen
data_ThUSb4Pd
_symmetry_space_group_name_H-M   'P 1'
_cell_length_a   4.42992600
_cell_length_b   4.46162000
_cell_length_c   9.38012000
_cell_angle_alpha   90.00000000
_cell_angle_beta   90.00000000
_cell_angle_gamma   90.00000000
_symmetry_Int_Tables_number   1
_chemical_formula_structural   ThUSb4Pd
_chemical_formula_sum   'Th1 U1 Sb4 Pd1'
_cell_volume   185.39475537
_cell_formula_units_Z   1
loop_
 _symmetry_equiv_pos_site_id
 _symmetry_equiv_pos_as_xyz
  1  'x, y, z'
loop_
 _atom_site_type_symbol
 _atom_site_label
 _atom_site_symmetry_multiplicity
 _atom_site_fract_x
 _atom_site_fract_y
 _atom_site_fract_z
 _atom_site_occupancy
  Th  Th0  1  0.500000  0.000000  0.762668  1
  U  U1  1  0.000000  0.500000  0.233207  1
  Sb  Sb2  1  0.500000  0.000000  0.166544  1
  Sb  Sb3  1  0.000000  0.500000  0.846279  1
  Sb  Sb4  1  0.500000  0.500000  0.491432  1
  Sb  Sb5  1  0.000000  0.000000  0.492157  1
  Pd  Pd6  1  0.500000  0.500000  0.007712  1
