# generated using pymatgen
data_La13PrIrPt5
_symmetry_space_group_name_H-M   'P 1'
_cell_length_a   6.59109462
_cell_length_b   10.32598313
_cell_length_c   10.33526079
_cell_angle_alpha   119.96543850
_cell_angle_beta   89.99321855
_cell_angle_gamma   90.00170906
_symmetry_Int_Tables_number   1
_chemical_formula_structural   La13PrIrPt5
_chemical_formula_sum   'La13 Pr1 Ir1 Pt5'
_cell_volume   609.38557586
_cell_formula_units_Z   1
loop_
 _symmetry_equiv_pos_site_id
 _symmetry_equiv_pos_as_xyz
  1  'x, y, z'
loop_
 _atom_site_type_symbol
 _atom_site_label
 _atom_site_symmetry_multiplicity
 _atom_site_fract_x
 _atom_site_fract_y
 _atom_site_fract_z
 _atom_site_occupancy
  La  La0  1  0.961379  0.666844  0.333667  1
  La  La1  1  0.247461  0.127026  0.872269  1
  La  La2  1  0.247485  0.745189  0.872247  1
  La  La3  1  0.253025  0.127647  0.255323  1
  La  La4  1  0.745741  0.878818  0.130934  1
  La  La5  1  0.745776  0.252188  0.130956  1
  La  La6  1  0.746624  0.872735  0.745456  1
  La  La7  1  0.440287  0.536662  0.461318  1
  La  La8  1  0.440235  0.924599  0.461282  1
  La  La9  1  0.441406  0.537613  0.075301  1
  La  La10  1  0.937839  0.456721  0.535652  1
  La  La11  1  0.937666  0.078974  0.535669  1
  La  La12  1  0.941048  0.461955  0.923899  1
  Pr  Pr13  1  0.464600  0.331809  0.663606  1
  Ir  Ir14  1  0.691941  0.188363  0.376699  1
  Pt  Pt15  1  0.191597  0.810961  0.187869  1
  Pt  Pt16  1  0.191556  0.376914  0.187906  1
  Pt  Pt17  1  0.192063  0.811682  0.623384  1
  Pt  Pt18  1  0.692110  0.188424  0.813303  1
  Pt  Pt19  1  0.692163  0.624878  0.813259  1
