# generated using pymatgen
data_YErNiPt
_symmetry_space_group_name_H-M   'P 1'
_cell_length_a   4.31090000
_cell_length_b   5.51316400
_cell_length_c   7.08619100
_cell_angle_alpha   90.00000000
_cell_angle_beta   90.00000000
_cell_angle_gamma   90.00000000
_symmetry_Int_Tables_number   1
_chemical_formula_structural   YErNiPt
_chemical_formula_sum   'Y2 Er2 Ni2 Pt2'
_cell_volume   168.41536634
_cell_formula_units_Z   2
loop_
 _symmetry_equiv_pos_site_id
 _symmetry_equiv_pos_as_xyz
  1  'x, y, z'
loop_
 _atom_site_type_symbol
 _atom_site_label
 _atom_site_symmetry_multiplicity
 _atom_site_fract_x
 _atom_site_fract_y
 _atom_site_fract_z
 _atom_site_occupancy
  Y  Y0  1  0.500000  0.387139  0.319532  1
  Y  Y1  1  0.500000  0.612861  0.819532  1
  Er  Er2  1  0.000000  0.117092  0.678616  1
  Er  Er3  1  0.000000  0.882908  0.178616  1
  Ni  Ni4  1  0.000000  0.614275  0.541933  1
  Ni  Ni5  1  0.000000  0.385725  0.041933  1
  Pt  Pt6  1  0.500000  0.888996  0.459919  1
  Pt  Pt7  1  0.500000  0.111004  0.959919  1
