# generated using pymatgen
data_Er12Co2Tc2NiBi
_symmetry_space_group_name_H-M   'P 1'
_cell_length_a   8.29333079
_cell_length_b   8.29313479
_cell_length_c   8.29333207
_cell_angle_alpha   110.99861252
_cell_angle_beta   112.11523769
_cell_angle_gamma   105.37875946
_symmetry_Int_Tables_number   1
_chemical_formula_structural   Er12Co2Tc2NiBi
_chemical_formula_sum   'Er12 Co2 Tc2 Ni1 Bi1'
_cell_volume   437.37690689
_cell_formula_units_Z   1
loop_
 _symmetry_equiv_pos_site_id
 _symmetry_equiv_pos_as_xyz
  1  'x, y, z'
loop_
 _atom_site_type_symbol
 _atom_site_label
 _atom_site_symmetry_multiplicity
 _atom_site_fract_x
 _atom_site_fract_y
 _atom_site_fract_z
 _atom_site_occupancy
  Er  Er0  1  0.275020  0.182907  0.457974  1
  Er  Er1  1  0.721415  0.818283  0.539734  1
  Er  Er2  1  0.278549  0.818283  0.096869  1
  Er  Er3  1  0.724933  0.182907  0.907887  1
  Er  Er4  1  0.614331  0.301660  0.302642  1
  Er  Er5  1  0.385654  0.688410  0.687260  1
  Er  Er6  1  0.999019  0.301660  0.687330  1
  Er  Er7  1  0.001149  0.688410  0.302756  1
  Er  Er8  1  0.223224  0.417883  0.194659  1
  Er  Er9  1  0.779613  0.582014  0.802401  1
  Er  Er10  1  0.220355  0.022732  0.802378  1
  Er  Er11  1  0.776757  0.971396  0.194639  1
  Co  Co12  1  0.390726  0.889055  0.498329  1
  Co  Co13  1  0.609304  0.107623  0.498319  1
  Tc  Tc14  1  0.000000  0.383216  0.383216  1
  Tc  Tc15  1  0.999993  0.000228  0.000236  1
  Ni  Ni16  1  0.999967  0.645110  0.645143  1
  Bi  Bi17  1  0.499993  0.498222  0.998229  1
