# generated using pymatgen
data_Ho5Co16(P4W)3
_symmetry_space_group_name_H-M   'P 1'
_cell_length_a   12.05746900
_cell_length_b   12.05746885
_cell_length_c   3.69708700
_cell_angle_alpha   90.00000000
_cell_angle_beta   90.00000000
_cell_angle_gamma   120.00000315
_symmetry_Int_Tables_number   1
_chemical_formula_structural   Ho5Co16(P4W)3
_chemical_formula_sum   'Ho5 Co16 P12 W3'
_cell_volume   465.48167792
_cell_formula_units_Z   1
loop_
 _symmetry_equiv_pos_site_id
 _symmetry_equiv_pos_as_xyz
  1  'x, y, z'
loop_
 _atom_site_type_symbol
 _atom_site_label
 _atom_site_symmetry_multiplicity
 _atom_site_fract_x
 _atom_site_fract_y
 _atom_site_fract_z
 _atom_site_occupancy
  Ho  Ho0  1  0.666667  0.333333  0.000000  1
  Ho  Ho1  1  0.333333  0.666667  0.000000  1
  Ho  Ho2  1  0.815106  0.815106  0.500000  1
  Ho  Ho3  1  0.184894  0.000000  0.500000  1
  Ho  Ho4  1  0.000000  0.184894  0.500000  1
  Co  Co5  1  0.872851  0.355663  0.500000  1
  Co  Co6  1  0.644337  0.517188  0.500000  1
  Co  Co7  1  0.482812  0.127149  0.500000  1
  Co  Co8  1  0.355663  0.872851  0.500000  1
  Co  Co9  1  0.517188  0.644337  0.500000  1
  Co  Co10  1  0.127149  0.482812  0.500000  1
  Co  Co11  1  0.801640  0.176753  0.000000  1
  Co  Co12  1  0.823247  0.624886  0.000000  1
  Co  Co13  1  0.375114  0.198360  0.000000  1
  Co  Co14  1  0.176753  0.801640  0.000000  1
  Co  Co15  1  0.624886  0.823247  0.000000  1
  Co  Co16  1  0.198360  0.375114  0.000000  1
  Co  Co17  1  0.280916  0.280916  0.500000  1
  Co  Co18  1  0.719084  0.000000  0.500000  1
  Co  Co19  1  0.000000  0.719084  0.500000  1
  Co  Co20  1  0.000000  0.000000  0.000000  1
  P  P21  1  0.686154  0.166005  0.500000  1
  P  P22  1  0.833995  0.520149  0.500000  1
  P  P23  1  0.479851  0.313846  0.500000  1
  P  P24  1  0.166005  0.686154  0.500000  1
  P  P25  1  0.520149  0.833995  0.500000  1
  P  P26  1  0.313846  0.479851  0.500000  1
  P  P27  1  0.177595  0.177595  0.000000  1
  P  P28  1  0.822405  0.000000  0.000000  1
  P  P29  1  0.000000  0.822405  0.000000  1
  P  P30  1  0.640758  0.640758  0.000000  1
  P  P31  1  0.359242  0.000000  0.000000  1
  P  P32  1  0.000000  0.359242  0.000000  1
  W  W33  1  0.446349  0.446349  0.000000  1
  W  W34  1  0.553651  0.000000  0.000000  1
  W  W35  1  0.000000  0.553651  0.000000  1
