# generated using pymatgen
data_Ir2Ru3PtW2
_symmetry_space_group_name_H-M   'P 1'
_cell_length_a   5.56273932
_cell_length_b   5.53771117
_cell_length_c   4.41829000
_cell_angle_alpha   90.00000000
_cell_angle_beta   90.00000000
_cell_angle_gamma   120.33544994
_symmetry_Int_Tables_number   1
_chemical_formula_structural   Ir2Ru3PtW2
_chemical_formula_sum   'Ir2 Ru3 Pt1 W2'
_cell_volume   117.46971171
_cell_formula_units_Z   1
loop_
 _symmetry_equiv_pos_site_id
 _symmetry_equiv_pos_as_xyz
  1  'x, y, z'
loop_
 _atom_site_type_symbol
 _atom_site_label
 _atom_site_symmetry_multiplicity
 _atom_site_fract_x
 _atom_site_fract_y
 _atom_site_fract_z
 _atom_site_occupancy
  Ir  Ir0  1  0.834459  0.667649  0.750000  1
  Ir  Ir1  1  0.331722  0.163396  0.750000  1
  Ru  Ru2  1  0.665885  0.835118  0.250000  1
  Ru  Ru3  1  0.167326  0.832989  0.250000  1
  Ru  Ru4  1  0.830273  0.162984  0.750000  1
  Pt  Pt5  1  0.165404  0.332428  0.250000  1
  W  W6  1  0.338655  0.675508  0.750000  1
  W  W7  1  0.666276  0.329926  0.250000  1
