# generated using pymatgen
data_Gd6Ho2In3Ir
_symmetry_space_group_name_H-M   'P 1'
_cell_length_a   10.55704600
_cell_length_b   10.55905720
_cell_length_c   7.16453600
_cell_angle_alpha   89.98759023
_cell_angle_beta   90.00000000
_cell_angle_gamma   119.99369945
_symmetry_Int_Tables_number   1
_chemical_formula_structural   Gd6Ho2In3Ir
_chemical_formula_sum   'Gd12 Ho4 In6 Ir2'
_cell_volume   691.69368873
_cell_formula_units_Z   2
loop_
 _symmetry_equiv_pos_site_id
 _symmetry_equiv_pos_as_xyz
  1  'x, y, z'
loop_
 _atom_site_type_symbol
 _atom_site_label
 _atom_site_symmetry_multiplicity
 _atom_site_fract_x
 _atom_site_fract_y
 _atom_site_fract_z
 _atom_site_occupancy
  Gd  Gd0  1  0.069288  0.533741  0.013644  1
  Gd  Gd1  1  0.464454  0.533741  0.013644  1
  Gd  Gd2  1  0.176201  0.352404  0.718816  1
  Gd  Gd3  1  0.647168  0.823878  0.720827  1
  Gd  Gd4  1  0.176709  0.823878  0.720827  1
  Gd  Gd5  1  0.823646  0.647291  0.222392  1
  Gd  Gd6  1  0.353152  0.175761  0.222470  1
  Gd  Gd7  1  0.822609  0.175761  0.222470  1
  Gd  Gd8  1  0.665900  0.331799  0.896173  1
  Gd  Gd9  1  0.333544  0.667090  0.395212  1
  Gd  Gd10  1  0.001328  0.002658  0.501423  1
  Gd  Gd11  1  0.001728  0.003454  0.999695  1
  Ho  Ho12  1  0.534069  0.068137  0.513536  1
  Ho  Ho13  1  0.929472  0.464187  0.513998  1
  Ho  Ho14  1  0.534714  0.464187  0.513998  1
  Ho  Ho15  1  0.465527  0.931053  0.013892  1
  In  In16  1  0.836584  0.673169  0.759051  1
  In  In17  1  0.326815  0.163223  0.760434  1
  In  In18  1  0.836407  0.163223  0.760434  1
  In  In19  1  0.163297  0.326591  0.263574  1
  In  In20  1  0.672472  0.836993  0.261772  1
  In  In21  1  0.164522  0.836993  0.261772  1
  Ir  Ir22  1  0.666052  0.332104  0.296197  1
  Ir  Ir23  1  0.334344  0.668689  0.791748  1
