# generated using pymatgen
data_Cr2PPd7Pt
_symmetry_space_group_name_H-M   'P 1'
_cell_length_a   3.91843200
_cell_length_b   3.94822500
_cell_length_c   10.76073300
_cell_angle_alpha   90.00000000
_cell_angle_beta   90.00000000
_cell_angle_gamma   90.00000000
_symmetry_Int_Tables_number   1
_chemical_formula_structural   Cr2PPd7Pt
_chemical_formula_sum   'Cr2 P1 Pd7 Pt1'
_cell_volume   166.47769887
_cell_formula_units_Z   1
loop_
 _symmetry_equiv_pos_site_id
 _symmetry_equiv_pos_as_xyz
  1  'x, y, z'
loop_
 _atom_site_type_symbol
 _atom_site_label
 _atom_site_symmetry_multiplicity
 _atom_site_fract_x
 _atom_site_fract_y
 _atom_site_fract_z
 _atom_site_occupancy
  Cr  Cr0  1  0.500000  0.500000  0.824322  1
  Cr  Cr1  1  0.500000  0.500000  0.175678  1
  P  P2  1  0.000000  0.000000  0.500000  1
  Pd  Pd3  1  0.500000  0.000000  0.000000  1
  Pd  Pd4  1  0.500000  0.000000  0.632456  1
  Pd  Pd5  1  0.000000  0.500000  0.632121  1
  Pd  Pd6  1  0.500000  0.000000  0.367544  1
  Pd  Pd7  1  0.000000  0.500000  0.367879  1
  Pd  Pd8  1  0.000000  0.000000  0.817262  1
  Pd  Pd9  1  0.000000  0.000000  0.182738  1
  Pt  Pt10  1  0.000000  0.500000  0.000000  1
