# generated using pymatgen
data_CaEr3(SiPd2)4
_symmetry_space_group_name_H-M   'P 1'
_cell_length_a   5.54400027
_cell_length_b   6.99657320
_cell_length_c   7.29741753
_cell_angle_alpha   90.02632509
_cell_angle_beta   90.03486171
_cell_angle_gamma   90.00750242
_symmetry_Int_Tables_number   1
_chemical_formula_structural   CaEr3(SiPd2)4
_chemical_formula_sum   'Ca1 Er3 Si4 Pd8'
_cell_volume   283.05947085
_cell_formula_units_Z   1
loop_
 _symmetry_equiv_pos_site_id
 _symmetry_equiv_pos_as_xyz
  1  'x, y, z'
loop_
 _atom_site_type_symbol
 _atom_site_label
 _atom_site_symmetry_multiplicity
 _atom_site_fract_x
 _atom_site_fract_y
 _atom_site_fract_z
 _atom_site_occupancy
  Ca  Ca0  1  0.136595  0.750006  0.526398  1
  Er  Er1  1  0.640950  0.249971  0.974133  1
  Er  Er2  1  0.859634  0.250055  0.473336  1
  Er  Er3  1  0.357901  0.749972  0.026176  1
  Si  Si4  1  0.858276  0.749980  0.879491  1
  Si  Si5  1  0.361501  0.250002  0.622150  1
  Si  Si6  1  0.139589  0.249997  0.122971  1
  Si  Si7  1  0.636698  0.749995  0.377024  1
  Pd  Pd8  1  0.900246  0.949061  0.176781  1
  Pd  Pd9  1  0.410078  0.053207  0.319343  1
  Pd  Pd10  1  0.096208  0.446523  0.825536  1
  Pd  Pd11  1  0.598058  0.550501  0.677554  1
  Pd  Pd12  1  0.095997  0.053412  0.825479  1
  Pd  Pd13  1  0.598092  0.949481  0.677527  1
  Pd  Pd14  1  0.900159  0.550945  0.176776  1
  Pd  Pd15  1  0.410017  0.446894  0.319324  1
