# generated using pymatgen
data_YHo15In3HgRh4
_symmetry_space_group_name_H-M   'P 1'
_cell_length_a   9.60848750
_cell_length_b   9.60848785
_cell_length_c   9.60751909
_cell_angle_alpha   60.02165350
_cell_angle_beta   60.02165343
_cell_angle_gamma   60.02662491
_symmetry_Int_Tables_number   1
_chemical_formula_structural   YHo15In3HgRh4
_chemical_formula_sum   'Y1 Ho15 In3 Hg1 Rh4'
_cell_volume   627.53183863
_cell_formula_units_Z   1
loop_
 _symmetry_equiv_pos_site_id
 _symmetry_equiv_pos_as_xyz
  1  'x, y, z'
loop_
 _atom_site_type_symbol
 _atom_site_label
 _atom_site_symmetry_multiplicity
 _atom_site_fract_x
 _atom_site_fract_y
 _atom_site_fract_z
 _atom_site_occupancy
  Y  Y0  1  0.187824  0.187824  0.812193  1
  Ho  Ho1  1  0.601790  0.601790  0.198109  1
  Ho  Ho2  1  0.439800  0.059480  0.439308  1
  Ho  Ho3  1  0.439617  0.439617  0.059481  1
  Ho  Ho4  1  0.812975  0.184613  0.813395  1
  Ho  Ho5  1  0.188122  0.811641  0.188329  1
  Ho  Ho6  1  0.436806  0.061111  0.061282  1
  Ho  Ho7  1  0.184613  0.812975  0.813395  1
  Ho  Ho8  1  0.061111  0.436806  0.061282  1
  Ho  Ho9  1  0.813468  0.813468  0.184411  1
  Ho  Ho10  1  0.198083  0.601957  0.601703  1
  Ho  Ho11  1  0.059480  0.439800  0.439308  1
  Ho  Ho12  1  0.061240  0.061240  0.436506  1
  Ho  Ho13  1  0.811641  0.188122  0.188329  1
  Ho  Ho14  1  0.601957  0.198083  0.601703  1
  Ho  Ho15  1  0.598493  0.598493  0.598582  1
  In  In16  1  0.832104  0.832104  0.503106  1
  In  In17  1  0.503161  0.832023  0.832167  1
  In  In18  1  0.832023  0.503161  0.832167  1
  Hg  Hg19  1  0.835966  0.835966  0.836031  1
  Rh  Rh20  1  0.391690  0.822723  0.391633  1
  Rh  Rh21  1  0.393513  0.393513  0.393078  1
  Rh  Rh22  1  0.822723  0.391690  0.391633  1
  Rh  Rh23  1  0.391802  0.391802  0.822873  1
