# generated using pymatgen
data_La20Ir6RuPt5
_symmetry_space_group_name_H-M   'P 1'
_cell_length_a   11.54209115
_cell_length_b   11.54496276
_cell_length_c   6.66817704
_cell_angle_alpha   90.10315711
_cell_angle_beta   90.09623349
_cell_angle_gamma   89.87301635
_symmetry_Int_Tables_number   1
_chemical_formula_structural   La20Ir6RuPt5
_chemical_formula_sum   'La20 Ir6 Ru1 Pt5'
_cell_volume   888.54980925
_cell_formula_units_Z   1
loop_
 _symmetry_equiv_pos_site_id
 _symmetry_equiv_pos_as_xyz
  1  'x, y, z'
loop_
 _atom_site_type_symbol
 _atom_site_label
 _atom_site_symmetry_multiplicity
 _atom_site_fract_x
 _atom_site_fract_y
 _atom_site_fract_z
 _atom_site_occupancy
  La  La0  1  0.296821  0.092118  0.379319  1
  La  La1  1  0.297960  0.907101  0.881488  1
  La  La2  1  0.702556  0.087270  0.881888  1
  La  La3  1  0.702244  0.906472  0.378198  1
  La  La4  1  0.587958  0.791602  0.890307  1
  La  La5  1  0.586295  0.204673  0.379833  1
  La  La6  1  0.411079  0.792878  0.387219  1
  La  La7  1  0.408747  0.206067  0.890636  1
  La  La8  1  0.209898  0.410907  0.611974  1
  La  La9  1  0.207648  0.589676  0.112186  1
  La  La10  1  0.794468  0.412914  0.118973  1
  La  La11  1  0.792688  0.592645  0.611435  1
  La  La12  1  0.906611  0.704180  0.119845  1
  La  La13  1  0.911177  0.295997  0.621457  1
  La  La14  1  0.094767  0.703396  0.621553  1
  La  La15  1  0.094737  0.296723  0.120728  1
  La  La16  1  0.999692  0.999609  0.498378  1
  La  La17  1  0.000300  0.000307  0.000029  1
  La  La18  1  0.497325  0.502343  0.999857  1
  La  La19  1  0.497826  0.502526  0.498009  1
  Ir  Ir20  1  0.654910  0.652662  0.249673  1
  Ir  Ir21  1  0.346363  0.345984  0.249699  1
  Ir  Ir22  1  0.345047  0.654554  0.749467  1
  Ir  Ir23  1  0.500352  0.001179  0.619811  1
  Ir  Ir24  1  0.998503  0.499627  0.881982  1
  Ir  Ir25  1  0.999714  0.499351  0.383188  1
  Ru  Ru26  1  0.500708  0.000742  0.114907  1
  Pt  Pt27  1  0.845404  0.155538  0.249922  1
  Pt  Pt28  1  0.845533  0.846375  0.749573  1
  Pt  Pt29  1  0.153415  0.154617  0.749166  1
  Pt  Pt30  1  0.154237  0.845080  0.249844  1
  Pt  Pt31  1  0.655019  0.344886  0.749460  1
