# generated using pymatgen
data_Yb2Tm2Zn2Co11NiB6
_symmetry_space_group_name_H-M   'P 1'
_cell_length_a   5.08682700
_cell_length_b   5.08682690
_cell_length_c   12.53234400
_cell_angle_alpha   90.00000000
_cell_angle_beta   90.00000000
_cell_angle_gamma   120.00000717
_symmetry_Int_Tables_number   1
_chemical_formula_structural   Yb2Tm2Zn2Co11NiB6
_chemical_formula_sum   'Yb2 Tm2 Zn2 Co11 Ni1 B6'
_cell_volume   280.83862270
_cell_formula_units_Z   1
loop_
 _symmetry_equiv_pos_site_id
 _symmetry_equiv_pos_as_xyz
  1  'x, y, z'
loop_
 _atom_site_type_symbol
 _atom_site_label
 _atom_site_symmetry_multiplicity
 _atom_site_fract_x
 _atom_site_fract_y
 _atom_site_fract_z
 _atom_site_occupancy
  Yb  Yb0  1  0.000000  0.000000  0.000491  1
  Yb  Yb1  1  0.000000  0.000000  0.499852  1
  Tm  Tm2  1  0.000000  0.000000  0.736604  1
  Tm  Tm3  1  0.000000  0.000000  0.263082  1
  Zn  Zn4  1  0.668149  0.331851  0.000204  1
  Zn  Zn5  1  0.331851  0.668149  0.000204  1
  Co  Co6  1  0.500000  0.000000  0.834367  1
  Co  Co7  1  0.000000  0.500000  0.834367  1
  Co  Co8  1  0.500000  0.500000  0.164549  1
  Co  Co9  1  0.500000  0.000000  0.164611  1
  Co  Co10  1  0.000000  0.500000  0.164611  1
  Co  Co11  1  0.500000  0.500000  0.611778  1
  Co  Co12  1  0.500000  0.000000  0.612015  1
  Co  Co13  1  0.000000  0.500000  0.612015  1
  Co  Co14  1  0.500000  0.500000  0.387937  1
  Co  Co15  1  0.500000  0.000000  0.388241  1
  Co  Co16  1  0.000000  0.500000  0.388241  1
  Ni  Ni17  1  0.500000  0.500000  0.837560  1
  B  B18  1  0.666199  0.333801  0.499865  1
  B  B19  1  0.333801  0.666199  0.499865  1
  B  B20  1  0.667970  0.332030  0.727577  1
  B  B21  1  0.332030  0.667970  0.727577  1
  B  B22  1  0.333700  0.666300  0.272192  1
  B  B23  1  0.666300  0.333700  0.272192  1
