# generated using pymatgen
data_Tb8ReTc2B24Ru
_symmetry_space_group_name_H-M   'P 1'
_cell_length_a   3.70127800
_cell_length_b   9.19436765
_cell_length_c   11.58402966
_cell_angle_alpha   89.95265858
_cell_angle_beta   90.00000000
_cell_angle_gamma   90.00000000
_symmetry_Int_Tables_number   1
_chemical_formula_structural   Tb8ReTc2B24Ru
_chemical_formula_sum   'Tb8 Re1 Tc2 B24 Ru1'
_cell_volume   394.21494470
_cell_formula_units_Z   1
loop_
 _symmetry_equiv_pos_site_id
 _symmetry_equiv_pos_as_xyz
  1  'x, y, z'
loop_
 _atom_site_type_symbol
 _atom_site_label
 _atom_site_symmetry_multiplicity
 _atom_site_fract_x
 _atom_site_fract_y
 _atom_site_fract_z
 _atom_site_occupancy
  Tb  Tb0  1  0.000000  0.324078  0.413825  1
  Tb  Tb1  1  0.000000  0.674802  0.584378  1
  Tb  Tb2  1  0.000000  0.823165  0.087378  1
  Tb  Tb3  1  0.000000  0.177415  0.914204  1
  Tb  Tb4  1  0.000000  0.942014  0.370713  1
  Tb  Tb5  1  0.000000  0.057906  0.630919  1
  Tb  Tb6  1  0.000000  0.443803  0.129951  1
  Tb  Tb7  1  0.000000  0.558033  0.868965  1
  Re  Re8  1  0.000000  0.137446  0.178015  1
  Tc  Tc9  1  0.000000  0.638355  0.320738  1
  Tc  Tc10  1  0.000000  0.361795  0.679766  1
  B  B11  1  0.500000  0.553125  0.432542  1
  B  B12  1  0.500000  0.446886  0.567149  1
  B  B13  1  0.500000  0.052896  0.066939  1
  B  B14  1  0.500000  0.946141  0.932423  1
  B  B15  1  0.500000  0.747536  0.418410  1
  B  B16  1  0.500000  0.251800  0.581604  1
  B  B17  1  0.500000  0.248525  0.081364  1
  B  B18  1  0.500000  0.752303  0.918245  1
  B  B19  1  0.500000  0.791175  0.265915  1
  B  B20  1  0.500000  0.209124  0.734573  1
  B  B21  1  0.500000  0.291335  0.234150  1
  B  B22  1  0.500000  0.709939  0.765750  1
  B  B23  1  0.500000  0.631380  0.186153  1
  B  B24  1  0.500000  0.368699  0.814401  1
  B  B25  1  0.500000  0.130742  0.313639  1
  B  B26  1  0.500000  0.868523  0.686275  1
  B  B27  1  0.500000  0.982272  0.211805  1
  B  B28  1  0.500000  0.015919  0.788486  1
  B  B29  1  0.500000  0.483110  0.287997  1
  B  B30  1  0.500000  0.516858  0.711618  1
  B  B31  1  0.500000  0.603214  0.028400  1
  B  B32  1  0.500000  0.398176  0.971151  1
  B  B33  1  0.500000  0.102537  0.471690  1
  B  B34  1  0.500000  0.897175  0.529276  1
  Ru  Ru35  1  0.000000  0.861798  0.821192  1
