# generated using pymatgen
data_Nb4Al2V3Ga2Ni
_symmetry_space_group_name_H-M   'P 1'
_cell_length_a   4.93308077
_cell_length_b   4.93298086
_cell_length_c   8.45100700
_cell_angle_alpha   90.00000000
_cell_angle_beta   90.00000000
_cell_angle_gamma   61.78705586
_symmetry_Int_Tables_number   1
_chemical_formula_structural   Nb4Al2V3Ga2Ni
_chemical_formula_sum   'Nb4 Al2 V3 Ga2 Ni1'
_cell_volume   181.22118528
_cell_formula_units_Z   1
loop_
 _symmetry_equiv_pos_site_id
 _symmetry_equiv_pos_as_xyz
  1  'x, y, z'
loop_
 _atom_site_type_symbol
 _atom_site_label
 _atom_site_symmetry_multiplicity
 _atom_site_fract_x
 _atom_site_fract_y
 _atom_site_fract_z
 _atom_site_occupancy
  Nb  Nb0  1  0.337069  0.337063  0.558567  1
  Nb  Nb1  1  0.662061  0.662082  0.438280  1
  Nb  Nb2  1  0.662061  0.662082  0.061720  1
  Nb  Nb3  1  0.337069  0.337063  0.941433  1
  Al  Al4  1  0.837790  0.352135  0.750000  1
  Al  Al5  1  0.352159  0.837783  0.750000  1
  V  V6  1  0.168109  0.651882  0.250000  1
  V  V7  1  0.651862  0.168128  0.250000  1
  V  V8  1  0.168477  0.168528  0.250000  1
  Ga  Ga9  1  0.992492  0.992445  0.503565  1
  Ga  Ga10  1  0.992492  0.992445  0.996435  1
  Ni  Ni11  1  0.838361  0.838368  0.750000  1
