# generated using pymatgen
data_Nd7Dy(SiI6)2
_symmetry_space_group_name_H-M   'P 1'
_cell_length_a   4.32948300
_cell_length_b   14.45647447
_cell_length_c   15.21599440
_cell_angle_alpha   90.35310807
_cell_angle_beta   90.00000000
_cell_angle_gamma   90.00000000
_symmetry_Int_Tables_number   1
_chemical_formula_structural   Nd7Dy(SiI6)2
_chemical_formula_sum   'Nd7 Dy1 Si2 I12'
_cell_volume   952.33670777
_cell_formula_units_Z   1
loop_
 _symmetry_equiv_pos_site_id
 _symmetry_equiv_pos_as_xyz
  1  'x, y, z'
loop_
 _atom_site_type_symbol
 _atom_site_label
 _atom_site_symmetry_multiplicity
 _atom_site_fract_x
 _atom_site_fract_y
 _atom_site_fract_z
 _atom_site_occupancy
  Nd  Nd0  1  0.500000  0.115023  0.346732  1
  Nd  Nd1  1  0.500000  0.885701  0.653847  1
  Nd  Nd2  1  0.500000  0.613806  0.152387  1
  Nd  Nd3  1  0.000000  0.114979  0.577372  1
  Nd  Nd4  1  0.000000  0.886796  0.424261  1
  Nd  Nd5  1  0.000000  0.612592  0.923875  1
  Nd  Nd6  1  0.000000  0.386382  0.074744  1
  Dy  Dy7  1  0.500000  0.386878  0.848204  1
  Si  Si8  1  0.500000  0.000999  0.500701  1
  Si  Si9  1  0.500000  0.498364  0.997779  1
  I  I10  1  0.500000  0.243265  0.160358  1
  I  I11  1  0.500000  0.755290  0.837809  1
  I  I12  1  0.500000  0.743469  0.338291  1
  I  I13  1  0.500000  0.258178  0.666254  1
  I  I14  1  0.000000  0.259614  0.415020  1
  I  I15  1  0.000000  0.740982  0.585753  1
  I  I16  1  0.000000  0.758486  0.086005  1
  I  I17  1  0.000000  0.247058  0.907394  1
  I  I18  1  0.000000  0.998032  0.240250  1
  I  I19  1  0.000000  0.002250  0.760691  1
  I  I20  1  0.000000  0.498400  0.259166  1
  I  I21  1  0.000000  0.493456  0.743108  1
