# generated using pymatgen
data_La3Cu3(Ni5B)2
_symmetry_space_group_name_H-M   'P 1'
_cell_length_a   5.11101708
_cell_length_b   5.11025298
_cell_length_c   10.94942806
_cell_angle_alpha   90.02677012
_cell_angle_beta   89.95005416
_cell_angle_gamma   120.06470073
_symmetry_Int_Tables_number   1
_chemical_formula_structural   La3Cu3(Ni5B)2
_chemical_formula_sum   'La3 Cu3 Ni10 B2'
_cell_volume   247.50736050
_cell_formula_units_Z   1
loop_
 _symmetry_equiv_pos_site_id
 _symmetry_equiv_pos_as_xyz
  1  'x, y, z'
loop_
 _atom_site_type_symbol
 _atom_site_label
 _atom_site_symmetry_multiplicity
 _atom_site_fract_x
 _atom_site_fract_y
 _atom_site_fract_z
 _atom_site_occupancy
  La  La0  1  0.000048  0.999848  0.000146  1
  La  La1  1  0.999938  0.000173  0.334891  1
  La  La2  1  0.999937  0.000042  0.670987  1
  Cu  Cu3  1  0.333100  0.666524  0.316276  1
  Cu  Cu4  1  0.666749  0.333651  0.316072  1
  Cu  Cu5  1  0.666619  0.333260  0.683679  1
  Ni  Ni6  1  0.499693  0.999173  0.500232  1
  Ni  Ni7  1  0.499076  0.500281  0.500211  1
  Ni  Ni8  1  0.000875  0.501080  0.500322  1
  Ni  Ni9  1  0.333553  0.666959  0.681646  1
  Ni  Ni10  1  0.499778  0.999965  0.128552  1
  Ni  Ni11  1  0.500669  0.500618  0.128539  1
  Ni  Ni12  1  0.999955  0.499493  0.128791  1
  Ni  Ni13  1  0.499118  0.997614  0.870436  1
  Ni  Ni14  1  0.498632  0.500654  0.870310  1
  Ni  Ni15  1  0.002237  0.500868  0.870195  1
  B  B16  1  0.333116  0.666406  0.999731  1
  B  B17  1  0.666808  0.333392  0.998981  1
