# generated using pymatgen
data_Dy7Tm3(GaSb2)2
_symmetry_space_group_name_H-M   'P 1'
_cell_length_a   8.79797436
_cell_length_b   8.83579786
_cell_length_c   6.37273426
_cell_angle_alpha   90.01639917
_cell_angle_beta   89.96705414
_cell_angle_gamma   119.85849595
_symmetry_Int_Tables_number   1
_chemical_formula_structural   Dy7Tm3(GaSb2)2
_chemical_formula_sum   'Dy7 Tm3 Ga2 Sb4'
_cell_volume   429.63764208
_cell_formula_units_Z   1
loop_
 _symmetry_equiv_pos_site_id
 _symmetry_equiv_pos_as_xyz
  1  'x, y, z'
loop_
 _atom_site_type_symbol
 _atom_site_label
 _atom_site_symmetry_multiplicity
 _atom_site_fract_x
 _atom_site_fract_y
 _atom_site_fract_z
 _atom_site_occupancy
  Dy  Dy0  1  0.342108  0.684218  0.000000  1
  Dy  Dy1  1  0.244528  0.000181  0.250236  1
  Dy  Dy2  1  0.755654  0.000181  0.749764  1
  Dy  Dy3  1  0.987299  0.233072  0.250125  1
  Dy  Dy4  1  0.754320  0.766958  0.250142  1
  Dy  Dy5  1  0.245772  0.233072  0.749875  1
  Dy  Dy6  1  0.012639  0.766958  0.749858  1
  Tm  Tm7  1  0.657541  0.315079  0.500000  1
  Tm  Tm8  1  0.657263  0.314523  0.000000  1
  Tm  Tm9  1  0.342455  0.684912  0.500000  1
  Ga  Ga10  1  0.602511  0.000960  0.250827  1
  Ga  Ga11  1  0.398450  0.000960  0.749173  1
  Sb  Sb12  1  0.992892  0.603647  0.250627  1
  Sb  Sb13  1  0.390148  0.395814  0.250551  1
  Sb  Sb14  1  0.610755  0.603647  0.749373  1
  Sb  Sb15  1  0.005667  0.395814  0.749449  1
