# generated using pymatgen
data_Np4B16Ir3Rh
_symmetry_space_group_name_H-M   'P 1'
_cell_length_a   3.50096200
_cell_length_b   6.02812120
_cell_length_c   11.68871634
_cell_angle_alpha   89.99891533
_cell_angle_beta   90.00000000
_cell_angle_gamma   90.00000000
_symmetry_Int_Tables_number   1
_chemical_formula_structural   Np4B16Ir3Rh
_chemical_formula_sum   'Np4 B16 Ir3 Rh1'
_cell_volume   246.68127933
_cell_formula_units_Z   1
loop_
 _symmetry_equiv_pos_site_id
 _symmetry_equiv_pos_as_xyz
  1  'x, y, z'
loop_
 _atom_site_type_symbol
 _atom_site_label
 _atom_site_symmetry_multiplicity
 _atom_site_fract_x
 _atom_site_fract_y
 _atom_site_fract_z
 _atom_site_occupancy
  Np  Np0  1  0.500000  0.370229  0.149406  1
  Np  Np1  1  0.500000  0.629431  0.850812  1
  Np  Np2  1  0.500000  0.129809  0.649675  1
  Np  Np3  1  0.500000  0.870585  0.350021  1
  B  B4  1  0.000000  0.116039  0.046892  1
  B  B5  1  0.000000  0.884244  0.952899  1
  B  B6  1  0.000000  0.384192  0.547085  1
  B  B7  1  0.000000  0.615987  0.452636  1
  B  B8  1  0.000000  0.132653  0.467715  1
  B  B9  1  0.000000  0.867497  0.531993  1
  B  B10  1  0.000000  0.367416  0.967616  1
  B  B11  1  0.000000  0.632402  0.032754  1
  B  B12  1  0.000000  0.026005  0.192081  1
  B  B13  1  0.000000  0.973367  0.808056  1
  B  B14  1  0.000000  0.473097  0.692276  1
  B  B15  1  0.000000  0.526660  0.307477  1
  B  B16  1  0.000000  0.209887  0.311312  1
  B  B17  1  0.000000  0.790625  0.688471  1
  B  B18  1  0.000000  0.290477  0.812155  1
  B  B19  1  0.000000  0.709595  0.187791  1
  Ir  Ir20  1  0.500000  0.359200  0.406845  1
  Ir  Ir21  1  0.500000  0.641546  0.593786  1
  Ir  Ir22  1  0.500000  0.139052  0.907153  1
  Rh  Rh23  1  0.500000  0.860004  0.093091  1
