# generated using pymatgen
data_Pu3CrF24
_symmetry_space_group_name_H-M   'P 1'
_cell_length_a   5.33168472
_cell_length_b   9.04121900
_cell_length_c   9.83867600
_cell_angle_alpha   90.00000000
_cell_angle_beta   89.71552329
_cell_angle_gamma   90.00000000
_symmetry_Int_Tables_number   1
_chemical_formula_structural   Pu3CrF24
_chemical_formula_sum   'Pu3 Cr1 F24'
_cell_volume   474.26683390
_cell_formula_units_Z   1
loop_
 _symmetry_equiv_pos_site_id
 _symmetry_equiv_pos_as_xyz
  1  'x, y, z'
loop_
 _atom_site_type_symbol
 _atom_site_label
 _atom_site_symmetry_multiplicity
 _atom_site_fract_x
 _atom_site_fract_y
 _atom_site_fract_z
 _atom_site_occupancy
  Pu  Pu0  1  0.586600  0.750000  0.371853  1
  Pu  Pu1  1  0.083842  0.250000  0.126512  1
  Pu  Pu2  1  0.413108  0.250000  0.629980  1
  Cr  Cr3  1  0.916311  0.750000  0.870893  1
  F  F4  1  0.567419  0.405258  0.745799  1
  F  F5  1  0.054539  0.611062  0.767639  1
  F  F6  1  0.431307  0.906677  0.255630  1
  F  F7  1  0.927434  0.094681  0.243771  1
  F  F8  1  0.182548  0.750000  0.976704  1
  F  F9  1  0.719064  0.250000  0.510339  1
  F  F10  1  0.779011  0.250000  0.008526  1
  F  F11  1  0.282950  0.750000  0.489956  1
  F  F12  1  0.649124  0.750000  0.765241  1
  F  F13  1  0.106386  0.250000  0.749004  1
  F  F14  1  0.388021  0.250000  0.246197  1
  F  F15  1  0.891504  0.750000  0.254765  1
  F  F16  1  0.777510  0.888836  0.974549  1
  F  F17  1  0.257856  0.094079  0.513609  1
  F  F18  1  0.243108  0.405057  0.011122  1
  F  F19  1  0.741592  0.592996  0.487897  1
  F  F20  1  0.243108  0.094943  0.011122  1
  F  F21  1  0.741592  0.907004  0.487897  1
  F  F22  1  0.777510  0.611164  0.974549  1
  F  F23  1  0.257856  0.405921  0.513609  1
  F  F24  1  0.054539  0.888938  0.767639  1
  F  F25  1  0.567419  0.094742  0.745799  1
  F  F26  1  0.927434  0.405319  0.243771  1
  F  F27  1  0.431307  0.593323  0.255630  1
