# generated using pymatgen
data_Ag2OsRhF12
_symmetry_space_group_name_H-M   'P 1'
_cell_length_a   5.36680353
_cell_length_b   5.39477333
_cell_length_c   10.55652220
_cell_angle_alpha   75.08882452
_cell_angle_beta   75.75568803
_cell_angle_gamma   60.61292313
_symmetry_Int_Tables_number   1
_chemical_formula_structural   Ag2OsRhF12
_chemical_formula_sum   'Ag2 Os1 Rh1 F12'
_cell_volume   254.72589909
_cell_formula_units_Z   1
loop_
 _symmetry_equiv_pos_site_id
 _symmetry_equiv_pos_as_xyz
  1  'x, y, z'
loop_
 _atom_site_type_symbol
 _atom_site_label
 _atom_site_symmetry_multiplicity
 _atom_site_fract_x
 _atom_site_fract_y
 _atom_site_fract_z
 _atom_site_occupancy
  Ag  Ag0  1  0.510592  0.505156  0.479714  1
  Ag  Ag1  1  0.997413  0.990332  0.020493  1
  Os  Os2  1  0.736493  0.759298  0.750078  1
  Rh  Rh3  1  0.262892  0.240831  0.249941  1
  F  F4  1  0.486577  0.787228  0.638944  1
  F  F5  1  0.527534  0.185623  0.362201  1
  F  F6  1  0.763965  0.092216  0.640430  1
  F  F7  1  0.205518  0.920681  0.360428  1
  F  F8  1  0.709094  0.428476  0.860465  1
  F  F9  1  0.317980  0.560096  0.137809  1
  F  F10  1  0.986077  0.732624  0.860987  1
  F  F11  1  0.997558  0.297737  0.137581  1
  F  F12  1  0.579296  0.978937  0.140080  1
  F  F13  1  0.407279  0.005883  0.858934  1
  F  F14  1  0.947731  0.498737  0.361202  1
  F  F15  1  0.064000  0.516145  0.640711  1
