# generated using pymatgen
data_HoTm3B12IrRh
_symmetry_space_group_name_H-M   'P 1'
_cell_length_a   3.61744000
_cell_length_b   9.12493769
_cell_length_c   11.45884403
_cell_angle_alpha   90.09884527
_cell_angle_beta   90.00000000
_cell_angle_gamma   90.00000000
_symmetry_Int_Tables_number   1
_chemical_formula_structural   HoTm3B12IrRh
_chemical_formula_sum   'Ho2 Tm6 B24 Ir2 Rh2'
_cell_volume   378.24344090
_cell_formula_units_Z   2
loop_
 _symmetry_equiv_pos_site_id
 _symmetry_equiv_pos_as_xyz
  1  'x, y, z'
loop_
 _atom_site_type_symbol
 _atom_site_label
 _atom_site_symmetry_multiplicity
 _atom_site_fract_x
 _atom_site_fract_y
 _atom_site_fract_z
 _atom_site_occupancy
  Ho  Ho0  1  0.500000  0.322968  0.413928  1
  Ho  Ho1  1  0.500000  0.677032  0.586072  1
  Tm  Tm2  1  0.500000  0.179431  0.912696  1
  Tm  Tm3  1  0.500000  0.820569  0.087304  1
  Tm  Tm4  1  0.500000  0.445244  0.126415  1
  Tm  Tm5  1  0.500000  0.554756  0.873585  1
  Tm  Tm6  1  0.500000  0.056494  0.625932  1
  Tm  Tm7  1  0.500000  0.943506  0.374068  1
  B  B8  1  0.000000  0.109202  0.470173  1
  B  B9  1  0.000000  0.890798  0.529827  1
  B  B10  1  0.000000  0.390546  0.970250  1
  B  B11  1  0.000000  0.609454  0.029750  1
  B  B12  1  0.000000  0.132191  0.316020  1
  B  B13  1  0.000000  0.867809  0.683980  1
  B  B14  1  0.000000  0.366818  0.816460  1
  B  B15  1  0.000000  0.633182  0.183540  1
  B  B16  1  0.000000  0.053902  0.065426  1
  B  B17  1  0.000000  0.946098  0.934574  1
  B  B18  1  0.000000  0.446490  0.565476  1
  B  B19  1  0.000000  0.553510  0.434524  1
  B  B20  1  0.000000  0.482410  0.286669  1
  B  B21  1  0.000000  0.517590  0.713331  1
  B  B22  1  0.000000  0.018198  0.786534  1
  B  B23  1  0.000000  0.981802  0.213466  1
  B  B24  1  0.000000  0.250250  0.078908  1
  B  B25  1  0.000000  0.749750  0.921092  1
  B  B26  1  0.000000  0.250610  0.579435  1
  B  B27  1  0.000000  0.749390  0.420565  1
  B  B28  1  0.000000  0.294460  0.234926  1
  B  B29  1  0.000000  0.705540  0.765074  1
  B  B30  1  0.000000  0.205417  0.736027  1
  B  B31  1  0.000000  0.794583  0.263973  1
  Ir  Ir32  1  0.500000  0.138469  0.177694  1
  Ir  Ir33  1  0.500000  0.861531  0.822306  1
  Rh  Rh34  1  0.500000  0.359961  0.680427  1
  Rh  Rh35  1  0.500000  0.640039  0.319573  1
