# generated using pymatgen
data_Ho6Tm10Cd4Ir3Os
_symmetry_space_group_name_H-M   'P 1'
_cell_length_a   9.57930652
_cell_length_b   9.57930666
_cell_length_c   9.57930700
_cell_angle_alpha   59.55303601
_cell_angle_beta   59.55303481
_cell_angle_gamma   59.55303208
_symmetry_Int_Tables_number   1
_chemical_formula_structural   Ho6Tm10Cd4Ir3Os
_chemical_formula_sum   'Ho6 Tm10 Cd4 Ir3 Os1'
_cell_volume   615.24968103
_cell_formula_units_Z   1
loop_
 _symmetry_equiv_pos_site_id
 _symmetry_equiv_pos_as_xyz
  1  'x, y, z'
loop_
 _atom_site_type_symbol
 _atom_site_label
 _atom_site_symmetry_multiplicity
 _atom_site_fract_x
 _atom_site_fract_y
 _atom_site_fract_z
 _atom_site_occupancy
  Ho  Ho0  1  0.188730  0.811293  0.811293  1
  Ho  Ho1  1  0.806997  0.189667  0.189667  1
  Ho  Ho2  1  0.811293  0.188730  0.811293  1
  Ho  Ho3  1  0.189667  0.806997  0.189667  1
  Ho  Ho4  1  0.811293  0.811293  0.188730  1
  Ho  Ho5  1  0.189667  0.189667  0.806997  1
  Tm  Tm6  1  0.599238  0.599238  0.599238  1
  Tm  Tm7  1  0.598759  0.598759  0.205851  1
  Tm  Tm8  1  0.598759  0.205851  0.598759  1
  Tm  Tm9  1  0.205851  0.598759  0.598759  1
  Tm  Tm10  1  0.062073  0.438482  0.438482  1
  Tm  Tm11  1  0.437667  0.060417  0.060417  1
  Tm  Tm12  1  0.438482  0.062073  0.438482  1
  Tm  Tm13  1  0.060417  0.437667  0.060417  1
  Tm  Tm14  1  0.438482  0.438482  0.062073  1
  Tm  Tm15  1  0.060417  0.060417  0.437667  1
  Cd  Cd16  1  0.829924  0.829924  0.829924  1
  Cd  Cd17  1  0.830451  0.830451  0.507378  1
  Cd  Cd18  1  0.830451  0.507378  0.830451  1
  Cd  Cd19  1  0.507378  0.830451  0.830451  1
  Ir  Ir20  1  0.392891  0.392891  0.826370  1
  Ir  Ir21  1  0.392891  0.826370  0.392891  1
  Ir  Ir22  1  0.826370  0.392891  0.392891  1
  Os  Os23  1  0.391850  0.391850  0.391850  1
