# generated using pymatgen
data_Ho8Sc12Si15Ge
_symmetry_space_group_name_H-M   'P 1'
_cell_length_a   7.09068853
_cell_length_b   7.37515134
_cell_length_c   13.98244851
_cell_angle_alpha   90.01799160
_cell_angle_beta   89.83577954
_cell_angle_gamma   90.02992399
_symmetry_Int_Tables_number   1
_chemical_formula_structural   Ho8Sc12Si15Ge
_chemical_formula_sum   'Ho8 Sc12 Si15 Ge1'
_cell_volume   731.20762233
_cell_formula_units_Z   1
loop_
 _symmetry_equiv_pos_site_id
 _symmetry_equiv_pos_as_xyz
  1  'x, y, z'
loop_
 _atom_site_type_symbol
 _atom_site_label
 _atom_site_symmetry_multiplicity
 _atom_site_fract_x
 _atom_site_fract_y
 _atom_site_fract_z
 _atom_site_occupancy
  Ho  Ho0  1  0.011554  0.175675  0.096597  1
  Ho  Ho1  1  0.988562  0.824544  0.903465  1
  Ho  Ho2  1  0.489032  0.675686  0.903426  1
  Ho  Ho3  1  0.988694  0.824753  0.596804  1
  Ho  Ho4  1  0.511123  0.324551  0.096769  1
  Ho  Ho5  1  0.009823  0.175281  0.402785  1
  Ho  Ho6  1  0.511307  0.323059  0.402395  1
  Ho  Ho7  1  0.492044  0.677237  0.597157  1
  Sc  Sc8  1  0.162303  0.502718  0.751338  1
  Sc  Sc9  1  0.837453  0.497347  0.250124  1
  Sc  Sc10  1  0.337773  0.002699  0.249974  1
  Sc  Sc11  1  0.662352  0.997278  0.750037  1
  Sc  Sc12  1  0.334672  0.173860  0.626437  1
  Sc  Sc13  1  0.666573  0.824039  0.373998  1
  Sc  Sc14  1  0.165987  0.677191  0.374224  1
  Sc  Sc15  1  0.667707  0.822803  0.125217  1
  Sc  Sc16  1  0.831478  0.323967  0.625174  1
  Sc  Sc17  1  0.331961  0.176645  0.874785  1
  Sc  Sc18  1  0.831910  0.323170  0.874870  1
  Sc  Sc19  1  0.167811  0.677093  0.125227  1
  Si  Si20  1  0.034570  0.116187  0.750153  1
  Si  Si21  1  0.965196  0.884737  0.249491  1
  Si  Si22  1  0.464473  0.615891  0.249595  1
  Si  Si23  1  0.534747  0.384333  0.750418  1
  Si  Si24  1  0.286477  0.871878  0.750393  1
  Si  Si25  1  0.713596  0.127397  0.249457  1
  Si  Si26  1  0.212994  0.372682  0.249859  1
  Si  Si27  1  0.787299  0.627553  0.750207  1
  Si  Si28  1  0.834826  0.536830  0.459740  1
  Si  Si29  1  0.339982  0.964432  0.460682  1
  Si  Si30  1  0.841175  0.535026  0.039478  1
  Si  Si31  1  0.660063  0.035863  0.539119  1
  Si  Si32  1  0.158745  0.464897  0.960771  1
  Si  Si33  1  0.658611  0.035290  0.960721  1
  Si  Si34  1  0.341243  0.964856  0.039396  1
  Ge  Ge35  1  0.165882  0.462549  0.539720  1
