# generated using pymatgen
data_La2Tb2TmRu2
_symmetry_space_group_name_H-M   'P 1'
_cell_length_a   6.50572823
_cell_length_b   7.22720812
_cell_length_c   8.82338758
_cell_angle_alpha   96.24361365
_cell_angle_beta   111.63323430
_cell_angle_gamma   89.99999787
_symmetry_Int_Tables_number   1
_chemical_formula_structural   La2Tb2TmRu2
_chemical_formula_sum   'La4 Tb4 Tm2 Ru4'
_cell_volume   382.99020151
_cell_formula_units_Z   2
loop_
 _symmetry_equiv_pos_site_id
 _symmetry_equiv_pos_as_xyz
  1  'x, y, z'
loop_
 _atom_site_type_symbol
 _atom_site_label
 _atom_site_symmetry_multiplicity
 _atom_site_fract_x
 _atom_site_fract_y
 _atom_site_fract_z
 _atom_site_occupancy
  La  La0  1  0.784083  0.089271  0.806091  1
  La  La1  1  0.977994  0.410729  0.193909  1
  La  La2  1  0.215917  0.910729  0.193909  1
  La  La3  1  0.022006  0.589271  0.806091  1
  Tb  Tb4  1  0.204206  0.184960  0.569758  1
  Tb  Tb5  1  0.634448  0.315040  0.430242  1
  Tb  Tb6  1  0.795794  0.815040  0.430242  1
  Tb  Tb7  1  0.365552  0.684960  0.569758  1
  Tm  Tm8  1  0.427277  0.250000  0.000000  1
  Tm  Tm9  1  0.572723  0.750000  0.000000  1
  Ru  Ru10  1  0.599903  0.418439  0.777124  1
  Ru  Ru11  1  0.822778  0.081561  0.222876  1
  Ru  Ru12  1  0.400097  0.581561  0.222876  1
  Ru  Ru13  1  0.177222  0.918439  0.777124  1
