# generated using pymatgen
data_Pr5Th5(Bi3S)2
_symmetry_space_group_name_H-M   'P 1'
_cell_length_a   9.59362666
_cell_length_b   9.59362557
_cell_length_c   6.72926100
_cell_angle_alpha   90.00000000
_cell_angle_beta   90.00000000
_cell_angle_gamma   120.23782891
_symmetry_Int_Tables_number   1
_chemical_formula_structural   Pr5Th5(Bi3S)2
_chemical_formula_sum   'Pr5 Th5 Bi6 S2'
_cell_volume   535.07885647
_cell_formula_units_Z   1
loop_
 _symmetry_equiv_pos_site_id
 _symmetry_equiv_pos_as_xyz
  1  'x, y, z'
loop_
 _atom_site_type_symbol
 _atom_site_label
 _atom_site_symmetry_multiplicity
 _atom_site_fract_x
 _atom_site_fract_y
 _atom_site_fract_z
 _atom_site_occupancy
  Pr  Pr0  1  0.251055  0.999498  0.750000  1
  Pr  Pr1  1  0.999498  0.251055  0.750000  1
  Pr  Pr2  1  0.249068  0.249068  0.250000  1
  Pr  Pr3  1  0.747096  0.999146  0.250000  1
  Pr  Pr4  1  0.999146  0.747096  0.250000  1
  Th  Th5  1  0.667847  0.336447  0.999371  1
  Th  Th6  1  0.336447  0.667847  0.999371  1
  Th  Th7  1  0.336447  0.667847  0.500629  1
  Th  Th8  1  0.667847  0.336447  0.500629  1
  Th  Th9  1  0.750695  0.750695  0.750000  1
  Bi  Bi10  1  0.392972  0.392972  0.750000  1
  Bi  Bi11  1  0.607693  0.001567  0.750000  1
  Bi  Bi12  1  0.001567  0.607693  0.750000  1
  Bi  Bi13  1  0.607055  0.607055  0.250000  1
  Bi  Bi14  1  0.392966  0.000297  0.250000  1
  Bi  Bi15  1  0.000297  0.392966  0.250000  1
  S  S16  1  0.996152  0.996152  0.998001  1
  S  S17  1  0.996152  0.996152  0.501999  1
