# generated using pymatgen
data_Er12AlIn(CoNi)2
_symmetry_space_group_name_H-M   'P 1'
_cell_length_a   8.27349305
_cell_length_b   8.27349248
_cell_length_c   8.27349324
_cell_angle_alpha   112.83474914
_cell_angle_beta   109.80653486
_cell_angle_gamma   105.84763905
_symmetry_Int_Tables_number   1
_chemical_formula_structural   Er12AlIn(CoNi)2
_chemical_formula_sum   'Er12 Al1 In1 Co2 Ni2'
_cell_volume   434.33592290
_cell_formula_units_Z   1
loop_
 _symmetry_equiv_pos_site_id
 _symmetry_equiv_pos_as_xyz
  1  'x, y, z'
loop_
 _atom_site_type_symbol
 _atom_site_label
 _atom_site_symmetry_multiplicity
 _atom_site_fract_x
 _atom_site_fract_y
 _atom_site_fract_z
 _atom_site_occupancy
  Er  Er0  1  0.181840  0.280915  0.462755  1
  Er  Er1  1  0.818160  0.719085  0.537245  1
  Er  Er2  1  0.181840  0.719085  0.900926  1
  Er  Er3  1  0.818160  0.280915  0.099074  1
  Er  Er4  1  0.328395  0.640073  0.311677  1
  Er  Er5  1  0.671605  0.359927  0.688323  1
  Er  Er6  1  0.328395  0.016719  0.688323  1
  Er  Er7  1  0.671605  0.983281  0.311677  1
  Er  Er8  1  0.433376  0.234502  0.198874  1
  Er  Er9  1  0.566624  0.765498  0.801126  1
  Er  Er10  1  0.035627  0.234502  0.801126  1
  Er  Er11  1  0.964373  0.765498  0.198874  1
  Al  Al12  1  0.000000  0.000000  0.000000  1
  In  In13  1  0.500000  0.500000  0.000000  1
  Co  Co14  1  0.333214  0.000000  0.333214  1
  Co  Co15  1  0.666786  0.000000  0.666786  1
  Ni  Ni16  1  0.119667  0.619667  0.500000  1
  Ni  Ni17  1  0.880333  0.380333  0.500000  1
