# generated using pymatgen
data_Tb2Nd2YSi4
_symmetry_space_group_name_H-M   'P 1'
_cell_length_a   7.77054500
_cell_length_b   7.77054500
_cell_length_c   14.58703600
_cell_angle_alpha   90.00000000
_cell_angle_beta   90.00000000
_cell_angle_gamma   90.00000000
_symmetry_Int_Tables_number   1
_chemical_formula_structural   Tb2Nd2YSi4
_chemical_formula_sum   'Tb8 Nd8 Y4 Si16'
_cell_volume   880.78521204
_cell_formula_units_Z   4
loop_
 _symmetry_equiv_pos_site_id
 _symmetry_equiv_pos_as_xyz
  1  'x, y, z'
loop_
 _atom_site_type_symbol
 _atom_site_label
 _atom_site_symmetry_multiplicity
 _atom_site_fract_x
 _atom_site_fract_y
 _atom_site_fract_z
 _atom_site_occupancy
  Tb  Tb0  1  0.487238  0.365586  0.125048  1
  Tb  Tb1  1  0.987238  0.134414  0.624952  1
  Tb  Tb2  1  0.865586  0.012762  0.875048  1
  Tb  Tb3  1  0.134414  0.987238  0.375048  1
  Tb  Tb4  1  0.512762  0.634414  0.625048  1
  Tb  Tb5  1  0.365586  0.487238  0.874952  1
  Tb  Tb6  1  0.634414  0.512762  0.374952  1
  Tb  Tb7  1  0.012762  0.865586  0.124952  1
  Nd  Nd8  1  0.633973  0.989592  0.454471  1
  Nd  Nd9  1  0.366027  0.010408  0.954471  1
  Nd  Nd10  1  0.989592  0.633973  0.545529  1
  Nd  Nd11  1  0.489592  0.866027  0.204471  1
  Nd  Nd12  1  0.510408  0.133973  0.704471  1
  Nd  Nd13  1  0.866027  0.489592  0.795529  1
  Nd  Nd14  1  0.133973  0.510408  0.295529  1
  Nd  Nd15  1  0.010408  0.366027  0.045529  1
  Y  Y16  1  0.313667  0.313667  0.500000  1
  Y  Y17  1  0.186333  0.813667  0.750000  1
  Y  Y18  1  0.813667  0.186333  0.250000  1
  Y  Y19  1  0.686333  0.686333  0.000000  1
  Si  Si20  1  0.287637  0.930368  0.561378  1
  Si  Si21  1  0.712363  0.069632  0.061378  1
  Si  Si22  1  0.930368  0.287637  0.438622  1
  Si  Si23  1  0.430368  0.212363  0.311378  1
  Si  Si24  1  0.569632  0.787637  0.811378  1
  Si  Si25  1  0.212363  0.430368  0.688622  1
  Si  Si26  1  0.787637  0.569632  0.188622  1
  Si  Si27  1  0.069632  0.712363  0.938622  1
  Si  Si28  1  0.801372  0.839299  0.694219  1
  Si  Si29  1  0.198628  0.160701  0.194219  1
  Si  Si30  1  0.839299  0.801372  0.305781  1
  Si  Si31  1  0.339299  0.698628  0.444219  1
  Si  Si32  1  0.660701  0.301372  0.944219  1
  Si  Si33  1  0.698628  0.339299  0.555781  1
  Si  Si34  1  0.301372  0.660701  0.055781  1
  Si  Si35  1  0.160701  0.198628  0.805781  1
