# generated using pymatgen
data_Eu4H12IrPt
_symmetry_space_group_name_H-M   'P 1'
_cell_length_a   7.21148571
_cell_length_b   7.21148657
_cell_length_c   5.43840860
_cell_angle_alpha   89.69670663
_cell_angle_beta   89.69670263
_cell_angle_gamma   135.76199950
_symmetry_Int_Tables_number   1
_chemical_formula_structural   Eu4H12IrPt
_chemical_formula_sum   'Eu4 H12 Ir1 Pt1'
_cell_volume   197.29228312
_cell_formula_units_Z   1
loop_
 _symmetry_equiv_pos_site_id
 _symmetry_equiv_pos_as_xyz
  1  'x, y, z'
loop_
 _atom_site_type_symbol
 _atom_site_label
 _atom_site_symmetry_multiplicity
 _atom_site_fract_x
 _atom_site_fract_y
 _atom_site_fract_z
 _atom_site_occupancy
  Eu  Eu0  1  0.644378  0.355622  0.000000  1
  Eu  Eu1  1  0.355622  0.644378  0.000000  1
  Eu  Eu2  1  0.856143  0.143857  0.500000  1
  Eu  Eu3  1  0.143857  0.856143  0.500000  1
  H  H4  1  0.872787  0.127213  0.000000  1
  H  H5  1  0.127213  0.872787  0.000000  1
  H  H6  1  0.626574  0.373426  0.500000  1
  H  H7  1  0.373426  0.626574  0.500000  1
  H  H8  1  0.999797  0.500559  0.252231  1
  H  H9  1  0.000203  0.499441  0.747769  1
  H  H10  1  0.499441  0.000203  0.747769  1
  H  H11  1  0.500559  0.999797  0.252231  1
  H  H12  1  0.224870  0.224870  0.227936  1
  H  H13  1  0.775130  0.775130  0.772064  1
  H  H14  1  0.232306  0.232306  0.772259  1
  H  H15  1  0.767694  0.767694  0.227741  1
  Ir  Ir16  1  0.000000  0.000000  0.000000  1
  Pt  Pt17  1  0.500000  0.500000  0.500000  1
