# generated using pymatgen
data_Mg11Al5Pd8
_symmetry_space_group_name_H-M   'P 1'
_cell_length_a   8.41512971
_cell_length_b   8.44382334
_cell_length_c   8.41513222
_cell_angle_alpha   59.88606054
_cell_angle_beta   59.36268743
_cell_angle_gamma   59.88611304
_symmetry_Int_Tables_number   1
_chemical_formula_structural   Mg11Al5Pd8
_chemical_formula_sum   'Mg11 Al5 Pd8'
_cell_volume   420.01771281
_cell_formula_units_Z   1
loop_
 _symmetry_equiv_pos_site_id
 _symmetry_equiv_pos_as_xyz
  1  'x, y, z'
loop_
 _atom_site_type_symbol
 _atom_site_label
 _atom_site_symmetry_multiplicity
 _atom_site_fract_x
 _atom_site_fract_y
 _atom_site_fract_z
 _atom_site_occupancy
  Mg  Mg0  1  0.192968  0.194137  0.808025  1
  Mg  Mg1  1  0.192970  0.804869  0.808023  1
  Mg  Mg2  1  0.055167  0.444832  0.055167  1
  Mg  Mg3  1  0.808025  0.194137  0.192969  1
  Mg  Mg4  1  0.056450  0.447568  0.441630  1
  Mg  Mg5  1  0.444493  0.055508  0.444492  1
  Mg  Mg6  1  0.441630  0.447568  0.056450  1
  Mg  Mg7  1  0.808023  0.804869  0.192970  1
  Mg  Mg8  1  0.441630  0.054352  0.056448  1
  Mg  Mg9  1  0.804326  0.195675  0.804325  1
  Mg  Mg10  1  0.056449  0.054352  0.441630  1
  Al  Al11  1  0.201523  0.798477  0.201524  1
  Al  Al12  1  0.623518  0.629642  0.623518  1
  Al  Al13  1  0.126090  0.624832  0.624246  1
  Al  Al14  1  0.624246  0.624832  0.126090  1
  Al  Al15  1  0.623517  0.123323  0.623517  1
  Pd  Pd16  1  0.837849  0.483676  0.837849  1
  Pd  Pd17  1  0.837849  0.840627  0.837849  1
  Pd  Pd18  1  0.475356  0.837891  0.848863  1
  Pd  Pd19  1  0.410501  0.767611  0.410501  1
  Pd  Pd20  1  0.848862  0.837891  0.475357  1
  Pd  Pd21  1  0.767187  0.410972  0.410870  1
  Pd  Pd22  1  0.410501  0.411387  0.410501  1
  Pd  Pd23  1  0.410870  0.410971  0.767187  1
