# generated using pymatgen
data_Sc7Nb(V3Si4)4
_symmetry_space_group_name_H-M   'P 1'
_cell_length_a   6.61134836
_cell_length_b   6.61049610
_cell_length_c   12.23391508
_cell_angle_alpha   90.10432546
_cell_angle_beta   89.99728601
_cell_angle_gamma   90.03784929
_symmetry_Int_Tables_number   1
_chemical_formula_structural   Sc7Nb(V3Si4)4
_chemical_formula_sum   'Sc7 Nb1 V12 Si16'
_cell_volume   534.67360004
_cell_formula_units_Z   1
loop_
 _symmetry_equiv_pos_site_id
 _symmetry_equiv_pos_as_xyz
  1  'x, y, z'
loop_
 _atom_site_type_symbol
 _atom_site_label
 _atom_site_symmetry_multiplicity
 _atom_site_fract_x
 _atom_site_fract_y
 _atom_site_fract_z
 _atom_site_occupancy
  Sc  Sc0  1  0.837668  0.501313  0.279229  1
  Sc  Sc1  1  0.161810  0.498654  0.779384  1
  Sc  Sc2  1  0.501341  0.837231  0.720813  1
  Sc  Sc3  1  0.498788  0.161867  0.219302  1
  Sc  Sc4  1  0.998547  0.337363  0.529699  1
  Sc  Sc5  1  0.664436  0.999356  0.971236  1
  Sc  Sc6  1  0.337798  0.998562  0.470025  1
  Nb  Nb7  1  0.007674  0.658082  0.031252  1
  V  V8  1  0.329628  0.335333  0.999880  1
  V  V9  1  0.168021  0.831400  0.249340  1
  V  V10  1  0.832719  0.168951  0.751256  1
  V  V11  1  0.668289  0.668171  0.500200  1
  V  V12  1  0.004945  0.157165  0.125163  1
  V  V13  1  0.342931  0.507198  0.375962  1
  V  V14  1  0.656548  0.494897  0.877481  1
  V  V15  1  0.506554  0.343872  0.623653  1
  V  V16  1  0.492088  0.658468  0.121985  1
  V  V17  1  0.992540  0.842883  0.627120  1
  V  V18  1  0.154545  0.006472  0.874567  1
  V  V19  1  0.843521  0.991491  0.372781  1
  Si  Si20  1  0.292787  0.960368  0.064548  1
  Si  Si21  1  0.540374  0.794075  0.314018  1
  Si  Si22  1  0.459927  0.206157  0.814902  1
  Si  Si23  1  0.794334  0.539990  0.685627  1
  Si  Si24  1  0.206710  0.459261  0.185571  1
  Si  Si25  1  0.705714  0.039737  0.564930  1
  Si  Si26  1  0.958704  0.295824  0.935342  1
  Si  Si27  1  0.039544  0.705444  0.435409  1
  Si  Si28  1  0.706155  0.372708  0.070771  1
  Si  Si29  1  0.129157  0.203238  0.319642  1
  Si  Si30  1  0.870025  0.794190  0.822864  1
  Si  Si31  1  0.203640  0.129548  0.679818  1
  Si  Si32  1  0.797620  0.868251  0.177249  1
  Si  Si33  1  0.296379  0.630409  0.569998  1
  Si  Si34  1  0.368463  0.705998  0.929227  1
  Si  Si35  1  0.630076  0.296073  0.429757  1
