# generated using pymatgen
data_Lu4Sc4Cr3B24Ir
_symmetry_space_group_name_H-M   'P 1'
_cell_length_a   3.44917500
_cell_length_b   8.94917926
_cell_length_c   11.29838533
_cell_angle_alpha   90.02756897
_cell_angle_beta   90.00000000
_cell_angle_gamma   90.00000000
_symmetry_Int_Tables_number   1
_chemical_formula_structural   Lu4Sc4Cr3B24Ir
_chemical_formula_sum   'Lu4 Sc4 Cr3 B24 Ir1'
_cell_volume   348.75044374
_cell_formula_units_Z   1
loop_
 _symmetry_equiv_pos_site_id
 _symmetry_equiv_pos_as_xyz
  1  'x, y, z'
loop_
 _atom_site_type_symbol
 _atom_site_label
 _atom_site_symmetry_multiplicity
 _atom_site_fract_x
 _atom_site_fract_y
 _atom_site_fract_z
 _atom_site_occupancy
  Lu  Lu0  1  0.500000  0.317563  0.415800  1
  Lu  Lu1  1  0.500000  0.678795  0.589742  1
  Lu  Lu2  1  0.500000  0.177890  0.913669  1
  Lu  Lu3  1  0.500000  0.824415  0.082580  1
  Sc  Sc4  1  0.500000  0.440366  0.126649  1
  Sc  Sc5  1  0.500000  0.556099  0.871145  1
  Sc  Sc6  1  0.500000  0.055832  0.629610  1
  Sc  Sc7  1  0.500000  0.947956  0.370690  1
  Cr  Cr8  1  0.500000  0.140923  0.182357  1
  Cr  Cr9  1  0.500000  0.859229  0.818703  1
  Cr  Cr10  1  0.500000  0.360153  0.680343  1
  B  B11  1  0.000000  0.098535  0.473343  1
  B  B12  1  0.000000  0.900778  0.527098  1
  B  B13  1  0.000000  0.400930  0.972809  1
  B  B14  1  0.000000  0.598732  0.026977  1
  B  B15  1  0.000000  0.130437  0.316947  1
  B  B16  1  0.000000  0.869684  0.683860  1
  B  B17  1  0.000000  0.369999  0.816242  1
  B  B18  1  0.000000  0.630487  0.181232  1
  B  B19  1  0.000000  0.054258  0.066626  1
  B  B20  1  0.000000  0.946533  0.932695  1
  B  B21  1  0.000000  0.445840  0.566716  1
  B  B22  1  0.000000  0.553588  0.435029  1
  B  B23  1  0.000000  0.480136  0.286190  1
  B  B24  1  0.000000  0.518428  0.713360  1
  B  B25  1  0.000000  0.018369  0.786537  1
  B  B26  1  0.000000  0.982125  0.212889  1
  B  B27  1  0.000000  0.251465  0.080794  1
  B  B28  1  0.000000  0.748089  0.918543  1
  B  B29  1  0.000000  0.247369  0.581535  1
  B  B30  1  0.000000  0.753480  0.420722  1
  B  B31  1  0.000000  0.294326  0.235521  1
  B  B32  1  0.000000  0.705505  0.764990  1
  B  B33  1  0.000000  0.205642  0.735225  1
  B  B34  1  0.000000  0.795702  0.263590  1
  Ir  Ir35  1  0.500000  0.640340  0.319241  1
