# generated using pymatgen
data_Ce3Er(ReN3)4
_symmetry_space_group_name_H-M   'P 1'
_cell_length_a   5.48348167
_cell_length_b   5.67238659
_cell_length_c   7.74340300
_cell_angle_alpha   90.00000000
_cell_angle_beta   90.00000000
_cell_angle_gamma   90.00182439
_symmetry_Int_Tables_number   1
_chemical_formula_structural   Ce3Er(ReN3)4
_chemical_formula_sum   'Ce3 Er1 Re4 N12'
_cell_volume   240.85412047
_cell_formula_units_Z   1
loop_
 _symmetry_equiv_pos_site_id
 _symmetry_equiv_pos_as_xyz
  1  'x, y, z'
loop_
 _atom_site_type_symbol
 _atom_site_label
 _atom_site_symmetry_multiplicity
 _atom_site_fract_x
 _atom_site_fract_y
 _atom_site_fract_z
 _atom_site_occupancy
  Ce  Ce0  1  0.473528  0.451244  0.250000  1
  Ce  Ce1  1  0.029514  0.960557  0.250000  1
  Ce  Ce2  1  0.481833  0.559114  0.750000  1
  Er  Er3  1  0.005239  0.070157  0.750000  1
  Re  Re4  1  0.516937  0.006585  0.501665  1
  Re  Re5  1  0.985941  0.510645  0.000128  1
  Re  Re6  1  0.985941  0.510645  0.499872  1
  Re  Re7  1  0.516937  0.006585  0.998335  1
  N  N8  1  0.704770  0.291362  0.538891  1
  N  N9  1  0.305025  0.692505  0.038922  1
  N  N10  1  0.199043  0.196107  0.042413  1
  N  N11  1  0.410820  0.977867  0.750000  1
  N  N12  1  0.928946  0.514467  0.250000  1
  N  N13  1  0.305025  0.692505  0.461078  1
  N  N14  1  0.800317  0.795399  0.958209  1
  N  N15  1  0.704770  0.291362  0.961109  1
  N  N16  1  0.800317  0.795399  0.541791  1
  N  N17  1  0.077860  0.472671  0.750000  1
  N  N18  1  0.199043  0.196107  0.457587  1
  N  N19  1  0.568193  0.008712  0.250000  1
