# generated using pymatgen
data_Tb3MgIr8
_symmetry_space_group_name_H-M   'P 1'
_cell_length_a   5.33882900
_cell_length_b   5.33882915
_cell_length_c   8.67946900
_cell_angle_alpha   90.00000000
_cell_angle_beta   90.00000000
_cell_angle_gamma   119.99999289
_symmetry_Int_Tables_number   1
_chemical_formula_structural   Tb3MgIr8
_chemical_formula_sum   'Tb3 Mg1 Ir8'
_cell_volume   214.24754438
_cell_formula_units_Z   1
loop_
 _symmetry_equiv_pos_site_id
 _symmetry_equiv_pos_as_xyz
  1  'x, y, z'
loop_
 _atom_site_type_symbol
 _atom_site_label
 _atom_site_symmetry_multiplicity
 _atom_site_fract_x
 _atom_site_fract_y
 _atom_site_fract_z
 _atom_site_occupancy
  Tb  Tb0  1  0.333333  0.666667  0.078562  1
  Tb  Tb1  1  0.666667  0.333333  0.559052  1
  Tb  Tb2  1  0.666667  0.333333  0.930189  1
  Mg  Mg3  1  0.333333  0.666667  0.438323  1
  Ir  Ir4  1  0.000000  0.000000  0.997414  1
  Ir  Ir5  1  0.000000  0.000000  0.497920  1
  Ir  Ir6  1  0.830554  0.661107  0.251427  1
  Ir  Ir7  1  0.170539  0.829461  0.748086  1
  Ir  Ir8  1  0.658922  0.829461  0.748086  1
  Ir  Ir9  1  0.338893  0.169446  0.251427  1
  Ir  Ir10  1  0.830554  0.169446  0.251427  1
  Ir  Ir11  1  0.170539  0.341078  0.748086  1
