# generated using pymatgen
data_Tb3NdGa18(PdRh2)2
_symmetry_space_group_name_H-M   'P 1'
_cell_length_a   7.63644621
_cell_length_b   7.63767801
_cell_length_c   9.55156900
_cell_angle_alpha   90.00000000
_cell_angle_beta   90.00000000
_cell_angle_gamma   119.82653305
_symmetry_Int_Tables_number   1
_chemical_formula_structural   Tb3NdGa18(PdRh2)2
_chemical_formula_sum   'Tb3 Nd1 Ga18 Pd2 Rh4'
_cell_volume   483.29741600
_cell_formula_units_Z   1
loop_
 _symmetry_equiv_pos_site_id
 _symmetry_equiv_pos_as_xyz
  1  'x, y, z'
loop_
 _atom_site_type_symbol
 _atom_site_label
 _atom_site_symmetry_multiplicity
 _atom_site_fract_x
 _atom_site_fract_y
 _atom_site_fract_z
 _atom_site_occupancy
  Tb  Tb0  1  0.003264  0.330718  0.750000  1
  Tb  Tb1  1  0.669261  0.996639  0.250000  1
  Tb  Tb2  1  0.330718  0.003276  0.750000  1
  Nd  Nd3  1  0.996562  0.669461  0.250000  1
  Ga  Ga4  1  0.129533  0.130222  0.250000  1
  Ga  Ga5  1  0.870802  0.870878  0.750000  1
  Ga  Ga6  1  0.999485  0.336284  0.079160  1
  Ga  Ga7  1  0.000391  0.662580  0.919625  1
  Ga  Ga8  1  0.000391  0.662580  0.580375  1
  Ga  Ga9  1  0.338534  0.000590  0.420804  1
  Ga  Ga10  1  0.999485  0.336284  0.420840  1
  Ga  Ga11  1  0.662621  0.000465  0.579616  1
  Ga  Ga12  1  0.662621  0.000465  0.920384  1
  Ga  Ga13  1  0.338534  0.000590  0.079196  1
  Ga  Ga14  1  0.336572  0.336562  0.565405  1
  Ga  Ga15  1  0.662486  0.663418  0.435133  1
  Ga  Ga16  1  0.662486  0.663418  0.064867  1
  Ga  Ga17  1  0.336572  0.336562  0.934595  1
  Ga  Ga18  1  0.337530  0.546340  0.250000  1
  Ga  Ga19  1  0.663166  0.453362  0.750000  1
  Ga  Ga20  1  0.545469  0.336081  0.250000  1
  Ga  Ga21  1  0.453437  0.663209  0.750000  1
  Pd  Pd22  1  0.000107  0.000327  0.999560  1
  Pd  Pd23  1  0.000107  0.000327  0.500440  1
  Rh  Rh24  1  0.670935  0.328509  0.999514  1
  Rh  Rh25  1  0.328997  0.671171  0.999516  1
  Rh  Rh26  1  0.328997  0.671171  0.500484  1
  Rh  Rh27  1  0.670935  0.328509  0.500486  1
