# generated using pymatgen
data_Ca12Ti12Cr5In3O48
_symmetry_space_group_name_H-M   'P 1'
_cell_length_a   11.01814218
_cell_length_b   11.02714310
_cell_length_c   11.02748442
_cell_angle_alpha   109.54764799
_cell_angle_beta   109.50782162
_cell_angle_gamma   109.47631356
_symmetry_Int_Tables_number   1
_chemical_formula_structural   Ca12Ti12Cr5In3O48
_chemical_formula_sum   'Ca12 Ti12 Cr5 In3 O48'
_cell_volume   1029.89060401
_cell_formula_units_Z   1
loop_
 _symmetry_equiv_pos_site_id
 _symmetry_equiv_pos_as_xyz
  1  'x, y, z'
loop_
 _atom_site_type_symbol
 _atom_site_label
 _atom_site_symmetry_multiplicity
 _atom_site_fract_x
 _atom_site_fract_y
 _atom_site_fract_z
 _atom_site_occupancy
  Ca  Ca0  1  0.255065  0.376977  0.127097  1
  Ca  Ca1  1  0.744935  0.623023  0.872903  1
  Ca  Ca2  1  0.751137  0.129448  0.370975  1
  Ca  Ca3  1  0.128715  0.253470  0.373812  1
  Ca  Ca4  1  0.380384  0.751432  0.120262  1
  Ca  Ca5  1  0.248863  0.870552  0.629025  1
  Ca  Ca6  1  0.871285  0.746530  0.626188  1
  Ca  Ca7  1  0.619616  0.248568  0.879738  1
  Ca  Ca8  1  0.372971  0.125259  0.245635  1
  Ca  Ca9  1  0.627029  0.874741  0.754365  1
  Ca  Ca10  1  0.124994  0.376679  0.748506  1
  Ca  Ca11  1  0.875006  0.623321  0.251494  1
  Ti  Ti12  1  0.251257  0.621126  0.381064  1
  Ti  Ti13  1  0.748743  0.378874  0.618936  1
  Ti  Ti14  1  0.745421  0.874550  0.118973  1
  Ti  Ti15  1  0.379442  0.259285  0.630431  1
  Ti  Ti16  1  0.620558  0.740715  0.369569  1
  Ti  Ti17  1  0.254579  0.125450  0.881027  1
  Ti  Ti18  1  0.128377  0.753711  0.873239  1
  Ti  Ti19  1  0.871623  0.246289  0.126761  1
  Ti  Ti20  1  0.625020  0.375223  0.249495  1
  Ti  Ti21  1  0.374980  0.624777  0.750505  1
  Ti  Ti22  1  0.878862  0.124512  0.755483  1
  Ti  Ti23  1  0.121138  0.875488  0.244517  1
  Cr  Cr24  1  0.000000  0.000000  0.000000  1
  Cr  Cr25  1  0.000000  0.500000  0.500000  1
  Cr  Cr26  1  0.500000  0.000000  0.000000  1
  Cr  Cr27  1  0.500000  0.500000  0.000000  1
  Cr  Cr28  1  0.500000  0.500000  0.500000  1
  In  In29  1  0.500000  0.000000  0.500000  1
  In  In30  1  0.000000  0.000000  0.500000  1
  In  In31  1  0.000000  0.500000  0.000000  1
  O  O32  1  0.484791  0.383563  0.302185  1
  O  O33  1  0.515209  0.616437  0.697815  1
  O  O34  1  0.581254  0.182914  0.196340  1
  O  O35  1  0.910300  0.123542  0.601904  1
  O  O36  1  0.298341  0.475669  0.381672  1
  O  O37  1  0.308762  0.911840  0.283170  1
  O  O38  1  0.418746  0.817086  0.803660  1
  O  O39  1  0.089700  0.876458  0.398096  1
  O  O40  1  0.701659  0.524331  0.618328  1
  O  O41  1  0.691238  0.088160  0.716830  1
  O  O42  1  0.029714  0.313438  0.902887  1
  O  O43  1  0.212511  0.588418  0.194868  1
  O  O44  1  0.117250  0.022358  0.201638  1
  O  O45  1  0.970286  0.686562  0.097113  1
  O  O46  1  0.787489  0.411582  0.805132  1
  O  O47  1  0.882750  0.977642  0.798362  1
  O  O48  1  0.597169  0.917865  0.115485  1
  O  O49  1  0.182727  0.487163  0.601677  1
  O  O50  1  0.402831  0.082135  0.884515  1
  O  O51  1  0.817273  0.512837  0.398323  1
  O  O52  1  0.895365  0.020195  0.308204  1
  O  O53  1  0.382205  0.579143  0.897914  1
  O  O54  1  0.104635  0.979805  0.691796  1
  O  O55  1  0.617795  0.420857  0.102086  1
  O  O56  1  0.387477  0.302062  0.484991  1
  O  O57  1  0.586609  0.893742  0.373992  1
  O  O58  1  0.612523  0.697938  0.515009  1
  O  O59  1  0.413391  0.106258  0.626008  1
  O  O60  1  0.127403  0.605166  0.914461  1
  O  O61  1  0.012711  0.197170  0.115040  1
  O  O62  1  0.872597  0.394834  0.085539  1
  O  O63  1  0.987289  0.802830  0.884960  1
  O  O64  1  0.318970  0.903423  0.015440  1
  O  O65  1  0.919730  0.299977  0.320662  1
  O  O66  1  0.681030  0.096577  0.984560  1
  O  O67  1  0.080270  0.700023  0.679338  1
  O  O68  1  0.188885  0.216517  0.586662  1
  O  O69  1  0.477166  0.594104  0.177225  1
  O  O70  1  0.811115  0.783483  0.413338  1
  O  O71  1  0.522834  0.405896  0.822775  1
  O  O72  1  0.304172  0.315006  0.917725  1
  O  O73  1  0.695828  0.684994  0.082275  1
  O  O74  1  0.201272  0.120819  0.021960  1
  O  O75  1  0.798728  0.879181  0.978040  1
  O  O76  1  0.901842  0.385999  0.583310  1
  O  O77  1  0.098158  0.614001  0.416690  1
  O  O78  1  0.601605  0.188161  0.472286  1
  O  O79  1  0.398395  0.811839  0.527714  1
