# generated using pymatgen
data_Pa4TiW3C8
_symmetry_space_group_name_H-M   'P 1'
_cell_length_a   3.34156800
_cell_length_b   5.74064416
_cell_length_c   11.05685703
_cell_angle_alpha   90.11995400
_cell_angle_beta   90.00000000
_cell_angle_gamma   90.00000000
_symmetry_Int_Tables_number   1
_chemical_formula_structural   Pa4TiW3C8
_chemical_formula_sum   'Pa4 Ti1 W3 C8'
_cell_volume   212.10049058
_cell_formula_units_Z   1
loop_
 _symmetry_equiv_pos_site_id
 _symmetry_equiv_pos_as_xyz
  1  'x, y, z'
loop_
 _atom_site_type_symbol
 _atom_site_label
 _atom_site_symmetry_multiplicity
 _atom_site_fract_x
 _atom_site_fract_y
 _atom_site_fract_z
 _atom_site_occupancy
  Pa  Pa0  1  0.250000  0.085056  0.858544  1
  Pa  Pa1  1  0.250000  0.580949  0.640366  1
  Pa  Pa2  1  0.750000  0.919088  0.141452  1
  Pa  Pa3  1  0.750000  0.418176  0.357982  1
  Ti  Ti4  1  0.250000  0.416666  0.103360  1
  W  W5  1  0.250000  0.916865  0.399505  1
  W  W6  1  0.750000  0.583668  0.896473  1
  W  W7  1  0.750000  0.080502  0.602023  1
  C  C8  1  0.250000  0.161919  0.247865  1
  C  C9  1  0.250000  0.663555  0.254292  1
  C  C10  1  0.750000  0.837186  0.753855  1
  C  C11  1  0.750000  0.336810  0.746068  1
  C  C12  1  0.250000  0.736930  0.989831  1
  C  C13  1  0.250000  0.240735  0.509777  1
  C  C14  1  0.750000  0.263089  0.008184  1
  C  C15  1  0.750000  0.758805  0.490425  1
