# generated using pymatgen
data_Li2ScNi11As4P3
_symmetry_space_group_name_H-M   'P 1'
_cell_length_a   3.61525400
_cell_length_b   9.23680579
_cell_length_c   9.27734534
_cell_angle_alpha   119.98831578
_cell_angle_beta   90.00000000
_cell_angle_gamma   90.00000000
_symmetry_Int_Tables_number   1
_chemical_formula_structural   Li2ScNi11As4P3
_chemical_formula_sum   'Li2 Sc1 Ni11 As4 P3'
_cell_volume   268.32806770
_cell_formula_units_Z   1
loop_
 _symmetry_equiv_pos_site_id
 _symmetry_equiv_pos_as_xyz
  1  'x, y, z'
loop_
 _atom_site_type_symbol
 _atom_site_label
 _atom_site_symmetry_multiplicity
 _atom_site_fract_x
 _atom_site_fract_y
 _atom_site_fract_z
 _atom_site_occupancy
  Li  Li0  1  0.500000  0.327194  0.663269  1
  Li  Li1  1  0.500000  0.123501  0.900194  1
  Sc  Sc2  1  0.000000  0.670843  0.337558  1
  Ni  Ni3  1  0.000000  0.875201  0.715604  1
  Ni  Ni4  1  0.000000  0.289326  0.162672  1
  Ni  Ni5  1  0.000000  0.836012  0.126019  1
  Ni  Ni6  1  0.500000  0.937063  0.554240  1
  Ni  Ni7  1  0.500000  0.447518  0.382846  1
  Ni  Ni8  1  0.500000  0.619820  0.062929  1
  Ni  Ni9  1  0.000000  0.383280  0.956659  1
  Ni  Ni10  1  0.000000  0.046452  0.424999  1
  Ni  Ni11  1  0.000000  0.571233  0.617734  1
  Ni  Ni12  1  0.500000  0.092040  0.223460  1
  Ni  Ni13  1  0.500000  0.774124  0.867925  1
  As  As14  1  0.000000  0.996997  0.003374  1
  As  As15  1  0.000000  0.125060  0.703252  1
  As  As16  1  0.000000  0.290886  0.416388  1
  As  As17  1  0.000000  0.581541  0.871920  1
  P  P18  1  0.500000  0.711353  0.590071  1
  P  P19  1  0.500000  0.421099  0.127483  1
  P  P20  1  0.500000  0.879456  0.291406  1
