# generated using pymatgen
data_Yb5Np(PaH12)2
_symmetry_space_group_name_H-M   'P 1'
_cell_length_a   6.61190300
_cell_length_b   6.73523600
_cell_length_c   6.61190300
_cell_angle_alpha   90.00000000
_cell_angle_beta   90.00000000
_cell_angle_gamma   90.00000000
_symmetry_Int_Tables_number   1
_chemical_formula_structural   Yb5Np(PaH12)2
_chemical_formula_sum   'Yb5 Np1 Pa2 H24'
_cell_volume   294.44607200
_cell_formula_units_Z   1
loop_
 _symmetry_equiv_pos_site_id
 _symmetry_equiv_pos_as_xyz
  1  'x, y, z'
loop_
 _atom_site_type_symbol
 _atom_site_label
 _atom_site_symmetry_multiplicity
 _atom_site_fract_x
 _atom_site_fract_y
 _atom_site_fract_z
 _atom_site_occupancy
  Yb  Yb0  1  0.247598  0.997073  0.500000  1
  Yb  Yb1  1  0.752402  0.997073  0.500000  1
  Yb  Yb2  1  0.000000  0.502927  0.252402  1
  Yb  Yb3  1  0.000000  0.502927  0.747598  1
  Yb  Yb4  1  0.500000  0.750000  0.000000  1
  Np  Np5  1  0.500000  0.250000  0.000000  1
  Pa  Pa6  1  0.000000  0.001108  0.000000  1
  Pa  Pa7  1  0.500000  0.498892  0.500000  1
  H  H8  1  0.000000  0.151846  0.288059  1
  H  H9  1  0.500000  0.212986  0.663814  1
  H  H10  1  0.500000  0.783173  0.347936  1
  H  H11  1  0.789932  0.650393  0.500000  1
  H  H12  1  0.210068  0.650393  0.500000  1
  H  H13  1  0.352622  0.483526  0.806270  1
  H  H14  1  0.647378  0.483526  0.806270  1
  H  H15  1  0.306270  0.016474  0.147378  1
  H  H16  1  0.163814  0.287014  0.000000  1
  H  H17  1  0.847936  0.716827  0.000000  1
  H  H18  1  0.306270  0.016474  0.852622  1
  H  H19  1  0.836186  0.287014  0.000000  1
  H  H20  1  0.693730  0.016474  0.147378  1
  H  H21  1  0.693730  0.016474  0.852622  1
  H  H22  1  0.152064  0.716827  0.000000  1
  H  H23  1  0.000000  0.849607  0.710068  1
  H  H24  1  0.000000  0.151846  0.711941  1
  H  H25  1  0.000000  0.849607  0.289932  1
  H  H26  1  0.647378  0.483526  0.193730  1
  H  H27  1  0.352622  0.483526  0.193730  1
  H  H28  1  0.788059  0.348154  0.500000  1
  H  H29  1  0.211941  0.348154  0.500000  1
  H  H30  1  0.500000  0.783173  0.652064  1
  H  H31  1  0.500000  0.212986  0.336186  1
