# generated using pymatgen
data_K5Ag5Au
_symmetry_space_group_name_H-M   'P 1'
_cell_length_a   15.70435366
_cell_length_b   15.70435318
_cell_length_c   5.01272400
_cell_angle_alpha   90.00000000
_cell_angle_beta   90.00000000
_cell_angle_gamma   161.50178340
_symmetry_Int_Tables_number   1
_chemical_formula_structural   K5Ag5Au
_chemical_formula_sum   'K5 Ag5 Au1'
_cell_volume   392.23826229
_cell_formula_units_Z   1
loop_
 _symmetry_equiv_pos_site_id
 _symmetry_equiv_pos_as_xyz
  1  'x, y, z'
loop_
 _atom_site_type_symbol
 _atom_site_label
 _atom_site_symmetry_multiplicity
 _atom_site_fract_x
 _atom_site_fract_y
 _atom_site_fract_z
 _atom_site_occupancy
  K  K0  1  0.000402  0.999598  0.000000  1
  K  K1  1  0.619336  0.380662  0.000000  1
  K  K2  1  0.382608  0.617390  0.000000  1
  K  K3  1  0.804884  0.195114  0.500001  1
  K  K4  1  0.193245  0.806753  0.500001  1
  Ag  Ag5  1  0.264654  0.735344  0.000000  1
  Ag  Ag6  1  0.920412  0.079587  0.500001  1
  Ag  Ag7  1  0.546745  0.453253  0.500001  1
  Ag  Ag8  1  0.454181  0.545817  0.500001  1
  Ag  Ag9  1  0.079641  0.920358  0.500001  1
  Au  Au10  1  0.733884  0.266114  0.000000  1
