# generated using pymatgen
data_CaPr4Ga2Sn
_symmetry_space_group_name_H-M   'P 1'
_cell_length_a   8.18242700
_cell_length_b   8.18242700
_cell_length_c   14.25535600
_cell_angle_alpha   90.00000000
_cell_angle_beta   90.00000000
_cell_angle_gamma   90.00000000
_symmetry_Int_Tables_number   1
_chemical_formula_structural   CaPr4Ga2Sn
_chemical_formula_sum   'Ca4 Pr16 Ga8 Sn4'
_cell_volume   954.42618596
_cell_formula_units_Z   4
loop_
 _symmetry_equiv_pos_site_id
 _symmetry_equiv_pos_as_xyz
  1  'x, y, z'
loop_
 _atom_site_type_symbol
 _atom_site_label
 _atom_site_symmetry_multiplicity
 _atom_site_fract_x
 _atom_site_fract_y
 _atom_site_fract_z
 _atom_site_occupancy
  Ca  Ca0  1  0.000000  0.500000  0.745481  1
  Ca  Ca1  1  0.000000  0.500000  0.245481  1
  Ca  Ca2  1  0.500000  0.000000  0.254519  1
  Ca  Ca3  1  0.500000  0.000000  0.754519  1
  Pr  Pr4  1  0.827319  0.832251  0.604774  1
  Pr  Pr5  1  0.172681  0.832251  0.104774  1
  Pr  Pr6  1  0.167749  0.827319  0.395226  1
  Pr  Pr7  1  0.832251  0.172681  0.395226  1
  Pr  Pr8  1  0.672681  0.667749  0.395226  1
  Pr  Pr9  1  0.667749  0.327319  0.604774  1
  Pr  Pr10  1  0.332251  0.672681  0.604774  1
  Pr  Pr11  1  0.667749  0.672681  0.104774  1
  Pr  Pr12  1  0.672681  0.332251  0.895226  1
  Pr  Pr13  1  0.832251  0.827319  0.895226  1
  Pr  Pr14  1  0.327319  0.332251  0.395226  1
  Pr  Pr15  1  0.172681  0.167749  0.604774  1
  Pr  Pr16  1  0.827319  0.167749  0.104774  1
  Pr  Pr17  1  0.327319  0.667749  0.895226  1
  Pr  Pr18  1  0.332251  0.327319  0.104774  1
  Pr  Pr19  1  0.167749  0.172681  0.895226  1
  Ga  Ga20  1  0.619319  0.380681  0.250000  1
  Ga  Ga21  1  0.119319  0.880681  0.750000  1
  Ga  Ga22  1  0.380681  0.380681  0.750000  1
  Ga  Ga23  1  0.380681  0.619319  0.250000  1
  Ga  Ga24  1  0.880681  0.880681  0.250000  1
  Ga  Ga25  1  0.619319  0.619319  0.750000  1
  Ga  Ga26  1  0.880681  0.119319  0.750000  1
  Ga  Ga27  1  0.119319  0.119319  0.250000  1
  Sn  Sn28  1  0.000000  0.500000  0.502367  1
  Sn  Sn29  1  0.500000  0.000000  0.497633  1
  Sn  Sn30  1  0.500000  0.000000  0.997633  1
  Sn  Sn31  1  0.000000  0.500000  0.002367  1
