# generated using pymatgen
data_HoTh3(Zn5Sn)2
_symmetry_space_group_name_H-M   'P 1'
_cell_length_a   8.51221641
_cell_length_b   8.51221773
_cell_length_c   9.02199565
_cell_angle_alpha   88.93217062
_cell_angle_beta   91.06782821
_cell_angle_gamma   149.49881231
_symmetry_Int_Tables_number   1
_chemical_formula_structural   HoTh3(Zn5Sn)2
_chemical_formula_sum   'Ho1 Th3 Zn10 Sn2'
_cell_volume   331.73486193
_cell_formula_units_Z   1
loop_
 _symmetry_equiv_pos_site_id
 _symmetry_equiv_pos_as_xyz
  1  'x, y, z'
loop_
 _atom_site_type_symbol
 _atom_site_label
 _atom_site_symmetry_multiplicity
 _atom_site_fract_x
 _atom_site_fract_y
 _atom_site_fract_z
 _atom_site_occupancy
  Ho  Ho0  1  0.000000  0.000000  0.000000  1
  Th  Th1  1  0.203813  0.796187  0.249162  1
  Th  Th2  1  0.796187  0.203813  0.750838  1
  Th  Th3  1  0.000000  0.000000  0.500000  1
  Zn  Zn4  1  0.814958  0.185042  0.393630  1
  Zn  Zn5  1  0.185042  0.814958  0.606370  1
  Zn  Zn6  1  0.817473  0.182527  0.108881  1
  Zn  Zn7  1  0.182527  0.817473  0.891119  1
  Zn  Zn8  1  0.656605  0.343395  0.481550  1
  Zn  Zn9  1  0.343395  0.656605  0.518450  1
  Zn  Zn10  1  0.656979  0.343021  0.016040  1
  Zn  Zn11  1  0.343021  0.656979  0.983960  1
  Zn  Zn12  1  0.394151  0.605849  0.253024  1
  Zn  Zn13  1  0.605849  0.394151  0.746976  1
  Sn  Sn14  1  0.553406  0.446594  0.244361  1
  Sn  Sn15  1  0.446594  0.553406  0.755639  1
