# generated using pymatgen
data_EuScIO6
_symmetry_space_group_name_H-M   'P 1'
_cell_length_a   5.41380800
_cell_length_b   5.41380814
_cell_length_c   5.16483400
_cell_angle_alpha   90.00000000
_cell_angle_beta   90.00000000
_cell_angle_gamma   119.99998691
_symmetry_Int_Tables_number   1
_chemical_formula_structural   EuScIO6
_chemical_formula_sum   'Eu1 Sc1 I1 O6'
_cell_volume   131.09700408
_cell_formula_units_Z   1
loop_
 _symmetry_equiv_pos_site_id
 _symmetry_equiv_pos_as_xyz
  1  'x, y, z'
loop_
 _atom_site_type_symbol
 _atom_site_label
 _atom_site_symmetry_multiplicity
 _atom_site_fract_x
 _atom_site_fract_y
 _atom_site_fract_z
 _atom_site_occupancy
  Eu  Eu0  1  0.666667  0.333333  0.500000  1
  Sc  Sc1  1  0.333333  0.666667  0.000000  1
  I  I2  1  0.000000  0.000000  0.000000  1
  O  O3  1  0.022397  0.308584  0.787790  1
  O  O4  1  0.286185  0.977603  0.787790  1
  O  O5  1  0.286185  0.308584  0.212210  1
  O  O6  1  0.691416  0.713815  0.787790  1
  O  O7  1  0.691416  0.977603  0.212210  1
  O  O8  1  0.022397  0.713815  0.212210  1
