# generated using pymatgen
data_DyEr4(CoB3)2
_symmetry_space_group_name_H-M   'P 1'
_cell_length_a   5.40259633
_cell_length_b   5.40259610
_cell_length_c   8.26403044
_cell_angle_alpha   70.92084493
_cell_angle_beta   70.92083710
_cell_angle_gamma   60.00002201
_symmetry_Int_Tables_number   1
_chemical_formula_structural   DyEr4(CoB3)2
_chemical_formula_sum   'Dy1 Er4 Co2 B6'
_cell_volume   193.44355428
_cell_formula_units_Z   1
loop_
 _symmetry_equiv_pos_site_id
 _symmetry_equiv_pos_as_xyz
  1  'x, y, z'
loop_
 _atom_site_type_symbol
 _atom_site_label
 _atom_site_symmetry_multiplicity
 _atom_site_fract_x
 _atom_site_fract_y
 _atom_site_fract_z
 _atom_site_occupancy
  Dy  Dy0  1  0.000000  0.000000  0.000000  1
  Er  Er1  1  0.251571  0.251571  0.245288  1
  Er  Er2  1  0.748429  0.748429  0.754712  1
  Er  Er3  1  0.416097  0.416097  0.751709  1
  Er  Er4  1  0.583903  0.583903  0.248291  1
  Co  Co5  1  0.119084  0.119084  0.642749  1
  Co  Co6  1  0.880916  0.880916  0.357251  1
  B  B7  1  0.168880  0.831120  0.500000  1
  B  B8  1  0.831120  0.500000  0.500000  1
  B  B9  1  0.500000  0.168880  0.500000  1
  B  B10  1  0.168880  0.500000  0.500000  1
  B  B11  1  0.500000  0.831120  0.500000  1
  B  B12  1  0.831120  0.168880  0.500000  1
