# generated using pymatgen
data_Tb5Sm(CBr5)2
_symmetry_space_group_name_H-M   'P 1'
_cell_length_a   7.40873313
_cell_length_b   8.93219055
_cell_length_c   9.05540277
_cell_angle_alpha   107.11836018
_cell_angle_beta   96.35704227
_cell_angle_gamma   104.57770075
_symmetry_Int_Tables_number   1
_chemical_formula_structural   Tb5Sm(CBr5)2
_chemical_formula_sum   'Tb5 Sm1 C2 Br10'
_cell_volume   543.09093938
_cell_formula_units_Z   1
loop_
 _symmetry_equiv_pos_site_id
 _symmetry_equiv_pos_as_xyz
  1  'x, y, z'
loop_
 _atom_site_type_symbol
 _atom_site_label
 _atom_site_symmetry_multiplicity
 _atom_site_fract_x
 _atom_site_fract_y
 _atom_site_fract_z
 _atom_site_occupancy
  Tb  Tb0  1  0.111641  0.043854  0.772034  1
  Tb  Tb1  1  0.029023  0.727507  0.919875  1
  Tb  Tb2  1  0.970746  0.272528  0.080417  1
  Tb  Tb3  1  0.616233  0.857519  0.808870  1
  Tb  Tb4  1  0.383929  0.142766  0.191388  1
  Sm  Sm5  1  0.886900  0.955549  0.230233  1
  C  C6  1  0.906528  0.968413  0.953446  1
  C  C7  1  0.095369  0.032195  0.043143  1
  Br  Br8  1  0.753602  0.917406  0.543138  1
  Br  Br9  1  0.251190  0.084443  0.461094  1
  Br  Br10  1  0.455415  0.814596  0.086500  1
  Br  Br11  1  0.540225  0.183650  0.911429  1
  Br  Br12  1  0.805995  0.266661  0.350348  1
  Br  Br13  1  0.192241  0.739100  0.650369  1
  Br  Br14  1  0.911883  0.624513  0.171697  1
  Br  Br15  1  0.089170  0.369191  0.825662  1
  Br  Br16  1  0.661666  0.545563  0.726426  1
  Br  Br17  1  0.338244  0.454547  0.273929  1
