# generated using pymatgen
data_AlSbTeCl4
_symmetry_space_group_name_H-M   'P 1'
_cell_length_a   10.57636824
_cell_length_b   10.57636830
_cell_length_c   10.57636823
_cell_angle_alpha   107.54208352
_cell_angle_beta   107.54208384
_cell_angle_gamma   113.40248064
_symmetry_Int_Tables_number   1
_chemical_formula_structural   AlSbTeCl4
_chemical_formula_sum   'Al4 Sb4 Te4 Cl16'
_cell_volume   907.48714712
_cell_formula_units_Z   4
loop_
 _symmetry_equiv_pos_site_id
 _symmetry_equiv_pos_as_xyz
  1  'x, y, z'
loop_
 _atom_site_type_symbol
 _atom_site_label
 _atom_site_symmetry_multiplicity
 _atom_site_fract_x
 _atom_site_fract_y
 _atom_site_fract_z
 _atom_site_occupancy
  Al  Al0  1  0.342422  0.115647  0.377175  1
  Al  Al1  1  0.884353  0.261529  0.226776  1
  Al  Al2  1  0.034753  0.657578  0.773224  1
  Al  Al3  1  0.738471  0.965247  0.622825  1
  Sb  Sb4  1  0.533552  0.430587  0.212796  1
  Sb  Sb5  1  0.569413  0.782207  0.102965  1
  Sb  Sb6  1  0.679243  0.466448  0.897035  1
  Sb  Sb7  1  0.217793  0.320757  0.787204  1
  Te  Te8  1  0.786632  0.687799  0.206582  1
  Te  Te9  1  0.419950  0.213368  0.901167  1
  Te  Te10  1  0.481218  0.580050  0.793418  1
  Te  Te11  1  0.312201  0.518782  0.098833  1
  Cl  Cl12  1  0.784168  0.024477  0.455416  1
  Cl  Cl13  1  0.569061  0.328752  0.544584  1
  Cl  Cl14  1  0.918413  0.399394  0.110271  1
  Cl  Cl15  1  0.975523  0.430939  0.759693  1
  Cl  Cl16  1  0.934278  0.741520  0.907845  1
  Cl  Cl17  1  0.191859  0.081587  0.480982  1
  Cl  Cl18  1  0.345045  0.907560  0.289738  1
  Cl  Cl19  1  0.092440  0.382179  0.437486  1
  Cl  Cl20  1  0.600606  0.710876  0.519018  1
  Cl  Cl21  1  0.258480  0.166324  0.192757  1
  Cl  Cl22  1  0.289124  0.808141  0.889729  1
  Cl  Cl23  1  0.944693  0.654955  0.562514  1
  Cl  Cl24  1  0.973567  0.065722  0.807243  1
  Cl  Cl25  1  0.833676  0.026433  0.092155  1
  Cl  Cl26  1  0.671248  0.215832  0.240307  1
  Cl  Cl27  1  0.617821  0.055307  0.710262  1
