# generated using pymatgen
data_DyThMn12P7
_symmetry_space_group_name_H-M   'P 1'
_cell_length_a   9.32820600
_cell_length_b   9.32820532
_cell_length_c   3.64003000
_cell_angle_alpha   90.00000000
_cell_angle_beta   90.00000000
_cell_angle_gamma   120.00000952
_symmetry_Int_Tables_number   1
_chemical_formula_structural   DyThMn12P7
_chemical_formula_sum   'Dy1 Th1 Mn12 P7'
_cell_volume   274.30377075
_cell_formula_units_Z   1
loop_
 _symmetry_equiv_pos_site_id
 _symmetry_equiv_pos_as_xyz
  1  'x, y, z'
loop_
 _atom_site_type_symbol
 _atom_site_label
 _atom_site_symmetry_multiplicity
 _atom_site_fract_x
 _atom_site_fract_y
 _atom_site_fract_z
 _atom_site_occupancy
  Dy  Dy0  1  0.666667  0.333333  0.000000  1
  Th  Th1  1  0.333333  0.666667  0.500000  1
  Mn  Mn2  1  0.376956  0.951705  0.000000  1
  Mn  Mn3  1  0.048295  0.425251  0.000000  1
  Mn  Mn4  1  0.574749  0.623044  0.000000  1
  Mn  Mn5  1  0.878420  0.724462  0.000000  1
  Mn  Mn6  1  0.275538  0.153958  0.000000  1
  Mn  Mn7  1  0.846042  0.121580  0.000000  1
  Mn  Mn8  1  0.953279  0.561784  0.500000  1
  Mn  Mn9  1  0.438216  0.391495  0.500000  1
  Mn  Mn10  1  0.608505  0.046721  0.500000  1
  Mn  Mn11  1  0.123389  0.896609  0.500000  1
  Mn  Mn12  1  0.103391  0.226780  0.500000  1
  Mn  Mn13  1  0.773220  0.876611  0.500000  1
  P  P14  1  0.112832  0.709762  0.000000  1
  P  P15  1  0.290238  0.403070  0.000000  1
  P  P16  1  0.596930  0.887168  0.000000  1
  P  P17  1  0.719076  0.592369  0.500000  1
  P  P18  1  0.407631  0.126708  0.500000  1
  P  P19  1  0.873292  0.280924  0.500000  1
  P  P20  1  0.000000  0.000000  0.000000  1
