# generated using pymatgen
data_Sm(S8Br)3
_symmetry_space_group_name_H-M   'P 1'
_cell_length_a   16.12072768
_cell_length_b   16.12072720
_cell_length_c   16.12072669
_cell_angle_alpha   119.27463343
_cell_angle_beta   119.27463673
_cell_angle_gamma   119.27463161
_symmetry_Int_Tables_number   1
_chemical_formula_structural   Sm(S8Br)3
_chemical_formula_sum   'Sm1 S24 Br3'
_cell_volume   925.40424011
_cell_formula_units_Z   1
loop_
 _symmetry_equiv_pos_site_id
 _symmetry_equiv_pos_as_xyz
  1  'x, y, z'
loop_
 _atom_site_type_symbol
 _atom_site_label
 _atom_site_symmetry_multiplicity
 _atom_site_fract_x
 _atom_site_fract_y
 _atom_site_fract_z
 _atom_site_occupancy
  Sm  Sm0  1  0.556305  0.556305  0.556305  1
  S  S1  1  0.804969  0.519099  0.519099  1
  S  S2  1  0.519099  0.519099  0.804969  1
  S  S3  1  0.519099  0.804969  0.519099  1
  S  S4  1  0.211450  0.333376  0.600910  1
  S  S5  1  0.404145  0.988105  0.404145  1
  S  S6  1  0.404145  0.404145  0.988105  1
  S  S7  1  0.988105  0.404145  0.404145  1
  S  S8  1  0.130556  0.730311  0.251817  1
  S  S9  1  0.251817  0.130556  0.730311  1
  S  S10  1  0.730311  0.251817  0.130556  1
  S  S11  1  0.730311  0.130556  0.251817  1
  S  S12  1  0.251817  0.730311  0.130556  1
  S  S13  1  0.130556  0.251817  0.730311  1
  S  S14  1  0.376747  0.897165  0.548324  1
  S  S15  1  0.548324  0.376747  0.897165  1
  S  S16  1  0.897165  0.548324  0.376747  1
  S  S17  1  0.897165  0.376747  0.548324  1
  S  S18  1  0.548324  0.897165  0.376747  1
  S  S19  1  0.376747  0.548324  0.897165  1
  S  S20  1  0.211450  0.600910  0.333376  1
  S  S21  1  0.333376  0.211450  0.600910  1
  S  S22  1  0.600910  0.333376  0.211450  1
  S  S23  1  0.600910  0.211450  0.333376  1
  S  S24  1  0.333376  0.600910  0.211450  1
  Br  Br25  1  0.968514  0.099800  0.099800  1
  Br  Br26  1  0.099800  0.099800  0.968514  1
  Br  Br27  1  0.099800  0.968514  0.099800  1
