# generated using pymatgen
data_Na4Ge2S5
_symmetry_space_group_name_H-M   'P 1'
_cell_length_a   6.80893583
_cell_length_b   7.81805909
_cell_length_c   10.27812300
_cell_angle_alpha   73.50704515
_cell_angle_beta   70.76699154
_cell_angle_gamma   81.72919202
_symmetry_Int_Tables_number   1
_chemical_formula_structural   Na4Ge2S5
_chemical_formula_sum   'Na8 Ge4 S10'
_cell_volume   494.57306196
_cell_formula_units_Z   2
loop_
 _symmetry_equiv_pos_site_id
 _symmetry_equiv_pos_as_xyz
  1  'x, y, z'
loop_
 _atom_site_type_symbol
 _atom_site_label
 _atom_site_symmetry_multiplicity
 _atom_site_fract_x
 _atom_site_fract_y
 _atom_site_fract_z
 _atom_site_occupancy
  Na  Na0  1  0.204587  0.000615  0.594424  1
  Na  Na1  1  0.795413  0.999385  0.405576  1
  Na  Na2  1  0.912712  0.519865  0.682997  1
  Na  Na3  1  0.087288  0.480135  0.317003  1
  Na  Na4  1  0.500000  0.500000  0.500000  1
  Na  Na5  1  0.000000  0.000000  0.000000  1
  Na  Na6  1  0.269766  0.495103  0.896287  1
  Na  Na7  1  0.730234  0.504897  0.103713  1
  Ge  Ge8  1  0.425166  0.839383  0.231069  1
  Ge  Ge9  1  0.574834  0.160617  0.768931  1
  Ge  Ge10  1  0.382223  0.163016  0.165388  1
  Ge  Ge11  1  0.617777  0.836984  0.834612  1
  S  S12  1  0.064806  0.249317  0.153008  1
  S  S13  1  0.935194  0.750683  0.846992  1
  S  S14  1  0.637195  0.259289  0.946777  1
  S  S15  1  0.362805  0.740711  0.053223  1
  S  S16  1  0.832576  0.253271  0.572622  1
  S  S17  1  0.167424  0.746729  0.427378  1
  S  S18  1  0.538289  0.743538  0.676062  1
  S  S19  1  0.461711  0.256462  0.323938  1
  S  S20  1  0.263812  0.249010  0.745237  1
  S  S21  1  0.736188  0.750990  0.254763  1
