# generated using pymatgen
data_LuMgCu4
_symmetry_space_group_name_H-M   'P 1'
_cell_length_a   5.05730199
_cell_length_b   5.05730207
_cell_length_c   5.05730200
_cell_angle_alpha   60.00000048
_cell_angle_beta   59.99999996
_cell_angle_gamma   60.00000427
_symmetry_Int_Tables_number   1
_chemical_formula_structural   LuMgCu4
_chemical_formula_sum   'Lu1 Mg1 Cu4'
_cell_volume   91.46220961
_cell_formula_units_Z   1
loop_
 _symmetry_equiv_pos_site_id
 _symmetry_equiv_pos_as_xyz
  1  'x, y, z'
loop_
 _atom_site_type_symbol
 _atom_site_label
 _atom_site_symmetry_multiplicity
 _atom_site_fract_x
 _atom_site_fract_y
 _atom_site_fract_z
 _atom_site_occupancy
  Lu  Lu0  1  0.250000  0.250000  0.250000  1
  Mg  Mg1  1  0.000000  0.000000  0.000000  1
  Cu  Cu2  1  0.625563  0.625563  0.625563  1
  Cu  Cu3  1  0.625563  0.625563  0.123311  1
  Cu  Cu4  1  0.625563  0.123311  0.625563  1
  Cu  Cu5  1  0.123311  0.625563  0.625563  1
