# generated using pymatgen
data_Y2ErMg3CuGe2
_symmetry_space_group_name_H-M   'P 1'
_cell_length_a   7.22507961
_cell_length_b   7.23571201
_cell_length_c   4.26911700
_cell_angle_alpha   90.00000000
_cell_angle_beta   90.00000000
_cell_angle_gamma   120.04868176
_symmetry_Int_Tables_number   1
_chemical_formula_structural   Y2ErMg3CuGe2
_chemical_formula_sum   'Y2 Er1 Mg3 Cu1 Ge2'
_cell_volume   193.18764435
_cell_formula_units_Z   1
loop_
 _symmetry_equiv_pos_site_id
 _symmetry_equiv_pos_as_xyz
  1  'x, y, z'
loop_
 _atom_site_type_symbol
 _atom_site_label
 _atom_site_symmetry_multiplicity
 _atom_site_fract_x
 _atom_site_fract_y
 _atom_site_fract_z
 _atom_site_occupancy
  Y  Y0  1  0.585732  0.000369  0.000000  1
  Y  Y1  1  0.414268  0.414638  0.000000  1
  Er  Er2  1  0.000000  0.585989  0.000000  1
  Mg  Mg3  1  0.000000  0.241336  0.500000  1
  Mg  Mg4  1  0.759498  0.758971  0.500000  1
  Mg  Mg5  1  0.240502  0.999472  0.500000  1
  Cu  Cu6  1  0.000000  0.998540  0.000000  1
  Ge  Ge7  1  0.331553  0.666120  0.500000  1
  Ge  Ge8  1  0.668447  0.334565  0.500000  1
