# generated using pymatgen
data_Dy5Tl2BiP
_symmetry_space_group_name_H-M   'P 1'
_cell_length_a   9.17189500
_cell_length_b   9.18478588
_cell_length_c   6.77400500
_cell_angle_alpha   90.00000000
_cell_angle_beta   90.00000000
_cell_angle_gamma   120.04651492
_symmetry_Int_Tables_number   1
_chemical_formula_structural   Dy5Tl2BiP
_chemical_formula_sum   'Dy10 Tl4 Bi2 P2'
_cell_volume   493.96992034
_cell_formula_units_Z   2
loop_
 _symmetry_equiv_pos_site_id
 _symmetry_equiv_pos_as_xyz
  1  'x, y, z'
loop_
 _atom_site_type_symbol
 _atom_site_label
 _atom_site_symmetry_multiplicity
 _atom_site_fract_x
 _atom_site_fract_y
 _atom_site_fract_z
 _atom_site_occupancy
  Dy  Dy0  1  0.764433  0.761853  0.750000  1
  Dy  Dy1  1  0.235567  0.997421  0.750000  1
  Dy  Dy2  1  0.000000  0.235008  0.750000  1
  Dy  Dy3  1  0.239358  0.237548  0.250000  1
  Dy  Dy4  1  0.760642  0.998190  0.250000  1
  Dy  Dy5  1  0.000000  0.763450  0.250000  1
  Dy  Dy6  1  0.667941  0.334965  0.006697  1
  Dy  Dy7  1  0.332059  0.667025  0.006697  1
  Dy  Dy8  1  0.332059  0.667025  0.493303  1
  Dy  Dy9  1  0.667941  0.334965  0.493303  1
  Tl  Tl10  1  0.000000  0.597573  0.750000  1
  Tl  Tl11  1  0.598554  0.600355  0.250000  1
  Tl  Tl12  1  0.401446  0.001801  0.250000  1
  Tl  Tl13  1  0.000000  0.401316  0.250000  1
  Bi  Bi14  1  0.400121  0.400243  0.750000  1
  Bi  Bi15  1  0.599879  0.000122  0.750000  1
  P  P16  1  0.000000  0.000570  0.998056  1
  P  P17  1  0.000000  0.000570  0.501944  1
