# generated using pymatgen
data_Tb9Pr8Tm3Sn16
_symmetry_space_group_name_H-M   'P 1'
_cell_length_a   8.10183800
_cell_length_b   8.33499373
_cell_length_c   15.72679500
_cell_angle_alpha   90.00000000
_cell_angle_beta   90.00000000
_cell_angle_gamma   89.96312032
_symmetry_Int_Tables_number   1
_chemical_formula_structural   Tb9Pr8Tm3Sn16
_chemical_formula_sum   'Tb9 Pr8 Tm3 Sn16'
_cell_volume   1062.01088516
_cell_formula_units_Z   1
loop_
 _symmetry_equiv_pos_site_id
 _symmetry_equiv_pos_as_xyz
  1  'x, y, z'
loop_
 _atom_site_type_symbol
 _atom_site_label
 _atom_site_symmetry_multiplicity
 _atom_site_fract_x
 _atom_site_fract_y
 _atom_site_fract_z
 _atom_site_occupancy
  Tb  Tb0  1  0.349290  0.835326  0.875816  1
  Tb  Tb1  1  0.848567  0.664927  0.624085  1
  Tb  Tb2  1  0.650974  0.164752  0.375619  1
  Tb  Tb3  1  0.151305  0.335463  0.124561  1
  Tb  Tb4  1  0.650974  0.164752  0.124381  1
  Tb  Tb5  1  0.151305  0.335463  0.375439  1
  Tb  Tb6  1  0.349290  0.835326  0.624184  1
  Tb  Tb7  1  0.848567  0.664927  0.875915  1
  Tb  Tb8  1  0.181802  0.500734  0.750000  1
  Pr  Pr9  1  0.508570  0.323437  0.903927  1
  Pr  Pr10  1  0.007851  0.176081  0.596083  1
  Pr  Pr11  1  0.491648  0.676196  0.403642  1
  Pr  Pr12  1  0.991953  0.823709  0.096288  1
  Pr  Pr13  1  0.491648  0.676196  0.096358  1
  Pr  Pr14  1  0.991953  0.823709  0.403712  1
  Pr  Pr15  1  0.508570  0.323437  0.596073  1
  Pr  Pr16  1  0.007851  0.176081  0.903917  1
  Tm  Tm17  1  0.682069  0.998576  0.750000  1
  Tm  Tm18  1  0.817972  0.498898  0.250000  1
  Tm  Tm19  1  0.318190  0.001189  0.250000  1
  Sn  Sn20  1  0.313299  0.040618  0.042441  1
  Sn  Sn21  1  0.813296  0.459528  0.457517  1
  Sn  Sn22  1  0.686376  0.959420  0.542152  1
  Sn  Sn23  1  0.186584  0.541077  0.958618  1
  Sn  Sn24  1  0.686376  0.959420  0.957848  1
  Sn  Sn25  1  0.186584  0.541077  0.541382  1
  Sn  Sn26  1  0.313299  0.040618  0.457559  1
  Sn  Sn27  1  0.813296  0.459528  0.042483  1
  Sn  Sn28  1  0.547657  0.622925  0.750000  1
  Sn  Sn29  1  0.045379  0.878552  0.750000  1
  Sn  Sn30  1  0.454512  0.377876  0.250000  1
  Sn  Sn31  1  0.954342  0.122096  0.250000  1
  Sn  Sn32  1  0.315500  0.143675  0.750000  1
  Sn  Sn33  1  0.814526  0.354113  0.750000  1
  Sn  Sn34  1  0.684425  0.854408  0.250000  1
  Sn  Sn35  1  0.184201  0.645896  0.250000  1
