# generated using pymatgen
data_Tc5MoS8
_symmetry_space_group_name_H-M   'P 1'
_cell_length_a   6.46855529
_cell_length_b   6.46018522
_cell_length_c   6.47824698
_cell_angle_alpha   92.85036563
_cell_angle_beta   92.87385056
_cell_angle_gamma   93.48239131
_symmetry_Int_Tables_number   1
_chemical_formula_structural   Tc5MoS8
_chemical_formula_sum   'Tc5 Mo1 S8'
_cell_volume   269.49529572
_cell_formula_units_Z   1
loop_
 _symmetry_equiv_pos_site_id
 _symmetry_equiv_pos_as_xyz
  1  'x, y, z'
loop_
 _atom_site_type_symbol
 _atom_site_label
 _atom_site_symmetry_multiplicity
 _atom_site_fract_x
 _atom_site_fract_y
 _atom_site_fract_z
 _atom_site_occupancy
  Tc  Tc0  1  0.449095  0.589425  0.772230  1
  Tc  Tc1  1  0.772222  0.449777  0.589553  1
  Tc  Tc2  1  0.589863  0.770338  0.449196  1
  Tc  Tc3  1  0.551257  0.411651  0.229351  1
  Tc  Tc4  1  0.228346  0.550296  0.410584  1
  Mo  Mo5  1  0.409329  0.226966  0.551085  1
  S  S6  1  0.777792  0.777090  0.776272  1
  S  S7  1  0.221043  0.223433  0.219237  1
  S  S8  1  0.274989  0.867118  0.622842  1
  S  S9  1  0.622579  0.277585  0.873438  1
  S  S10  1  0.871022  0.623284  0.274172  1
  S  S11  1  0.728246  0.130472  0.375645  1
  S  S12  1  0.377351  0.724696  0.129591  1
  S  S13  1  0.126866  0.377869  0.726808  1
