# generated using pymatgen
data_YbTh3(Al8Pd3)3
_symmetry_space_group_name_H-M   'P 1'
_cell_length_a   7.61052130
_cell_length_b   7.61415469
_cell_length_c   13.32261327
_cell_angle_alpha   84.61942084
_cell_angle_beta   100.88801418
_cell_angle_gamma   119.83456467
_symmetry_Int_Tables_number   1
_chemical_formula_structural   YbTh3(Al8Pd3)3
_chemical_formula_sum   'Yb1 Th3 Al24 Pd9'
_cell_volume   657.64031573
_cell_formula_units_Z   1
loop_
 _symmetry_equiv_pos_site_id
 _symmetry_equiv_pos_as_xyz
  1  'x, y, z'
loop_
 _atom_site_type_symbol
 _atom_site_label
 _atom_site_symmetry_multiplicity
 _atom_site_fract_x
 _atom_site_fract_y
 _atom_site_fract_z
 _atom_site_occupancy
  Yb  Yb0  1  0.233096  0.498405  0.194357  1
  Th  Th1  1  0.436832  0.830992  0.807308  1
  Th  Th2  1  0.563767  0.167928  0.193767  1
  Th  Th3  1  0.768654  0.503054  0.807233  1
  Al  Al4  1  0.477693  0.166048  0.947049  1
  Al  Al5  1  0.518408  0.830023  0.056093  1
  Al  Al6  1  0.021091  0.166495  0.559108  1
  Al  Al7  1  0.979093  0.833949  0.438398  1
  Al  Al8  1  0.351855  0.832367  0.557162  1
  Al  Al9  1  0.647439  0.166471  0.441895  1
  Al  Al10  1  0.618016  0.831265  0.332950  1
  Al  Al11  1  0.376743  0.165173  0.664192  1
  Al  Al12  1  0.054434  0.489448  0.664071  1
  Al  Al13  1  0.948623  0.510422  0.332912  1
  Al  Al14  1  0.732977  0.844363  0.662842  1
  Al  Al15  1  0.266200  0.160133  0.333946  1
  Al  Al16  1  0.149508  0.495984  0.950471  1
  Al  Al17  1  0.856136  0.503039  0.056031  1
  Al  Al18  1  0.821429  0.835822  0.958566  1
  Al  Al19  1  0.181063  0.166745  0.047357  1
  Al  Al20  1  0.312484  0.499461  0.439938  1
  Al  Al21  1  0.686387  0.501353  0.557162  1
  Al  Al22  1  0.101221  0.837648  0.183909  1
  Al  Al23  1  0.901288  0.164287  0.816436  1
  Al  Al24  1  0.302292  0.364985  0.814665  1
  Al  Al25  1  0.696081  0.632881  0.185132  1
  Al  Al26  1  0.101285  0.963620  0.815642  1
  Al  Al27  1  0.897365  0.038532  0.183946  1
  Pd  Pd28  1  0.386745  0.507202  0.637755  1
  Pd  Pd29  1  0.614410  0.493260  0.362377  1
  Pd  Pd30  1  0.171720  0.828648  0.998697  1
  Pd  Pd31  1  0.825794  0.170209  0.999332  1
  Pd  Pd32  1  0.294468  0.834407  0.362592  1
  Pd  Pd33  1  0.705035  0.166728  0.637735  1
  Pd  Pd34  1  0.046592  0.825460  0.637702  1
  Pd  Pd35  1  0.953102  0.173398  0.362256  1
  Pd  Pd36  1  0.500671  0.499797  0.999015  1
