# generated using pymatgen
data_NdSm2GeTe2
_symmetry_space_group_name_H-M   'P 1'
_cell_length_a   7.71501885
_cell_length_b   7.71501866
_cell_length_c   7.71501800
_cell_angle_alpha   146.69634266
_cell_angle_beta   132.48778085
_cell_angle_gamma   59.25584629
_symmetry_Int_Tables_number   1
_chemical_formula_structural   NdSm2GeTe2
_chemical_formula_sum   'Nd1 Sm2 Ge1 Te2'
_cell_volume   184.31600872
_cell_formula_units_Z   1
loop_
 _symmetry_equiv_pos_site_id
 _symmetry_equiv_pos_as_xyz
  1  'x, y, z'
loop_
 _atom_site_type_symbol
 _atom_site_label
 _atom_site_symmetry_multiplicity
 _atom_site_fract_x
 _atom_site_fract_y
 _atom_site_fract_z
 _atom_site_occupancy
  Nd  Nd0  1  0.500000  0.000000  0.500000  1
  Sm  Sm1  1  0.853044  0.353044  0.500000  1
  Sm  Sm2  1  0.146956  0.646956  0.500000  1
  Ge  Ge3  1  0.000000  0.000000  0.000000  1
  Te  Te4  1  0.674233  0.674233  0.000000  1
  Te  Te5  1  0.325767  0.325767  0.000000  1
