# generated using pymatgen
data_Tm4Sc6TlIn7Rh4
_symmetry_space_group_name_H-M   'P 1'
_cell_length_a   3.48808900
_cell_length_b   7.79049108
_cell_length_c   17.78047750
_cell_angle_alpha   90.06063296
_cell_angle_beta   90.00000000
_cell_angle_gamma   90.00000000
_symmetry_Int_Tables_number   1
_chemical_formula_structural   Tm4Sc6TlIn7Rh4
_chemical_formula_sum   'Tm4 Sc6 Tl1 In7 Rh4'
_cell_volume   483.16511392
_cell_formula_units_Z   1
loop_
 _symmetry_equiv_pos_site_id
 _symmetry_equiv_pos_as_xyz
  1  'x, y, z'
loop_
 _atom_site_type_symbol
 _atom_site_label
 _atom_site_symmetry_multiplicity
 _atom_site_fract_x
 _atom_site_fract_y
 _atom_site_fract_z
 _atom_site_occupancy
  Tm  Tm0  1  0.000000  0.746955  0.780360  1
  Tm  Tm1  1  0.000000  0.252655  0.219031  1
  Tm  Tm2  1  0.000000  0.247628  0.719903  1
  Tm  Tm3  1  0.000000  0.752900  0.280338  1
  Sc  Sc4  1  0.000000  0.999959  0.000036  1
  Sc  Sc5  1  0.000000  0.498757  0.500121  1
  Sc  Sc6  1  0.000000  0.878995  0.587283  1
  Sc  Sc7  1  0.000000  0.121097  0.413165  1
  Sc  Sc8  1  0.000000  0.378475  0.913585  1
  Sc  Sc9  1  0.000000  0.621443  0.086385  1
  Tl  Tl10  1  0.500000  0.798317  0.439793  1
  In  In11  1  0.500000  0.201647  0.562031  1
  In  In12  1  0.500000  0.299155  0.061547  1
  In  In13  1  0.500000  0.701050  0.938100  1
  In  In14  1  0.500000  0.928284  0.146069  1
  In  In15  1  0.500000  0.071580  0.853886  1
  In  In16  1  0.500000  0.425763  0.353233  1
  In  In17  1  0.500000  0.571156  0.646376  1
  Rh  Rh18  1  0.500000  0.963055  0.692362  1
  Rh  Rh19  1  0.500000  0.040635  0.306330  1
  Rh  Rh20  1  0.500000  0.462670  0.807795  1
  Rh  Rh21  1  0.500000  0.537825  0.192271  1
