# generated using pymatgen
data_PrNp7F30
_symmetry_space_group_name_H-M   'P 1'
_cell_length_a   8.72775465
_cell_length_b   8.73363218
_cell_length_c   8.72775529
_cell_angle_alpha   100.60615262
_cell_angle_beta   100.45842860
_cell_angle_gamma   100.60614556
_symmetry_Int_Tables_number   1
_chemical_formula_structural   PrNp7F30
_chemical_formula_sum   'Pr1 Np7 F30'
_cell_volume   626.55771672
_cell_formula_units_Z   1
loop_
 _symmetry_equiv_pos_site_id
 _symmetry_equiv_pos_as_xyz
  1  'x, y, z'
loop_
 _atom_site_type_symbol
 _atom_site_label
 _atom_site_symmetry_multiplicity
 _atom_site_fract_x
 _atom_site_fract_y
 _atom_site_fract_z
 _atom_site_occupancy
  Pr  Pr0  1  0.822578  0.250000  0.677422  1
  Np  Np1  1  0.250136  0.250000  0.249864  1
  Np  Np2  1  0.177788  0.750000  0.322212  1
  Np  Np3  1  0.249786  0.679427  0.823055  1
  Np  Np4  1  0.676945  0.820573  0.250214  1
  Np  Np5  1  0.749840  0.750000  0.750160  1
  Np  Np6  1  0.323033  0.178991  0.748226  1
  Np  Np7  1  0.751774  0.321009  0.176967  1
  F  F8  1  0.969306  0.531195  0.251923  1
  F  F9  1  0.817204  0.343573  0.437923  1
  F  F10  1  0.489636  0.717539  0.720975  1
  F  F11  1  0.340686  0.448826  0.824191  1
  F  F12  1  0.011586  0.783407  0.784728  1
  F  F13  1  0.752203  0.024684  0.460067  1
  F  F14  1  0.944790  0.834270  0.318595  1
  F  F15  1  0.220661  0.218608  0.990841  1
  F  F16  1  0.778889  0.005463  0.782495  1
  F  F17  1  0.323400  0.948067  0.838165  1
  F  F18  1  0.281479  0.284018  0.511495  1
  F  F19  1  0.446436  0.821487  0.338196  1
  F  F20  1  0.531267  0.250000  0.968733  1
  F  F21  1  0.280695  0.511437  0.282384  1
  F  F22  1  0.161804  0.678513  0.053564  1
  F  F23  1  0.842381  0.324135  0.956965  1
  F  F24  1  0.717505  0.494537  0.721111  1
  F  F25  1  0.466446  0.750000  0.033554  1
  F  F26  1  0.543035  0.175865  0.657619  1
  F  F27  1  0.715272  0.716593  0.488414  1
  F  F28  1  0.675809  0.051174  0.159314  1
  F  F29  1  0.217616  0.988563  0.219305  1
  F  F30  1  0.779025  0.782461  0.010364  1
  F  F31  1  0.062077  0.156427  0.682796  1
  F  F32  1  0.248077  0.968805  0.530694  1
  F  F33  1  0.988505  0.215982  0.218521  1
  F  F34  1  0.661835  0.551933  0.176600  1
  F  F35  1  0.509159  0.281392  0.279339  1
  F  F36  1  0.181405  0.665730  0.555210  1
  F  F37  1  0.039933  0.475316  0.747797  1
