# generated using pymatgen
data_La4ZnCoSi6
_symmetry_space_group_name_H-M   'P 1'
_cell_length_a   8.21325500
_cell_length_b   8.21325434
_cell_length_c   4.39236400
_cell_angle_alpha   90.00000000
_cell_angle_beta   90.00000000
_cell_angle_gamma   119.99999865
_symmetry_Int_Tables_number   1
_chemical_formula_structural   La4ZnCoSi6
_chemical_formula_sum   'La4 Zn1 Co1 Si6'
_cell_volume   256.60170598
_cell_formula_units_Z   1
loop_
 _symmetry_equiv_pos_site_id
 _symmetry_equiv_pos_as_xyz
  1  'x, y, z'
loop_
 _atom_site_type_symbol
 _atom_site_label
 _atom_site_symmetry_multiplicity
 _atom_site_fract_x
 _atom_site_fract_y
 _atom_site_fract_z
 _atom_site_occupancy
  La  La0  1  0.505963  0.494037  0.000000  1
  La  La1  1  0.988074  0.494037  0.000000  1
  La  La2  1  0.505963  0.011926  0.000000  1
  La  La3  1  0.000000  0.000000  0.000000  1
  Zn  Zn4  1  0.333333  0.666667  0.500000  1
  Co  Co5  1  0.666667  0.333333  0.500000  1
  Si  Si6  1  0.826585  0.653169  0.500000  1
  Si  Si7  1  0.163226  0.836774  0.500000  1
  Si  Si8  1  0.673548  0.836774  0.500000  1
  Si  Si9  1  0.163226  0.326452  0.500000  1
  Si  Si10  1  0.826585  0.173415  0.500000  1
  Si  Si11  1  0.346831  0.173415  0.500000  1
