# generated using pymatgen
data_AcCd(CuO2)4
_symmetry_space_group_name_H-M   'P 1'
_cell_length_a   6.39743428
_cell_length_b   6.39743419
_cell_length_c   6.39743418
_cell_angle_alpha   124.91897549
_cell_angle_beta   124.91898348
_cell_angle_gamma   81.67226741
_symmetry_Int_Tables_number   1
_chemical_formula_structural   AcCd(CuO2)4
_chemical_formula_sum   'Ac1 Cd1 Cu4 O8'
_cell_volume   169.40407819
_cell_formula_units_Z   1
loop_
 _symmetry_equiv_pos_site_id
 _symmetry_equiv_pos_as_xyz
  1  'x, y, z'
loop_
 _atom_site_type_symbol
 _atom_site_label
 _atom_site_symmetry_multiplicity
 _atom_site_fract_x
 _atom_site_fract_y
 _atom_site_fract_z
 _atom_site_occupancy
  Ac  Ac0  1  0.750000  0.250000  0.500000  1
  Cd  Cd1  1  0.000000  0.000000  0.000000  1
  Cu  Cu2  1  0.379635  0.631391  0.259610  1
  Cu  Cu3  1  0.368609  0.628220  0.748245  1
  Cu  Cu4  1  0.879975  0.620365  0.251755  1
  Cu  Cu5  1  0.371780  0.120025  0.740390  1
  O  O6  1  0.184464  0.611506  0.888260  1
  O  O7  1  0.723247  0.296205  0.111740  1
  O  O8  1  0.329685  0.971913  0.903223  1
  O  O9  1  0.703795  0.815536  0.427042  1
  O  O10  1  0.068691  0.426463  0.096777  1
  O  O11  1  0.388494  0.276753  0.572958  1
  O  O12  1  0.028087  0.931309  0.357773  1
  O  O13  1  0.573537  0.670315  0.642227  1
