# generated using pymatgen
data_Eu4VSn3O14
_symmetry_space_group_name_H-M   'P 1'
_cell_length_a   7.48541853
_cell_length_b   7.48541763
_cell_length_c   7.48541823
_cell_angle_alpha   59.56120454
_cell_angle_beta   59.56121226
_cell_angle_gamma   59.56120402
_symmetry_Int_Tables_number   1
_chemical_formula_structural   Eu4VSn3O14
_chemical_formula_sum   'Eu4 V1 Sn3 O14'
_cell_volume   293.61557304
_cell_formula_units_Z   1
loop_
 _symmetry_equiv_pos_site_id
 _symmetry_equiv_pos_as_xyz
  1  'x, y, z'
loop_
 _atom_site_type_symbol
 _atom_site_label
 _atom_site_symmetry_multiplicity
 _atom_site_fract_x
 _atom_site_fract_y
 _atom_site_fract_z
 _atom_site_occupancy
  Eu  Eu0  1  0.125000  0.125000  0.125000  1
  Eu  Eu1  1  0.625000  0.125000  0.125000  1
  Eu  Eu2  1  0.125000  0.625000  0.125000  1
  Eu  Eu3  1  0.125000  0.125000  0.625000  1
  V  V4  1  0.625000  0.625000  0.625000  1
  Sn  Sn5  1  0.125000  0.625000  0.625000  1
  Sn  Sn6  1  0.625000  0.125000  0.625000  1
  Sn  Sn7  1  0.625000  0.625000  0.125000  1
  O  O8  1  0.962127  0.545108  0.962127  1
  O  O9  1  0.704892  0.287873  0.287873  1
  O  O10  1  0.317954  0.694775  0.694775  1
  O  O11  1  0.694775  0.317954  0.694775  1
  O  O12  1  0.287873  0.287873  0.704892  1
  O  O13  1  0.694775  0.694775  0.317954  1
  O  O14  1  0.962127  0.962127  0.545108  1
  O  O15  1  0.545108  0.962127  0.962127  1
  O  O16  1  0.932046  0.555225  0.555225  1
  O  O17  1  0.555225  0.555225  0.932046  1
  O  O18  1  0.287873  0.704892  0.287873  1
  O  O19  1  0.555225  0.932046  0.555225  1
  O  O20  1  0.999119  0.999119  0.999119  1
  O  O21  1  0.250881  0.250881  0.250881  1
