# generated using pymatgen
data_Re4Ge(AsS)4
_symmetry_space_group_name_H-M   'P 1'
_cell_length_a   7.06112507
_cell_length_b   7.06112516
_cell_length_c   7.06112600
_cell_angle_alpha   60.00000545
_cell_angle_beta   60.00000502
_cell_angle_gamma   60.00000648
_symmetry_Int_Tables_number   1
_chemical_formula_structural   Re4Ge(AsS)4
_chemical_formula_sum   'Re4 Ge1 As4 S4'
_cell_volume   248.94696313
_cell_formula_units_Z   1
loop_
 _symmetry_equiv_pos_site_id
 _symmetry_equiv_pos_as_xyz
  1  'x, y, z'
loop_
 _atom_site_type_symbol
 _atom_site_label
 _atom_site_symmetry_multiplicity
 _atom_site_fract_x
 _atom_site_fract_y
 _atom_site_fract_z
 _atom_site_occupancy
  Re  Re0  1  0.400863  0.400863  0.400863  1
  Re  Re1  1  0.400863  0.400863  0.797412  1
  Re  Re2  1  0.400863  0.797412  0.400863  1
  Re  Re3  1  0.797412  0.400863  0.400863  1
  Ge  Ge4  1  0.000000  0.000000  0.000000  1
  As  As5  1  0.141683  0.141683  0.141683  1
  As  As6  1  0.141683  0.141683  0.574952  1
  As  As7  1  0.141683  0.574952  0.141683  1
  As  As8  1  0.574952  0.141683  0.141683  1
  S  S9  1  0.631295  0.631295  0.631295  1
  S  S10  1  0.631295  0.631295  0.106115  1
  S  S11  1  0.631295  0.106115  0.631295  1
  S  S12  1  0.106115  0.631295  0.631295  1
