# generated using pymatgen
data_Li4La3Tb(Si2Sn)2
_symmetry_space_group_name_H-M   'P 1'
_cell_length_a   9.84938790
_cell_length_b   9.84938867
_cell_length_c   6.87847200
_cell_angle_alpha   90.00000000
_cell_angle_beta   90.00000000
_cell_angle_gamma   152.95700645
_symmetry_Int_Tables_number   1
_chemical_formula_structural   Li4La3Tb(Si2Sn)2
_chemical_formula_sum   'Li4 La3 Tb1 Si4 Sn2'
_cell_volume   303.38649869
_cell_formula_units_Z   1
loop_
 _symmetry_equiv_pos_site_id
 _symmetry_equiv_pos_as_xyz
  1  'x, y, z'
loop_
 _atom_site_type_symbol
 _atom_site_label
 _atom_site_symmetry_multiplicity
 _atom_site_fract_x
 _atom_site_fract_y
 _atom_site_fract_z
 _atom_site_occupancy
  Li  Li0  1  0.816253  0.183747  0.443390  1
  Li  Li1  1  0.183256  0.816744  0.557953  1
  Li  Li2  1  0.816253  0.183747  0.056610  1
  Li  Li3  1  0.183256  0.816744  0.942047  1
  La  La4  1  0.453332  0.546668  0.250000  1
  La  La5  1  0.348026  0.651974  0.750000  1
  La  La6  1  0.652180  0.347820  0.250000  1
  Tb  Tb7  1  0.546807  0.453193  0.750000  1
  Si  Si8  1  0.944368  0.055632  0.923907  1
  Si  Si9  1  0.057183  0.942817  0.071813  1
  Si  Si10  1  0.944368  0.055632  0.576093  1
  Si  Si11  1  0.057183  0.942817  0.428187  1
  Sn  Sn12  1  0.716656  0.283344  0.750000  1
  Sn  Sn13  1  0.280880  0.719120  0.250000  1
