# generated using pymatgen
data_Zr2Ta8Si5Ge
_symmetry_space_group_name_H-M   'P 1'
_cell_length_a   7.66794520
_cell_length_b   7.70996771
_cell_length_c   7.70357757
_cell_angle_alpha   129.06577074
_cell_angle_beta   128.92853806
_cell_angle_gamma   75.13878670
_symmetry_Int_Tables_number   1
_chemical_formula_structural   Zr2Ta8Si5Ge
_chemical_formula_sum   'Zr2 Ta8 Si5 Ge1'
_cell_volume   267.64362265
_cell_formula_units_Z   1
loop_
 _symmetry_equiv_pos_site_id
 _symmetry_equiv_pos_as_xyz
  1  'x, y, z'
loop_
 _atom_site_type_symbol
 _atom_site_label
 _atom_site_symmetry_multiplicity
 _atom_site_fract_x
 _atom_site_fract_y
 _atom_site_fract_z
 _atom_site_occupancy
  Zr  Zr0  1  0.010321  0.184357  0.497110  1
  Zr  Zr1  1  0.513999  0.009787  0.826471  1
  Ta  Ta2  1  0.180974  0.686793  0.164112  1
  Ta  Ta3  1  0.486964  0.982114  0.174590  1
  Ta  Ta4  1  0.687400  0.522155  0.505829  1
  Ta  Ta5  1  0.982989  0.806212  0.494243  1
  Ta  Ta6  1  0.316284  0.485806  0.504562  1
  Ta  Ta7  1  0.811825  0.317503  0.831381  1
  Ta  Ta8  1  0.504951  0.505799  0.001741  1
  Ta  Ta9  1  0.003501  0.001628  0.998570  1
  Si  Si10  1  0.131125  0.632413  0.761040  1
  Si  Si11  1  0.631279  0.870124  0.498818  1
  Si  Si12  1  0.370883  0.130328  0.498389  1
  Si  Si13  1  0.871059  0.371963  0.240355  1
  Si  Si14  1  0.747957  0.742386  0.997498  1
  Ge  Ge15  1  0.248488  0.250633  0.005294  1
