# generated using pymatgen
data_HoPa3(Co2Sn)2
_symmetry_space_group_name_H-M   'P 1'
_cell_length_a   7.38228786
_cell_length_b   7.38228701
_cell_length_c   3.52724200
_cell_angle_alpha   90.00000000
_cell_angle_beta   90.00000000
_cell_angle_gamma   92.43279150
_symmetry_Int_Tables_number   1
_chemical_formula_structural   HoPa3(Co2Sn)2
_chemical_formula_sum   'Ho1 Pa3 Co4 Sn2'
_cell_volume   192.05497116
_cell_formula_units_Z   1
loop_
 _symmetry_equiv_pos_site_id
 _symmetry_equiv_pos_as_xyz
  1  'x, y, z'
loop_
 _atom_site_type_symbol
 _atom_site_label
 _atom_site_symmetry_multiplicity
 _atom_site_fract_x
 _atom_site_fract_y
 _atom_site_fract_z
 _atom_site_occupancy
  Ho  Ho0  1  0.829678  0.670322  0.500000  1
  Pa  Pa1  1  0.674339  0.169045  0.500000  1
  Pa  Pa2  1  0.330955  0.825661  0.500000  1
  Pa  Pa3  1  0.168897  0.331103  0.500000  1
  Co  Co4  1  0.877236  0.347004  0.000000  1
  Co  Co5  1  0.152996  0.622764  0.000000  1
  Co  Co6  1  0.355850  0.144150  0.000000  1
  Co  Co7  1  0.603375  0.896625  0.000000  1
  Sn  Sn8  1  0.508372  0.501697  0.000000  1
  Sn  Sn9  1  0.998303  0.991628  0.000000  1
