# generated using pymatgen
data_Rb3TmSb2
_symmetry_space_group_name_H-M   'P 1'
_cell_length_a   10.16288472
_cell_length_b   10.16288496
_cell_length_c   10.16288567
_cell_angle_alpha   128.38227979
_cell_angle_beta   70.22579754
_cell_angle_gamma   135.84097085
_symmetry_Int_Tables_number   1
_chemical_formula_structural   Rb3TmSb2
_chemical_formula_sum   'Rb6 Tm2 Sb4'
_cell_volume   562.07997582
_cell_formula_units_Z   2
loop_
 _symmetry_equiv_pos_site_id
 _symmetry_equiv_pos_as_xyz
  1  'x, y, z'
loop_
 _atom_site_type_symbol
 _atom_site_label
 _atom_site_symmetry_multiplicity
 _atom_site_fract_x
 _atom_site_fract_y
 _atom_site_fract_z
 _atom_site_occupancy
  Rb  Rb0  1  0.250000  0.250000  0.000000  1
  Rb  Rb1  1  0.750000  0.750000  0.000000  1
  Rb  Rb2  1  0.815338  0.297443  0.112782  1
  Rb  Rb3  1  0.684661  0.797444  0.482105  1
  Rb  Rb4  1  0.315338  0.202557  0.517895  1
  Rb  Rb5  1  0.184661  0.702557  0.887218  1
  Tm  Tm6  1  0.750000  0.250000  0.500000  1
  Tm  Tm7  1  0.250000  0.750000  0.500000  1
  Sb  Sb8  1  0.401937  0.807994  0.209930  1
  Sb  Sb9  1  0.098063  0.307994  0.406056  1
  Sb  Sb10  1  0.901937  0.692006  0.593945  1
  Sb  Sb11  1  0.598063  0.192006  0.790070  1
