# generated using pymatgen
data_Tb6Zn21PAu2
_symmetry_space_group_name_H-M   'P 1'
_cell_length_a   9.05116786
_cell_length_b   9.05116670
_cell_length_c   9.05014000
_cell_angle_alpha   60.00375224
_cell_angle_beta   60.00375651
_cell_angle_gamma   60.05965867
_symmetry_Int_Tables_number   1
_chemical_formula_structural   Tb6Zn21PAu2
_chemical_formula_sum   'Tb6 Zn21 P1 Au2'
_cell_volume   524.52908589
_cell_formula_units_Z   1
loop_
 _symmetry_equiv_pos_site_id
 _symmetry_equiv_pos_as_xyz
  1  'x, y, z'
loop_
 _atom_site_type_symbol
 _atom_site_label
 _atom_site_symmetry_multiplicity
 _atom_site_fract_x
 _atom_site_fract_y
 _atom_site_fract_z
 _atom_site_occupancy
  Tb  Tb0  1  0.712253  0.287743  0.286608  1
  Tb  Tb1  1  0.287747  0.712257  0.713392  1
  Tb  Tb2  1  0.287746  0.712251  0.286609  1
  Tb  Tb3  1  0.712254  0.287749  0.713391  1
  Tb  Tb4  1  0.286320  0.286319  0.713676  1
  Tb  Tb5  1  0.713680  0.713681  0.286324  1
  Zn  Zn6  1  0.125879  0.125879  0.123577  1
  Zn  Zn7  1  0.874121  0.874121  0.876423  1
  Zn  Zn8  1  0.125878  0.125879  0.624666  1
  Zn  Zn9  1  0.124966  0.625329  0.124853  1
  Zn  Zn10  1  0.874122  0.874121  0.375334  1
  Zn  Zn11  1  0.875034  0.374671  0.875147  1
  Zn  Zn12  1  0.625329  0.124966  0.124852  1
  Zn  Zn13  1  0.374671  0.875034  0.875148  1
  Zn  Zn14  1  0.500000  0.000000  0.000000  1
  Zn  Zn15  1  0.000000  0.500000  0.500000  1
  Zn  Zn16  1  0.000000  0.500000  0.000000  1
  Zn  Zn17  1  0.500000  0.000000  0.500000  1
  Zn  Zn18  1  0.500000  0.500000  0.000000  1
  Zn  Zn19  1  0.330942  0.330943  0.329848  1
  Zn  Zn20  1  0.669058  0.669057  0.670152  1
  Zn  Zn21  1  0.330946  0.330946  0.008261  1
  Zn  Zn22  1  0.335459  0.008076  0.328237  1
  Zn  Zn23  1  0.669054  0.669054  0.991739  1
  Zn  Zn24  1  0.664541  0.991924  0.671763  1
  Zn  Zn25  1  0.008077  0.335459  0.328235  1
  Zn  Zn26  1  0.991923  0.664541  0.671765  1
  P  P27  1  0.500000  0.500000  0.500000  1
  Au  Au28  1  0.000000  0.000000  0.500000  1
  Au  Au29  1  0.000000  0.000000  0.000000  1
