# generated using pymatgen
data_Ta8CoSiNiP
_symmetry_space_group_name_H-M   'P 1'
_cell_length_a   6.18543900
_cell_length_b   6.18543900
_cell_length_c   4.96549400
_cell_angle_alpha   90.00000000
_cell_angle_beta   90.00000000
_cell_angle_gamma   90.00000000
_symmetry_Int_Tables_number   1
_chemical_formula_structural   Ta8CoSiNiP
_chemical_formula_sum   'Ta8 Co1 Si1 Ni1 P1'
_cell_volume   189.97809044
_cell_formula_units_Z   1
loop_
 _symmetry_equiv_pos_site_id
 _symmetry_equiv_pos_as_xyz
  1  'x, y, z'
loop_
 _atom_site_type_symbol
 _atom_site_label
 _atom_site_symmetry_multiplicity
 _atom_site_fract_x
 _atom_site_fract_y
 _atom_site_fract_z
 _atom_site_occupancy
  Ta  Ta0  1  0.660511  0.158620  0.496717  1
  Ta  Ta1  1  0.339489  0.841380  0.496717  1
  Ta  Ta2  1  0.841380  0.660511  0.496717  1
  Ta  Ta3  1  0.158620  0.339489  0.496717  1
  Ta  Ta4  1  0.339489  0.158620  0.003283  1
  Ta  Ta5  1  0.660511  0.841380  0.003283  1
  Ta  Ta6  1  0.158620  0.660511  0.003283  1
  Ta  Ta7  1  0.841380  0.339489  0.003283  1
  Co  Co8  1  0.000000  0.000000  0.250000  1
  Si  Si9  1  0.000000  0.000000  0.750000  1
  Ni  Ni10  1  0.500000  0.500000  0.250000  1
  P  P11  1  0.500000  0.500000  0.750000  1
