# generated using pymatgen
data_TbSiRu2C
_symmetry_space_group_name_H-M   'P 1'
_cell_length_a   5.88087423
_cell_length_b   5.88087303
_cell_length_c   7.15824200
_cell_angle_alpha   90.00000000
_cell_angle_beta   90.00000000
_cell_angle_gamma   142.10580452
_symmetry_Int_Tables_number   1
_chemical_formula_structural   TbSiRu2C
_chemical_formula_sum   'Tb2 Si2 Ru4 C2'
_cell_volume   152.05601344
_cell_formula_units_Z   2
loop_
 _symmetry_equiv_pos_site_id
 _symmetry_equiv_pos_as_xyz
  1  'x, y, z'
loop_
 _atom_site_type_symbol
 _atom_site_label
 _atom_site_symmetry_multiplicity
 _atom_site_fract_x
 _atom_site_fract_y
 _atom_site_fract_z
 _atom_site_occupancy
  Tb  Tb0  1  0.547543  0.452457  0.250000  1
  Tb  Tb1  1  0.452457  0.547543  0.750000  1
  Si  Si2  1  0.268648  0.731352  0.250000  1
  Si  Si3  1  0.731352  0.268648  0.750000  1
  Ru  Ru4  1  0.835720  0.164280  0.057143  1
  Ru  Ru5  1  0.164280  0.835720  0.942857  1
  Ru  Ru6  1  0.164280  0.835720  0.557143  1
  Ru  Ru7  1  0.835720  0.164280  0.442857  1
  C  C8  1  0.000000  0.000000  0.000000  1
  C  C9  1  0.000000  0.000000  0.500000  1
