# generated using pymatgen
data_Y2Tm2HgRh
_symmetry_space_group_name_H-M   'P 1'
_cell_length_a   9.53497770
_cell_length_b   9.53497777
_cell_length_c   9.55383600
_cell_angle_alpha   59.93456041
_cell_angle_beta   59.93456019
_cell_angle_gamma   60.13089170
_symmetry_Int_Tables_number   1
_chemical_formula_structural   Y2Tm2HgRh
_chemical_formula_sum   'Y8 Tm8 Hg4 Rh4'
_cell_volume   614.18440811
_cell_formula_units_Z   4
loop_
 _symmetry_equiv_pos_site_id
 _symmetry_equiv_pos_as_xyz
  1  'x, y, z'
loop_
 _atom_site_type_symbol
 _atom_site_label
 _atom_site_symmetry_multiplicity
 _atom_site_fract_x
 _atom_site_fract_y
 _atom_site_fract_z
 _atom_site_occupancy
  Y  Y0  1  0.438367  0.438367  0.061633  1
  Y  Y1  1  0.061633  0.061633  0.438367  1
  Y  Y2  1  0.188128  0.811872  0.811872  1
  Y  Y3  1  0.811872  0.188128  0.188128  1
  Y  Y4  1  0.811872  0.188128  0.811872  1
  Y  Y5  1  0.188128  0.811872  0.188128  1
  Y  Y6  1  0.811440  0.811440  0.188560  1
  Y  Y7  1  0.188560  0.188560  0.811440  1
  Tm  Tm8  1  0.600823  0.600823  0.600321  1
  Tm  Tm9  1  0.600823  0.600823  0.198034  1
  Tm  Tm10  1  0.600321  0.198034  0.600823  1
  Tm  Tm11  1  0.198034  0.600321  0.600823  1
  Tm  Tm12  1  0.061095  0.438905  0.438905  1
  Tm  Tm13  1  0.438905  0.061095  0.061095  1
  Tm  Tm14  1  0.438905  0.061095  0.438905  1
  Tm  Tm15  1  0.061095  0.438905  0.061095  1
  Hg  Hg16  1  0.834179  0.834179  0.834442  1
  Hg  Hg17  1  0.834179  0.834179  0.497200  1
  Hg  Hg18  1  0.834442  0.497200  0.834179  1
  Hg  Hg19  1  0.497200  0.834442  0.834179  1
  Rh  Rh20  1  0.392043  0.392043  0.396739  1
  Rh  Rh21  1  0.392043  0.392043  0.819176  1
  Rh  Rh22  1  0.396739  0.819176  0.392043  1
  Rh  Rh23  1  0.819176  0.396739  0.392043  1
