# generated using pymatgen
data_Ce2Nd2CdHgPt4
_symmetry_space_group_name_H-M   'P 1'
_cell_length_a   7.89020503
_cell_length_b   7.89996403
_cell_length_c   3.79992800
_cell_angle_alpha   90.00000000
_cell_angle_beta   90.00000000
_cell_angle_gamma   89.99063829
_symmetry_Int_Tables_number   1
_chemical_formula_structural   Ce2Nd2CdHgPt4
_chemical_formula_sum   'Ce2 Nd2 Cd1 Hg1 Pt4'
_cell_volume   236.85838521
_cell_formula_units_Z   1
loop_
 _symmetry_equiv_pos_site_id
 _symmetry_equiv_pos_as_xyz
  1  'x, y, z'
loop_
 _atom_site_type_symbol
 _atom_site_label
 _atom_site_symmetry_multiplicity
 _atom_site_fract_x
 _atom_site_fract_y
 _atom_site_fract_z
 _atom_site_occupancy
  Ce  Ce0  1  0.827388  0.668948  0.500000  1
  Ce  Ce1  1  0.667641  0.172607  0.500000  1
  Nd  Nd2  1  0.172396  0.330656  0.500000  1
  Nd  Nd3  1  0.332074  0.825397  0.500000  1
  Cd  Cd4  1  0.001647  0.002151  0.000000  1
  Hg  Hg5  1  0.498619  0.502544  0.000000  1
  Pt  Pt6  1  0.646044  0.873053  0.000000  1
  Pt  Pt7  1  0.112047  0.633628  0.000000  1
  Pt  Pt8  1  0.861761  0.365093  0.000000  1
  Pt  Pt9  1  0.380381  0.125923  0.000000  1
