# generated using pymatgen
data_Pr4FeCo16(ReP4)3
_symmetry_space_group_name_H-M   'P 1'
_cell_length_a   3.76004900
_cell_length_b   10.50350549
_cell_length_c   11.94053637
_cell_angle_alpha   89.92187929
_cell_angle_beta   90.00000000
_cell_angle_gamma   90.00000000
_symmetry_Int_Tables_number   1
_chemical_formula_structural   Pr4FeCo16(ReP4)3
_chemical_formula_sum   'Pr4 Fe1 Co16 Re3 P12'
_cell_volume   471.57546727
_cell_formula_units_Z   1
loop_
 _symmetry_equiv_pos_site_id
 _symmetry_equiv_pos_as_xyz
  1  'x, y, z'
loop_
 _atom_site_type_symbol
 _atom_site_label
 _atom_site_symmetry_multiplicity
 _atom_site_fract_x
 _atom_site_fract_y
 _atom_site_fract_z
 _atom_site_occupancy
  Pr  Pr0  1  0.250000  0.581573  0.701684  1
  Pr  Pr1  1  0.250000  0.915666  0.203909  1
  Pr  Pr2  1  0.750000  0.415104  0.296891  1
  Pr  Pr3  1  0.750000  0.083590  0.795966  1
  Fe  Fe4  1  0.750000  0.209444  0.512270  1
  Co  Co5  1  0.250000  0.404955  0.490238  1
  Co  Co6  1  0.250000  0.095938  0.990609  1
  Co  Co7  1  0.750000  0.596356  0.508415  1
  Co  Co8  1  0.750000  0.903735  0.008674  1
  Co  Co9  1  0.250000  0.220972  0.175203  1
  Co  Co10  1  0.250000  0.277768  0.675909  1
  Co  Co11  1  0.750000  0.777557  0.824002  1
  Co  Co12  1  0.750000  0.722338  0.324756  1
  Co  Co13  1  0.250000  0.885511  0.699236  1
  Co  Co14  1  0.250000  0.614583  0.200756  1
  Co  Co15  1  0.750000  0.116854  0.302558  1
  Co  Co16  1  0.750000  0.385170  0.799818  1
  Co  Co17  1  0.250000  0.464942  0.934160  1
  Co  Co18  1  0.250000  0.034656  0.433494  1
  Co  Co19  1  0.750000  0.535433  0.067047  1
  Co  Co20  1  0.750000  0.967676  0.566589  1
  Re  Re21  1  0.250000  0.707326  0.988726  1
  Re  Re22  1  0.250000  0.792799  0.489235  1
  Re  Re23  1  0.750000  0.292037  0.010860  1
  P  P24  1  0.250000  0.418752  0.111719  1
  P  P25  1  0.250000  0.083395  0.609144  1
  P  P26  1  0.750000  0.579717  0.888520  1
  P  P27  1  0.750000  0.920615  0.389152  1
  P  P28  1  0.250000  0.275034  0.864943  1
  P  P29  1  0.250000  0.225165  0.367947  1
  P  P30  1  0.750000  0.725047  0.134731  1
  P  P31  1  0.750000  0.775783  0.633241  1
  P  P32  1  0.250000  0.599701  0.393873  1
  P  P33  1  0.250000  0.899904  0.892820  1
  P  P34  1  0.750000  0.394028  0.604647  1
  P  P35  1  0.750000  0.100873  0.108262  1
