# generated using pymatgen
data_Ta6V11Si
_symmetry_space_group_name_H-M   'P 1'
_cell_length_a   8.70463000
_cell_length_b   8.70462975
_cell_length_c   8.24789700
_cell_angle_alpha   90.00000000
_cell_angle_beta   90.00000000
_cell_angle_gamma   119.99999335
_symmetry_Int_Tables_number   1
_chemical_formula_structural   Ta6V11Si
_chemical_formula_sum   'Ta12 V22 Si2'
_cell_volume   541.22083695
_cell_formula_units_Z   2
loop_
 _symmetry_equiv_pos_site_id
 _symmetry_equiv_pos_as_xyz
  1  'x, y, z'
loop_
 _atom_site_type_symbol
 _atom_site_label
 _atom_site_symmetry_multiplicity
 _atom_site_fract_x
 _atom_site_fract_y
 _atom_site_fract_z
 _atom_site_occupancy
  Ta  Ta0  1  0.333544  0.000000  0.061406  1
  Ta  Ta1  1  0.666456  0.000000  0.938594  1
  Ta  Ta2  1  0.000000  0.333544  0.061406  1
  Ta  Ta3  1  0.666456  0.000000  0.561406  1
  Ta  Ta4  1  0.000000  0.333544  0.438594  1
  Ta  Ta5  1  0.000000  0.666456  0.938594  1
  Ta  Ta6  1  0.333544  0.000000  0.438594  1
  Ta  Ta7  1  0.000000  0.666456  0.561406  1
  Ta  Ta8  1  0.666456  0.666456  0.061406  1
  Ta  Ta9  1  0.333544  0.333544  0.938594  1
  Ta  Ta10  1  0.333544  0.333544  0.561406  1
  Ta  Ta11  1  0.666456  0.666456  0.438594  1
  V  V12  1  0.163022  0.495429  0.750000  1
  V  V13  1  0.836978  0.504571  0.250000  1
  V  V14  1  0.504571  0.667593  0.750000  1
  V  V15  1  0.495429  0.163022  0.750000  1
  V  V16  1  0.495429  0.332407  0.250000  1
  V  V17  1  0.504571  0.836978  0.250000  1
  V  V18  1  0.332407  0.836978  0.750000  1
  V  V19  1  0.667593  0.504571  0.750000  1
  V  V20  1  0.667593  0.163022  0.250000  1
  V  V21  1  0.332407  0.495429  0.250000  1
  V  V22  1  0.836978  0.332407  0.750000  1
  V  V23  1  0.163022  0.667593  0.250000  1
  V  V24  1  0.333333  0.666667  0.500000  1
  V  V25  1  0.666667  0.333333  0.500000  1
  V  V26  1  0.666667  0.333333  0.000000  1
  V  V27  1  0.333333  0.666667  0.000000  1
  V  V28  1  0.169819  0.000000  0.750000  1
  V  V29  1  0.830181  0.000000  0.250000  1
  V  V30  1  0.000000  0.169819  0.750000  1
  V  V31  1  0.000000  0.830181  0.250000  1
  V  V32  1  0.830181  0.830181  0.750000  1
  V  V33  1  0.169819  0.169819  0.250000  1
  Si  Si34  1  0.000000  0.000000  0.500000  1
  Si  Si35  1  0.000000  0.000000  0.000000  1
