# generated using pymatgen
data_AcCr(As4Os)3
_symmetry_space_group_name_H-M   'P 1'
_cell_length_a   7.51454352
_cell_length_b   7.50942448
_cell_length_c   7.51454322
_cell_angle_alpha   109.45742188
_cell_angle_beta   109.48501857
_cell_angle_gamma   109.45742323
_symmetry_Int_Tables_number   1
_chemical_formula_structural   AcCr(As4Os)3
_chemical_formula_sum   'Ac1 Cr1 As12 Os3'
_cell_volume   326.48547291
_cell_formula_units_Z   1
loop_
 _symmetry_equiv_pos_site_id
 _symmetry_equiv_pos_as_xyz
  1  'x, y, z'
loop_
 _atom_site_type_symbol
 _atom_site_label
 _atom_site_symmetry_multiplicity
 _atom_site_fract_x
 _atom_site_fract_y
 _atom_site_fract_z
 _atom_site_occupancy
  Ac  Ac0  1  0.000000  0.000000  0.000000  1
  Cr  Cr1  1  0.000000  0.500000  0.000000  1
  As  As2  1  0.348834  0.198576  0.849919  1
  As  As3  1  0.651166  0.801424  0.150081  1
  As  As4  1  0.648452  0.501012  0.848808  1
  As  As5  1  0.351548  0.498988  0.151192  1
  As  As6  1  0.200356  0.852560  0.351548  1
  As  As7  1  0.799644  0.147440  0.648452  1
  As  As8  1  0.501086  0.849743  0.651166  1
  As  As9  1  0.498914  0.150257  0.348834  1
  As  As10  1  0.848808  0.347795  0.200356  1
  As  As11  1  0.151192  0.652205  0.799644  1
  As  As12  1  0.849919  0.651343  0.501086  1
  As  As13  1  0.150081  0.348657  0.498914  1
  Os  Os14  1  0.000000  0.000000  0.500000  1
  Os  Os15  1  0.500000  0.000000  0.000000  1
  Os  Os16  1  0.500000  0.500000  0.500000  1
