# generated using pymatgen
data_Y11ThRh4
_symmetry_space_group_name_H-M   'P 1'
_cell_length_a   6.35282188
_cell_length_b   7.18234645
_cell_length_c   9.61958400
_cell_angle_alpha   90.00000000
_cell_angle_beta   90.00000000
_cell_angle_gamma   89.45865140
_symmetry_Int_Tables_number   1
_chemical_formula_structural   Y11ThRh4
_chemical_formula_sum   'Y11 Th1 Rh4'
_cell_volume   438.90440046
_cell_formula_units_Z   1
loop_
 _symmetry_equiv_pos_site_id
 _symmetry_equiv_pos_as_xyz
  1  'x, y, z'
loop_
 _atom_site_type_symbol
 _atom_site_label
 _atom_site_symmetry_multiplicity
 _atom_site_fract_x
 _atom_site_fract_y
 _atom_site_fract_z
 _atom_site_occupancy
  Y  Y0  1  0.361011  0.965011  0.750000  1
  Y  Y1  1  0.138693  0.464853  0.750000  1
  Y  Y2  1  0.861214  0.533783  0.250000  1
  Y  Y3  1  0.168641  0.177263  0.062542  1
  Y  Y4  1  0.826831  0.821661  0.934596  1
  Y  Y5  1  0.672713  0.324767  0.934528  1
  Y  Y6  1  0.826831  0.821661  0.565404  1
  Y  Y7  1  0.330956  0.679301  0.064993  1
  Y  Y8  1  0.168641  0.177263  0.437458  1
  Y  Y9  1  0.330956  0.679301  0.435007  1
  Y  Y10  1  0.672713  0.324767  0.565472  1
  Th  Th11  1  0.648655  0.042086  0.250000  1
  Rh  Rh12  1  0.448157  0.370499  0.250000  1
  Rh  Rh13  1  0.553014  0.617275  0.750000  1
  Rh  Rh14  1  0.946086  0.116385  0.750000  1
  Rh  Rh15  1  0.044888  0.884125  0.250000  1
