# generated using pymatgen
data_La4Zn4Ir2PtRh
_symmetry_space_group_name_H-M   'P 1'
_cell_length_a   4.07332600
_cell_length_b   7.51637404
_cell_length_c   16.73763709
_cell_angle_alpha   89.98790218
_cell_angle_beta   90.00000000
_cell_angle_gamma   90.00000000
_symmetry_Int_Tables_number   1
_chemical_formula_structural   La4Zn4Ir2PtRh
_chemical_formula_sum   'La8 Zn8 Ir4 Pt2 Rh2'
_cell_volume   512.45022822
_cell_formula_units_Z   2
loop_
 _symmetry_equiv_pos_site_id
 _symmetry_equiv_pos_as_xyz
  1  'x, y, z'
loop_
 _atom_site_type_symbol
 _atom_site_label
 _atom_site_symmetry_multiplicity
 _atom_site_fract_x
 _atom_site_fract_y
 _atom_site_fract_z
 _atom_site_occupancy
  La  La0  1  0.750000  0.330548  0.443938  1
  La  La1  1  0.250000  0.044638  0.715630  1
  La  La2  1  0.250000  0.553881  0.782545  1
  La  La3  1  0.250000  0.672755  0.559078  1
  La  La4  1  0.750000  0.826160  0.059630  1
  La  La5  1  0.250000  0.169555  0.943480  1
  La  La6  1  0.750000  0.456881  0.215574  1
  La  La7  1  0.750000  0.946010  0.282256  1
  Zn  Zn8  1  0.250000  0.126032  0.148496  1
  Zn  Zn9  1  0.250000  0.996982  0.440973  1
  Zn  Zn10  1  0.750000  0.870716  0.850911  1
  Zn  Zn11  1  0.750000  0.000665  0.559148  1
  Zn  Zn12  1  0.250000  0.499749  0.059301  1
  Zn  Zn13  1  0.750000  0.373513  0.648187  1
  Zn  Zn14  1  0.750000  0.503604  0.940947  1
  Zn  Zn15  1  0.250000  0.629590  0.350770  1
  Ir  Ir16  1  0.250000  0.739880  0.933807  1
  Ir  Ir17  1  0.250000  0.238962  0.565874  1
  Ir  Ir18  1  0.250000  0.747483  0.185764  1
  Ir  Ir19  1  0.750000  0.759438  0.434591  1
  Pt  Pt20  1  0.750000  0.254119  0.814024  1
  Pt  Pt21  1  0.250000  0.246278  0.313702  1
  Rh  Rh22  1  0.750000  0.260540  0.065335  1
  Rh  Rh23  1  0.750000  0.752021  0.686037  1
