# generated using pymatgen
data_NaAc(MoO4)2
_symmetry_space_group_name_H-M   'P 1'
_cell_length_a   7.16247796
_cell_length_b   7.16247723
_cell_length_c   7.16247798
_cell_angle_alpha   134.79206337
_cell_angle_beta   134.79206440
_cell_angle_gamma   65.85346498
_symmetry_Int_Tables_number   1
_chemical_formula_structural   NaAc(MoO4)2
_chemical_formula_sum   'Na1 Ac1 Mo2 O8'
_cell_volume   182.25358977
_cell_formula_units_Z   1
loop_
 _symmetry_equiv_pos_site_id
 _symmetry_equiv_pos_as_xyz
  1  'x, y, z'
loop_
 _atom_site_type_symbol
 _atom_site_label
 _atom_site_symmetry_multiplicity
 _atom_site_fract_x
 _atom_site_fract_y
 _atom_site_fract_z
 _atom_site_occupancy
  Na  Na0  1  0.000000  0.000000  0.000000  1
  Ac  Ac1  1  0.750001  0.250000  0.500001  1
  Mo  Mo2  1  0.500000  0.500000  0.000000  1
  Mo  Mo3  1  0.250000  0.750001  0.500001  1
  O  O4  1  0.028945  0.430846  0.121085  1
  O  O5  1  0.648968  0.278933  0.097186  1
  O  O6  1  0.721067  0.818252  0.370035  1
  O  O7  1  0.092141  0.971056  0.401903  1
  O  O8  1  0.569154  0.690238  0.598099  1
  O  O9  1  0.448218  0.351032  0.629966  1
  O  O10  1  0.181748  0.551784  0.902816  1
  O  O11  1  0.309763  0.907859  0.878915  1
