# generated using pymatgen
data_Rb6V3IrBr18
_symmetry_space_group_name_H-M   'P 1'
_cell_length_a   7.62547900
_cell_length_b   7.62547916
_cell_length_c   18.75823500
_cell_angle_alpha   90.00000000
_cell_angle_beta   90.00000000
_cell_angle_gamma   119.99999498
_symmetry_Int_Tables_number   1
_chemical_formula_structural   Rb6V3IrBr18
_chemical_formula_sum   'Rb6 V3 Ir1 Br18'
_cell_volume   944.61947205
_cell_formula_units_Z   1
loop_
 _symmetry_equiv_pos_site_id
 _symmetry_equiv_pos_as_xyz
  1  'x, y, z'
loop_
 _atom_site_type_symbol
 _atom_site_label
 _atom_site_symmetry_multiplicity
 _atom_site_fract_x
 _atom_site_fract_y
 _atom_site_fract_z
 _atom_site_occupancy
  Rb  Rb0  1  0.666667  0.333333  0.567206  1
  Rb  Rb1  1  0.333333  0.666667  0.067729  1
  Rb  Rb2  1  0.333333  0.666667  0.431695  1
  Rb  Rb3  1  0.666667  0.333333  0.934822  1
  Rb  Rb4  1  0.000000  0.000000  0.250147  1
  Rb  Rb5  1  0.000000  0.000000  0.749908  1
  V  V6  1  0.666667  0.333333  0.336038  1
  V  V7  1  0.333333  0.666667  0.833634  1
  V  V8  1  0.666667  0.333333  0.163997  1
  Ir  Ir9  1  0.333333  0.666667  0.670386  1
  Br  Br10  1  0.825177  0.650354  0.409092  1
  Br  Br11  1  0.178940  0.821060  0.593465  1
  Br  Br12  1  0.642120  0.821060  0.593465  1
  Br  Br13  1  0.825177  0.174823  0.409092  1
  Br  Br14  1  0.349646  0.174823  0.409092  1
  Br  Br15  1  0.175320  0.350639  0.906919  1
  Br  Br16  1  0.018151  0.509076  0.747565  1
  Br  Br17  1  0.649361  0.824680  0.906919  1
  Br  Br18  1  0.824976  0.649953  0.091083  1
  Br  Br19  1  0.178940  0.357880  0.593465  1
  Br  Br20  1  0.490924  0.981849  0.747565  1
  Br  Br21  1  0.511253  0.488747  0.250023  1
  Br  Br22  1  0.490924  0.509076  0.747565  1
  Br  Br23  1  0.175320  0.824680  0.906919  1
  Br  Br24  1  0.350047  0.175024  0.091083  1
  Br  Br25  1  0.977495  0.488747  0.250023  1
  Br  Br26  1  0.511253  0.022505  0.250023  1
  Br  Br27  1  0.824976  0.175024  0.091083  1
