# generated using pymatgen
data_Hf4Zr2In4CBr18
_symmetry_space_group_name_H-M   'P 1'
_cell_length_a   10.32751715
_cell_length_b   10.53741545
_cell_length_c   10.59786682
_cell_angle_alpha   118.37116238
_cell_angle_beta   100.05249152
_cell_angle_gamma   104.01293817
_symmetry_Int_Tables_number   1
_chemical_formula_structural   Hf4Zr2In4CBr18
_chemical_formula_sum   'Hf4 Zr2 In4 C1 Br18'
_cell_volume   926.20337642
_cell_formula_units_Z   1
loop_
 _symmetry_equiv_pos_site_id
 _symmetry_equiv_pos_as_xyz
  1  'x, y, z'
loop_
 _atom_site_type_symbol
 _atom_site_label
 _atom_site_symmetry_multiplicity
 _atom_site_fract_x
 _atom_site_fract_y
 _atom_site_fract_z
 _atom_site_occupancy
  Hf  Hf0  1  0.353958  0.443918  0.776534  1
  Hf  Hf1  1  0.364848  0.621974  0.129942  1
  Hf  Hf2  1  0.642872  0.731062  0.042525  1
  Hf  Hf3  1  0.646010  0.551869  0.221500  1
  Zr  Zr4  1  0.359124  0.268057  0.955993  1
  Zr  Zr5  1  0.632956  0.375572  0.869681  1
  In  In6  1  0.178585  0.723456  0.559968  1
  In  In7  1  0.852912  0.964802  0.775580  1
  In  In8  1  0.147436  0.036608  0.224016  1
  In  In9  1  0.820923  0.278764  0.443386  1
  C  C10  1  0.500157  0.505802  0.002896  1
  Br  Br11  1  0.822901  0.422960  0.112010  1
  Br  Br12  1  0.516273  0.703145  0.406842  1
  Br  Br13  1  0.171470  0.976165  0.899688  1
  Br  Br14  1  0.179791  0.577537  0.890851  1
  Br  Br15  1  0.828948  0.830642  0.309315  1
  Br  Br16  1  0.506334  0.297984  0.212690  1
  Br  Br17  1  0.800058  0.223270  0.707143  1
  Br  Br18  1  0.168435  0.167536  0.686812  1
  Br  Br19  1  0.508737  0.906389  0.195325  1
  Br  Br20  1  0.819150  0.629387  0.903213  1
  Br  Br21  1  0.204248  0.776928  0.289854  1
  Br  Br22  1  0.164385  0.379750  0.499843  1
  Br  Br23  1  0.495272  0.702648  0.791141  1
  Br  Br24  1  0.823258  0.020288  0.100845  1
  Br  Br25  1  0.482481  0.296834  0.589394  1
  Br  Br26  1  0.181459  0.375014  0.099328  1
  Br  Br27  1  0.835495  0.624527  0.502108  1
  Br  Br28  1  0.491524  0.087111  0.801576  1
