# generated using pymatgen
data_Ho12Ga2Tc3
_symmetry_space_group_name_H-M   'P 1'
_cell_length_a   8.31050692
_cell_length_b   8.31050761
_cell_length_c   8.31050713
_cell_angle_alpha   109.94667382
_cell_angle_beta   109.94668909
_cell_angle_gamma   108.52442836
_symmetry_Int_Tables_number   1
_chemical_formula_structural   Ho12Ga2Tc3
_chemical_formula_sum   'Ho12 Ga2 Tc3'
_cell_volume   441.74528585
_cell_formula_units_Z   1
loop_
 _symmetry_equiv_pos_site_id
 _symmetry_equiv_pos_as_xyz
  1  'x, y, z'
loop_
 _atom_site_type_symbol
 _atom_site_label
 _atom_site_symmetry_multiplicity
 _atom_site_fract_x
 _atom_site_fract_y
 _atom_site_fract_z
 _atom_site_occupancy
  Ho  Ho0  1  0.316653  0.316653  0.633306  1
  Ho  Ho1  1  0.683347  0.683347  0.366694  1
  Ho  Ho2  1  0.683347  0.316653  0.000000  1
  Ho  Ho3  1  0.316653  0.683347  0.000000  1
  Ho  Ho4  1  0.184175  0.432544  0.248369  1
  Ho  Ho5  1  0.815825  0.567456  0.751631  1
  Ho  Ho6  1  0.184175  0.935805  0.751631  1
  Ho  Ho7  1  0.935805  0.184175  0.751631  1
  Ho  Ho8  1  0.815825  0.064195  0.248369  1
  Ho  Ho9  1  0.064195  0.815825  0.248369  1
  Ho  Ho10  1  0.432544  0.184175  0.248369  1
  Ho  Ho11  1  0.567456  0.815825  0.751631  1
  Ga  Ga12  1  0.000000  0.500000  0.500000  1
  Ga  Ga13  1  0.500000  0.000000  0.500000  1
  Tc  Tc14  1  0.338336  0.338336  0.000000  1
  Tc  Tc15  1  0.661664  0.661664  0.000000  1
  Tc  Tc16  1  0.000000  0.000000  0.000000  1
