# generated using pymatgen
data_Dy3Er5Re(B8Ru)3
_symmetry_space_group_name_H-M   'P 1'
_cell_length_a   3.65224500
_cell_length_b   9.11541406
_cell_length_c   11.50221602
_cell_angle_alpha   90.12370907
_cell_angle_beta   90.00000000
_cell_angle_gamma   90.00000000
_symmetry_Int_Tables_number   1
_chemical_formula_structural   Dy3Er5Re(B8Ru)3
_chemical_formula_sum   'Dy3 Er5 Re1 B24 Ru3'
_cell_volume   382.92772519
_cell_formula_units_Z   1
loop_
 _symmetry_equiv_pos_site_id
 _symmetry_equiv_pos_as_xyz
  1  'x, y, z'
loop_
 _atom_site_type_symbol
 _atom_site_label
 _atom_site_symmetry_multiplicity
 _atom_site_fract_x
 _atom_site_fract_y
 _atom_site_fract_z
 _atom_site_occupancy
  Dy  Dy0  1  0.000000  0.322659  0.415184  1
  Dy  Dy1  1  0.000000  0.680171  0.587770  1
  Dy  Dy2  1  0.000000  0.822419  0.083438  1
  Er  Er3  1  0.000000  0.176611  0.913628  1
  Er  Er4  1  0.000000  0.943030  0.370866  1
  Er  Er5  1  0.000000  0.056647  0.628019  1
  Er  Er6  1  0.000000  0.442379  0.128405  1
  Er  Er7  1  0.000000  0.556040  0.872388  1
  Re  Re8  1  0.000000  0.862654  0.821063  1
  B  B9  1  0.500000  0.554132  0.433119  1
  B  B10  1  0.500000  0.445920  0.567377  1
  B  B11  1  0.500000  0.054117  0.067206  1
  B  B12  1  0.500000  0.947474  0.933215  1
  B  B13  1  0.500000  0.748855  0.419125  1
  B  B14  1  0.500000  0.251393  0.580825  1
  B  B15  1  0.500000  0.248511  0.080504  1
  B  B16  1  0.500000  0.750970  0.919051  1
  B  B17  1  0.500000  0.790359  0.265518  1
  B  B18  1  0.500000  0.209050  0.733919  1
  B  B19  1  0.500000  0.290822  0.234185  1
  B  B20  1  0.500000  0.708335  0.765759  1
  B  B21  1  0.500000  0.630334  0.184868  1
  B  B22  1  0.500000  0.368545  0.815063  1
  B  B23  1  0.500000  0.131220  0.315131  1
  B  B24  1  0.500000  0.869543  0.685187  1
  B  B25  1  0.500000  0.983346  0.212476  1
  B  B26  1  0.500000  0.018700  0.787490  1
  B  B27  1  0.500000  0.482972  0.287753  1
  B  B28  1  0.500000  0.516716  0.712942  1
  B  B29  1  0.500000  0.604047  0.029525  1
  B  B30  1  0.500000  0.393134  0.971061  1
  B  B31  1  0.500000  0.105583  0.470424  1
  B  B32  1  0.500000  0.895327  0.528241  1
  Ru  Ru33  1  0.000000  0.637926  0.320716  1
  Ru  Ru34  1  0.000000  0.361923  0.679161  1
  Ru  Ru35  1  0.000000  0.138131  0.179399  1
