# generated using pymatgen
data_YEr19Rh12
_symmetry_space_group_name_H-M   'P 1'
_cell_length_a   10.83464162
_cell_length_b   10.84635646
_cell_length_c   6.33133300
_cell_angle_alpha   89.92354120
_cell_angle_beta   90.03982017
_cell_angle_gamma   90.04802343
_symmetry_Int_Tables_number   1
_chemical_formula_structural   YEr19Rh12
_chemical_formula_sum   'Y1 Er19 Rh12'
_cell_volume   744.03426395
_cell_formula_units_Z   1
loop_
 _symmetry_equiv_pos_site_id
 _symmetry_equiv_pos_as_xyz
  1  'x, y, z'
loop_
 _atom_site_type_symbol
 _atom_site_label
 _atom_site_symmetry_multiplicity
 _atom_site_fract_x
 _atom_site_fract_y
 _atom_site_fract_z
 _atom_site_occupancy
  Y  Y0  1  0.089409  0.289910  0.121747  1
  Er  Er1  1  0.292899  0.087185  0.380760  1
  Er  Er2  1  0.291412  0.911301  0.880837  1
  Er  Er3  1  0.708584  0.088754  0.879870  1
  Er  Er4  1  0.708597  0.911280  0.380501  1
  Er  Er5  1  0.588762  0.791311  0.880763  1
  Er  Er6  1  0.588803  0.208841  0.380723  1
  Er  Er7  1  0.411629  0.790860  0.380310  1
  Er  Er8  1  0.411504  0.208797  0.880037  1
  Er  Er9  1  0.208647  0.412083  0.619511  1
  Er  Er10  1  0.208321  0.589933  0.119632  1
  Er  Er11  1  0.791121  0.411350  0.119833  1
  Er  Er12  1  0.790967  0.589679  0.620052  1
  Er  Er13  1  0.910563  0.708616  0.119879  1
  Er  Er14  1  0.909974  0.291989  0.619299  1
  Er  Er15  1  0.089063  0.709381  0.619815  1
  Er  Er16  1  0.999825  0.000080  0.498984  1
  Er  Er17  1  0.999369  0.998755  0.998839  1
  Er  Er18  1  0.499713  0.500439  0.999441  1
  Er  Er19  1  0.500639  0.500399  0.499900  1
  Rh  Rh20  1  0.843955  0.152054  0.251331  1
  Rh  Rh21  1  0.845924  0.845919  0.749814  1
  Rh  Rh22  1  0.154402  0.152461  0.746899  1
  Rh  Rh23  1  0.153853  0.846022  0.249845  1
  Rh  Rh24  1  0.653835  0.346415  0.750566  1
  Rh  Rh25  1  0.653951  0.653858  0.249494  1
  Rh  Rh26  1  0.348975  0.346028  0.252012  1
  Rh  Rh27  1  0.346065  0.654026  0.749741  1
  Rh  Rh28  1  0.500446  0.999567  0.126503  1
  Rh  Rh29  1  0.500309  0.999468  0.627070  1
  Rh  Rh30  1  0.999287  0.501601  0.871993  1
  Rh  Rh31  1  0.999197  0.501643  0.373999  1
