# generated using pymatgen
data_LiSeF5
_symmetry_space_group_name_H-M   'P 1'
_cell_length_a   6.74449400
_cell_length_b   6.74449400
_cell_length_c   4.85774500
_cell_angle_alpha   90.00000000
_cell_angle_beta   90.00000000
_cell_angle_gamma   90.00000000
_symmetry_Int_Tables_number   1
_chemical_formula_structural   LiSeF5
_chemical_formula_sum   'Li2 Se2 F10'
_cell_volume   220.97007279
_cell_formula_units_Z   2
loop_
 _symmetry_equiv_pos_site_id
 _symmetry_equiv_pos_as_xyz
  1  'x, y, z'
loop_
 _atom_site_type_symbol
 _atom_site_label
 _atom_site_symmetry_multiplicity
 _atom_site_fract_x
 _atom_site_fract_y
 _atom_site_fract_z
 _atom_site_occupancy
  Li  Li0  1  0.000000  0.000000  0.500000  1
  Li  Li1  1  0.500000  0.500000  0.500000  1
  Se  Se2  1  0.500000  0.000000  0.755561  1
  Se  Se3  1  0.000000  0.500000  0.244439  1
  F  F4  1  0.500000  0.000000  0.393422  1
  F  F5  1  0.224062  0.049850  0.726136  1
  F  F6  1  0.950150  0.224062  0.273864  1
  F  F7  1  0.549850  0.275938  0.726136  1
  F  F8  1  0.275938  0.450150  0.273864  1
  F  F9  1  0.000000  0.500000  0.606578  1
  F  F10  1  0.724062  0.549850  0.273864  1
  F  F11  1  0.450150  0.724062  0.726136  1
  F  F12  1  0.049850  0.775938  0.273864  1
  F  F13  1  0.775938  0.950150  0.726136  1
