# generated using pymatgen
data_MnNb6Al4CrC2
_symmetry_space_group_name_H-M   'P 1'
_cell_length_a   8.28963205
_cell_length_b   8.28963273
_cell_length_c   8.28604200
_cell_angle_alpha   60.01432775
_cell_angle_beta   60.01432503
_cell_angle_gamma   60.04035323
_symmetry_Int_Tables_number   1
_chemical_formula_structural   MnNb6Al4CrC2
_chemical_formula_sum   'Mn2 Nb12 Al8 Cr2 C4'
_cell_volume   402.83668602
_cell_formula_units_Z   2
loop_
 _symmetry_equiv_pos_site_id
 _symmetry_equiv_pos_as_xyz
  1  'x, y, z'
loop_
 _atom_site_type_symbol
 _atom_site_label
 _atom_site_symmetry_multiplicity
 _atom_site_fract_x
 _atom_site_fract_y
 _atom_site_fract_z
 _atom_site_occupancy
  Mn  Mn0  1  0.625000  0.125000  0.125000  1
  Mn  Mn1  1  0.125000  0.625000  0.125000  1
  Nb  Nb2  1  0.553226  0.945864  0.555532  1
  Nb  Nb3  1  0.304136  0.696774  0.694468  1
  Nb  Nb4  1  0.696774  0.304136  0.304621  1
  Nb  Nb5  1  0.304136  0.696774  0.304621  1
  Nb  Nb6  1  0.694742  0.694742  0.305258  1
  Nb  Nb7  1  0.303531  0.303531  0.696469  1
  Nb  Nb8  1  0.555258  0.555258  0.944742  1
  Nb  Nb9  1  0.945864  0.553226  0.555532  1
  Nb  Nb10  1  0.553226  0.945864  0.945379  1
  Nb  Nb11  1  0.946469  0.946469  0.553531  1
  Nb  Nb12  1  0.696774  0.304136  0.694468  1
  Nb  Nb13  1  0.945864  0.553226  0.945379  1
  Al  Al14  1  0.915244  0.915244  0.917129  1
  Al  Al15  1  0.998347  0.335194  0.333230  1
  Al  Al16  1  0.335194  0.998347  0.333230  1
  Al  Al17  1  0.334756  0.334756  0.997615  1
  Al  Al18  1  0.914806  0.251653  0.916770  1
  Al  Al19  1  0.915244  0.915244  0.252385  1
  Al  Al20  1  0.251653  0.914806  0.916770  1
  Al  Al21  1  0.334756  0.334756  0.332871  1
  Cr  Cr22  1  0.125000  0.125000  0.125000  1
  Cr  Cr23  1  0.125000  0.125000  0.625000  1
  C  C24  1  0.625000  0.625000  0.625000  1
  C  C25  1  0.125000  0.625000  0.625000  1
  C  C26  1  0.625000  0.125000  0.625000  1
  C  C27  1  0.625000  0.625000  0.125000  1
