# generated using pymatgen
data_TiZn(MoC)2
_symmetry_space_group_name_H-M   'P 1'
_cell_length_a   3.00372500
_cell_length_b   3.00372648
_cell_length_c   18.76999800
_cell_angle_alpha   90.00000000
_cell_angle_beta   90.00000000
_cell_angle_gamma   120.00001673
_symmetry_Int_Tables_number   1
_chemical_formula_structural   TiZn(MoC)2
_chemical_formula_sum   'Ti2 Zn2 Mo4 C4'
_cell_volume   146.66123486
_cell_formula_units_Z   2
loop_
 _symmetry_equiv_pos_site_id
 _symmetry_equiv_pos_as_xyz
  1  'x, y, z'
loop_
 _atom_site_type_symbol
 _atom_site_label
 _atom_site_symmetry_multiplicity
 _atom_site_fract_x
 _atom_site_fract_y
 _atom_site_fract_z
 _atom_site_occupancy
  Ti  Ti0  1  0.000000  0.000000  0.500000  1
  Ti  Ti1  1  0.000000  0.000000  0.000000  1
  Zn  Zn2  1  0.000000  0.000000  0.750000  1
  Zn  Zn3  1  0.000000  0.000000  0.250000  1
  Mo  Mo4  1  0.666667  0.333333  0.367278  1
  Mo  Mo5  1  0.333333  0.666667  0.867278  1
  Mo  Mo6  1  0.333333  0.666667  0.632722  1
  Mo  Mo7  1  0.666667  0.333333  0.132722  1
  C  C8  1  0.333333  0.666667  0.430962  1
  C  C9  1  0.666667  0.333333  0.930962  1
  C  C10  1  0.333333  0.666667  0.069038  1
  C  C11  1  0.666667  0.333333  0.569038  1
