# generated using pymatgen
data_Dy14ErPa(CdCo)4
_symmetry_space_group_name_H-M   'P 1'
_cell_length_a   9.45027140
_cell_length_b   9.53472886
_cell_length_c   9.45027115
_cell_angle_alpha   60.48346295
_cell_angle_beta   59.90362469
_cell_angle_gamma   60.48346178
_symmetry_Int_Tables_number   1
_chemical_formula_structural   Dy14ErPa(CdCo)4
_chemical_formula_sum   'Dy14 Er1 Pa1 Cd4 Co4'
_cell_volume   606.03167087
_cell_formula_units_Z   1
loop_
 _symmetry_equiv_pos_site_id
 _symmetry_equiv_pos_as_xyz
  1  'x, y, z'
loop_
 _atom_site_type_symbol
 _atom_site_label
 _atom_site_symmetry_multiplicity
 _atom_site_fract_x
 _atom_site_fract_y
 _atom_site_fract_z
 _atom_site_occupancy
  Dy  Dy0  1  0.688132  0.312580  0.311936  1
  Dy  Dy1  1  0.939999  0.561084  0.559744  1
  Dy  Dy2  1  0.544802  0.148506  0.152147  1
  Dy  Dy3  1  0.152147  0.148506  0.544802  1
  Dy  Dy4  1  0.937217  0.935136  0.563444  1
  Dy  Dy5  1  0.309654  0.692237  0.309654  1
  Dy  Dy6  1  0.563444  0.935136  0.937217  1
  Dy  Dy7  1  0.562832  0.936217  0.562832  1
  Dy  Dy8  1  0.687541  0.691907  0.312510  1
  Dy  Dy9  1  0.559744  0.561084  0.939999  1
  Dy  Dy10  1  0.938769  0.561092  0.938769  1
  Dy  Dy11  1  0.312510  0.691907  0.687541  1
  Dy  Dy12  1  0.154202  0.149822  0.154202  1
  Dy  Dy13  1  0.311936  0.312580  0.688132  1
  Er  Er14  1  0.686772  0.316236  0.686772  1
  Pa  Pa15  1  0.164327  0.506351  0.164327  1
  Cd  Cd16  1  0.919412  0.241498  0.919412  1
  Cd  Cd17  1  0.921280  0.916576  0.921280  1
  Cd  Cd18  1  0.920705  0.915577  0.243452  1
  Cd  Cd19  1  0.243452  0.915577  0.920705  1
  Co  Co20  1  0.343125  0.375614  0.936788  1
  Co  Co21  1  0.357939  0.922817  0.357939  1
  Co  Co22  1  0.936788  0.375614  0.343125  1
  Co  Co23  1  0.343273  0.376346  0.343273  1
