# generated using pymatgen
data_Dy5Ho3Ti11Si16Ru
_symmetry_space_group_name_H-M   'P 1'
_cell_length_a   7.03428555
_cell_length_b   7.03421782
_cell_length_c   12.90156701
_cell_angle_alpha   89.95873591
_cell_angle_beta   90.03857927
_cell_angle_gamma   89.92287340
_symmetry_Int_Tables_number   1
_chemical_formula_structural   Dy5Ho3Ti11Si16Ru
_chemical_formula_sum   'Dy5 Ho3 Ti11 Si16 Ru1'
_cell_volume   638.37763615
_cell_formula_units_Z   1
loop_
 _symmetry_equiv_pos_site_id
 _symmetry_equiv_pos_as_xyz
  1  'x, y, z'
loop_
 _atom_site_type_symbol
 _atom_site_label
 _atom_site_symmetry_multiplicity
 _atom_site_fract_x
 _atom_site_fract_y
 _atom_site_fract_z
 _atom_site_occupancy
  Dy  Dy0  1  0.159157  0.503252  0.782146  1
  Dy  Dy1  1  0.840526  0.499466  0.284943  1
  Dy  Dy2  1  0.503281  0.159160  0.217824  1
  Dy  Dy3  1  0.499488  0.840475  0.715063  1
  Dy  Dy4  1  0.341556  0.001788  0.468416  1
  Ho  Ho5  1  0.996244  0.659377  0.032610  1
  Ho  Ho6  1  0.001436  0.341830  0.531599  1
  Ho  Ho7  1  0.659381  0.996259  0.967389  1
  Ti  Ti8  1  0.344133  0.507022  0.374606  1
  Ti  Ti9  1  0.849352  0.996123  0.375786  1
  Ti  Ti10  1  0.006218  0.151590  0.124531  1
  Ti  Ti11  1  0.996106  0.849391  0.624250  1
  Ti  Ti12  1  0.507098  0.344184  0.625435  1
  Ti  Ti13  1  0.151571  0.006247  0.875468  1
  Ti  Ti14  1  0.825137  0.172629  0.748664  1
  Ti  Ti15  1  0.172523  0.825113  0.251297  1
  Ti  Ti16  1  0.326124  0.326138  0.999998  1
  Ti  Ti17  1  0.493090  0.651389  0.127780  1
  Ti  Ti18  1  0.651420  0.493124  0.872191  1
  Si  Si19  1  0.046481  0.712420  0.435535  1
  Si  Si20  1  0.952086  0.291452  0.934572  1
  Si  Si21  1  0.713061  0.046893  0.564554  1
  Si  Si22  1  0.207741  0.453226  0.184142  1
  Si  Si23  1  0.790580  0.549674  0.681837  1
  Si  Si24  1  0.453144  0.207768  0.815861  1
  Si  Si25  1  0.549916  0.790352  0.317990  1
  Si  Si26  1  0.291439  0.952076  0.065464  1
  Si  Si27  1  0.797607  0.868279  0.184826  1
  Si  Si28  1  0.300078  0.626438  0.565785  1
  Si  Si29  1  0.703561  0.369237  0.065328  1
  Si  Si30  1  0.627082  0.300455  0.434337  1
  Si  Si31  1  0.369248  0.703530  0.934664  1
  Si  Si32  1  0.130966  0.203548  0.316039  1
  Si  Si33  1  0.203275  0.131284  0.683888  1
  Si  Si34  1  0.868290  0.797529  0.815159  1
  Ru  Ru35  1  0.671607  0.671283  0.500023  1
