# generated using pymatgen
data_UIn2Br5
_symmetry_space_group_name_H-M   'P 1'
_cell_length_a   8.70624300
_cell_length_b   9.14410500
_cell_length_c   13.79297100
_cell_angle_alpha   90.00000000
_cell_angle_beta   90.00000000
_cell_angle_gamma   90.00000000
_symmetry_Int_Tables_number   1
_chemical_formula_structural   UIn2Br5
_chemical_formula_sum   'U4 In8 Br20'
_cell_volume   1098.06945772
_cell_formula_units_Z   4
loop_
 _symmetry_equiv_pos_site_id
 _symmetry_equiv_pos_as_xyz
  1  'x, y, z'
loop_
 _atom_site_type_symbol
 _atom_site_label
 _atom_site_symmetry_multiplicity
 _atom_site_fract_x
 _atom_site_fract_y
 _atom_site_fract_z
 _atom_site_occupancy
  U  U0  1  0.925461  0.750000  0.502794  1
  U  U1  1  0.574539  0.750000  0.002794  1
  U  U2  1  0.074539  0.250000  0.497206  1
  U  U3  1  0.425461  0.250000  0.997206  1
  In  In4  1  0.452519  0.503598  0.674586  1
  In  In5  1  0.952519  0.496402  0.825414  1
  In  In6  1  0.547481  0.003598  0.325414  1
  In  In7  1  0.047481  0.996402  0.174586  1
  In  In8  1  0.547481  0.496402  0.325414  1
  In  In9  1  0.047481  0.503598  0.174586  1
  In  In10  1  0.452519  0.996402  0.674586  1
  In  In11  1  0.952519  0.003598  0.825414  1
  Br  Br12  1  0.578180  0.750000  0.504708  1
  Br  Br13  1  0.338206  0.955072  0.920082  1
  Br  Br14  1  0.838206  0.044928  0.579918  1
  Br  Br15  1  0.661794  0.455072  0.079918  1
  Br  Br16  1  0.078180  0.250000  0.995292  1
  Br  Br17  1  0.664649  0.750000  0.796048  1
  Br  Br18  1  0.921820  0.750000  0.004708  1
  Br  Br19  1  0.421820  0.250000  0.495292  1
  Br  Br20  1  0.115852  0.750000  0.682096  1
  Br  Br21  1  0.164649  0.250000  0.703952  1
  Br  Br22  1  0.335351  0.250000  0.203952  1
  Br  Br23  1  0.835351  0.750000  0.296048  1
  Br  Br24  1  0.661794  0.044928  0.079918  1
  Br  Br25  1  0.615852  0.250000  0.817904  1
  Br  Br26  1  0.884148  0.250000  0.317904  1
  Br  Br27  1  0.384148  0.750000  0.182096  1
  Br  Br28  1  0.838206  0.455072  0.579918  1
  Br  Br29  1  0.338206  0.544928  0.920082  1
  Br  Br30  1  0.161794  0.955072  0.420082  1
  Br  Br31  1  0.161794  0.544928  0.420082  1
