# generated using pymatgen
data_PrSmHo2(Mo2O7)2
_symmetry_space_group_name_H-M   'P 1'
_cell_length_a   7.39712287
_cell_length_b   7.39712204
_cell_length_c   7.51917051
_cell_angle_alpha   60.04529335
_cell_angle_beta   60.04529922
_cell_angle_gamma   59.49419794
_symmetry_Int_Tables_number   1
_chemical_formula_structural   PrSmHo2(Mo2O7)2
_chemical_formula_sum   'Pr1 Sm1 Ho2 Mo4 O14'
_cell_volume   289.99307774
_cell_formula_units_Z   1
loop_
 _symmetry_equiv_pos_site_id
 _symmetry_equiv_pos_as_xyz
  1  'x, y, z'
loop_
 _atom_site_type_symbol
 _atom_site_label
 _atom_site_symmetry_multiplicity
 _atom_site_fract_x
 _atom_site_fract_y
 _atom_site_fract_z
 _atom_site_occupancy
  Pr  Pr0  1  0.125000  0.125000  0.625000  1
  Sm  Sm1  1  0.125000  0.125000  0.125000  1
  Ho  Ho2  1  0.625000  0.125000  0.125000  1
  Ho  Ho3  1  0.125000  0.625000  0.125000  1
  Mo  Mo4  1  0.625000  0.625000  0.625000  1
  Mo  Mo5  1  0.125000  0.625000  0.625000  1
  Mo  Mo6  1  0.625000  0.125000  0.625000  1
  Mo  Mo7  1  0.625000  0.625000  0.125000  1
  O  O8  1  0.288649  0.288649  0.716928  1
  O  O9  1  0.287754  0.706694  0.286504  1
  O  O10  1  0.962246  0.543306  0.963496  1
  O  O11  1  0.706694  0.287754  0.286504  1
  O  O12  1  0.995475  0.995475  0.006584  1
  O  O13  1  0.533549  0.533549  0.964128  1
  O  O14  1  0.288331  0.702919  0.717929  1
  O  O15  1  0.547081  0.961669  0.532071  1
  O  O16  1  0.543306  0.962246  0.963496  1
  O  O17  1  0.716451  0.716451  0.285872  1
  O  O18  1  0.254525  0.254525  0.243416  1
  O  O19  1  0.961351  0.961351  0.533072  1
  O  O20  1  0.961669  0.547081  0.532071  1
  O  O21  1  0.702919  0.288331  0.717929  1
