# generated using pymatgen
data_Nd2Ho2Sn10PdRh5
_symmetry_space_group_name_H-M   'P 1'
_cell_length_a   13.55542466
_cell_length_b   13.55542503
_cell_length_c   7.30661615
_cell_angle_alpha   89.87443444
_cell_angle_beta   90.12556678
_cell_angle_gamma   161.01170870
_symmetry_Int_Tables_number   1
_chemical_formula_structural   Nd2Ho2Sn10PdRh5
_chemical_formula_sum   'Nd2 Ho2 Sn10 Pd1 Rh5'
_cell_volume   436.84318960
_cell_formula_units_Z   1
loop_
 _symmetry_equiv_pos_site_id
 _symmetry_equiv_pos_as_xyz
  1  'x, y, z'
loop_
 _atom_site_type_symbol
 _atom_site_label
 _atom_site_symmetry_multiplicity
 _atom_site_fract_x
 _atom_site_fract_y
 _atom_site_fract_z
 _atom_site_occupancy
  Nd  Nd0  1  0.172969  0.827031  0.746336  1
  Nd  Nd1  1  0.827613  0.172387  0.246845  1
  Ho  Ho2  1  0.474779  0.525221  0.757388  1
  Ho  Ho3  1  0.523236  0.476764  0.264864  1
  Sn  Sn4  1  0.881278  0.118722  0.769479  1
  Sn  Sn5  1  0.119791  0.880209  0.272900  1
  Sn  Sn6  1  0.704658  0.295342  0.451014  1
  Sn  Sn7  1  0.296494  0.703506  0.949865  1
  Sn  Sn8  1  0.595850  0.404150  0.879997  1
  Sn  Sn9  1  0.404629  0.595371  0.385348  1
  Sn  Sn10  1  0.952076  0.047924  0.104309  1
  Sn  Sn11  1  0.046500  0.953500  0.597058  1
  Sn  Sn12  1  0.290346  0.709654  0.526234  1
  Sn  Sn13  1  0.710301  0.289699  0.026159  1
  Pd  Pd14  1  0.049415  0.950585  0.984118  1
  Rh  Rh15  1  0.949780  0.050220  0.483648  1
  Rh  Rh16  1  0.777411  0.222589  0.737936  1
  Rh  Rh17  1  0.222328  0.777672  0.237053  1
  Rh  Rh18  1  0.395939  0.604061  0.013060  1
  Rh  Rh19  1  0.604609  0.395391  0.510392  1
