# generated using pymatgen
data_Y5Ho(Ir7Rh2)2
_symmetry_space_group_name_H-M   'P 1'
_cell_length_a   5.30896800
_cell_length_b   5.30896960
_cell_length_c   17.46802300
_cell_angle_alpha   90.00000000
_cell_angle_beta   90.00000000
_cell_angle_gamma   119.99999005
_symmetry_Int_Tables_number   1
_chemical_formula_structural   Y5Ho(Ir7Rh2)2
_chemical_formula_sum   'Y5 Ho1 Ir14 Rh4'
_cell_volume   426.37798831
_cell_formula_units_Z   1
loop_
 _symmetry_equiv_pos_site_id
 _symmetry_equiv_pos_as_xyz
  1  'x, y, z'
loop_
 _atom_site_type_symbol
 _atom_site_label
 _atom_site_symmetry_multiplicity
 _atom_site_fract_x
 _atom_site_fract_y
 _atom_site_fract_z
 _atom_site_occupancy
  Y  Y0  1  0.666667  0.333333  0.040884  1
  Y  Y1  1  0.666667  0.333333  0.459009  1
  Y  Y2  1  0.333333  0.666667  0.541025  1
  Y  Y3  1  0.333333  0.666667  0.750064  1
  Y  Y4  1  0.666667  0.333333  0.249996  1
  Ho  Ho5  1  0.333333  0.666667  0.958835  1
  Ir  Ir6  1  0.167527  0.832473  0.374195  1
  Ir  Ir7  1  0.167527  0.335053  0.374195  1
  Ir  Ir8  1  0.664947  0.832473  0.374195  1
  Ir  Ir9  1  0.832451  0.167549  0.625812  1
  Ir  Ir10  1  0.832451  0.664902  0.625812  1
  Ir  Ir11  1  0.335098  0.167549  0.625812  1
  Ir  Ir12  1  0.832448  0.167552  0.874417  1
  Ir  Ir13  1  0.832448  0.664895  0.874417  1
  Ir  Ir14  1  0.335105  0.167552  0.874417  1
  Ir  Ir15  1  0.167613  0.832387  0.125682  1
  Ir  Ir16  1  0.167613  0.335226  0.125682  1
  Ir  Ir17  1  0.664774  0.832387  0.125682  1
  Ir  Ir18  1  0.000000  0.000000  0.499982  1
  Ir  Ir19  1  0.000000  0.000000  0.999921  1
  Rh  Rh20  1  0.333333  0.666667  0.250022  1
  Rh  Rh21  1  0.666667  0.333333  0.749973  1
  Rh  Rh22  1  0.000000  0.000000  0.249993  1
  Rh  Rh23  1  0.000000  0.000000  0.749978  1
