# generated using pymatgen
data_CrOs7
_symmetry_space_group_name_H-M   'P 1'
_cell_length_a   5.47903700
_cell_length_b   5.47903705
_cell_length_c   4.33152500
_cell_angle_alpha   90.00000000
_cell_angle_beta   90.00000000
_cell_angle_gamma   120.00000573
_symmetry_Int_Tables_number   1
_chemical_formula_structural   CrOs7
_chemical_formula_sum   'Cr1 Os7'
_cell_volume   112.61076335
_cell_formula_units_Z   1
loop_
 _symmetry_equiv_pos_site_id
 _symmetry_equiv_pos_as_xyz
  1  'x, y, z'
loop_
 _atom_site_type_symbol
 _atom_site_label
 _atom_site_symmetry_multiplicity
 _atom_site_fract_x
 _atom_site_fract_y
 _atom_site_fract_z
 _atom_site_occupancy
  Cr  Cr0  1  0.666667  0.333333  0.250000  1
  Os  Os1  1  0.333333  0.666667  0.750000  1
  Os  Os2  1  0.831036  0.168964  0.750000  1
  Os  Os3  1  0.337928  0.168964  0.750000  1
  Os  Os4  1  0.663653  0.831827  0.250000  1
  Os  Os5  1  0.168173  0.831827  0.250000  1
  Os  Os6  1  0.831036  0.662072  0.750000  1
  Os  Os7  1  0.168173  0.336347  0.250000  1
