# generated using pymatgen
data_Zr3Si2AsOs3
_symmetry_space_group_name_H-M   'P 1'
_cell_length_a   6.65597900
_cell_length_b   6.65597934
_cell_length_c   3.85138100
_cell_angle_alpha   90.00000000
_cell_angle_beta   90.00000000
_cell_angle_gamma   120.00000330
_symmetry_Int_Tables_number   1
_chemical_formula_structural   Zr3Si2AsOs3
_chemical_formula_sum   'Zr3 Si2 As1 Os3'
_cell_volume   147.76480631
_cell_formula_units_Z   1
loop_
 _symmetry_equiv_pos_site_id
 _symmetry_equiv_pos_as_xyz
  1  'x, y, z'
loop_
 _atom_site_type_symbol
 _atom_site_label
 _atom_site_symmetry_multiplicity
 _atom_site_fract_x
 _atom_site_fract_y
 _atom_site_fract_z
 _atom_site_occupancy
  Zr  Zr0  1  0.007507  0.421690  0.500000  1
  Zr  Zr1  1  0.578310  0.585817  0.500000  1
  Zr  Zr2  1  0.414183  0.992493  0.500000  1
  Si  Si3  1  0.333333  0.666667  0.000000  1
  Si  Si4  1  0.000000  0.000000  0.500000  1
  As  As5  1  0.666667  0.333333  0.000000  1
  Os  Os6  1  0.006010  0.761656  0.000000  1
  Os  Os7  1  0.238344  0.244354  0.000000  1
  Os  Os8  1  0.755646  0.993990  0.000000  1
