# generated using pymatgen
data_Tb9Dy3Co4SnRu
_symmetry_space_group_name_H-M   'P 1'
_cell_length_a   8.34304612
_cell_length_b   8.34304546
_cell_length_c   8.34439130
_cell_angle_alpha   106.62068207
_cell_angle_beta   110.64866207
_cell_angle_gamma   111.17552173
_symmetry_Int_Tables_number   1
_chemical_formula_structural   Tb9Dy3Co4SnRu
_chemical_formula_sum   'Tb9 Dy3 Co4 Sn1 Ru1'
_cell_volume   446.31884628
_cell_formula_units_Z   1
loop_
 _symmetry_equiv_pos_site_id
 _symmetry_equiv_pos_as_xyz
  1  'x, y, z'
loop_
 _atom_site_type_symbol
 _atom_site_label
 _atom_site_symmetry_multiplicity
 _atom_site_fract_x
 _atom_site_fract_y
 _atom_site_fract_z
 _atom_site_occupancy
  Tb  Tb0  1  0.474995  0.289409  0.185461  1
  Tb  Tb1  1  0.103613  0.289070  0.814804  1
  Tb  Tb2  1  0.896052  0.710466  0.185461  1
  Tb  Tb3  1  0.525735  0.711191  0.814804  1
  Tb  Tb4  1  0.306560  0.619624  0.312535  1
  Tb  Tb5  1  0.306575  0.993539  0.687410  1
  Tb  Tb6  1  0.693872  0.380836  0.687410  1
  Tb  Tb7  1  0.692911  0.005976  0.312535  1
  Tb  Tb8  1  0.192954  0.212059  0.405011  1
  Dy  Dy9  1  0.806720  0.787689  0.594411  1
  Dy  Dy10  1  0.193010  0.787783  0.980791  1
  Dy  Dy11  1  0.806603  0.212304  0.018907  1
  Co  Co12  1  0.499906  0.611295  0.111202  1
  Co  Co13  1  0.500689  0.389068  0.889757  1
  Co  Co14  1  0.379243  0.999778  0.379022  1
  Co  Co15  1  0.621587  0.000165  0.621752  1
  Sn  Sn16  1  0.999723  0.500165  0.499889  1
  Ru  Ru17  1  0.999253  0.999582  0.998835  1
