# generated using pymatgen
data_TbEr3Th6(Si3C)2
_symmetry_space_group_name_H-M   'P 1'
_cell_length_a   8.73401900
_cell_length_b   8.73401846
_cell_length_c   6.35754100
_cell_angle_alpha   90.00000000
_cell_angle_beta   90.00000000
_cell_angle_gamma   119.99999825
_symmetry_Int_Tables_number   1
_chemical_formula_structural   TbEr3Th6(Si3C)2
_chemical_formula_sum   'Tb1 Er3 Th6 Si6 C2'
_cell_volume   419.99879755
_cell_formula_units_Z   1
loop_
 _symmetry_equiv_pos_site_id
 _symmetry_equiv_pos_as_xyz
  1  'x, y, z'
loop_
 _atom_site_type_symbol
 _atom_site_label
 _atom_site_symmetry_multiplicity
 _atom_site_fract_x
 _atom_site_fract_y
 _atom_site_fract_z
 _atom_site_occupancy
  Tb  Tb0  1  0.666667  0.333333  0.000000  1
  Er  Er1  1  0.333333  0.666667  0.000000  1
  Er  Er2  1  0.333333  0.666667  0.500000  1
  Er  Er3  1  0.666667  0.333333  0.500000  1
  Th  Th4  1  0.766328  0.766542  0.749727  1
  Th  Th5  1  0.233458  0.999785  0.749727  1
  Th  Th6  1  0.000215  0.233672  0.749727  1
  Th  Th7  1  0.233458  0.233672  0.250273  1
  Th  Th8  1  0.766328  0.999785  0.250273  1
  Th  Th9  1  0.000215  0.766542  0.250273  1
  Si  Si10  1  0.401986  0.402794  0.749362  1
  Si  Si11  1  0.597206  0.999192  0.749362  1
  Si  Si12  1  0.000808  0.598014  0.749362  1
  Si  Si13  1  0.597206  0.598014  0.250638  1
  Si  Si14  1  0.401986  0.999192  0.250638  1
  Si  Si15  1  0.000808  0.402794  0.250638  1
  C  C16  1  0.000000  0.000000  0.000000  1
  C  C17  1  0.000000  0.000000  0.500000  1
