# generated using pymatgen
data_Cs6TbLu2Sb7S18
_symmetry_space_group_name_H-M   'P 1'
_cell_length_a   13.59832693
_cell_length_b   13.59832738
_cell_length_c   9.43791458
_cell_angle_alpha   84.33927277
_cell_angle_beta   84.33927458
_cell_angle_gamma   140.19746031
_symmetry_Int_Tables_number   1
_chemical_formula_structural   Cs6TbLu2Sb7S18
_chemical_formula_sum   'Cs6 Tb1 Lu2 Sb7 S18'
_cell_volume   1069.25239608
_cell_formula_units_Z   1
loop_
 _symmetry_equiv_pos_site_id
 _symmetry_equiv_pos_as_xyz
  1  'x, y, z'
loop_
 _atom_site_type_symbol
 _atom_site_label
 _atom_site_symmetry_multiplicity
 _atom_site_fract_x
 _atom_site_fract_y
 _atom_site_fract_z
 _atom_site_occupancy
  Cs  Cs0  1  0.420743  0.579257  0.500000  1
  Cs  Cs1  1  0.581204  0.418796  0.500000  1
  Cs  Cs2  1  0.015477  0.452188  0.238919  1
  Cs  Cs3  1  0.446202  0.014357  0.242488  1
  Cs  Cs4  1  0.985643  0.553798  0.757512  1
  Cs  Cs5  1  0.547812  0.984523  0.761081  1
  Tb  Tb6  1  0.923655  0.076345  0.500000  1
  Lu  Lu7  1  0.423626  0.576374  0.000000  1
  Lu  Lu8  1  0.576584  0.423416  0.000000  1
  Sb  Sb9  1  0.071805  0.928195  0.500000  1
  Sb  Sb10  1  0.035572  0.278157  0.839319  1
  Sb  Sb11  1  0.279614  0.034298  0.838106  1
  Sb  Sb12  1  0.965702  0.720386  0.161894  1
  Sb  Sb13  1  0.721843  0.964428  0.160681  1
  Sb  Sb14  1  0.868961  0.869954  0.882172  1
  Sb  Sb15  1  0.130046  0.131039  0.117828  1
  S  S16  1  0.128234  0.126534  0.619406  1
  S  S17  1  0.873466  0.871766  0.380594  1
  S  S18  1  0.808672  0.191328  0.000000  1
  S  S19  1  0.192639  0.807361  0.000000  1
  S  S20  1  0.251217  0.556293  0.846517  1
  S  S21  1  0.557474  0.251539  0.850196  1
  S  S22  1  0.748461  0.442526  0.149804  1
  S  S23  1  0.443707  0.748783  0.153483  1
  S  S24  1  0.996497  0.310356  0.600455  1
  S  S25  1  0.318311  0.999116  0.602394  1
  S  S26  1  0.000884  0.681689  0.397606  1
  S  S27  1  0.689644  0.003503  0.399545  1
  S  S28  1  0.370559  0.370812  0.886865  1
  S  S29  1  0.629188  0.629441  0.113135  1
  S  S30  1  0.692325  0.843938  0.774162  1
  S  S31  1  0.840995  0.692823  0.775491  1
  S  S32  1  0.307177  0.159005  0.224509  1
  S  S33  1  0.156062  0.307675  0.225838  1
