# generated using pymatgen
data_Tm2BIrRh5
_symmetry_space_group_name_H-M   'P 1'
_cell_length_a   5.80563577
_cell_length_b   5.79026738
_cell_length_c   5.79026845
_cell_angle_alpha   60.17567697
_cell_angle_beta   59.91215791
_cell_angle_gamma   59.91216580
_symmetry_Int_Tables_number   1
_chemical_formula_structural   Tm2BIrRh5
_chemical_formula_sum   'Tm2 B1 Ir1 Rh5'
_cell_volume   137.63407641
_cell_formula_units_Z   1
loop_
 _symmetry_equiv_pos_site_id
 _symmetry_equiv_pos_as_xyz
  1  'x, y, z'
loop_
 _atom_site_type_symbol
 _atom_site_label
 _atom_site_symmetry_multiplicity
 _atom_site_fract_x
 _atom_site_fract_y
 _atom_site_fract_z
 _atom_site_occupancy
  Tm  Tm0  1  0.250046  0.249954  0.249954  1
  Tm  Tm1  1  0.750046  0.749954  0.749954  1
  B  B2  1  0.500715  0.499285  0.499285  1
  Ir  Ir3  1  0.758164  0.241835  0.241835  1
  Rh  Rh4  1  0.241394  0.758605  0.242166  1
  Rh  Rh5  1  0.757833  0.758605  0.242166  1
  Rh  Rh6  1  0.241394  0.242166  0.758605  1
  Rh  Rh7  1  0.757833  0.242166  0.758605  1
  Rh  Rh8  1  0.242573  0.757426  0.757426  1
