# generated using pymatgen
data_Zr3GaRe3SiP
_symmetry_space_group_name_H-M   'P 1'
_cell_length_a   7.02836700
_cell_length_b   7.02836606
_cell_length_c   3.42781800
_cell_angle_alpha   90.00000000
_cell_angle_beta   90.00000000
_cell_angle_gamma   120.00000911
_symmetry_Int_Tables_number   1
_chemical_formula_structural   Zr3GaRe3SiP
_chemical_formula_sum   'Zr3 Ga1 Re3 Si1 P1'
_cell_volume   146.64158662
_cell_formula_units_Z   1
loop_
 _symmetry_equiv_pos_site_id
 _symmetry_equiv_pos_as_xyz
  1  'x, y, z'
loop_
 _atom_site_type_symbol
 _atom_site_label
 _atom_site_symmetry_multiplicity
 _atom_site_fract_x
 _atom_site_fract_y
 _atom_site_fract_z
 _atom_site_occupancy
  Zr  Zr0  1  0.398702  0.408417  0.500000  1
  Zr  Zr1  1  0.591583  0.990286  0.500000  1
  Zr  Zr2  1  0.009714  0.601298  0.500000  1
  Ga  Ga3  1  0.666667  0.333333  0.000000  1
  Re  Re4  1  0.743100  0.751775  0.000000  1
  Re  Re5  1  0.248225  0.991325  0.000000  1
  Re  Re6  1  0.008675  0.256900  0.000000  1
  Si  Si7  1  0.000000  0.000000  0.500000  1
  P  P8  1  0.333333  0.666667  0.000000  1
