# generated using pymatgen
data_CaPrSm5CoI12
_symmetry_space_group_name_H-M   'P 1'
_cell_length_a   9.87223860
_cell_length_b   9.96286914
_cell_length_c   9.96361538
_cell_angle_alpha   106.88366684
_cell_angle_beta   107.13532515
_cell_angle_gamma   106.74058223
_symmetry_Int_Tables_number   1
_chemical_formula_structural   CaPrSm5CoI12
_chemical_formula_sum   'Ca1 Pr1 Sm5 Co1 I12'
_cell_volume   817.90631999
_cell_formula_units_Z   1
loop_
 _symmetry_equiv_pos_site_id
 _symmetry_equiv_pos_as_xyz
  1  'x, y, z'
loop_
 _atom_site_type_symbol
 _atom_site_label
 _atom_site_symmetry_multiplicity
 _atom_site_fract_x
 _atom_site_fract_y
 _atom_site_fract_z
 _atom_site_occupancy
  Ca  Ca0  1  0.500172  0.499811  0.499952  1
  Pr  Pr1  1  0.709675  0.975547  0.905080  1
  Sm  Sm2  1  0.974592  0.901521  0.699315  1
  Sm  Sm3  1  0.025614  0.098565  0.301003  1
  Sm  Sm4  1  0.099500  0.300828  0.026104  1
  Sm  Sm5  1  0.285413  0.024574  0.093882  1
  Sm  Sm6  1  0.902567  0.699798  0.974445  1
  Co  Co7  1  0.000125  0.000481  0.000201  1
  I  I8  1  0.538913  0.614655  0.844224  1
  I  I9  1  0.460384  0.379254  0.154736  1
  I  I10  1  0.317618  0.927229  0.776724  1
  I  I11  1  0.381557  0.153977  0.458502  1
  I  I12  1  0.927152  0.775565  0.318869  1
  I  I13  1  0.681196  0.074271  0.229066  1
  I  I14  1  0.073072  0.224536  0.681152  1
  I  I15  1  0.776806  0.323873  0.927518  1
  I  I16  1  0.227059  0.682442  0.073860  1
  I  I17  1  0.847857  0.541319  0.620175  1
  I  I18  1  0.152529  0.458848  0.379726  1
  I  I19  1  0.618198  0.842905  0.535468  1
