# generated using pymatgen
data_Ti4MnRu3
_symmetry_space_group_name_H-M   'P 1'
_cell_length_a   3.05505301
_cell_length_b   4.34248416
_cell_length_c   9.67478147
_cell_angle_alpha   63.30114450
_cell_angle_beta   89.99768490
_cell_angle_gamma   90.00245768
_symmetry_Int_Tables_number   1
_chemical_formula_structural   Ti4MnRu3
_chemical_formula_sum   'Ti4 Mn1 Ru3'
_cell_volume   114.66597257
_cell_formula_units_Z   1
loop_
 _symmetry_equiv_pos_site_id
 _symmetry_equiv_pos_as_xyz
  1  'x, y, z'
loop_
 _atom_site_type_symbol
 _atom_site_label
 _atom_site_symmetry_multiplicity
 _atom_site_fract_x
 _atom_site_fract_y
 _atom_site_fract_z
 _atom_site_occupancy
  Ti  Ti0  1  0.724388  0.213256  0.706921  1
  Ti  Ti1  1  0.722453  0.971926  0.448392  1
  Ti  Ti2  1  0.721922  0.454867  0.965447  1
  Ti  Ti3  1  0.721438  0.713508  0.206923  1
  Mn  Mn4  1  0.221397  0.213476  0.206922  1
  Ru  Ru5  1  0.222643  0.464388  0.455839  1
  Ru  Ru6  1  0.223653  0.713230  0.706916  1
  Ru  Ru7  1  0.222322  0.962235  0.958011  1
