# generated using pymatgen
data_HoZrMnFe11P7
_symmetry_space_group_name_H-M   'P 1'
_cell_length_a   8.92009420
_cell_length_b   8.92117497
_cell_length_c   3.60525200
_cell_angle_alpha   90.00000000
_cell_angle_beta   90.00000000
_cell_angle_gamma   119.97189206
_symmetry_Int_Tables_number   1
_chemical_formula_structural   HoZrMnFe11P7
_chemical_formula_sum   'Ho1 Zr1 Mn1 Fe11 P7'
_cell_volume   248.53107228
_cell_formula_units_Z   1
loop_
 _symmetry_equiv_pos_site_id
 _symmetry_equiv_pos_as_xyz
  1  'x, y, z'
loop_
 _atom_site_type_symbol
 _atom_site_label
 _atom_site_symmetry_multiplicity
 _atom_site_fract_x
 _atom_site_fract_y
 _atom_site_fract_z
 _atom_site_occupancy
  Ho  Ho0  1  0.333927  0.666221  0.500000  1
  Zr  Zr1  1  0.667989  0.334558  0.000000  1
  Mn  Mn2  1  0.116441  0.898926  0.500000  1
  Fe  Fe3  1  0.055222  0.426192  0.000000  1
  Fe  Fe4  1  0.572230  0.627922  0.000000  1
  Fe  Fe5  1  0.372420  0.944684  0.000000  1
  Fe  Fe6  1  0.273758  0.154103  0.000000  1
  Fe  Fe7  1  0.844493  0.120708  0.000000  1
  Fe  Fe8  1  0.880065  0.726546  0.000000  1
  Fe  Fe9  1  0.437708  0.381601  0.500000  1
  Fe  Fe10  1  0.619839  0.056407  0.500000  1
  Fe  Fe11  1  0.944753  0.562599  0.500000  1
  Fe  Fe12  1  0.098714  0.217463  0.500000  1
  Fe  Fe13  1  0.779011  0.879076  0.500000  1
  P  P14  1  0.297587  0.409864  0.000000  1
  P  P15  1  0.589272  0.886989  0.000000  1
  P  P16  1  0.112638  0.699690  0.000000  1
  P  P17  1  0.410543  0.118221  0.500000  1
  P  P18  1  0.886587  0.290371  0.500000  1
  P  P19  1  0.709169  0.596001  0.500000  1
  P  P20  1  0.997634  0.001858  0.000000  1
