# generated using pymatgen
data_LiTb8Al(Si6Pd)2
_symmetry_space_group_name_H-M   'P 1'
_cell_length_a   8.16960100
_cell_length_b   8.16959901
_cell_length_c   8.13377300
_cell_angle_alpha   90.00000000
_cell_angle_beta   90.00000000
_cell_angle_gamma   120.00000399
_symmetry_Int_Tables_number   1
_chemical_formula_structural   LiTb8Al(Si6Pd)2
_chemical_formula_sum   'Li1 Tb8 Al1 Si12 Pd2'
_cell_volume   470.13680222
_cell_formula_units_Z   1
loop_
 _symmetry_equiv_pos_site_id
 _symmetry_equiv_pos_as_xyz
  1  'x, y, z'
loop_
 _atom_site_type_symbol
 _atom_site_label
 _atom_site_symmetry_multiplicity
 _atom_site_fract_x
 _atom_site_fract_y
 _atom_site_fract_z
 _atom_site_occupancy
  Li  Li0  1  0.333333  0.666667  0.004790  1
  Tb  Tb1  1  0.500945  0.001889  0.249509  1
  Tb  Tb2  1  0.499076  0.998154  0.750393  1
  Tb  Tb3  1  0.998111  0.499055  0.249509  1
  Tb  Tb4  1  0.001846  0.500924  0.750393  1
  Tb  Tb5  1  0.500945  0.499055  0.249509  1
  Tb  Tb6  1  0.499076  0.500924  0.750393  1
  Tb  Tb7  1  0.000000  0.000000  0.249045  1
  Tb  Tb8  1  0.000000  0.000000  0.751253  1
  Al  Al9  1  0.666667  0.333333  0.995091  1
  Si  Si10  1  0.170052  0.340103  0.998551  1
  Si  Si11  1  0.836980  0.673961  0.001773  1
  Si  Si12  1  0.659897  0.829948  0.998551  1
  Si  Si13  1  0.834018  0.668036  0.501153  1
  Si  Si14  1  0.326039  0.163020  0.001773  1
  Si  Si15  1  0.165898  0.331795  0.498718  1
  Si  Si16  1  0.170052  0.829948  0.998551  1
  Si  Si17  1  0.331964  0.165982  0.501153  1
  Si  Si18  1  0.836980  0.163020  0.001773  1
  Si  Si19  1  0.668205  0.834102  0.498718  1
  Si  Si20  1  0.834018  0.165982  0.501153  1
  Si  Si21  1  0.165898  0.834102  0.498718  1
  Pd  Pd22  1  0.666667  0.333333  0.501550  1
  Pd  Pd23  1  0.333333  0.666667  0.497978  1
