# generated using pymatgen
data_AgPd2I3Cl8
_symmetry_space_group_name_H-M   'P 1'
_cell_length_a   8.23729831
_cell_length_b   8.23729824
_cell_length_c   8.64970759
_cell_angle_alpha   87.26153776
_cell_angle_beta   92.73846398
_cell_angle_gamma   98.63272482
_symmetry_Int_Tables_number   1
_chemical_formula_structural   AgPd2I3Cl8
_chemical_formula_sum   'Ag1 Pd2 I3 Cl8'
_cell_volume   579.10731334
_cell_formula_units_Z   1
loop_
 _symmetry_equiv_pos_site_id
 _symmetry_equiv_pos_as_xyz
  1  'x, y, z'
loop_
 _atom_site_type_symbol
 _atom_site_label
 _atom_site_symmetry_multiplicity
 _atom_site_fract_x
 _atom_site_fract_y
 _atom_site_fract_z
 _atom_site_occupancy
  Ag  Ag0  1  0.136091  0.636091  0.250000  1
  Pd  Pd1  1  0.006814  0.995429  0.015742  1
  Pd  Pd2  1  0.495429  0.506814  0.484258  1
  I  I3  1  0.852720  0.352720  0.750000  1
  I  I4  1  0.598250  0.098250  0.250000  1
  I  I5  1  0.400470  0.900470  0.750000  1
  Cl  Cl6  1  0.239204  0.099953  0.877518  1
  Cl  Cl7  1  0.391906  0.279445  0.337436  1
  Cl  Cl8  1  0.599953  0.739204  0.622482  1
  Cl  Cl9  1  0.779445  0.891906  0.162564  1
  Cl  Cl10  1  0.764777  0.456763  0.475967  1
  Cl  Cl11  1  0.956763  0.264777  0.024033  1
  Cl  Cl12  1  0.052753  0.725428  0.997625  1
  Cl  Cl13  1  0.225428  0.552753  0.502375  1
