# generated using pymatgen
data_La2Tb(Ga2Ni3)3
_symmetry_space_group_name_H-M   'P 1'
_cell_length_a   4.11260700
_cell_length_b   8.86905310
_cell_length_c   8.91340789
_cell_angle_alpha   119.83551832
_cell_angle_beta   90.00000000
_cell_angle_gamma   90.00000000
_symmetry_Int_Tables_number   1
_chemical_formula_structural   La2Tb(Ga2Ni3)3
_chemical_formula_sum   'La2 Tb1 Ga6 Ni9'
_cell_volume   282.02415442
_cell_formula_units_Z   1
loop_
 _symmetry_equiv_pos_site_id
 _symmetry_equiv_pos_as_xyz
  1  'x, y, z'
loop_
 _atom_site_type_symbol
 _atom_site_label
 _atom_site_symmetry_multiplicity
 _atom_site_fract_x
 _atom_site_fract_y
 _atom_site_fract_z
 _atom_site_occupancy
  La  La0  1  0.500000  0.332675  0.665849  1
  La  La1  1  0.500000  0.666828  0.334151  1
  Tb  Tb2  1  0.000000  0.998106  0.000000  1
  Ga  Ga3  1  0.000000  0.523474  0.000000  1
  Ga  Ga4  1  0.000000  0.477524  0.476302  1
  Ga  Ga5  1  0.000000  0.001222  0.523698  1
  Ga  Ga6  1  0.500000  0.266342  0.000000  1
  Ga  Ga7  1  0.500000  0.733752  0.734133  1
  Ga  Ga8  1  0.500000  0.999618  0.265867  1
  Ni  Ni9  1  0.000000  0.168781  0.365346  1
  Ni  Ni10  1  0.000000  0.197168  0.831470  1
  Ni  Ni11  1  0.000000  0.631896  0.800092  1
  Ni  Ni12  1  0.000000  0.803436  0.634654  1
  Ni  Ni13  1  0.000000  0.365698  0.168530  1
  Ni  Ni14  1  0.000000  0.831805  0.199908  1
  Ni  Ni15  1  0.500000  0.712619  0.000000  1
  Ni  Ni16  1  0.500000  0.288236  0.287515  1
  Ni  Ni17  1  0.500000  0.000720  0.712485  1
