# generated using pymatgen
data_Rb8Er6BBr20
_symmetry_space_group_name_H-M   'P 1'
_cell_length_a   12.28422482
_cell_length_b   12.28422408
_cell_length_c   12.28422400
_cell_angle_alpha   60.00000022
_cell_angle_beta   60.00000222
_cell_angle_gamma   60.00000103
_symmetry_Int_Tables_number   1
_chemical_formula_structural   Rb8Er6BBr20
_chemical_formula_sum   'Rb8 Er6 B1 Br20'
_cell_volume   1310.77523292
_cell_formula_units_Z   1
loop_
 _symmetry_equiv_pos_site_id
 _symmetry_equiv_pos_as_xyz
  1  'x, y, z'
loop_
 _atom_site_type_symbol
 _atom_site_label
 _atom_site_symmetry_multiplicity
 _atom_site_fract_x
 _atom_site_fract_y
 _atom_site_fract_z
 _atom_site_occupancy
  Rb  Rb0  1  0.359821  0.359821  0.359821  1
  Rb  Rb1  1  0.640179  0.640179  0.640179  1
  Rb  Rb2  1  0.359821  0.359821  0.920537  1
  Rb  Rb3  1  0.359821  0.920537  0.359821  1
  Rb  Rb4  1  0.640179  0.640179  0.079463  1
  Rb  Rb5  1  0.640179  0.079463  0.640179  1
  Rb  Rb6  1  0.920537  0.359821  0.359821  1
  Rb  Rb7  1  0.079463  0.640179  0.640179  1
  Er  Er8  1  0.851002  0.148998  0.148998  1
  Er  Er9  1  0.148998  0.851002  0.851002  1
  Er  Er10  1  0.148998  0.851002  0.148998  1
  Er  Er11  1  0.851002  0.148998  0.851002  1
  Er  Er12  1  0.148998  0.148998  0.851002  1
  Er  Er13  1  0.851002  0.851002  0.148998  1
  B  B14  1  0.000000  0.000000  0.000000  1
  Br  Br15  1  0.326440  0.000000  0.000000  1
  Br  Br16  1  0.673560  0.000000  0.000000  1
  Br  Br17  1  0.000000  0.326440  0.673560  1
  Br  Br18  1  0.000000  0.673560  0.326440  1
  Br  Br19  1  0.000000  0.326440  0.000000  1
  Br  Br20  1  0.673560  0.000000  0.326440  1
  Br  Br21  1  0.000000  0.673560  0.000000  1
  Br  Br22  1  0.326440  0.000000  0.673560  1
  Br  Br23  1  0.000000  0.000000  0.326440  1
  Br  Br24  1  0.000000  0.000000  0.673560  1
  Br  Br25  1  0.673560  0.326440  0.000000  1
  Br  Br26  1  0.326440  0.673560  0.000000  1
  Br  Br27  1  0.684836  0.315164  0.315164  1
  Br  Br28  1  0.315164  0.684836  0.684836  1
  Br  Br29  1  0.315164  0.684836  0.315164  1
  Br  Br30  1  0.684836  0.315164  0.684836  1
  Br  Br31  1  0.315164  0.315164  0.684836  1
  Br  Br32  1  0.684836  0.684836  0.315164  1
  Br  Br33  1  0.250000  0.250000  0.250000  1
  Br  Br34  1  0.750000  0.750000  0.750000  1
