# generated using pymatgen
data_Er2Ga10Tc2Rh
_symmetry_space_group_name_H-M   'P 1'
_cell_length_a   9.04754100
_cell_length_b   9.04754100
_cell_length_c   6.28532600
_cell_angle_alpha   90.00000000
_cell_angle_beta   90.00000000
_cell_angle_gamma   90.00000000
_symmetry_Int_Tables_number   1
_chemical_formula_structural   Er2Ga10Tc2Rh
_chemical_formula_sum   'Er4 Ga20 Tc4 Rh2'
_cell_volume   514.50420406
_cell_formula_units_Z   2
loop_
 _symmetry_equiv_pos_site_id
 _symmetry_equiv_pos_as_xyz
  1  'x, y, z'
loop_
 _atom_site_type_symbol
 _atom_site_label
 _atom_site_symmetry_multiplicity
 _atom_site_fract_x
 _atom_site_fract_y
 _atom_site_fract_z
 _atom_site_occupancy
  Er  Er0  1  0.682742  0.182742  0.000000  1
  Er  Er1  1  0.317258  0.817258  0.000000  1
  Er  Er2  1  0.817258  0.682742  0.000000  1
  Er  Er3  1  0.182742  0.317258  0.000000  1
  Ga  Ga4  1  0.939526  0.207327  0.291144  1
  Ga  Ga5  1  0.707327  0.439526  0.291144  1
  Ga  Ga6  1  0.500000  0.000000  0.286123  1
  Ga  Ga7  1  0.560474  0.707327  0.708856  1
  Ga  Ga8  1  0.292673  0.560474  0.708856  1
  Ga  Ga9  1  0.792673  0.939526  0.291144  1
  Ga  Ga10  1  0.939526  0.207327  0.708856  1
  Ga  Ga11  1  0.292673  0.560474  0.291144  1
  Ga  Ga12  1  0.060474  0.792673  0.291144  1
  Ga  Ga13  1  0.707327  0.439526  0.708856  1
  Ga  Ga14  1  0.439526  0.292673  0.708856  1
  Ga  Ga15  1  0.060474  0.792673  0.708856  1
  Ga  Ga16  1  0.207327  0.060474  0.708856  1
  Ga  Ga17  1  0.792673  0.939526  0.708856  1
  Ga  Ga18  1  0.207327  0.060474  0.291144  1
  Ga  Ga19  1  0.000000  0.500000  0.713877  1
  Ga  Ga20  1  0.000000  0.500000  0.286123  1
  Ga  Ga21  1  0.560474  0.707327  0.291144  1
  Ga  Ga22  1  0.439526  0.292673  0.291144  1
  Ga  Ga23  1  0.500000  0.000000  0.713877  1
  Tc  Tc24  1  0.679347  0.179347  0.500000  1
  Tc  Tc25  1  0.820653  0.679347  0.500000  1
  Tc  Tc26  1  0.179347  0.320653  0.500000  1
  Tc  Tc27  1  0.320653  0.820653  0.500000  1
  Rh  Rh28  1  0.000000  0.000000  0.000000  1
  Rh  Rh29  1  0.500000  0.500000  0.000000  1
