# generated using pymatgen
data_Ce3Y(SnRh2)2
_symmetry_space_group_name_H-M   'P 1'
_cell_length_a   7.60243496
_cell_length_b   7.60243572
_cell_length_c   3.76485200
_cell_angle_alpha   90.00000000
_cell_angle_beta   90.00000000
_cell_angle_gamma   88.22890199
_symmetry_Int_Tables_number   1
_chemical_formula_structural   Ce3Y(SnRh2)2
_chemical_formula_sum   'Ce3 Y1 Sn2 Rh4'
_cell_volume   217.49328693
_cell_formula_units_Z   1
loop_
 _symmetry_equiv_pos_site_id
 _symmetry_equiv_pos_as_xyz
  1  'x, y, z'
loop_
 _atom_site_type_symbol
 _atom_site_label
 _atom_site_symmetry_multiplicity
 _atom_site_fract_x
 _atom_site_fract_y
 _atom_site_fract_z
 _atom_site_occupancy
  Ce  Ce0  1  0.327895  0.827895  0.500000  1
  Ce  Ce1  1  0.169832  0.325054  0.500000  1
  Ce  Ce2  1  0.825054  0.669832  0.500000  1
  Y  Y3  1  0.671849  0.171849  0.500000  1
  Sn  Sn4  1  0.993298  0.000005  0.000000  1
  Sn  Sn5  1  0.500005  0.493298  0.000000  1
  Rh  Rh6  1  0.144193  0.644193  0.000000  1
  Rh  Rh7  1  0.880182  0.380182  0.000000  1
  Rh  Rh8  1  0.631558  0.856134  0.000000  1
  Rh  Rh9  1  0.356134  0.131558  0.000000  1
