# generated using pymatgen
data_Dy5YMoO12
_symmetry_space_group_name_H-M   'P 1'
_cell_length_a   6.48656277
_cell_length_b   6.48504985
_cell_length_c   6.48140396
_cell_angle_alpha   98.54611685
_cell_angle_beta   98.56938293
_cell_angle_gamma   98.60528265
_symmetry_Int_Tables_number   1
_chemical_formula_structural   Dy5YMoO12
_chemical_formula_sum   'Dy5 Y1 Mo1 O12'
_cell_volume   262.46194459
_cell_formula_units_Z   1
loop_
 _symmetry_equiv_pos_site_id
 _symmetry_equiv_pos_as_xyz
  1  'x, y, z'
loop_
 _atom_site_type_symbol
 _atom_site_label
 _atom_site_symmetry_multiplicity
 _atom_site_fract_x
 _atom_site_fract_y
 _atom_site_fract_z
 _atom_site_occupancy
  Dy  Dy0  1  0.612471  0.315598  0.144443  1
  Dy  Dy1  1  0.144076  0.612273  0.315389  1
  Dy  Dy2  1  0.684655  0.855854  0.387818  1
  Dy  Dy3  1  0.315663  0.144437  0.612260  1
  Dy  Dy4  1  0.855758  0.387450  0.684324  1
  Y  Y5  1  0.388339  0.684753  0.855794  1
  Mo  Mo6  1  0.000103  0.000191  0.000170  1
  O  O7  1  0.703076  0.926512  0.034498  1
  O  O8  1  0.966352  0.297251  0.074187  1
  O  O9  1  0.433299  0.591070  0.177465  1
  O  O10  1  0.074207  0.966205  0.297247  1
  O  O11  1  0.822602  0.566847  0.408920  1
  O  O12  1  0.591134  0.177202  0.433245  1
  O  O13  1  0.408688  0.822821  0.566339  1
  O  O14  1  0.176880  0.432592  0.590117  1
  O  O15  1  0.925794  0.033797  0.702870  1
  O  O16  1  0.567166  0.407641  0.822607  1
  O  O17  1  0.032683  0.703021  0.925973  1
  O  O18  1  0.297057  0.074483  0.966334  1
