# generated using pymatgen
data_Lu20TlBi11
_symmetry_space_group_name_H-M   'P 1'
_cell_length_a   8.11414071
_cell_length_b   9.40922700
_cell_length_c   11.77826838
_cell_angle_alpha   90.00000000
_cell_angle_beta   89.73342905
_cell_angle_gamma   90.00000000
_symmetry_Int_Tables_number   1
_chemical_formula_structural   Lu20TlBi11
_chemical_formula_sum   'Lu20 Tl1 Bi11'
_cell_volume   899.23505012
_cell_formula_units_Z   1
loop_
 _symmetry_equiv_pos_site_id
 _symmetry_equiv_pos_as_xyz
  1  'x, y, z'
loop_
 _atom_site_type_symbol
 _atom_site_label
 _atom_site_symmetry_multiplicity
 _atom_site_fract_x
 _atom_site_fract_y
 _atom_site_fract_z
 _atom_site_occupancy
  Lu  Lu0  1  0.030283  0.250000  0.509420  1
  Lu  Lu1  1  0.977549  0.750000  0.489386  1
  Lu  Lu2  1  0.477097  0.750000  0.010376  1
  Lu  Lu3  1  0.524063  0.250000  0.990236  1
  Lu  Lu4  1  0.352659  0.250000  0.285943  1
  Lu  Lu5  1  0.648144  0.750000  0.718361  1
  Lu  Lu6  1  0.148552  0.750000  0.782847  1
  Lu  Lu7  1  0.853404  0.250000  0.215843  1
  Lu  Lu8  1  0.192767  0.250000  0.780895  1
  Lu  Lu9  1  0.807933  0.750000  0.215789  1
  Lu  Lu10  1  0.310818  0.750000  0.283184  1
  Lu  Lu11  1  0.685765  0.250000  0.714408  1
  Lu  Lu12  1  0.192277  0.067775  0.059174  1
  Lu  Lu13  1  0.807978  0.932267  0.941693  1
  Lu  Lu14  1  0.306499  0.938861  0.559030  1
  Lu  Lu15  1  0.807978  0.567733  0.941693  1
  Lu  Lu16  1  0.689737  0.070227  0.442922  1
  Lu  Lu17  1  0.192277  0.432225  0.059174  1
  Lu  Lu18  1  0.689737  0.429773  0.442922  1
  Lu  Lu19  1  0.306499  0.561139  0.559030  1
  Tl  Tl20  1  0.403603  0.250000  0.542721  1
  Bi  Bi21  1  0.596293  0.750000  0.457246  1
  Bi  Bi22  1  0.098021  0.750000  0.044094  1
  Bi  Bi23  1  0.903133  0.250000  0.954048  1
  Bi  Bi24  1  0.061104  0.001959  0.322704  1
  Bi  Bi25  1  0.937484  0.997026  0.676145  1
  Bi  Bi26  1  0.437538  0.996507  0.825037  1
  Bi  Bi27  1  0.937484  0.502974  0.676145  1
  Bi  Bi28  1  0.562341  0.003795  0.175896  1
  Bi  Bi29  1  0.061104  0.498041  0.322704  1
  Bi  Bi30  1  0.562341  0.496205  0.175896  1
  Bi  Bi31  1  0.437538  0.503493  0.825037  1
