# generated using pymatgen
data_RuPtPb2O7
_symmetry_space_group_name_H-M   'P 1'
_cell_length_a   7.37398174
_cell_length_b   7.37398213
_cell_length_c   7.43204400
_cell_angle_alpha   59.73919046
_cell_angle_beta   59.73918867
_cell_angle_gamma   59.57109920
_symmetry_Int_Tables_number   1
_chemical_formula_structural   RuPtPb2O7
_chemical_formula_sum   'Ru2 Pt2 Pb4 O14'
_cell_volume   283.69890168
_cell_formula_units_Z   2
loop_
 _symmetry_equiv_pos_site_id
 _symmetry_equiv_pos_as_xyz
  1  'x, y, z'
loop_
 _atom_site_type_symbol
 _atom_site_label
 _atom_site_symmetry_multiplicity
 _atom_site_fract_x
 _atom_site_fract_y
 _atom_site_fract_z
 _atom_site_occupancy
  Ru  Ru0  1  0.625000  0.625000  0.125000  1
  Ru  Ru1  1  0.625000  0.625000  0.625000  1
  Pt  Pt2  1  0.625000  0.125000  0.625000  1
  Pt  Pt3  1  0.125000  0.625000  0.625000  1
  Pb  Pb4  1  0.125000  0.125000  0.125000  1
  Pb  Pb5  1  0.625000  0.125000  0.125000  1
  Pb  Pb6  1  0.125000  0.625000  0.125000  1
  Pb  Pb7  1  0.125000  0.125000  0.625000  1
  O  O8  1  0.703825  0.299072  0.293572  1
  O  O9  1  0.703825  0.299072  0.703530  1
  O  O10  1  0.006299  0.006299  0.993701  1
  O  O11  1  0.299072  0.703825  0.293572  1
  O  O12  1  0.698973  0.698973  0.301027  1
  O  O13  1  0.950928  0.546175  0.546470  1
  O  O14  1  0.299072  0.703825  0.703530  1
  O  O15  1  0.243701  0.243701  0.256299  1
  O  O16  1  0.950928  0.546175  0.956428  1
  O  O17  1  0.546175  0.950928  0.546470  1
  O  O18  1  0.551027  0.551027  0.948973  1
  O  O19  1  0.957055  0.957055  0.542945  1
  O  O20  1  0.546175  0.950928  0.956428  1
  O  O21  1  0.292945  0.292945  0.707055  1
