# generated using pymatgen
data_LaTb8Yb11Sn16
_symmetry_space_group_name_H-M   'P 1'
_cell_length_a   7.86737901
_cell_length_b   8.44017610
_cell_length_c   16.10727800
_cell_angle_alpha   90.00839053
_cell_angle_beta   90.00240329
_cell_angle_gamma   90.00319022
_symmetry_Int_Tables_number   1
_chemical_formula_structural   LaTb8Yb11Sn16
_chemical_formula_sum   'La1 Tb8 Yb11 Sn16'
_cell_volume   1069.55649526
_cell_formula_units_Z   1
loop_
 _symmetry_equiv_pos_site_id
 _symmetry_equiv_pos_as_xyz
  1  'x, y, z'
loop_
 _atom_site_type_symbol
 _atom_site_label
 _atom_site_symmetry_multiplicity
 _atom_site_fract_x
 _atom_site_fract_y
 _atom_site_fract_z
 _atom_site_occupancy
  La  La0  1  0.504121  0.683887  0.593185  1
  Tb  Tb1  1  0.670071  0.168235  0.622393  1
  Tb  Tb2  1  0.170131  0.332531  0.878327  1
  Tb  Tb3  1  0.329141  0.833017  0.122270  1
  Tb  Tb4  1  0.829568  0.667174  0.377500  1
  Tb  Tb5  1  0.328510  0.833131  0.376693  1
  Tb  Tb6  1  0.829207  0.667022  0.122154  1
  Tb  Tb7  1  0.671138  0.167162  0.877920  1
  Tb  Tb8  1  0.169388  0.331848  0.622097  1
  Yb  Yb9  1  0.002909  0.812869  0.907550  1
  Yb  Yb10  1  0.497009  0.313186  0.093052  1
  Yb  Yb11  1  0.997796  0.187177  0.406569  1
  Yb  Yb12  1  0.496906  0.314284  0.406321  1
  Yb  Yb13  1  0.996928  0.187268  0.093131  1
  Yb  Yb14  1  0.502830  0.686933  0.906776  1
  Yb  Yb15  1  0.003132  0.813720  0.592618  1
  Yb  Yb16  1  0.833982  0.509894  0.751231  1
  Yb  Yb17  1  0.332690  0.990241  0.750881  1
  Yb  Yb18  1  0.166662  0.488772  0.249873  1
  Yb  Yb19  1  0.666869  0.011072  0.249747  1
  Sn  Sn20  1  0.672229  0.964777  0.460011  1
  Sn  Sn21  1  0.172358  0.535821  0.040141  1
  Sn  Sn22  1  0.328336  0.034963  0.959393  1
  Sn  Sn23  1  0.828438  0.463393  0.540103  1
  Sn  Sn24  1  0.327736  0.035061  0.540564  1
  Sn  Sn25  1  0.827827  0.464648  0.959526  1
  Sn  Sn26  1  0.671988  0.964784  0.040404  1
  Sn  Sn27  1  0.173862  0.536620  0.459859  1
  Sn  Sn28  1  0.467842  0.377205  0.749815  1
  Sn  Sn29  1  0.967882  0.123537  0.749670  1
  Sn  Sn30  1  0.531422  0.622715  0.249832  1
  Sn  Sn31  1  0.031211  0.877156  0.249807  1
  Sn  Sn32  1  0.713299  0.871073  0.750275  1
  Sn  Sn33  1  0.213231  0.628210  0.750100  1
  Sn  Sn34  1  0.286881  0.128582  0.250027  1
  Sn  Sn35  1  0.786473  0.372033  0.250183  1
