# generated using pymatgen
data_NaSr2AlAs3
_symmetry_space_group_name_H-M   'P 1'
_cell_length_a   8.39670886
_cell_length_b   8.39671032
_cell_length_c   11.88117439
_cell_angle_alpha   76.25054405
_cell_angle_beta   76.25054356
_cell_angle_gamma   67.95300303
_symmetry_Int_Tables_number   1
_chemical_formula_structural   NaSr2AlAs3
_chemical_formula_sum   'Na4 Sr8 Al4 As12'
_cell_volume   743.85157555
_cell_formula_units_Z   4
loop_
 _symmetry_equiv_pos_site_id
 _symmetry_equiv_pos_as_xyz
  1  'x, y, z'
loop_
 _atom_site_type_symbol
 _atom_site_label
 _atom_site_symmetry_multiplicity
 _atom_site_fract_x
 _atom_site_fract_y
 _atom_site_fract_z
 _atom_site_occupancy
  Na  Na0  1  0.299354  0.700646  0.000000  1
  Na  Na1  1  0.357098  0.357098  0.231626  1
  Na  Na2  1  0.642902  0.642902  0.768374  1
  Na  Na3  1  0.700646  0.299354  0.000000  1
  Sr  Sr4  1  0.748469  0.192658  0.685294  1
  Sr  Sr5  1  0.251531  0.807342  0.314706  1
  Sr  Sr6  1  0.192658  0.748469  0.685294  1
  Sr  Sr7  1  0.500000  0.000000  0.500000  1
  Sr  Sr8  1  0.807342  0.251531  0.314706  1
  Sr  Sr9  1  0.000000  0.500000  0.000000  1
  Sr  Sr10  1  0.500000  0.000000  0.000000  1
  Sr  Sr11  1  0.000000  0.500000  0.500000  1
  Al  Al12  1  0.697993  0.697993  0.266982  1
  Al  Al13  1  0.090266  0.090266  0.882350  1
  Al  Al14  1  0.909734  0.909734  0.117650  1
  Al  Al15  1  0.302007  0.302007  0.733018  1
  As  As16  1  0.025197  0.608944  0.228564  1
  As  As17  1  0.589346  0.589346  0.135200  1
  As  As18  1  0.974803  0.391056  0.771436  1
  As  As19  1  0.094161  0.094161  0.485030  1
  As  As20  1  0.592760  0.592760  0.489658  1
  As  As21  1  0.908161  0.908161  0.902870  1
  As  As22  1  0.091839  0.091839  0.097130  1
  As  As23  1  0.410654  0.410654  0.864800  1
  As  As24  1  0.608944  0.025197  0.228564  1
  As  As25  1  0.905839  0.905839  0.514970  1
  As  As26  1  0.391056  0.974803  0.771436  1
  As  As27  1  0.407240  0.407240  0.510342  1
