# generated using pymatgen
data_TmNp3(GeIr)4
_symmetry_space_group_name_H-M   'P 1'
_cell_length_a   4.36222100
_cell_length_b   6.78450537
_cell_length_c   7.61139498
_cell_angle_alpha   89.59228332
_cell_angle_beta   90.00000000
_cell_angle_gamma   90.00000000
_symmetry_Int_Tables_number   1
_chemical_formula_structural   TmNp3(GeIr)4
_chemical_formula_sum   'Tm1 Np3 Ge4 Ir4'
_cell_volume   225.25742648
_cell_formula_units_Z   1
loop_
 _symmetry_equiv_pos_site_id
 _symmetry_equiv_pos_as_xyz
  1  'x, y, z'
loop_
 _atom_site_type_symbol
 _atom_site_label
 _atom_site_symmetry_multiplicity
 _atom_site_fract_x
 _atom_site_fract_y
 _atom_site_fract_z
 _atom_site_occupancy
  Tm  Tm0  1  0.750000  0.011213  0.202409  1
  Np  Np1  1  0.250000  0.487595  0.705189  1
  Np  Np2  1  0.250000  0.989276  0.798062  1
  Np  Np3  1  0.750000  0.512978  0.294416  1
  Ge  Ge4  1  0.250000  0.823331  0.414233  1
  Ge  Ge5  1  0.250000  0.313266  0.085860  1
  Ge  Ge6  1  0.750000  0.175679  0.580440  1
  Ge  Ge7  1  0.750000  0.683309  0.918173  1
  Ir  Ir8  1  0.250000  0.225895  0.416434  1
  Ir  Ir9  1  0.250000  0.724433  0.085583  1
  Ir  Ir10  1  0.750000  0.779291  0.592981  1
  Ir  Ir11  1  0.750000  0.273735  0.906220  1
