# generated using pymatgen
data_La20Tc3Bi8Au
_symmetry_space_group_name_H-M   'P 1'
_cell_length_a   8.40300330
_cell_length_b   9.59475900
_cell_length_c   12.98886800
_cell_angle_alpha   90.00000000
_cell_angle_beta   90.16131201
_cell_angle_gamma   90.00000000
_symmetry_Int_Tables_number   1
_chemical_formula_structural   La20Tc3Bi8Au
_chemical_formula_sum   'La20 Tc3 Bi8 Au1'
_cell_volume   1047.22062482
_cell_formula_units_Z   1
loop_
 _symmetry_equiv_pos_site_id
 _symmetry_equiv_pos_as_xyz
  1  'x, y, z'
loop_
 _atom_site_type_symbol
 _atom_site_label
 _atom_site_symmetry_multiplicity
 _atom_site_fract_x
 _atom_site_fract_y
 _atom_site_fract_z
 _atom_site_occupancy
  La  La0  1  0.834742  0.750000  0.779473  1
  La  La1  1  0.153802  0.250000  0.208854  1
  La  La2  1  0.344532  0.250000  0.707471  1
  La  La3  1  0.649567  0.750000  0.299066  1
  La  La4  1  0.374848  0.750000  0.696908  1
  La  La5  1  0.621318  0.250000  0.306255  1
  La  La6  1  0.876710  0.250000  0.806882  1
  La  La7  1  0.135782  0.750000  0.204885  1
  La  La8  1  0.953279  0.750000  0.499606  1
  La  La9  1  0.057147  0.250000  0.497445  1
  La  La10  1  0.449160  0.250000  0.998271  1
  La  La11  1  0.548074  0.750000  0.002295  1
  La  La12  1  0.676590  0.031654  0.562306  1
  La  La13  1  0.321881  0.966600  0.437092  1
  La  La14  1  0.181105  0.975611  0.933039  1
  La  La15  1  0.321881  0.533400  0.437092  1
  La  La16  1  0.817361  0.055223  0.065463  1
  La  La17  1  0.676590  0.468346  0.562306  1
  La  La18  1  0.817361  0.444777  0.065463  1
  La  La19  1  0.181105  0.524389  0.933039  1
  Tc  Tc20  1  0.593086  0.750000  0.518878  1
  Tc  Tc21  1  0.412731  0.250000  0.483933  1
  Tc  Tc22  1  0.087435  0.250000  0.985478  1
  Bi  Bi23  1  0.571480  0.492645  0.828853  1
  Bi  Bi24  1  0.428541  0.506786  0.172218  1
  Bi  Bi25  1  0.069975  0.506389  0.671402  1
  Bi  Bi26  1  0.428541  0.993214  0.172218  1
  Bi  Bi27  1  0.926963  0.493295  0.325846  1
  Bi  Bi28  1  0.571480  0.007355  0.828853  1
  Bi  Bi29  1  0.926963  0.006705  0.325846  1
  Bi  Bi30  1  0.069975  0.993611  0.671402  1
  Au  Au31  1  0.919995  0.750000  0.011856  1
