# generated using pymatgen
data_K4Cr3Fe5F24
_symmetry_space_group_name_H-M   'P 1'
_cell_length_a   10.14876585
_cell_length_b   7.04566149
_cell_length_c   7.47299831
_cell_angle_alpha   89.93084988
_cell_angle_beta   90.04880050
_cell_angle_gamma   89.99338589
_symmetry_Int_Tables_number   1
_chemical_formula_structural   K4Cr3Fe5F24
_chemical_formula_sum   'K4 Cr3 Fe5 F24'
_cell_volume   534.35442944
_cell_formula_units_Z   1
loop_
 _symmetry_equiv_pos_site_id
 _symmetry_equiv_pos_as_xyz
  1  'x, y, z'
loop_
 _atom_site_type_symbol
 _atom_site_label
 _atom_site_symmetry_multiplicity
 _atom_site_fract_x
 _atom_site_fract_y
 _atom_site_fract_z
 _atom_site_occupancy
  K  K0  1  0.113043  0.493147  0.246397  1
  K  K1  1  0.613082  0.006559  0.754266  1
  K  K2  1  0.886957  0.506853  0.753603  1
  K  K3  1  0.386918  0.993441  0.245734  1
  Cr  Cr4  1  0.000000  0.000000  0.500000  1
  Cr  Cr5  1  0.500000  0.500000  0.500000  1
  Cr  Cr6  1  0.500000  0.500000  0.000000  1
  Fe  Fe7  1  0.000000  0.000000  0.000000  1
  Fe  Fe8  1  0.729895  0.194995  0.250589  1
  Fe  Fe9  1  0.230171  0.305280  0.749651  1
  Fe  Fe10  1  0.270105  0.805005  0.749411  1
  Fe  Fe11  1  0.769829  0.694720  0.250349  1
  F  F12  1  0.826115  0.113779  0.999406  1
  F  F13  1  0.326675  0.385761  0.000042  1
  F  F14  1  0.173885  0.886221  0.000594  1
  F  F15  1  0.673325  0.614239  0.999958  1
  F  F16  1  0.175636  0.891865  0.501731  1
  F  F17  1  0.675493  0.607860  0.498204  1
  F  F18  1  0.824364  0.108135  0.498269  1
  F  F19  1  0.324507  0.392140  0.501796  1
  F  F20  1  0.656384  0.925727  0.246972  1
  F  F21  1  0.156358  0.574693  0.752316  1
  F  F22  1  0.343616  0.074273  0.753028  1
  F  F23  1  0.843642  0.425307  0.247684  1
  F  F24  1  0.975545  0.921055  0.748391  1
  F  F25  1  0.475380  0.578477  0.249997  1
  F  F26  1  0.024455  0.078945  0.251609  1
  F  F27  1  0.524620  0.421523  0.750003  1
  F  F28  1  0.925256  0.754625  0.062648  1
  F  F29  1  0.425208  0.744361  0.936859  1
  F  F30  1  0.074744  0.245375  0.937352  1
  F  F31  1  0.574792  0.255639  0.063141  1
  F  F32  1  0.429205  0.746343  0.565683  1
  F  F33  1  0.929050  0.753788  0.432947  1
  F  F34  1  0.570795  0.253657  0.434317  1
  F  F35  1  0.070950  0.246212  0.567053  1
