# generated using pymatgen
data_TbYZr2(Al3Rh)6
_symmetry_space_group_name_H-M   'P 1'
_cell_length_a   7.52941001
_cell_length_b   7.50768096
_cell_length_c   9.37708100
_cell_angle_alpha   90.00000000
_cell_angle_beta   90.00000000
_cell_angle_gamma   119.67196708
_symmetry_Int_Tables_number   1
_chemical_formula_structural   TbYZr2(Al3Rh)6
_chemical_formula_sum   'Tb1 Y1 Zr2 Al18 Rh6'
_cell_volume   460.56521744
_cell_formula_units_Z   1
loop_
 _symmetry_equiv_pos_site_id
 _symmetry_equiv_pos_as_xyz
  1  'x, y, z'
loop_
 _atom_site_type_symbol
 _atom_site_label
 _atom_site_symmetry_multiplicity
 _atom_site_fract_x
 _atom_site_fract_y
 _atom_site_fract_z
 _atom_site_occupancy
  Tb  Tb0  1  0.670775  0.994129  0.250000  1
  Y  Y1  1  0.329196  0.005870  0.750000  1
  Zr  Zr2  1  0.994811  0.670674  0.250000  1
  Zr  Zr3  1  0.005219  0.329317  0.750000  1
  Al  Al4  1  0.125256  0.123011  0.250000  1
  Al  Al5  1  0.874822  0.877038  0.750000  1
  Al  Al6  1  0.999724  0.337575  0.074536  1
  Al  Al7  1  0.000325  0.662485  0.925459  1
  Al  Al8  1  0.000325  0.662485  0.574541  1
  Al  Al9  1  0.331637  0.997762  0.421930  1
  Al  Al10  1  0.999724  0.337575  0.425464  1
  Al  Al11  1  0.668313  0.002237  0.578130  1
  Al  Al12  1  0.668313  0.002237  0.921870  1
  Al  Al13  1  0.331637  0.997762  0.078070  1
  Al  Al14  1  0.330884  0.333479  0.554505  1
  Al  Al15  1  0.669122  0.666476  0.445525  1
  Al  Al16  1  0.669122  0.666476  0.054475  1
  Al  Al17  1  0.330884  0.333479  0.945495  1
  Al  Al18  1  0.333757  0.548662  0.250000  1
  Al  Al19  1  0.666211  0.451265  0.750000  1
  Al  Al20  1  0.555886  0.344495  0.250000  1
  Al  Al21  1  0.444060  0.655514  0.750000  1
  Rh  Rh22  1  0.672289  0.327700  0.999359  1
  Rh  Rh23  1  0.327649  0.672280  0.000527  1
  Rh  Rh24  1  0.327649  0.672280  0.499473  1
  Rh  Rh25  1  0.672289  0.327700  0.500641  1
  Rh  Rh26  1  0.000062  0.000018  0.999939  1
  Rh  Rh27  1  0.000062  0.000018  0.500061  1
