# generated using pymatgen
data_CeLuTh(SnIr)3
_symmetry_space_group_name_H-M   'P 1'
_cell_length_a   7.49218906
_cell_length_b   7.49553653
_cell_length_c   4.05489700
_cell_angle_alpha   90.00000000
_cell_angle_beta   90.00000000
_cell_angle_gamma   119.76302276
_symmetry_Int_Tables_number   1
_chemical_formula_structural   CeLuTh(SnIr)3
_chemical_formula_sum   'Ce1 Lu1 Th1 Sn3 Ir3'
_cell_volume   197.67604156
_cell_formula_units_Z   1
loop_
 _symmetry_equiv_pos_site_id
 _symmetry_equiv_pos_as_xyz
  1  'x, y, z'
loop_
 _atom_site_type_symbol
 _atom_site_label
 _atom_site_symmetry_multiplicity
 _atom_site_fract_x
 _atom_site_fract_y
 _atom_site_fract_z
 _atom_site_occupancy
  Ce  Ce0  1  0.999950  0.411496  0.500000  1
  Lu  Lu1  1  0.404468  0.000103  0.500000  1
  Th  Th2  1  0.587752  0.588051  0.500000  1
  Sn  Sn3  1  0.010799  0.751431  0.000000  1
  Sn  Sn4  1  0.252811  0.244971  0.000000  1
  Sn  Sn5  1  0.739592  0.003474  0.000000  1
  Ir  Ir6  1  0.333682  0.660623  0.000000  1
  Ir  Ir7  1  0.672649  0.340905  0.000000  1
  Ir  Ir8  1  0.998296  0.998946  0.500000  1
