# generated using pymatgen
data_Zr12Al5Zn7N4
_symmetry_space_group_name_H-M   'P 1'
_cell_length_a   8.66004391
_cell_length_b   8.66004474
_cell_length_c   8.66549386
_cell_angle_alpha   60.02079942
_cell_angle_beta   60.02079532
_cell_angle_gamma   59.99999853
_symmetry_Int_Tables_number   1
_chemical_formula_structural   Zr12Al5Zn7N4
_chemical_formula_sum   'Zr12 Al5 Zn7 N4'
_cell_volume   459.67935135
_cell_formula_units_Z   1
loop_
 _symmetry_equiv_pos_site_id
 _symmetry_equiv_pos_as_xyz
  1  'x, y, z'
loop_
 _atom_site_type_symbol
 _atom_site_label
 _atom_site_symmetry_multiplicity
 _atom_site_fract_x
 _atom_site_fract_y
 _atom_site_fract_z
 _atom_site_occupancy
  Zr  Zr0  1  0.816615  0.182371  0.184399  1
  Zr  Zr1  1  0.182371  0.816615  0.184399  1
  Zr  Zr2  1  0.816615  0.816615  0.184399  1
  Zr  Zr3  1  0.183329  0.816685  0.816657  1
  Zr  Zr4  1  0.816685  0.183329  0.816657  1
  Zr  Zr5  1  0.183329  0.183329  0.816657  1
  Zr  Zr6  1  0.433952  0.065593  0.066504  1
  Zr  Zr7  1  0.065593  0.433952  0.066504  1
  Zr  Zr8  1  0.433952  0.433952  0.066504  1
  Zr  Zr9  1  0.066674  0.433684  0.432967  1
  Zr  Zr10  1  0.433684  0.066674  0.432967  1
  Zr  Zr11  1  0.066674  0.066674  0.432967  1
  Al  Al12  1  0.417276  0.417276  0.748170  1
  Al  Al13  1  0.417359  0.417359  0.416769  1
  Al  Al14  1  0.748513  0.417359  0.416769  1
  Al  Al15  1  0.417359  0.748513  0.416769  1
  Al  Al16  1  0.831376  0.831376  0.505872  1
  Zn  Zn17  1  0.831744  0.831744  0.832211  1
  Zn  Zn18  1  0.504302  0.831744  0.832211  1
  Zn  Zn19  1  0.831744  0.504302  0.832211  1
  Zn  Zn20  1  0.625637  0.625637  0.123088  1
  Zn  Zn21  1  0.625293  0.625293  0.625856  1
  Zn  Zn22  1  0.123559  0.625293  0.625856  1
  Zn  Zn23  1  0.625293  0.123559  0.625856  1
  N  N24  1  0.124727  0.124727  0.625818  1
  N  N25  1  0.126026  0.126026  0.123654  1
  N  N26  1  0.624294  0.126026  0.123654  1
  N  N27  1  0.126026  0.624294  0.123654  1
